# DDEC6 charges by PACMAN v1.1 (https://github.com/mtap-research/PACMAN-charge/)
data_DEKNOZ_ASR_pacman
_symmetry_space_group_name_H-M   'P 1'
_cell_length_a   33.37120000
_cell_length_b   33.37120000
_cell_length_c   33.37120000
_cell_angle_alpha   60.00000000
_cell_angle_beta   60.00000000
_cell_angle_gamma   60.00000000
_symmetry_Int_Tables_number   1
_chemical_formula_structural   CuH20(C9O)4
_chemical_formula_sum   'Cu24 H480 C864 O96'
_cell_volume   26278.49406255
_cell_formula_units_Z   24
loop_
 _symmetry_equiv_pos_site_id
 _symmetry_equiv_pos_as_xyz
  1  'x, y, z'
loop_
 _atom_site_type_symbol
 _atom_site_label
 _atom_site_symmetry_multiplicity
 _atom_site_fract_x
 _atom_site_fract_y
 _atom_site_fract_z
 _atom_site_occupancy
 _atom_site_charge
Cu  Cu1  1  0.18680000  0.50000000  0.81320000  1.0 0.8184001674
Cu  Cu2  1  0.25940000  0.50000000  0.74060000  1.0 0.8572271922
Cu  Cu3  1  0.81320000  0.50000000  0.18680000  1.0 0.8108506618
Cu  Cu4  1  0.74060000  0.50000000  0.25940000  1.0 0.8572271922
Cu  Cu5  1  0.50000000  0.18680000  0.50000000  1.0 0.8184001674
Cu  Cu6  1  0.50000000  0.25940000  0.50000000  1.0 0.8572271922
Cu  Cu7  1  0.50000000  0.81320000  0.50000000  1.0 0.8108506618
Cu  Cu8  1  0.50000000  0.74060000  0.50000000  1.0 0.8519485253
Cu  Cu9  1  0.50000000  0.81320000  0.18680000  1.0 0.8108506618
Cu  Cu10  1  0.50000000  0.74060000  0.25940000  1.0 0.8572271922
Cu  Cu11  1  0.50000000  0.18680000  0.81320000  1.0 0.8184001674
Cu  Cu12  1  0.50000000  0.25940000  0.74060000  1.0 0.8519485253
Cu  Cu13  1  0.18680000  0.50000000  0.50000000  1.0 0.8184001674
Cu  Cu14  1  0.25940000  0.50000000  0.50000000  1.0 0.8572271922
Cu  Cu15  1  0.81320000  0.50000000  0.50000000  1.0 0.8184001674
Cu  Cu16  1  0.74060000  0.50000000  0.50000000  1.0 0.8572271922
Cu  Cu17  1  0.81320000  0.18680000  0.50000000  1.0 0.8184001674
Cu  Cu18  1  0.74060000  0.25940000  0.50000000  1.0 0.8572271922
Cu  Cu19  1  0.18680000  0.81320000  0.50000000  1.0 0.8108506618
Cu  Cu20  1  0.25940000  0.74060000  0.50000000  1.0 0.8519485253
Cu  Cu21  1  0.50000000  0.50000000  0.18680000  1.0 0.8108506618
Cu  Cu22  1  0.50000000  0.50000000  0.25940000  1.0 0.8572271922
Cu  Cu23  1  0.50000000  0.50000000  0.81320000  1.0 0.8184001674
Cu  Cu24  1  0.50000000  0.50000000  0.74060000  1.0 0.8572271922
H  H1  1  0.09072000  0.64634000  0.77138000  1.0 0.1406562676
H  H2  1  0.08823000  0.72325000  0.77747000  1.0 0.0935035681
H  H3  1  0.06494000  0.74576000  0.84632000  1.0 0.1200257366
H  H4  1  0.97982000  0.78542000  0.88598000  1.0 0.1200257366
H  H5  1  0.91802000  0.80256000  0.85678000  1.0 0.0935035681
H  H6  1  0.04319000  0.71697000  0.66275000  1.0 0.0968627326
H  H7  1  0.87296000  0.79628000  0.74206000  1.0 0.0968627326
H  H8  1  0.98136000  0.73412000  0.63356000  1.0 0.0968627326
H  H9  1  0.89627000  0.77377000  0.67321000  1.0 0.0935035681
H  H10  1  0.77138000  0.49156000  0.09072000  1.0 0.1406562676
H  H11  1  0.77747000  0.41105000  0.08823000  1.0 0.0935035681
H  H12  1  0.84632000  0.34298000  0.06494000  1.0 0.1200257366
H  H13  1  0.88598000  0.34878000  0.97982000  1.0 0.1200257366
H  H14  1  0.85678000  0.42264000  0.91802000  1.0 0.0935035681
H  H15  1  0.66275000  0.57709000  0.04319000  1.0 0.0968627326
H  H16  1  0.74206000  0.58870000  0.87296000  1.0 0.0968627326
H  H17  1  0.63356000  0.65096000  0.98136000  1.0 0.0968627326
H  H18  1  0.67321000  0.65675000  0.89627000  1.0 0.0935035681
H  H19  1  0.64634000  0.09072000  0.49156000  1.0 0.1406562676
H  H20  1  0.72325000  0.08823000  0.41105000  1.0 0.0935035681
H  H21  1  0.74576000  0.06494000  0.34298000  1.0 0.1200257366
H  H22  1  0.78542000  0.97982000  0.34878000  1.0 0.1200257366
H  H23  1  0.80256000  0.91802000  0.42264000  1.0 0.0935035681
H  H24  1  0.71697000  0.04319000  0.57709000  1.0 0.0968627326
H  H25  1  0.79628000  0.87296000  0.58870000  1.0 0.0968627326
H  H26  1  0.73412000  0.98136000  0.65096000  1.0 0.0968627326
H  H27  1  0.77377000  0.89627000  0.65675000  1.0 0.0935035681
H  H28  1  0.49156000  0.77138000  0.64634000  1.0 0.1406562676
H  H29  1  0.41105000  0.77747000  0.72325000  1.0 0.0935035681
H  H30  1  0.34298000  0.84632000  0.74576000  1.0 0.1200257366
H  H31  1  0.34878000  0.88598000  0.78542000  1.0 0.1200257366
H  H32  1  0.42264000  0.85678000  0.80256000  1.0 0.0935035681
H  H33  1  0.57709000  0.66275000  0.71697000  1.0 0.0968627326
H  H34  1  0.58870000  0.74206000  0.79628000  1.0 0.0968627326
H  H35  1  0.65096000  0.63356000  0.73412000  1.0 0.0968627326
H  H36  1  0.65675000  0.67321000  0.77377000  1.0 0.0935035681
H  H37  1  0.64634000  0.77138000  0.09072000  1.0 0.1406562676
H  H38  1  0.72325000  0.77747000  0.08823000  1.0 0.0935035681
H  H39  1  0.74576000  0.84632000  0.06494000  1.0 0.1200257366
H  H40  1  0.78542000  0.88598000  0.97982000  1.0 0.1200257366
H  H41  1  0.80256000  0.85678000  0.91802000  1.0 0.0935035681
H  H42  1  0.71697000  0.66275000  0.04319000  1.0 0.0968627326
H  H43  1  0.79628000  0.74206000  0.87296000  1.0 0.0968627326
H  H44  1  0.73412000  0.63356000  0.98136000  1.0 0.0968627326
H  H45  1  0.77377000  0.67321000  0.89627000  1.0 0.0935035681
H  H46  1  0.49156000  0.09072000  0.77138000  1.0 0.1406562676
H  H47  1  0.41105000  0.08823000  0.77747000  1.0 0.0935035681
H  H48  1  0.34298000  0.06494000  0.84632000  1.0 0.1200257366
H  H49  1  0.34878000  0.97982000  0.88598000  1.0 0.1200257366
H  H50  1  0.42264000  0.91802000  0.85678000  1.0 0.0935035681
H  H51  1  0.57709000  0.04319000  0.66275000  1.0 0.0968627326
H  H52  1  0.58870000  0.87296000  0.74206000  1.0 0.0968627326
H  H53  1  0.65096000  0.98136000  0.63356000  1.0 0.0968627326
H  H54  1  0.65675000  0.89627000  0.67321000  1.0 0.0935035681
H  H55  1  0.09072000  0.49156000  0.64634000  1.0 0.1406562676
H  H56  1  0.08823000  0.41105000  0.72325000  1.0 0.0935035681
H  H57  1  0.06494000  0.34298000  0.74576000  1.0 0.1200257366
H  H58  1  0.97982000  0.34878000  0.78542000  1.0 0.1200257366
H  H59  1  0.91802000  0.42264000  0.80256000  1.0 0.0935035681
H  H60  1  0.04319000  0.57709000  0.71697000  1.0 0.0968627326
H  H61  1  0.87296000  0.58870000  0.79628000  1.0 0.0968627326
H  H62  1  0.98136000  0.65096000  0.73412000  1.0 0.0968627326
H  H63  1  0.89627000  0.65675000  0.77377000  1.0 0.0935035681
H  H64  1  0.77138000  0.64634000  0.49156000  1.0 0.1406562676
H  H65  1  0.77747000  0.72325000  0.41105000  1.0 0.0935035681
H  H66  1  0.84632000  0.74576000  0.34298000  1.0 0.1200257366
H  H67  1  0.88598000  0.78542000  0.34878000  1.0 0.1200257366
H  H68  1  0.85678000  0.80256000  0.42264000  1.0 0.0935035681
H  H69  1  0.66275000  0.71697000  0.57709000  1.0 0.0968627326
H  H70  1  0.74206000  0.79628000  0.58870000  1.0 0.0968627326
H  H71  1  0.63356000  0.73412000  0.65096000  1.0 0.0968627326
H  H72  1  0.67321000  0.77377000  0.65675000  1.0 0.0935035681
H  H73  1  0.77138000  0.09072000  0.64634000  1.0 0.1406562676
H  H74  1  0.77747000  0.08823000  0.72325000  1.0 0.0935035681
H  H75  1  0.84632000  0.06494000  0.74576000  1.0 0.1200257366
H  H76  1  0.88598000  0.97982000  0.78542000  1.0 0.1200257366
H  H77  1  0.85678000  0.91802000  0.80256000  1.0 0.0935035681
H  H78  1  0.66275000  0.04319000  0.71697000  1.0 0.0968627326
H  H79  1  0.74206000  0.87296000  0.79628000  1.0 0.0968627326
H  H80  1  0.63356000  0.98136000  0.73412000  1.0 0.0968627326
H  H81  1  0.67321000  0.89627000  0.77377000  1.0 0.0935035681
H  H82  1  0.09072000  0.77138000  0.49156000  1.0 0.1406562676
H  H83  1  0.08823000  0.77747000  0.41105000  1.0 0.0935035681
H  H84  1  0.06494000  0.84632000  0.34298000  1.0 0.1200257366
H  H85  1  0.97982000  0.88598000  0.34878000  1.0 0.1200257366
H  H86  1  0.91802000  0.85678000  0.42264000  1.0 0.0935035681
H  H87  1  0.04319000  0.66275000  0.57709000  1.0 0.0968627326
H  H88  1  0.87296000  0.74206000  0.58870000  1.0 0.0968627326
H  H89  1  0.98136000  0.63356000  0.65096000  1.0 0.0968627326
H  H90  1  0.89627000  0.67321000  0.65675000  1.0 0.0935035681
H  H91  1  0.49156000  0.64634000  0.09072000  1.0 0.1406562676
H  H92  1  0.41105000  0.72325000  0.08823000  1.0 0.0935035681
H  H93  1  0.34298000  0.74576000  0.06494000  1.0 0.1200257366
H  H94  1  0.34878000  0.78542000  0.97982000  1.0 0.1200257366
H  H95  1  0.42264000  0.80256000  0.91802000  1.0 0.0935035681
H  H96  1  0.57709000  0.71697000  0.04319000  1.0 0.0968627326
H  H97  1  0.58870000  0.79628000  0.87296000  1.0 0.0968627326
H  H98  1  0.65096000  0.73412000  0.98136000  1.0 0.0968627326
H  H99  1  0.65675000  0.77377000  0.89627000  1.0 0.0935035681
H  H100  1  0.64634000  0.49156000  0.77138000  1.0 0.1406562676
H  H101  1  0.72325000  0.41105000  0.77747000  1.0 0.0935035681
H  H102  1  0.74576000  0.34298000  0.84632000  1.0 0.1200257366
H  H103  1  0.78542000  0.34878000  0.88598000  1.0 0.1200257366
H  H104  1  0.80256000  0.42264000  0.85678000  1.0 0.0935035681
H  H105  1  0.71697000  0.57709000  0.66275000  1.0 0.0968627326
H  H106  1  0.79628000  0.58870000  0.74206000  1.0 0.0968627326
H  H107  1  0.73412000  0.65096000  0.63356000  1.0 0.0968627326
H  H108  1  0.77377000  0.65675000  0.67321000  1.0 0.0935035681
H  H109  1  0.90928000  0.50844000  0.22862000  1.0 0.1406562676
H  H110  1  0.91177000  0.58895000  0.22253000  1.0 0.0935035681
H  H111  1  0.93506000  0.65702000  0.15368000  1.0 0.1200257366
H  H112  1  0.02018000  0.65122000  0.11402000  1.0 0.1200257366
H  H113  1  0.08198000  0.57736000  0.14322000  1.0 0.0935035681
H  H114  1  0.95681000  0.42291000  0.33725000  1.0 0.0968627326
H  H115  1  0.12704000  0.41130000  0.25794000  1.0 0.0968627326
H  H116  1  0.01864000  0.34904000  0.36644000  1.0 0.0968627326
H  H117  1  0.10373000  0.34325000  0.32679000  1.0 0.0935035681
H  H118  1  0.22862000  0.35366000  0.90928000  1.0 0.1406562676
H  H119  1  0.22253000  0.27675000  0.91177000  1.0 0.0935035681
H  H120  1  0.15368000  0.25424000  0.93506000  1.0 0.1200257366
H  H121  1  0.11402000  0.21458000  0.02018000  1.0 0.1200257366
H  H122  1  0.14322000  0.19744000  0.08198000  1.0 0.0935035681
H  H123  1  0.33725000  0.28303000  0.95681000  1.0 0.0968627326
H  H124  1  0.25794000  0.20372000  0.12704000  1.0 0.0968627326
H  H125  1  0.36644000  0.26588000  0.01864000  1.0 0.0968627326
H  H126  1  0.32679000  0.22623000  0.10373000  1.0 0.0935035681
H  H127  1  0.35366000  0.22862000  0.50844000  1.0 0.1406562676
H  H128  1  0.27675000  0.22253000  0.58895000  1.0 0.0935035681
H  H129  1  0.25424000  0.15368000  0.65702000  1.0 0.1200257366
H  H130  1  0.21458000  0.11402000  0.65122000  1.0 0.1200257366
H  H131  1  0.19744000  0.14322000  0.57736000  1.0 0.0935035681
H  H132  1  0.28303000  0.33725000  0.42291000  1.0 0.0968627326
H  H133  1  0.20372000  0.25794000  0.41130000  1.0 0.0968627326
H  H134  1  0.26588000  0.36644000  0.34904000  1.0 0.0968627326
H  H135  1  0.22623000  0.32679000  0.34325000  1.0 0.0935035681
H  H136  1  0.50844000  0.90928000  0.35366000  1.0 0.1406562676
H  H137  1  0.58895000  0.91177000  0.27675000  1.0 0.0935035681
H  H138  1  0.65702000  0.93506000  0.25424000  1.0 0.1200257366
H  H139  1  0.65122000  0.02018000  0.21458000  1.0 0.1200257366
H  H140  1  0.57736000  0.08198000  0.19744000  1.0 0.0935035681
H  H141  1  0.42291000  0.95681000  0.28303000  1.0 0.0968627326
H  H142  1  0.41130000  0.12704000  0.20372000  1.0 0.0968627326
H  H143  1  0.34904000  0.01864000  0.26588000  1.0 0.0968627326
H  H144  1  0.34325000  0.10373000  0.22623000  1.0 0.0935035681
H  H145  1  0.35366000  0.50844000  0.90928000  1.0 0.1406562676
H  H146  1  0.27675000  0.58895000  0.91177000  1.0 0.0935035681
H  H147  1  0.25424000  0.65702000  0.93506000  1.0 0.1200257366
H  H148  1  0.21458000  0.65122000  0.02018000  1.0 0.1200257366
H  H149  1  0.19744000  0.57736000  0.08198000  1.0 0.0935035681
H  H150  1  0.28303000  0.42291000  0.95681000  1.0 0.0968627326
H  H151  1  0.20372000  0.41130000  0.12704000  1.0 0.0968627326
H  H152  1  0.26588000  0.34904000  0.01864000  1.0 0.0968627326
H  H153  1  0.22623000  0.34325000  0.10373000  1.0 0.0935035681
H  H154  1  0.50844000  0.35366000  0.22862000  1.0 0.1406562676
H  H155  1  0.58895000  0.27675000  0.22253000  1.0 0.0935035681
H  H156  1  0.65702000  0.25424000  0.15368000  1.0 0.1200257366
H  H157  1  0.65122000  0.21458000  0.11402000  1.0 0.1200257366
H  H158  1  0.57736000  0.19744000  0.14322000  1.0 0.0935035681
H  H159  1  0.42291000  0.28303000  0.33725000  1.0 0.0968627326
H  H160  1  0.41130000  0.20372000  0.25794000  1.0 0.0968627326
H  H161  1  0.34904000  0.26588000  0.36644000  1.0 0.0968627326
H  H162  1  0.34325000  0.22623000  0.32679000  1.0 0.0935035681
H  H163  1  0.90928000  0.22862000  0.35366000  1.0 0.1406562676
H  H164  1  0.91177000  0.22253000  0.27675000  1.0 0.0935035681
H  H165  1  0.93506000  0.15368000  0.25424000  1.0 0.1200257366
H  H166  1  0.02018000  0.11402000  0.21458000  1.0 0.1200257366
H  H167  1  0.08198000  0.14322000  0.19744000  1.0 0.0935035681
H  H168  1  0.95681000  0.33725000  0.28303000  1.0 0.0968627326
H  H169  1  0.12704000  0.25794000  0.20372000  1.0 0.0968627326
H  H170  1  0.01864000  0.36644000  0.26588000  1.0 0.0968627326
H  H171  1  0.10373000  0.32679000  0.22623000  1.0 0.0935035681
H  H172  1  0.22862000  0.90928000  0.50844000  1.0 0.1406562676
H  H173  1  0.22253000  0.91177000  0.58895000  1.0 0.0935035681
H  H174  1  0.15368000  0.93506000  0.65702000  1.0 0.1200257366
H  H175  1  0.11402000  0.02018000  0.65122000  1.0 0.1200257366
H  H176  1  0.14322000  0.08198000  0.57736000  1.0 0.0935035681
H  H177  1  0.33725000  0.95681000  0.42291000  1.0 0.0968627326
H  H178  1  0.25794000  0.12704000  0.41130000  1.0 0.0968627326
H  H179  1  0.36644000  0.01864000  0.34904000  1.0 0.0968627326
H  H180  1  0.32679000  0.10373000  0.34325000  1.0 0.0935035681
H  H181  1  0.22862000  0.50844000  0.35366000  1.0 0.1406562676
H  H182  1  0.22253000  0.58895000  0.27675000  1.0 0.0935035681
H  H183  1  0.15368000  0.65702000  0.25424000  1.0 0.1200257366
H  H184  1  0.11402000  0.65122000  0.21458000  1.0 0.1200257366
H  H185  1  0.14322000  0.57736000  0.19744000  1.0 0.0935035681
H  H186  1  0.33725000  0.42291000  0.28303000  1.0 0.0968627326
H  H187  1  0.25794000  0.41130000  0.20372000  1.0 0.0968627326
H  H188  1  0.36644000  0.34904000  0.26588000  1.0 0.0968627326
H  H189  1  0.32679000  0.34325000  0.22623000  1.0 0.0935035681
H  H190  1  0.90928000  0.35366000  0.50844000  1.0 0.1406562676
H  H191  1  0.91177000  0.27675000  0.58895000  1.0 0.0935035681
H  H192  1  0.93506000  0.25424000  0.65702000  1.0 0.1200257366
H  H193  1  0.02018000  0.21458000  0.65122000  1.0 0.1200257366
H  H194  1  0.08198000  0.19744000  0.57736000  1.0 0.0935035681
H  H195  1  0.95681000  0.28303000  0.42291000  1.0 0.0968627326
H  H196  1  0.12704000  0.20372000  0.41130000  1.0 0.0968627326
H  H197  1  0.01864000  0.26588000  0.34904000  1.0 0.0968627326
H  H198  1  0.10373000  0.22623000  0.34325000  1.0 0.0935035681
H  H199  1  0.50844000  0.22862000  0.90928000  1.0 0.1406562676
H  H200  1  0.58895000  0.22253000  0.91177000  1.0 0.0935035681
H  H201  1  0.65702000  0.15368000  0.93506000  1.0 0.1200257366
H  H202  1  0.65122000  0.11402000  0.02018000  1.0 0.1200257366
H  H203  1  0.57736000  0.14322000  0.08198000  1.0 0.0935035681
H  H204  1  0.42291000  0.33725000  0.95681000  1.0 0.0968627326
H  H205  1  0.41130000  0.25794000  0.12704000  1.0 0.0968627326
H  H206  1  0.34904000  0.36644000  0.01864000  1.0 0.0968627326
H  H207  1  0.34325000  0.32679000  0.10373000  1.0 0.0935035681
H  H208  1  0.35366000  0.90928000  0.22862000  1.0 0.1406562676
H  H209  1  0.27675000  0.91177000  0.22253000  1.0 0.0935035681
H  H210  1  0.25424000  0.93506000  0.15368000  1.0 0.1200257366
H  H211  1  0.21458000  0.02018000  0.11402000  1.0 0.1200257366
H  H212  1  0.19744000  0.08198000  0.14322000  1.0 0.0935035681
H  H213  1  0.28303000  0.95681000  0.33725000  1.0 0.0968627326
H  H214  1  0.20372000  0.12704000  0.25794000  1.0 0.0968627326
H  H215  1  0.26588000  0.01864000  0.36644000  1.0 0.0968627326
H  H216  1  0.22623000  0.10373000  0.32679000  1.0 0.0935035681
H  H217  1  0.90928000  0.35366000  0.22862000  1.0 0.1406562676
H  H218  1  0.91177000  0.27675000  0.22253000  1.0 0.0935035681
H  H219  1  0.93506000  0.25424000  0.15368000  1.0 0.1200257366
H  H220  1  0.02018000  0.21458000  0.11402000  1.0 0.1200257366
H  H221  1  0.08198000  0.19744000  0.14322000  1.0 0.0935035681
H  H222  1  0.95681000  0.28303000  0.33725000  1.0 0.0968627326
H  H223  1  0.12704000  0.20372000  0.25794000  1.0 0.0968627326
H  H224  1  0.01864000  0.26588000  0.36644000  1.0 0.0968627326
H  H225  1  0.10373000  0.22623000  0.32679000  1.0 0.0935035681
H  H226  1  0.22862000  0.50844000  0.90928000  1.0 0.1406562676
H  H227  1  0.22253000  0.58895000  0.91177000  1.0 0.0935035681
H  H228  1  0.15368000  0.65702000  0.93506000  1.0 0.1200257366
H  H229  1  0.11402000  0.65122000  0.02018000  1.0 0.1200257366
H  H230  1  0.14322000  0.57736000  0.08198000  1.0 0.0935035681
H  H231  1  0.33725000  0.42291000  0.95681000  1.0 0.0968627326
H  H232  1  0.25794000  0.41130000  0.12704000  1.0 0.0968627326
H  H233  1  0.36644000  0.34904000  0.01864000  1.0 0.0968627326
H  H234  1  0.32679000  0.34325000  0.10373000  1.0 0.0935035681
H  H235  1  0.35366000  0.90928000  0.50844000  1.0 0.1406562676
H  H236  1  0.27675000  0.91177000  0.58895000  1.0 0.0935035681
H  H237  1  0.25424000  0.93506000  0.65702000  1.0 0.1200257366
H  H238  1  0.21458000  0.02018000  0.65122000  1.0 0.1200257366
H  H239  1  0.19744000  0.08198000  0.57736000  1.0 0.0935035681
H  H240  1  0.28303000  0.95681000  0.42291000  1.0 0.0968627326
H  H241  1  0.20372000  0.12704000  0.41130000  1.0 0.0968627326
H  H242  1  0.26588000  0.01864000  0.34904000  1.0 0.0968627326
H  H243  1  0.22623000  0.10373000  0.34325000  1.0 0.0935035681
H  H244  1  0.50844000  0.22862000  0.35366000  1.0 0.1406562676
H  H245  1  0.58895000  0.22253000  0.27675000  1.0 0.0935035681
H  H246  1  0.65702000  0.15368000  0.25424000  1.0 0.1200257366
H  H247  1  0.65122000  0.11402000  0.21458000  1.0 0.1200257366
H  H248  1  0.57736000  0.14322000  0.19744000  1.0 0.0935035681
H  H249  1  0.42291000  0.33725000  0.28303000  1.0 0.0968627326
H  H250  1  0.41130000  0.25794000  0.20372000  1.0 0.0968627326
H  H251  1  0.34904000  0.36644000  0.26588000  1.0 0.0968627326
H  H252  1  0.34325000  0.32679000  0.22623000  1.0 0.0935035681
H  H253  1  0.35366000  0.22862000  0.90928000  1.0 0.1406562676
H  H254  1  0.27675000  0.22253000  0.91177000  1.0 0.0935035681
H  H255  1  0.25424000  0.15368000  0.93506000  1.0 0.1200257366
H  H256  1  0.21458000  0.11402000  0.02018000  1.0 0.1200257366
H  H257  1  0.19744000  0.14322000  0.08198000  1.0 0.0935035681
H  H258  1  0.28303000  0.33725000  0.95681000  1.0 0.0968627326
H  H259  1  0.20372000  0.25794000  0.12704000  1.0 0.0968627326
H  H260  1  0.26588000  0.36644000  0.01864000  1.0 0.0968627326
H  H261  1  0.22623000  0.32679000  0.10373000  1.0 0.0935035681
H  H262  1  0.50844000  0.90928000  0.22862000  1.0 0.1406562676
H  H263  1  0.58895000  0.91177000  0.22253000  1.0 0.0935035681
H  H264  1  0.65702000  0.93506000  0.15368000  1.0 0.1200257366
H  H265  1  0.65122000  0.02018000  0.11402000  1.0 0.1200257366
H  H266  1  0.57736000  0.08198000  0.14322000  1.0 0.0935035681
H  H267  1  0.42291000  0.95681000  0.33725000  1.0 0.0968627326
H  H268  1  0.41130000  0.12704000  0.25794000  1.0 0.0968627326
H  H269  1  0.34904000  0.01864000  0.36644000  1.0 0.0968627326
H  H270  1  0.34325000  0.10373000  0.32679000  1.0 0.0935035681
H  H271  1  0.90928000  0.50844000  0.35366000  1.0 0.1406562676
H  H272  1  0.91177000  0.58895000  0.27675000  1.0 0.0935035681
H  H273  1  0.93506000  0.65702000  0.25424000  1.0 0.1200257366
H  H274  1  0.02018000  0.65122000  0.21458000  1.0 0.1200257366
H  H275  1  0.08198000  0.57736000  0.19744000  1.0 0.0935035681
H  H276  1  0.95681000  0.42291000  0.28303000  1.0 0.0968627326
H  H277  1  0.12704000  0.41130000  0.20372000  1.0 0.0968627326
H  H278  1  0.01864000  0.34904000  0.26588000  1.0 0.0968627326
H  H279  1  0.10373000  0.34325000  0.22623000  1.0 0.0935035681
H  H280  1  0.22862000  0.35366000  0.50844000  1.0 0.1406562676
H  H281  1  0.22253000  0.27675000  0.58895000  1.0 0.0935035681
H  H282  1  0.15368000  0.25424000  0.65702000  1.0 0.1200257366
H  H283  1  0.11402000  0.21458000  0.65122000  1.0 0.1200257366
H  H284  1  0.14322000  0.19744000  0.57736000  1.0 0.0935035681
H  H285  1  0.33725000  0.28303000  0.42291000  1.0 0.0968627326
H  H286  1  0.25794000  0.20372000  0.41130000  1.0 0.0968627326
H  H287  1  0.36644000  0.26588000  0.34904000  1.0 0.0968627326
H  H288  1  0.32679000  0.22623000  0.34325000  1.0 0.0935035681
H  H289  1  0.22862000  0.90928000  0.35366000  1.0 0.1406562676
H  H290  1  0.22253000  0.91177000  0.27675000  1.0 0.0935035681
H  H291  1  0.15368000  0.93506000  0.25424000  1.0 0.1200257366
H  H292  1  0.11402000  0.02018000  0.21458000  1.0 0.1200257366
H  H293  1  0.14322000  0.08198000  0.19744000  1.0 0.0935035681
H  H294  1  0.33725000  0.95681000  0.28303000  1.0 0.0968627326
H  H295  1  0.25794000  0.12704000  0.20372000  1.0 0.0968627326
H  H296  1  0.36644000  0.01864000  0.26588000  1.0 0.0968627326
H  H297  1  0.32679000  0.10373000  0.22623000  1.0 0.0935035681
H  H298  1  0.90928000  0.22862000  0.50844000  1.0 0.1406562676
H  H299  1  0.91177000  0.22253000  0.58895000  1.0 0.0935035681
H  H300  1  0.93506000  0.15368000  0.65702000  1.0 0.1200257366
H  H301  1  0.02018000  0.11402000  0.65122000  1.0 0.1200257366
H  H302  1  0.08198000  0.14322000  0.57736000  1.0 0.0935035681
H  H303  1  0.95681000  0.33725000  0.42291000  1.0 0.0968627326
H  H304  1  0.12704000  0.25794000  0.41130000  1.0 0.0968627326
H  H305  1  0.01864000  0.36644000  0.34904000  1.0 0.0968627326
H  H306  1  0.10373000  0.32679000  0.34325000  1.0 0.0935035681
H  H307  1  0.50844000  0.35366000  0.90928000  1.0 0.1406562676
H  H308  1  0.58895000  0.27675000  0.91177000  1.0 0.0935035681
H  H309  1  0.65702000  0.25424000  0.93506000  1.0 0.1200257366
H  H310  1  0.65122000  0.21458000  0.02018000  1.0 0.1200257366
H  H311  1  0.57736000  0.19744000  0.08198000  1.0 0.0935035681
H  H312  1  0.42291000  0.28303000  0.95681000  1.0 0.0968627326
H  H313  1  0.41130000  0.20372000  0.12704000  1.0 0.0968627326
H  H314  1  0.34904000  0.26588000  0.01864000  1.0 0.0968627326
H  H315  1  0.34325000  0.22623000  0.10373000  1.0 0.0935035681
H  H316  1  0.35366000  0.50844000  0.22862000  1.0 0.1406562676
H  H317  1  0.27675000  0.58895000  0.22253000  1.0 0.0935035681
H  H318  1  0.25424000  0.65702000  0.15368000  1.0 0.1200257366
H  H319  1  0.21458000  0.65122000  0.11402000  1.0 0.1200257366
H  H320  1  0.19744000  0.57736000  0.14322000  1.0 0.0935035681
H  H321  1  0.28303000  0.42291000  0.33725000  1.0 0.0968627326
H  H322  1  0.20372000  0.41130000  0.25794000  1.0 0.0968627326
H  H323  1  0.26588000  0.34904000  0.36644000  1.0 0.0968627326
H  H324  1  0.22623000  0.34325000  0.32679000  1.0 0.0935035681
H  H325  1  0.09072000  0.49156000  0.77138000  1.0 0.1406562676
H  H326  1  0.08823000  0.41105000  0.77747000  1.0 0.0935035681
H  H327  1  0.06494000  0.34298000  0.84632000  1.0 0.1200257366
H  H328  1  0.97982000  0.34878000  0.88598000  1.0 0.1200257366
H  H329  1  0.91802000  0.42264000  0.85678000  1.0 0.0935035681
H  H330  1  0.04319000  0.57709000  0.66275000  1.0 0.0968627326
H  H331  1  0.87296000  0.58870000  0.74206000  1.0 0.0968627326
H  H332  1  0.98136000  0.65096000  0.63356000  1.0 0.0968627326
H  H333  1  0.89627000  0.65675000  0.67321000  1.0 0.0935035681
H  H334  1  0.77138000  0.64634000  0.09072000  1.0 0.1406562676
H  H335  1  0.77747000  0.72325000  0.08823000  1.0 0.0935035681
H  H336  1  0.84632000  0.74576000  0.06494000  1.0 0.1200257366
H  H337  1  0.88598000  0.78542000  0.97982000  1.0 0.1200257366
H  H338  1  0.85678000  0.80256000  0.91802000  1.0 0.0935035681
H  H339  1  0.66275000  0.71697000  0.04319000  1.0 0.0968627326
H  H340  1  0.74206000  0.79628000  0.87296000  1.0 0.0968627326
H  H341  1  0.63356000  0.73412000  0.98136000  1.0 0.0968627326
H  H342  1  0.67321000  0.77377000  0.89627000  1.0 0.0935035681
H  H343  1  0.64634000  0.77138000  0.49156000  1.0 0.1406562676
H  H344  1  0.72325000  0.77747000  0.41105000  1.0 0.0935035681
H  H345  1  0.74576000  0.84632000  0.34298000  1.0 0.1200257366
H  H346  1  0.78542000  0.88598000  0.34878000  1.0 0.1200257366
H  H347  1  0.80256000  0.85678000  0.42264000  1.0 0.0935035681
H  H348  1  0.71697000  0.66275000  0.57709000  1.0 0.0968627326
H  H349  1  0.79628000  0.74206000  0.58870000  1.0 0.0968627326
H  H350  1  0.73412000  0.63356000  0.65096000  1.0 0.0968627326
H  H351  1  0.77377000  0.67321000  0.65675000  1.0 0.0935035681
H  H352  1  0.49156000  0.09072000  0.64634000  1.0 0.1406562676
H  H353  1  0.41105000  0.08823000  0.72325000  1.0 0.0935035681
H  H354  1  0.34298000  0.06494000  0.74576000  1.0 0.1200257366
H  H355  1  0.34878000  0.97982000  0.78542000  1.0 0.1200257366
H  H356  1  0.42264000  0.91802000  0.80256000  1.0 0.0935035681
H  H357  1  0.57709000  0.04319000  0.71697000  1.0 0.0968627326
H  H358  1  0.58870000  0.87296000  0.79628000  1.0 0.0968627326
H  H359  1  0.65096000  0.98136000  0.73412000  1.0 0.0968627326
H  H360  1  0.65675000  0.89627000  0.77377000  1.0 0.0935035681
H  H361  1  0.64634000  0.49156000  0.09072000  1.0 0.1406562676
H  H362  1  0.72325000  0.41105000  0.08823000  1.0 0.0935035681
H  H363  1  0.74576000  0.34298000  0.06494000  1.0 0.1200257366
H  H364  1  0.78542000  0.34878000  0.97982000  1.0 0.1200257366
H  H365  1  0.80256000  0.42264000  0.91802000  1.0 0.0935035681
H  H366  1  0.71697000  0.57709000  0.04319000  1.0 0.0968627326
H  H367  1  0.79628000  0.58870000  0.87296000  1.0 0.0968627326
H  H368  1  0.73412000  0.65096000  0.98136000  1.0 0.0968627326
H  H369  1  0.77377000  0.65675000  0.89627000  1.0 0.0935035681
H  H370  1  0.49156000  0.64634000  0.77138000  1.0 0.1406562676
H  H371  1  0.41105000  0.72325000  0.77747000  1.0 0.0935035681
H  H372  1  0.34298000  0.74576000  0.84632000  1.0 0.1200257366
H  H373  1  0.34878000  0.78542000  0.88598000  1.0 0.1200257366
H  H374  1  0.42264000  0.80256000  0.85678000  1.0 0.0935035681
H  H375  1  0.57709000  0.71697000  0.66275000  1.0 0.0968627326
H  H376  1  0.58870000  0.79628000  0.74206000  1.0 0.0968627326
H  H377  1  0.65096000  0.73412000  0.63356000  1.0 0.0968627326
H  H378  1  0.65675000  0.77377000  0.67321000  1.0 0.0935035681
H  H379  1  0.09072000  0.77138000  0.64634000  1.0 0.1406562676
H  H380  1  0.08823000  0.77747000  0.72325000  1.0 0.0935035681
H  H381  1  0.06494000  0.84632000  0.74576000  1.0 0.1200257366
H  H382  1  0.97982000  0.88598000  0.78542000  1.0 0.1200257366
H  H383  1  0.91802000  0.85678000  0.80256000  1.0 0.0935035681
H  H384  1  0.04319000  0.66275000  0.71697000  1.0 0.0968627326
H  H385  1  0.87296000  0.74206000  0.79628000  1.0 0.0968627326
H  H386  1  0.98136000  0.63356000  0.73412000  1.0 0.0968627326
H  H387  1  0.89627000  0.67321000  0.77377000  1.0 0.0935035681
H  H388  1  0.77138000  0.09072000  0.49156000  1.0 0.1406562676
H  H389  1  0.77747000  0.08823000  0.41105000  1.0 0.0935035681
H  H390  1  0.84632000  0.06494000  0.34298000  1.0 0.1200257366
H  H391  1  0.88598000  0.97982000  0.34878000  1.0 0.1200257366
H  H392  1  0.85678000  0.91802000  0.42264000  1.0 0.0935035681
H  H393  1  0.66275000  0.04319000  0.57709000  1.0 0.0968627326
H  H394  1  0.74206000  0.87296000  0.58870000  1.0 0.0968627326
H  H395  1  0.63356000  0.98136000  0.65096000  1.0 0.0968627326
H  H396  1  0.67321000  0.89627000  0.65675000  1.0 0.0935035681
H  H397  1  0.77138000  0.49156000  0.64634000  1.0 0.1406562676
H  H398  1  0.77747000  0.41105000  0.72325000  1.0 0.0935035681
H  H399  1  0.84632000  0.34298000  0.74576000  1.0 0.1200257366
H  H400  1  0.88598000  0.34878000  0.78542000  1.0 0.1200257366
H  H401  1  0.85678000  0.42264000  0.80256000  1.0 0.0935035681
H  H402  1  0.66275000  0.57709000  0.71697000  1.0 0.0968627326
H  H403  1  0.74206000  0.58870000  0.79628000  1.0 0.0968627326
H  H404  1  0.63356000  0.65096000  0.73412000  1.0 0.0968627326
H  H405  1  0.67321000  0.65675000  0.77377000  1.0 0.0935035681
H  H406  1  0.09072000  0.64634000  0.49156000  1.0 0.1406562676
H  H407  1  0.08823000  0.72325000  0.41105000  1.0 0.0935035681
H  H408  1  0.06494000  0.74576000  0.34298000  1.0 0.1200257366
H  H409  1  0.97982000  0.78542000  0.34878000  1.0 0.1200257366
H  H410  1  0.91802000  0.80256000  0.42264000  1.0 0.0935035681
H  H411  1  0.04319000  0.71697000  0.57709000  1.0 0.0968627326
H  H412  1  0.87296000  0.79628000  0.58870000  1.0 0.0968627326
H  H413  1  0.98136000  0.73412000  0.65096000  1.0 0.0968627326
H  H414  1  0.89627000  0.77377000  0.65675000  1.0 0.0935035681
H  H415  1  0.49156000  0.77138000  0.09072000  1.0 0.1406562676
H  H416  1  0.41105000  0.77747000  0.08823000  1.0 0.0935035681
H  H417  1  0.34298000  0.84632000  0.06494000  1.0 0.1200257366
H  H418  1  0.34878000  0.88598000  0.97982000  1.0 0.1200257366
H  H419  1  0.42264000  0.85678000  0.91802000  1.0 0.0935035681
H  H420  1  0.57709000  0.66275000  0.04319000  1.0 0.0968627326
H  H421  1  0.58870000  0.74206000  0.87296000  1.0 0.0968627326
H  H422  1  0.65096000  0.63356000  0.98136000  1.0 0.0968627326
H  H423  1  0.65675000  0.67321000  0.89627000  1.0 0.0935035681
H  H424  1  0.64634000  0.09072000  0.77138000  1.0 0.1406562676
H  H425  1  0.72325000  0.08823000  0.77747000  1.0 0.0935035681
H  H426  1  0.74576000  0.06494000  0.84632000  1.0 0.1200257366
H  H427  1  0.78542000  0.97982000  0.88598000  1.0 0.1200257366
H  H428  1  0.80256000  0.91802000  0.85678000  1.0 0.0935035681
H  H429  1  0.71697000  0.04319000  0.66275000  1.0 0.0968627326
H  H430  1  0.79628000  0.87296000  0.74206000  1.0 0.0968627326
H  H431  1  0.73412000  0.98136000  0.63356000  1.0 0.0968627326
H  H432  1  0.77377000  0.89627000  0.67321000  1.0 0.0935035681
H  H433  1  0.21886000  0.65000000  0.65000000  1.0 0.1406562676
H  H434  1  0.65000000  0.48114000  0.21886000  1.0 0.1406562676
H  H435  1  0.65000000  0.21886000  0.48114000  1.0 0.1406562676
H  H436  1  0.48114000  0.65000000  0.65000000  1.0 0.1406562676
H  H437  1  0.65000000  0.65000000  0.21886000  1.0 0.1406562676
H  H438  1  0.48114000  0.21886000  0.65000000  1.0 0.1406562676
H  H439  1  0.21886000  0.48114000  0.65000000  1.0 0.1406562676
H  H440  1  0.65000000  0.65000000  0.48114000  1.0 0.1406562676
H  H441  1  0.65000000  0.21886000  0.65000000  1.0 0.1406562676
H  H442  1  0.21886000  0.65000000  0.48114000  1.0 0.1406562676
H  H443  1  0.48114000  0.65000000  0.21886000  1.0 0.1406562676
H  H444  1  0.65000000  0.48114000  0.65000000  1.0 0.1406562676
H  H445  1  0.78114000  0.51886000  0.35000000  1.0 0.1406562676
H  H446  1  0.35000000  0.35000000  0.78114000  1.0 0.1406562676
H  H447  1  0.35000000  0.35000000  0.51886000  1.0 0.1406562676
H  H448  1  0.51886000  0.78114000  0.35000000  1.0 0.1406562676
H  H449  1  0.35000000  0.51886000  0.78114000  1.0 0.1406562676
H  H450  1  0.51886000  0.35000000  0.35000000  1.0 0.1406562676
H  H451  1  0.78114000  0.35000000  0.35000000  1.0 0.1406562676
H  H452  1  0.35000000  0.78114000  0.51886000  1.0 0.1406562676
H  H453  1  0.35000000  0.51886000  0.35000000  1.0 0.1406562676
H  H454  1  0.78114000  0.35000000  0.51886000  1.0 0.1406562676
H  H455  1  0.51886000  0.35000000  0.78114000  1.0 0.1406562676
H  H456  1  0.35000000  0.78114000  0.35000000  1.0 0.1406562676
H  H457  1  0.87276000  0.87276000  0.74774000  1.0 0.1406562676
H  H458  1  0.74774000  0.50674000  0.87276000  1.0 0.1406562676
H  H459  1  0.87276000  0.87276000  0.50674000  1.0 0.1406562676
H  H460  1  0.50674000  0.74774000  0.87276000  1.0 0.1406562676
H  H461  1  0.87276000  0.74774000  0.87276000  1.0 0.1406562676
H  H462  1  0.50674000  0.87276000  0.74774000  1.0 0.1406562676
H  H463  1  0.87276000  0.50674000  0.87276000  1.0 0.1406562676
H  H464  1  0.74774000  0.87276000  0.50674000  1.0 0.1406562676
H  H465  1  0.74774000  0.87276000  0.87276000  1.0 0.1406562676
H  H466  1  0.87276000  0.74774000  0.50674000  1.0 0.1406562676
H  H467  1  0.50674000  0.87276000  0.87276000  1.0 0.1406562676
H  H468  1  0.87276000  0.50674000  0.74774000  1.0 0.1406562676
H  H469  1  0.12724000  0.49326000  0.25226000  1.0 0.1406562676
H  H470  1  0.25226000  0.12724000  0.12724000  1.0 0.1406562676
H  H471  1  0.12724000  0.25226000  0.49326000  1.0 0.1406562676
H  H472  1  0.49326000  0.12724000  0.12724000  1.0 0.1406562676
H  H473  1  0.12724000  0.49326000  0.12724000  1.0 0.1406562676
H  H474  1  0.49326000  0.12724000  0.25226000  1.0 0.1406562676
H  H475  1  0.12724000  0.25226000  0.12724000  1.0 0.1406562676
H  H476  1  0.25226000  0.12724000  0.49326000  1.0 0.1406562676
H  H477  1  0.25226000  0.49326000  0.12724000  1.0 0.1406562676
H  H478  1  0.12724000  0.12724000  0.49326000  1.0 0.1406562676
H  H479  1  0.49326000  0.25226000  0.12724000  1.0 0.1406562676
H  H480  1  0.12724000  0.12724000  0.25226000  1.0 0.1406562676
C  C1  1  0.18455000  0.58899000  0.73901000  1.0 0.5870829245
C  C2  1  0.15842000  0.64120000  0.71434000  1.0 -0.0014182274
C  C3  1  0.10845000  0.66415000  0.73729000  1.0 -0.1711007343
C  C4  1  0.01676000  0.74974000  0.77684000  1.0 0.0420141059
C  C5  1  0.05291000  0.73971000  0.79393000  1.0 -0.0794434028
C  C6  1  0.03929000  0.75287000  0.83421000  1.0 -0.1424699046
C  C7  1  0.98949000  0.77607000  0.85741000  1.0 -0.129937166
C  C8  1  0.95333000  0.78611000  0.84033000  1.0 -0.0794434028
C  C9  1  0.96697000  0.77293000  0.80005000  1.0 0.0420141059
C  C10  1  0.94444000  0.76980000  0.74268000  1.0 0.0420141059
C  C11  1  0.99423000  0.74659000  0.71949000  1.0 0.0420141059
C  C12  1  0.00785000  0.73343000  0.67921000  1.0 -0.129937166
C  C13  1  0.90828000  0.77982000  0.72560000  1.0 -0.0901697978
C  C14  1  0.97170000  0.74346000  0.66212000  1.0 -0.0901697978
C  C15  1  0.92191000  0.76665000  0.68533000  1.0 -0.1711007343
C  C16  1  0.73901000  0.48745000  0.18455000  1.0 0.5870829245
C  C17  1  0.71434000  0.48604000  0.15842000  1.0 -0.0014182274
C  C18  1  0.73729000  0.49011000  0.10845000  1.0 -0.1711007343
C  C19  1  0.77684000  0.45666000  0.01676000  1.0 0.0420141059
C  C20  1  0.79393000  0.41345000  0.05291000  1.0 -0.0794434028
C  C21  1  0.83421000  0.37363000  0.03929000  1.0 -0.1424699046
C  C22  1  0.85741000  0.37703000  0.98949000  1.0 -0.129937166
C  C23  1  0.84033000  0.42023000  0.95333000  1.0 -0.0794434028
C  C24  1  0.80005000  0.46005000  0.96697000  1.0 0.0420141059
C  C25  1  0.74268000  0.54308000  0.94444000  1.0 0.0420141059
C  C26  1  0.71949000  0.53969000  0.99423000  1.0 0.0420141059
C  C27  1  0.67921000  0.57951000  0.00785000  1.0 -0.129937166
C  C28  1  0.72560000  0.58630000  0.90828000  1.0 -0.0901697978
C  C29  1  0.66212000  0.62272000  0.97170000  1.0 -0.0901697978
C  C30  1  0.68533000  0.62611000  0.92191000  1.0 -0.1711007343
C  C31  1  0.58899000  0.18455000  0.48745000  1.0 0.5870829245
C  C32  1  0.64120000  0.15842000  0.48604000  1.0 -0.0014182274
C  C33  1  0.66415000  0.10845000  0.49011000  1.0 -0.1711007343
C  C34  1  0.74974000  0.01676000  0.45666000  1.0 0.0420141059
C  C35  1  0.73971000  0.05291000  0.41345000  1.0 -0.0794434028
C  C36  1  0.75287000  0.03929000  0.37363000  1.0 -0.1424699046
C  C37  1  0.77607000  0.98949000  0.37703000  1.0 -0.129937166
C  C38  1  0.78611000  0.95333000  0.42023000  1.0 -0.0794434028
C  C39  1  0.77293000  0.96697000  0.46005000  1.0 0.0420141059
C  C40  1  0.76980000  0.94444000  0.54308000  1.0 0.0420141059
C  C41  1  0.74659000  0.99423000  0.53969000  1.0 0.0420141059
C  C42  1  0.73343000  0.00785000  0.57951000  1.0 -0.129937166
C  C43  1  0.77982000  0.90828000  0.58630000  1.0 -0.0901697978
C  C44  1  0.74346000  0.97170000  0.62272000  1.0 -0.0901697978
C  C45  1  0.76665000  0.92191000  0.62611000  1.0 -0.1711007343
C  C46  1  0.48745000  0.73901000  0.58899000  1.0 0.5870829245
C  C47  1  0.48604000  0.71434000  0.64120000  1.0 -0.0014182274
C  C48  1  0.49011000  0.73729000  0.66415000  1.0 -0.1711007343
C  C49  1  0.45666000  0.77684000  0.74974000  1.0 0.0420141059
C  C50  1  0.41345000  0.79393000  0.73971000  1.0 -0.0794434028
C  C51  1  0.37363000  0.83421000  0.75287000  1.0 -0.1424699046
C  C52  1  0.37703000  0.85741000  0.77607000  1.0 -0.129937166
C  C53  1  0.42023000  0.84033000  0.78611000  1.0 -0.0794434028
C  C54  1  0.46005000  0.80005000  0.77293000  1.0 0.0420141059
C  C55  1  0.54308000  0.74268000  0.76980000  1.0 0.0420141059
C  C56  1  0.53969000  0.71949000  0.74659000  1.0 0.0420141059
C  C57  1  0.57951000  0.67921000  0.73343000  1.0 -0.129937166
C  C58  1  0.58630000  0.72560000  0.77982000  1.0 -0.0901697978
C  C59  1  0.62272000  0.66212000  0.74346000  1.0 -0.0901697978
C  C60  1  0.62611000  0.68533000  0.76665000  1.0 -0.1711007343
C  C61  1  0.58899000  0.73901000  0.18455000  1.0 0.5870829245
C  C62  1  0.64120000  0.71434000  0.15842000  1.0 -0.0014182274
C  C63  1  0.66415000  0.73729000  0.10845000  1.0 -0.1711007343
C  C64  1  0.74974000  0.77684000  0.01676000  1.0 0.0420141059
C  C65  1  0.73971000  0.79393000  0.05291000  1.0 -0.0794434028
C  C66  1  0.75287000  0.83421000  0.03929000  1.0 -0.1424699046
C  C67  1  0.77607000  0.85741000  0.98949000  1.0 -0.129937166
C  C68  1  0.78611000  0.84033000  0.95333000  1.0 -0.0794434028
C  C69  1  0.77293000  0.80005000  0.96697000  1.0 0.0420141059
C  C70  1  0.76980000  0.74268000  0.94444000  1.0 0.0420141059
C  C71  1  0.74659000  0.71949000  0.99423000  1.0 0.0420141059
C  C72  1  0.73343000  0.67921000  0.00785000  1.0 -0.129937166
C  C73  1  0.77982000  0.72560000  0.90828000  1.0 -0.0901697978
C  C74  1  0.74346000  0.66212000  0.97170000  1.0 -0.0901697978
C  C75  1  0.76665000  0.68533000  0.92191000  1.0 -0.1711007343
C  C76  1  0.48745000  0.18455000  0.73901000  1.0 0.5870829245
C  C77  1  0.48604000  0.15842000  0.71434000  1.0 -0.0014182274
C  C78  1  0.49011000  0.10845000  0.73729000  1.0 -0.1711007343
C  C79  1  0.45666000  0.01676000  0.77684000  1.0 0.0420141059
C  C80  1  0.41345000  0.05291000  0.79393000  1.0 -0.0794434028
C  C81  1  0.37363000  0.03929000  0.83421000  1.0 -0.1424699046
C  C82  1  0.37703000  0.98949000  0.85741000  1.0 -0.129937166
C  C83  1  0.42023000  0.95333000  0.84033000  1.0 -0.0794434028
C  C84  1  0.46005000  0.96697000  0.80005000  1.0 0.0420141059
C  C85  1  0.54308000  0.94444000  0.74268000  1.0 0.0420141059
C  C86  1  0.53969000  0.99423000  0.71949000  1.0 0.0420141059
C  C87  1  0.57951000  0.00785000  0.67921000  1.0 -0.129937166
C  C88  1  0.58630000  0.90828000  0.72560000  1.0 -0.0901697978
C  C89  1  0.62272000  0.97170000  0.66212000  1.0 -0.0901697978
C  C90  1  0.62611000  0.92191000  0.68533000  1.0 -0.1711007343
C  C91  1  0.18455000  0.48745000  0.58899000  1.0 0.5870829245
C  C92  1  0.15842000  0.48604000  0.64120000  1.0 -0.0014182274
C  C93  1  0.10845000  0.49011000  0.66415000  1.0 -0.1711007343
C  C94  1  0.01676000  0.45666000  0.74974000  1.0 0.0420141059
C  C95  1  0.05291000  0.41345000  0.73971000  1.0 -0.0794434028
C  C96  1  0.03929000  0.37363000  0.75287000  1.0 -0.1424699046
C  C97  1  0.98949000  0.37703000  0.77607000  1.0 -0.129937166
C  C98  1  0.95333000  0.42023000  0.78611000  1.0 -0.0794434028
C  C99  1  0.96697000  0.46005000  0.77293000  1.0 0.0420141059
C  C100  1  0.94444000  0.54308000  0.76980000  1.0 0.0420141059
C  C101  1  0.99423000  0.53969000  0.74659000  1.0 0.0420141059
C  C102  1  0.00785000  0.57951000  0.73343000  1.0 -0.129937166
C  C103  1  0.90828000  0.58630000  0.77982000  1.0 -0.0901697978
C  C104  1  0.97170000  0.62272000  0.74346000  1.0 -0.0901697978
C  C105  1  0.92191000  0.62611000  0.76665000  1.0 -0.1711007343
C  C106  1  0.73901000  0.58899000  0.48745000  1.0 0.5870829245
C  C107  1  0.71434000  0.64120000  0.48604000  1.0 -0.0014182274
C  C108  1  0.73729000  0.66415000  0.49011000  1.0 -0.1711007343
C  C109  1  0.77684000  0.74974000  0.45666000  1.0 0.0420141059
C  C110  1  0.79393000  0.73971000  0.41345000  1.0 -0.0794434028
C  C111  1  0.83421000  0.75287000  0.37363000  1.0 -0.1455023827
C  C112  1  0.85741000  0.77607000  0.37703000  1.0 -0.129937166
C  C113  1  0.84033000  0.78611000  0.42023000  1.0 -0.0794434028
C  C114  1  0.80005000  0.77293000  0.46005000  1.0 0.0420141059
C  C115  1  0.74268000  0.76980000  0.54308000  1.0 0.0420141059
C  C116  1  0.71949000  0.74659000  0.53969000  1.0 0.0420141059
C  C117  1  0.67921000  0.73343000  0.57951000  1.0 -0.129937166
C  C118  1  0.72560000  0.77982000  0.58630000  1.0 -0.0901697978
C  C119  1  0.66212000  0.74346000  0.62272000  1.0 -0.0901697978
C  C120  1  0.68533000  0.76665000  0.62611000  1.0 -0.1711007343
C  C121  1  0.73901000  0.18455000  0.58899000  1.0 0.5870829245
C  C122  1  0.71434000  0.15842000  0.64120000  1.0 -0.0014182274
C  C123  1  0.73729000  0.10845000  0.66415000  1.0 -0.1711007343
C  C124  1  0.77684000  0.01676000  0.74974000  1.0 0.034628926
C  C125  1  0.79393000  0.05291000  0.73971000  1.0 -0.0794434028
C  C126  1  0.83421000  0.03929000  0.75287000  1.0 -0.1424699046
C  C127  1  0.85741000  0.98949000  0.77607000  1.0 -0.129937166
C  C128  1  0.84033000  0.95333000  0.78611000  1.0 -0.0794434028
C  C129  1  0.80005000  0.96697000  0.77293000  1.0 0.0420141059
C  C130  1  0.74268000  0.94444000  0.76980000  1.0 0.0420141059
C  C131  1  0.71949000  0.99423000  0.74659000  1.0 0.0420141059
C  C132  1  0.67921000  0.00785000  0.73343000  1.0 -0.129937166
C  C133  1  0.72560000  0.90828000  0.77982000  1.0 -0.0901697978
C  C134  1  0.66212000  0.97170000  0.74346000  1.0 -0.0901697978
C  C135  1  0.68533000  0.92191000  0.76665000  1.0 -0.1711007343
C  C136  1  0.18455000  0.73901000  0.48745000  1.0 0.5870829245
C  C137  1  0.15842000  0.71434000  0.48604000  1.0 -0.0014182274
C  C138  1  0.10845000  0.73729000  0.49011000  1.0 -0.1711007343
C  C139  1  0.01676000  0.77684000  0.45666000  1.0 0.0420141059
C  C140  1  0.05291000  0.79393000  0.41345000  1.0 -0.0794434028
C  C141  1  0.03929000  0.83421000  0.37363000  1.0 -0.1455023827
C  C142  1  0.98949000  0.85741000  0.37703000  1.0 -0.129937166
C  C143  1  0.95333000  0.84033000  0.42023000  1.0 -0.0794434028
C  C144  1  0.96697000  0.80005000  0.46005000  1.0 0.0420141059
C  C145  1  0.94444000  0.74268000  0.54308000  1.0 0.0420141059
C  C146  1  0.99423000  0.71949000  0.53969000  1.0 0.0420141059
C  C147  1  0.00785000  0.67921000  0.57951000  1.0 -0.129937166
C  C148  1  0.90828000  0.72560000  0.58630000  1.0 -0.0901697978
C  C149  1  0.97170000  0.66212000  0.62272000  1.0 -0.0901697978
C  C150  1  0.92191000  0.68533000  0.62611000  1.0 -0.1711007343
C  C151  1  0.48745000  0.58899000  0.18455000  1.0 0.5870829245
C  C152  1  0.48604000  0.64120000  0.15842000  1.0 -0.0014182274
C  C153  1  0.49011000  0.66415000  0.10845000  1.0 -0.1711007343
C  C154  1  0.45666000  0.74974000  0.01676000  1.0 0.0420141059
C  C155  1  0.41345000  0.73971000  0.05291000  1.0 -0.0794434028
C  C156  1  0.37363000  0.75287000  0.03929000  1.0 -0.1455023827
C  C157  1  0.37703000  0.77607000  0.98949000  1.0 -0.129937166
C  C158  1  0.42023000  0.78611000  0.95333000  1.0 -0.0794434028
C  C159  1  0.46005000  0.77293000  0.96697000  1.0 0.0420141059
C  C160  1  0.54308000  0.76980000  0.94444000  1.0 0.0420141059
C  C161  1  0.53969000  0.74659000  0.99423000  1.0 0.0420141059
C  C162  1  0.57951000  0.73343000  0.00785000  1.0 -0.129937166
C  C163  1  0.58630000  0.77982000  0.90828000  1.0 -0.0901697978
C  C164  1  0.62272000  0.74346000  0.97170000  1.0 -0.0901697978
C  C165  1  0.62611000  0.76665000  0.92191000  1.0 -0.1711007343
C  C166  1  0.58899000  0.48745000  0.73901000  1.0 0.5870829245
C  C167  1  0.64120000  0.48604000  0.71434000  1.0 -0.0014182274
C  C168  1  0.66415000  0.49011000  0.73729000  1.0 -0.1711007343
C  C169  1  0.74974000  0.45666000  0.77684000  1.0 0.0420141059
C  C170  1  0.73971000  0.41345000  0.79393000  1.0 -0.0794434028
C  C171  1  0.75287000  0.37363000  0.83421000  1.0 -0.1424699046
C  C172  1  0.77607000  0.37703000  0.85741000  1.0 -0.129937166
C  C173  1  0.78611000  0.42023000  0.84033000  1.0 -0.0794434028
C  C174  1  0.77293000  0.46005000  0.80005000  1.0 0.0420141059
C  C175  1  0.76980000  0.54308000  0.74268000  1.0 0.0420141059
C  C176  1  0.74659000  0.53969000  0.71949000  1.0 0.0420141059
C  C177  1  0.73343000  0.57951000  0.67921000  1.0 -0.129937166
C  C178  1  0.77982000  0.58630000  0.72560000  1.0 -0.0901697978
C  C179  1  0.74346000  0.62272000  0.66212000  1.0 -0.0901697978
C  C180  1  0.76665000  0.62611000  0.68533000  1.0 -0.1711007343
C  C181  1  0.81545000  0.51255000  0.26099000  1.0 0.5870829245
C  C182  1  0.84158000  0.51396000  0.28566000  1.0 -0.0014182274
C  C183  1  0.89155000  0.50989000  0.26271000  1.0 -0.1711007343
C  C184  1  0.98324000  0.54334000  0.22316000  1.0 0.0420141059
C  C185  1  0.94709000  0.58655000  0.20607000  1.0 -0.0794434028
C  C186  1  0.96071000  0.62637000  0.16579000  1.0 -0.1424699046
C  C187  1  0.01051000  0.62297000  0.14259000  1.0 -0.129937166
C  C188  1  0.04667000  0.57977000  0.15967000  1.0 -0.0794434028
C  C189  1  0.03303000  0.53995000  0.19995000  1.0 0.0420141059
C  C190  1  0.05556000  0.45692000  0.25732000  1.0 0.0420141059
C  C191  1  0.00577000  0.46031000  0.28051000  1.0 0.0420141059
C  C192  1  0.99215000  0.42049000  0.32079000  1.0 -0.129937166
C  C193  1  0.09172000  0.41370000  0.27440000  1.0 -0.0901697978
C  C194  1  0.02830000  0.37728000  0.33788000  1.0 -0.0901697978
C  C195  1  0.07809000  0.37389000  0.31467000  1.0 -0.1711007343
C  C196  1  0.26099000  0.41101000  0.81545000  1.0 0.5870829245
C  C197  1  0.28566000  0.35880000  0.84158000  1.0 -0.0014182274
C  C198  1  0.26271000  0.33585000  0.89155000  1.0 -0.1711007343
C  C199  1  0.22316000  0.25026000  0.98324000  1.0 0.0420141059
C  C200  1  0.20607000  0.26029000  0.94709000  1.0 -0.0794434028
C  C201  1  0.16579000  0.24713000  0.96071000  1.0 -0.1455023827
C  C202  1  0.14259000  0.22393000  0.01051000  1.0 -0.129937166
C  C203  1  0.15967000  0.21389000  0.04667000  1.0 -0.0794434028
C  C204  1  0.19995000  0.22707000  0.03303000  1.0 0.0420141059
C  C205  1  0.25732000  0.23020000  0.05556000  1.0 0.0420141059
C  C206  1  0.28051000  0.25341000  0.00577000  1.0 0.0420141059
C  C207  1  0.32079000  0.26657000  0.99215000  1.0 -0.129937166
C  C208  1  0.27440000  0.22018000  0.09172000  1.0 -0.0901697978
C  C209  1  0.33788000  0.25654000  0.02830000  1.0 -0.0901697978
C  C210  1  0.31467000  0.23335000  0.07809000  1.0 -0.1711007343
C  C211  1  0.41101000  0.26099000  0.51255000  1.0 0.5870829245
C  C212  1  0.35880000  0.28566000  0.51396000  1.0 -0.0014182274
C  C213  1  0.33585000  0.26271000  0.50989000  1.0 -0.1711007343
C  C214  1  0.25026000  0.22316000  0.54334000  1.0 0.0420141059
C  C215  1  0.26029000  0.20607000  0.58655000  1.0 -0.0794434028
C  C216  1  0.24713000  0.16579000  0.62637000  1.0 -0.1424699046
C  C217  1  0.22393000  0.14259000  0.62297000  1.0 -0.129937166
C  C218  1  0.21389000  0.15967000  0.57977000  1.0 -0.0794434028
C  C219  1  0.22707000  0.19995000  0.53995000  1.0 0.0420141059
C  C220  1  0.23020000  0.25732000  0.45692000  1.0 0.0420141059
C  C221  1  0.25341000  0.28051000  0.46031000  1.0 0.0420141059
C  C222  1  0.26657000  0.32079000  0.42049000  1.0 -0.129937166
C  C223  1  0.22018000  0.27440000  0.41370000  1.0 -0.0901697978
C  C224  1  0.25654000  0.33788000  0.37728000  1.0 -0.0901697978
C  C225  1  0.23335000  0.31467000  0.37389000  1.0 -0.1711007343
C  C226  1  0.51255000  0.81545000  0.41101000  1.0 0.5870829245
C  C227  1  0.51396000  0.84158000  0.35880000  1.0 -0.0014182274
C  C228  1  0.50989000  0.89155000  0.33585000  1.0 -0.1711007343
C  C229  1  0.54334000  0.98324000  0.25026000  1.0 0.0420141059
C  C230  1  0.58655000  0.94709000  0.26029000  1.0 -0.0794434028
C  C231  1  0.62637000  0.96071000  0.24713000  1.0 -0.1424699046
C  C232  1  0.62297000  0.01051000  0.22393000  1.0 -0.129937166
C  C233  1  0.57977000  0.04667000  0.21389000  1.0 -0.0794434028
C  C234  1  0.53995000  0.03303000  0.22707000  1.0 0.0420141059
C  C235  1  0.45692000  0.05556000  0.23020000  1.0 0.0420141059
C  C236  1  0.46031000  0.00577000  0.25341000  1.0 0.0420141059
C  C237  1  0.42049000  0.99215000  0.26657000  1.0 -0.129937166
C  C238  1  0.41370000  0.09172000  0.22018000  1.0 -0.0901697978
C  C239  1  0.37728000  0.02830000  0.25654000  1.0 -0.0901697978
C  C240  1  0.37389000  0.07809000  0.23335000  1.0 -0.1711007343
C  C241  1  0.41101000  0.51255000  0.81545000  1.0 0.5870829245
C  C242  1  0.35880000  0.51396000  0.84158000  1.0 -0.0014182274
C  C243  1  0.33585000  0.50989000  0.89155000  1.0 -0.1711007343
C  C244  1  0.25026000  0.54334000  0.98324000  1.0 0.0420141059
C  C245  1  0.26029000  0.58655000  0.94709000  1.0 -0.0794434028
C  C246  1  0.24713000  0.62637000  0.96071000  1.0 -0.1424699046
C  C247  1  0.22393000  0.62297000  0.01051000  1.0 -0.129937166
C  C248  1  0.21389000  0.57977000  0.04667000  1.0 -0.0794434028
C  C249  1  0.22707000  0.53995000  0.03303000  1.0 0.0420141059
C  C250  1  0.23020000  0.45692000  0.05556000  1.0 0.0420141059
C  C251  1  0.25341000  0.46031000  0.00577000  1.0 0.0420141059
C  C252  1  0.26657000  0.42049000  0.99215000  1.0 -0.129937166
C  C253  1  0.22018000  0.41370000  0.09172000  1.0 -0.0901697978
C  C254  1  0.25654000  0.37728000  0.02830000  1.0 -0.0901697978
C  C255  1  0.23335000  0.37389000  0.07809000  1.0 -0.1711007343
C  C256  1  0.51255000  0.41101000  0.26099000  1.0 0.5870829245
C  C257  1  0.51396000  0.35880000  0.28566000  1.0 -0.0014182274
C  C258  1  0.50989000  0.33585000  0.26271000  1.0 -0.1711007343
C  C259  1  0.54334000  0.25026000  0.22316000  1.0 0.0420141059
C  C260  1  0.58655000  0.26029000  0.20607000  1.0 -0.0794434028
C  C261  1  0.62637000  0.24713000  0.16579000  1.0 -0.1455023827
C  C262  1  0.62297000  0.22393000  0.14259000  1.0 -0.129937166
C  C263  1  0.57977000  0.21389000  0.15967000  1.0 -0.0794434028
C  C264  1  0.53995000  0.22707000  0.19995000  1.0 0.0420141059
C  C265  1  0.45692000  0.23020000  0.25732000  1.0 0.0420141059
C  C266  1  0.46031000  0.25341000  0.28051000  1.0 0.0420141059
C  C267  1  0.42049000  0.26657000  0.32079000  1.0 -0.129937166
C  C268  1  0.41370000  0.22018000  0.27440000  1.0 -0.0901697978
C  C269  1  0.37728000  0.25654000  0.33788000  1.0 -0.0901697978
C  C270  1  0.37389000  0.23335000  0.31467000  1.0 -0.1711007343
C  C271  1  0.81545000  0.26099000  0.41101000  1.0 0.5870829245
C  C272  1  0.84158000  0.28566000  0.35880000  1.0 -0.0014182274
C  C273  1  0.89155000  0.26271000  0.33585000  1.0 -0.1711007343
C  C274  1  0.98324000  0.22316000  0.25026000  1.0 0.0420141059
C  C275  1  0.94709000  0.20607000  0.26029000  1.0 -0.0794434028
C  C276  1  0.96071000  0.16579000  0.24713000  1.0 -0.1424699046
C  C277  1  0.01051000  0.14259000  0.22393000  1.0 -0.129937166
C  C278  1  0.04667000  0.15967000  0.21389000  1.0 -0.0794434028
C  C279  1  0.03303000  0.19995000  0.22707000  1.0 0.0420141059
C  C280  1  0.05556000  0.25732000  0.23020000  1.0 0.0420141059
C  C281  1  0.00577000  0.28051000  0.25341000  1.0 0.0420141059
C  C282  1  0.99215000  0.32079000  0.26657000  1.0 -0.129937166
C  C283  1  0.09172000  0.27440000  0.22018000  1.0 -0.0901697978
C  C284  1  0.02830000  0.33788000  0.25654000  1.0 -0.0901697978
C  C285  1  0.07809000  0.31467000  0.23335000  1.0 -0.1711007343
C  C286  1  0.26099000  0.81545000  0.51255000  1.0 0.5870829245
C  C287  1  0.28566000  0.84158000  0.51396000  1.0 -0.0014182274
C  C288  1  0.26271000  0.89155000  0.50989000  1.0 -0.1711007343
C  C289  1  0.22316000  0.98324000  0.54334000  1.0 0.0420141059
C  C290  1  0.20607000  0.94709000  0.58655000  1.0 -0.0794434028
C  C291  1  0.16579000  0.96071000  0.62637000  1.0 -0.1424699046
C  C292  1  0.14259000  0.01051000  0.62297000  1.0 -0.129937166
C  C293  1  0.15967000  0.04667000  0.57977000  1.0 -0.0794434028
C  C294  1  0.19995000  0.03303000  0.53995000  1.0 0.0420141059
C  C295  1  0.25732000  0.05556000  0.45692000  1.0 0.0420141059
C  C296  1  0.28051000  0.00577000  0.46031000  1.0 0.0420141059
C  C297  1  0.32079000  0.99215000  0.42049000  1.0 -0.129937166
C  C298  1  0.27440000  0.09172000  0.41370000  1.0 -0.0901697978
C  C299  1  0.33788000  0.02830000  0.37728000  1.0 -0.0901697978
C  C300  1  0.31467000  0.07809000  0.37389000  1.0 -0.1711007343
C  C301  1  0.26099000  0.51255000  0.41101000  1.0 0.5870829245
C  C302  1  0.28566000  0.51396000  0.35880000  1.0 -0.0014182274
C  C303  1  0.26271000  0.50989000  0.33585000  1.0 -0.1711007343
C  C304  1  0.22316000  0.54334000  0.25026000  1.0 0.0420141059
C  C305  1  0.20607000  0.58655000  0.26029000  1.0 -0.0794434028
C  C306  1  0.16579000  0.62637000  0.24713000  1.0 -0.1424699046
C  C307  1  0.14259000  0.62297000  0.22393000  1.0 -0.129937166
C  C308  1  0.15967000  0.57977000  0.21389000  1.0 -0.0794434028
C  C309  1  0.19995000  0.53995000  0.22707000  1.0 0.0420141059
C  C310  1  0.25732000  0.45692000  0.23020000  1.0 0.0420141059
C  C311  1  0.28051000  0.46031000  0.25341000  1.0 0.0420141059
C  C312  1  0.32079000  0.42049000  0.26657000  1.0 -0.129937166
C  C313  1  0.27440000  0.41370000  0.22018000  1.0 -0.0901697978
C  C314  1  0.33788000  0.37728000  0.25654000  1.0 -0.0901697978
C  C315  1  0.31467000  0.37389000  0.23335000  1.0 -0.1711007343
C  C316  1  0.81545000  0.41101000  0.51255000  1.0 0.5870829245
C  C317  1  0.84158000  0.35880000  0.51396000  1.0 -0.0014182274
C  C318  1  0.89155000  0.33585000  0.50989000  1.0 -0.1711007343
C  C319  1  0.98324000  0.25026000  0.54334000  1.0 0.0420141059
C  C320  1  0.94709000  0.26029000  0.58655000  1.0 -0.0794434028
C  C321  1  0.96071000  0.24713000  0.62637000  1.0 -0.1424699046
C  C322  1  0.01051000  0.22393000  0.62297000  1.0 -0.129937166
C  C323  1  0.04667000  0.21389000  0.57977000  1.0 -0.0794434028
C  C324  1  0.03303000  0.22707000  0.53995000  1.0 0.0420141059
C  C325  1  0.05556000  0.23020000  0.45692000  1.0 0.0420141059
C  C326  1  0.00577000  0.25341000  0.46031000  1.0 0.0420141059
C  C327  1  0.99215000  0.26657000  0.42049000  1.0 -0.129937166
C  C328  1  0.09172000  0.22018000  0.41370000  1.0 -0.0901697978
C  C329  1  0.02830000  0.25654000  0.37728000  1.0 -0.0901697978
C  C330  1  0.07809000  0.23335000  0.37389000  1.0 -0.1711007343
C  C331  1  0.51255000  0.26099000  0.81545000  1.0 0.5870829245
C  C332  1  0.51396000  0.28566000  0.84158000  1.0 -0.0014182274
C  C333  1  0.50989000  0.26271000  0.89155000  1.0 -0.1711007343
C  C334  1  0.54334000  0.22316000  0.98324000  1.0 0.0420141059
C  C335  1  0.58655000  0.20607000  0.94709000  1.0 -0.0794434028
C  C336  1  0.62637000  0.16579000  0.96071000  1.0 -0.1424699046
C  C337  1  0.62297000  0.14259000  0.01051000  1.0 -0.129937166
C  C338  1  0.57977000  0.15967000  0.04667000  1.0 -0.0794434028
C  C339  1  0.53995000  0.19995000  0.03303000  1.0 0.0420141059
C  C340  1  0.45692000  0.25732000  0.05556000  1.0 0.0420141059
C  C341  1  0.46031000  0.28051000  0.00577000  1.0 0.0420141059
C  C342  1  0.42049000  0.32079000  0.99215000  1.0 -0.129937166
C  C343  1  0.41370000  0.27440000  0.09172000  1.0 -0.0901697978
C  C344  1  0.37728000  0.33788000  0.02830000  1.0 -0.0901697978
C  C345  1  0.37389000  0.31467000  0.07809000  1.0 -0.1711007343
C  C346  1  0.41101000  0.81545000  0.26099000  1.0 0.5870829245
C  C347  1  0.35880000  0.84158000  0.28566000  1.0 -0.0014182274
C  C348  1  0.33585000  0.89155000  0.26271000  1.0 -0.1711007343
C  C349  1  0.25026000  0.98324000  0.22316000  1.0 0.0420141059
C  C350  1  0.26029000  0.94709000  0.20607000  1.0 -0.0794434028
C  C351  1  0.24713000  0.96071000  0.16579000  1.0 -0.1424699046
C  C352  1  0.22393000  0.01051000  0.14259000  1.0 -0.129937166
C  C353  1  0.21389000  0.04667000  0.15967000  1.0 -0.0794434028
C  C354  1  0.22707000  0.03303000  0.19995000  1.0 0.0420141059
C  C355  1  0.23020000  0.05556000  0.25732000  1.0 0.0420141059
C  C356  1  0.25341000  0.00577000  0.28051000  1.0 0.0420141059
C  C357  1  0.26657000  0.99215000  0.32079000  1.0 -0.129937166
C  C358  1  0.22018000  0.09172000  0.27440000  1.0 -0.0901697978
C  C359  1  0.25654000  0.02830000  0.33788000  1.0 -0.0901697978
C  C360  1  0.23335000  0.07809000  0.31467000  1.0 -0.1711007343
C  C361  1  0.81545000  0.41101000  0.26099000  1.0 0.5870829245
C  C362  1  0.84158000  0.35880000  0.28566000  1.0 -0.0014182274
C  C363  1  0.89155000  0.33585000  0.26271000  1.0 -0.1711007343
C  C364  1  0.98324000  0.25026000  0.22316000  1.0 0.0420141059
C  C365  1  0.94709000  0.26029000  0.20607000  1.0 -0.0794434028
C  C366  1  0.96071000  0.24713000  0.16579000  1.0 -0.1424699046
C  C367  1  0.01051000  0.22393000  0.14259000  1.0 -0.129937166
C  C368  1  0.04667000  0.21389000  0.15967000  1.0 -0.0794434028
C  C369  1  0.03303000  0.22707000  0.19995000  1.0 0.0420141059
C  C370  1  0.05556000  0.23020000  0.25732000  1.0 0.0420141059
C  C371  1  0.00577000  0.25341000  0.28051000  1.0 0.0420141059
C  C372  1  0.99215000  0.26657000  0.32079000  1.0 -0.129937166
C  C373  1  0.09172000  0.22018000  0.27440000  1.0 -0.0901697978
C  C374  1  0.02830000  0.25654000  0.33788000  1.0 -0.0901697978
C  C375  1  0.07809000  0.23335000  0.31467000  1.0 -0.1711007343
C  C376  1  0.26099000  0.51255000  0.81545000  1.0 0.5870829245
C  C377  1  0.28566000  0.51396000  0.84158000  1.0 -0.0014182274
C  C378  1  0.26271000  0.50989000  0.89155000  1.0 -0.1711007343
C  C379  1  0.22316000  0.54334000  0.98324000  1.0 0.0420141059
C  C380  1  0.20607000  0.58655000  0.94709000  1.0 -0.0794434028
C  C381  1  0.16579000  0.62637000  0.96071000  1.0 -0.1424699046
C  C382  1  0.14259000  0.62297000  0.01051000  1.0 -0.129937166
C  C383  1  0.15967000  0.57977000  0.04667000  1.0 -0.0794434028
C  C384  1  0.19995000  0.53995000  0.03303000  1.0 0.0420141059
C  C385  1  0.25732000  0.45692000  0.05556000  1.0 0.0420141059
C  C386  1  0.28051000  0.46031000  0.00577000  1.0 0.0420141059
C  C387  1  0.32079000  0.42049000  0.99215000  1.0 -0.129937166
C  C388  1  0.27440000  0.41370000  0.09172000  1.0 -0.0901697978
C  C389  1  0.33788000  0.37728000  0.02830000  1.0 -0.0901697978
C  C390  1  0.31467000  0.37389000  0.07809000  1.0 -0.1711007343
C  C391  1  0.41101000  0.81545000  0.51255000  1.0 0.5870829245
C  C392  1  0.35880000  0.84158000  0.51396000  1.0 -0.0014182274
C  C393  1  0.33585000  0.89155000  0.50989000  1.0 -0.1711007343
C  C394  1  0.25026000  0.98324000  0.54334000  1.0 0.0420141059
C  C395  1  0.26029000  0.94709000  0.58655000  1.0 -0.0794434028
C  C396  1  0.24713000  0.96071000  0.62637000  1.0 -0.1424699046
C  C397  1  0.22393000  0.01051000  0.62297000  1.0 -0.129937166
C  C398  1  0.21389000  0.04667000  0.57977000  1.0 -0.0794434028
C  C399  1  0.22707000  0.03303000  0.53995000  1.0 0.0420141059
C  C400  1  0.23020000  0.05556000  0.45692000  1.0 0.0420141059
C  C401  1  0.25341000  0.00577000  0.46031000  1.0 0.0420141059
C  C402  1  0.26657000  0.99215000  0.42049000  1.0 -0.129937166
C  C403  1  0.22018000  0.09172000  0.41370000  1.0 -0.0901697978
C  C404  1  0.25654000  0.02830000  0.37728000  1.0 -0.0901697978
C  C405  1  0.23335000  0.07809000  0.37389000  1.0 -0.1711007343
C  C406  1  0.51255000  0.26099000  0.41101000  1.0 0.5870829245
C  C407  1  0.51396000  0.28566000  0.35880000  1.0 -0.0014182274
C  C408  1  0.50989000  0.26271000  0.33585000  1.0 -0.1711007343
C  C409  1  0.54334000  0.22316000  0.25026000  1.0 0.0420141059
C  C410  1  0.58655000  0.20607000  0.26029000  1.0 -0.0794434028
C  C411  1  0.62637000  0.16579000  0.24713000  1.0 -0.1424699046
C  C412  1  0.62297000  0.14259000  0.22393000  1.0 -0.129937166
C  C413  1  0.57977000  0.15967000  0.21389000  1.0 -0.0794434028
C  C414  1  0.53995000  0.19995000  0.22707000  1.0 0.0420141059
C  C415  1  0.45692000  0.25732000  0.23020000  1.0 0.0420141059
C  C416  1  0.46031000  0.28051000  0.25341000  1.0 0.0420141059
C  C417  1  0.42049000  0.32079000  0.26657000  1.0 -0.129937166
C  C418  1  0.41370000  0.27440000  0.22018000  1.0 -0.0901697978
C  C419  1  0.37728000  0.33788000  0.25654000  1.0 -0.0901697978
C  C420  1  0.37389000  0.31467000  0.23335000  1.0 -0.1711007343
C  C421  1  0.41101000  0.26099000  0.81545000  1.0 0.5870829245
C  C422  1  0.35880000  0.28566000  0.84158000  1.0 -0.0014182274
C  C423  1  0.33585000  0.26271000  0.89155000  1.0 -0.1711007343
C  C424  1  0.25026000  0.22316000  0.98324000  1.0 0.0420141059
C  C425  1  0.26029000  0.20607000  0.94709000  1.0 -0.0794434028
C  C426  1  0.24713000  0.16579000  0.96071000  1.0 -0.1424699046
C  C427  1  0.22393000  0.14259000  0.01051000  1.0 -0.129937166
C  C428  1  0.21389000  0.15967000  0.04667000  1.0 -0.0794434028
C  C429  1  0.22707000  0.19995000  0.03303000  1.0 0.0420141059
C  C430  1  0.23020000  0.25732000  0.05556000  1.0 0.0420141059
C  C431  1  0.25341000  0.28051000  0.00577000  1.0 0.0420141059
C  C432  1  0.26657000  0.32079000  0.99215000  1.0 -0.129937166
C  C433  1  0.22018000  0.27440000  0.09172000  1.0 -0.0901697978
C  C434  1  0.25654000  0.33788000  0.02830000  1.0 -0.0901697978
C  C435  1  0.23335000  0.31467000  0.07809000  1.0 -0.1711007343
C  C436  1  0.51255000  0.81545000  0.26099000  1.0 0.5870829245
C  C437  1  0.51396000  0.84158000  0.28566000  1.0 -0.0014182274
C  C438  1  0.50989000  0.89155000  0.26271000  1.0 -0.1711007343
C  C439  1  0.54334000  0.98324000  0.22316000  1.0 0.0420141059
C  C440  1  0.58655000  0.94709000  0.20607000  1.0 -0.0794434028
C  C441  1  0.62637000  0.96071000  0.16579000  1.0 -0.1424699046
C  C442  1  0.62297000  0.01051000  0.14259000  1.0 -0.129937166
C  C443  1  0.57977000  0.04667000  0.15967000  1.0 -0.0794434028
C  C444  1  0.53995000  0.03303000  0.19995000  1.0 0.0420141059
C  C445  1  0.45692000  0.05556000  0.25732000  1.0 0.0420141059
C  C446  1  0.46031000  0.00577000  0.28051000  1.0 0.0420141059
C  C447  1  0.42049000  0.99215000  0.32079000  1.0 -0.129937166
C  C448  1  0.41370000  0.09172000  0.27440000  1.0 -0.0901697978
C  C449  1  0.37728000  0.02830000  0.33788000  1.0 -0.0901697978
C  C450  1  0.37389000  0.07809000  0.31467000  1.0 -0.1711007343
C  C451  1  0.81545000  0.51255000  0.41101000  1.0 0.5870829245
C  C452  1  0.84158000  0.51396000  0.35880000  1.0 -0.0014182274
C  C453  1  0.89155000  0.50989000  0.33585000  1.0 -0.1711007343
C  C454  1  0.98324000  0.54334000  0.25026000  1.0 0.0420141059
C  C455  1  0.94709000  0.58655000  0.26029000  1.0 -0.0794434028
C  C456  1  0.96071000  0.62637000  0.24713000  1.0 -0.1424699046
C  C457  1  0.01051000  0.62297000  0.22393000  1.0 -0.129937166
C  C458  1  0.04667000  0.57977000  0.21389000  1.0 -0.0794434028
C  C459  1  0.03303000  0.53995000  0.22707000  1.0 0.0420141059
C  C460  1  0.05556000  0.45692000  0.23020000  1.0 0.0420141059
C  C461  1  0.00577000  0.46031000  0.25341000  1.0 0.0420141059
C  C462  1  0.99215000  0.42049000  0.26657000  1.0 -0.129937166
C  C463  1  0.09172000  0.41370000  0.22018000  1.0 -0.0901697978
C  C464  1  0.02830000  0.37728000  0.25654000  1.0 -0.0901697978
C  C465  1  0.07809000  0.37389000  0.23335000  1.0 -0.1711007343
C  C466  1  0.26099000  0.41101000  0.51255000  1.0 0.5870829245
C  C467  1  0.28566000  0.35880000  0.51396000  1.0 -0.0014182274
C  C468  1  0.26271000  0.33585000  0.50989000  1.0 -0.1711007343
C  C469  1  0.22316000  0.25026000  0.54334000  1.0 0.0420141059
C  C470  1  0.20607000  0.26029000  0.58655000  1.0 -0.0794434028
C  C471  1  0.16579000  0.24713000  0.62637000  1.0 -0.1424699046
C  C472  1  0.14259000  0.22393000  0.62297000  1.0 -0.129937166
C  C473  1  0.15967000  0.21389000  0.57977000  1.0 -0.0794434028
C  C474  1  0.19995000  0.22707000  0.53995000  1.0 0.0420141059
C  C475  1  0.25732000  0.23020000  0.45692000  1.0 0.0420141059
C  C476  1  0.28051000  0.25341000  0.46031000  1.0 0.0420141059
C  C477  1  0.32079000  0.26657000  0.42049000  1.0 -0.129937166
C  C478  1  0.27440000  0.22018000  0.41370000  1.0 -0.0901697978
C  C479  1  0.33788000  0.25654000  0.37728000  1.0 -0.0901697978
C  C480  1  0.31467000  0.23335000  0.37389000  1.0 -0.1711007343
C  C481  1  0.26099000  0.81545000  0.41101000  1.0 0.5870829245
C  C482  1  0.28566000  0.84158000  0.35880000  1.0 -0.0014182274
C  C483  1  0.26271000  0.89155000  0.33585000  1.0 -0.1711007343
C  C484  1  0.22316000  0.98324000  0.25026000  1.0 0.0420141059
C  C485  1  0.20607000  0.94709000  0.26029000  1.0 -0.0794434028
C  C486  1  0.16579000  0.96071000  0.24713000  1.0 -0.1424699046
C  C487  1  0.14259000  0.01051000  0.22393000  1.0 -0.129937166
C  C488  1  0.15967000  0.04667000  0.21389000  1.0 -0.0794434028
C  C489  1  0.19995000  0.03303000  0.22707000  1.0 0.0420141059
C  C490  1  0.25732000  0.05556000  0.23020000  1.0 0.0420141059
C  C491  1  0.28051000  0.00577000  0.25341000  1.0 0.0420141059
C  C492  1  0.32079000  0.99215000  0.26657000  1.0 -0.129937166
C  C493  1  0.27440000  0.09172000  0.22018000  1.0 -0.0901697978
C  C494  1  0.33788000  0.02830000  0.25654000  1.0 -0.0901697978
C  C495  1  0.31467000  0.07809000  0.23335000  1.0 -0.1711007343
C  C496  1  0.81545000  0.26099000  0.51255000  1.0 0.5870829245
C  C497  1  0.84158000  0.28566000  0.51396000  1.0 -0.0014182274
C  C498  1  0.89155000  0.26271000  0.50989000  1.0 -0.1711007343
C  C499  1  0.98324000  0.22316000  0.54334000  1.0 0.0420141059
C  C500  1  0.94709000  0.20607000  0.58655000  1.0 -0.0794434028
C  C501  1  0.96071000  0.16579000  0.62637000  1.0 -0.1424699046
C  C502  1  0.01051000  0.14259000  0.62297000  1.0 -0.129937166
C  C503  1  0.04667000  0.15967000  0.57977000  1.0 -0.0794434028
C  C504  1  0.03303000  0.19995000  0.53995000  1.0 0.0420141059
C  C505  1  0.05556000  0.25732000  0.45692000  1.0 0.0420141059
C  C506  1  0.00577000  0.28051000  0.46031000  1.0 0.0420141059
C  C507  1  0.99215000  0.32079000  0.42049000  1.0 -0.129937166
C  C508  1  0.09172000  0.27440000  0.41370000  1.0 -0.0901697978
C  C509  1  0.02830000  0.33788000  0.37728000  1.0 -0.0901697978
C  C510  1  0.07809000  0.31467000  0.37389000  1.0 -0.1711007343
C  C511  1  0.51255000  0.41101000  0.81545000  1.0 0.5870829245
C  C512  1  0.51396000  0.35880000  0.84158000  1.0 -0.0014182274
C  C513  1  0.50989000  0.33585000  0.89155000  1.0 -0.1711007343
C  C514  1  0.54334000  0.25026000  0.98324000  1.0 0.0420141059
C  C515  1  0.58655000  0.26029000  0.94709000  1.0 -0.0794434028
C  C516  1  0.62637000  0.24713000  0.96071000  1.0 -0.1424699046
C  C517  1  0.62297000  0.22393000  0.01051000  1.0 -0.129937166
C  C518  1  0.57977000  0.21389000  0.04667000  1.0 -0.0794434028
C  C519  1  0.53995000  0.22707000  0.03303000  1.0 0.0420141059
C  C520  1  0.45692000  0.23020000  0.05556000  1.0 0.0420141059
C  C521  1  0.46031000  0.25341000  0.00577000  1.0 0.0420141059
C  C522  1  0.42049000  0.26657000  0.99215000  1.0 -0.129937166
C  C523  1  0.41370000  0.22018000  0.09172000  1.0 -0.0901697978
C  C524  1  0.37728000  0.25654000  0.02830000  1.0 -0.0901697978
C  C525  1  0.37389000  0.23335000  0.07809000  1.0 -0.1711007343
C  C526  1  0.41101000  0.51255000  0.26099000  1.0 0.5870829245
C  C527  1  0.35880000  0.51396000  0.28566000  1.0 -0.0014182274
C  C528  1  0.33585000  0.50989000  0.26271000  1.0 -0.1711007343
C  C529  1  0.25026000  0.54334000  0.22316000  1.0 0.0420141059
C  C530  1  0.26029000  0.58655000  0.20607000  1.0 -0.0794434028
C  C531  1  0.24713000  0.62637000  0.16579000  1.0 -0.1455023827
C  C532  1  0.22393000  0.62297000  0.14259000  1.0 -0.129937166
C  C533  1  0.21389000  0.57977000  0.15967000  1.0 -0.0794434028
C  C534  1  0.22707000  0.53995000  0.19995000  1.0 0.0420141059
C  C535  1  0.23020000  0.45692000  0.25732000  1.0 0.0420141059
C  C536  1  0.25341000  0.46031000  0.28051000  1.0 0.0420141059
C  C537  1  0.26657000  0.42049000  0.32079000  1.0 -0.129937166
C  C538  1  0.22018000  0.41370000  0.27440000  1.0 -0.0901697978
C  C539  1  0.25654000  0.37728000  0.33788000  1.0 -0.0901697978
C  C540  1  0.23335000  0.37389000  0.31467000  1.0 -0.1711007343
C  C541  1  0.18455000  0.48745000  0.73901000  1.0 0.5870829245
C  C542  1  0.15842000  0.48604000  0.71434000  1.0 -0.0014182274
C  C543  1  0.10845000  0.49011000  0.73729000  1.0 -0.1711007343
C  C544  1  0.01676000  0.45666000  0.77684000  1.0 0.0420141059
C  C545  1  0.05291000  0.41345000  0.79393000  1.0 -0.0794434028
C  C546  1  0.03929000  0.37363000  0.83421000  1.0 -0.1424699046
C  C547  1  0.98949000  0.37703000  0.85741000  1.0 -0.129937166
C  C548  1  0.95333000  0.42023000  0.84033000  1.0 -0.0794434028
C  C549  1  0.96697000  0.46005000  0.80005000  1.0 0.0420141059
C  C550  1  0.94444000  0.54308000  0.74268000  1.0 0.0420141059
C  C551  1  0.99423000  0.53969000  0.71949000  1.0 0.0420141059
C  C552  1  0.00785000  0.57951000  0.67921000  1.0 -0.129937166
C  C553  1  0.90828000  0.58630000  0.72560000  1.0 -0.0901697978
C  C554  1  0.97170000  0.62272000  0.66212000  1.0 -0.0901697978
C  C555  1  0.92191000  0.62611000  0.68533000  1.0 -0.1711007343
C  C556  1  0.73901000  0.58899000  0.18455000  1.0 0.5870829245
C  C557  1  0.71434000  0.64120000  0.15842000  1.0 -0.0014182274
C  C558  1  0.73729000  0.66415000  0.10845000  1.0 -0.1711007343
C  C559  1  0.77684000  0.74974000  0.01676000  1.0 0.0420141059
C  C560  1  0.79393000  0.73971000  0.05291000  1.0 -0.0794434028
C  C561  1  0.83421000  0.75287000  0.03929000  1.0 -0.1455023827
C  C562  1  0.85741000  0.77607000  0.98949000  1.0 -0.129937166
C  C563  1  0.84033000  0.78611000  0.95333000  1.0 -0.0794434028
C  C564  1  0.80005000  0.77293000  0.96697000  1.0 0.0420141059
C  C565  1  0.74268000  0.76980000  0.94444000  1.0 0.0420141059
C  C566  1  0.71949000  0.74659000  0.99423000  1.0 0.0420141059
C  C567  1  0.67921000  0.73343000  0.00785000  1.0 -0.129937166
C  C568  1  0.72560000  0.77982000  0.90828000  1.0 -0.0901697978
C  C569  1  0.66212000  0.74346000  0.97170000  1.0 -0.0901697978
C  C570  1  0.68533000  0.76665000  0.92191000  1.0 -0.1711007343
C  C571  1  0.58899000  0.73901000  0.48745000  1.0 0.5870829245
C  C572  1  0.64120000  0.71434000  0.48604000  1.0 -0.0014182274
C  C573  1  0.66415000  0.73729000  0.49011000  1.0 -0.1711007343
C  C574  1  0.74974000  0.77684000  0.45666000  1.0 0.0420141059
C  C575  1  0.73971000  0.79393000  0.41345000  1.0 -0.0794434028
C  C576  1  0.75287000  0.83421000  0.37363000  1.0 -0.1424699046
C  C577  1  0.77607000  0.85741000  0.37703000  1.0 -0.129937166
C  C578  1  0.78611000  0.84033000  0.42023000  1.0 -0.0794434028
C  C579  1  0.77293000  0.80005000  0.46005000  1.0 0.0420141059
C  C580  1  0.76980000  0.74268000  0.54308000  1.0 0.0420141059
C  C581  1  0.74659000  0.71949000  0.53969000  1.0 0.0420141059
C  C582  1  0.73343000  0.67921000  0.57951000  1.0 -0.129937166
C  C583  1  0.77982000  0.72560000  0.58630000  1.0 -0.0901697978
C  C584  1  0.74346000  0.66212000  0.62272000  1.0 -0.0901697978
C  C585  1  0.76665000  0.68533000  0.62611000  1.0 -0.1711007343
C  C586  1  0.48745000  0.18455000  0.58899000  1.0 0.5870829245
C  C587  1  0.48604000  0.15842000  0.64120000  1.0 -0.0014182274
C  C588  1  0.49011000  0.10845000  0.66415000  1.0 -0.1711007343
C  C589  1  0.45666000  0.01676000  0.74974000  1.0 0.0420141059
C  C590  1  0.41345000  0.05291000  0.73971000  1.0 -0.0794434028
C  C591  1  0.37363000  0.03929000  0.75287000  1.0 -0.1424699046
C  C592  1  0.37703000  0.98949000  0.77607000  1.0 -0.129937166
C  C593  1  0.42023000  0.95333000  0.78611000  1.0 -0.0794434028
C  C594  1  0.46005000  0.96697000  0.77293000  1.0 0.0420141059
C  C595  1  0.54308000  0.94444000  0.76980000  1.0 0.0420141059
C  C596  1  0.53969000  0.99423000  0.74659000  1.0 0.0420141059
C  C597  1  0.57951000  0.00785000  0.73343000  1.0 -0.129937166
C  C598  1  0.58630000  0.90828000  0.77982000  1.0 -0.0901697978
C  C599  1  0.62272000  0.97170000  0.74346000  1.0 -0.0901697978
C  C600  1  0.62611000  0.92191000  0.76665000  1.0 -0.1711007343
C  C601  1  0.58899000  0.48745000  0.18455000  1.0 0.5870829245
C  C602  1  0.64120000  0.48604000  0.15842000  1.0 -0.0014182274
C  C603  1  0.66415000  0.49011000  0.10845000  1.0 -0.1711007343
C  C604  1  0.74974000  0.45666000  0.01676000  1.0 0.0420141059
C  C605  1  0.73971000  0.41345000  0.05291000  1.0 -0.0794434028
C  C606  1  0.75287000  0.37363000  0.03929000  1.0 -0.1455023827
C  C607  1  0.77607000  0.37703000  0.98949000  1.0 -0.129937166
C  C608  1  0.78611000  0.42023000  0.95333000  1.0 -0.0794434028
C  C609  1  0.77293000  0.46005000  0.96697000  1.0 0.0420141059
C  C610  1  0.76980000  0.54308000  0.94444000  1.0 0.0420141059
C  C611  1  0.74659000  0.53969000  0.99423000  1.0 0.0420141059
C  C612  1  0.73343000  0.57951000  0.00785000  1.0 -0.129937166
C  C613  1  0.77982000  0.58630000  0.90828000  1.0 -0.0901697978
C  C614  1  0.74346000  0.62272000  0.97170000  1.0 -0.0901697978
C  C615  1  0.76665000  0.62611000  0.92191000  1.0 -0.1711007343
C  C616  1  0.48745000  0.58899000  0.73901000  1.0 0.5870829245
C  C617  1  0.48604000  0.64120000  0.71434000  1.0 -0.0014182274
C  C618  1  0.49011000  0.66415000  0.73729000  1.0 -0.1711007343
C  C619  1  0.45666000  0.74974000  0.77684000  1.0 0.0420141059
C  C620  1  0.41345000  0.73971000  0.79393000  1.0 -0.0794434028
C  C621  1  0.37363000  0.75287000  0.83421000  1.0 -0.1424699046
C  C622  1  0.37703000  0.77607000  0.85741000  1.0 -0.129937166
C  C623  1  0.42023000  0.78611000  0.84033000  1.0 -0.0794434028
C  C624  1  0.46005000  0.77293000  0.80005000  1.0 0.0420141059
C  C625  1  0.54308000  0.76980000  0.74268000  1.0 0.0420141059
C  C626  1  0.53969000  0.74659000  0.71949000  1.0 0.0420141059
C  C627  1  0.57951000  0.73343000  0.67921000  1.0 -0.129937166
C  C628  1  0.58630000  0.77982000  0.72560000  1.0 -0.0901697978
C  C629  1  0.62272000  0.74346000  0.66212000  1.0 -0.0901697978
C  C630  1  0.62611000  0.76665000  0.68533000  1.0 -0.1711007343
C  C631  1  0.18455000  0.73901000  0.58899000  1.0 0.5870829245
C  C632  1  0.15842000  0.71434000  0.64120000  1.0 -0.0014182274
C  C633  1  0.10845000  0.73729000  0.66415000  1.0 -0.1711007343
C  C634  1  0.01676000  0.77684000  0.74974000  1.0 0.0420141059
C  C635  1  0.05291000  0.79393000  0.73971000  1.0 -0.0794434028
C  C636  1  0.03929000  0.83421000  0.75287000  1.0 -0.1424699046
C  C637  1  0.98949000  0.85741000  0.77607000  1.0 -0.129937166
C  C638  1  0.95333000  0.84033000  0.78611000  1.0 -0.0794434028
C  C639  1  0.96697000  0.80005000  0.77293000  1.0 0.0420141059
C  C640  1  0.94444000  0.74268000  0.76980000  1.0 0.0420141059
C  C641  1  0.99423000  0.71949000  0.74659000  1.0 0.0420141059
C  C642  1  0.00785000  0.67921000  0.73343000  1.0 -0.129937166
C  C643  1  0.90828000  0.72560000  0.77982000  1.0 -0.0901697978
C  C644  1  0.97170000  0.66212000  0.74346000  1.0 -0.0901697978
C  C645  1  0.92191000  0.68533000  0.76665000  1.0 -0.1711007343
C  C646  1  0.73901000  0.18455000  0.48745000  1.0 0.5870829245
C  C647  1  0.71434000  0.15842000  0.48604000  1.0 -0.0014182274
C  C648  1  0.73729000  0.10845000  0.49011000  1.0 -0.1711007343
C  C649  1  0.77684000  0.01676000  0.45666000  1.0 0.0420141059
C  C650  1  0.79393000  0.05291000  0.41345000  1.0 -0.0794434028
C  C651  1  0.83421000  0.03929000  0.37363000  1.0 -0.1424699046
C  C652  1  0.85741000  0.98949000  0.37703000  1.0 -0.129937166
C  C653  1  0.84033000  0.95333000  0.42023000  1.0 -0.0794434028
C  C654  1  0.80005000  0.96697000  0.46005000  1.0 0.0420141059
C  C655  1  0.74268000  0.94444000  0.54308000  1.0 0.0420141059
C  C656  1  0.71949000  0.99423000  0.53969000  1.0 0.0420141059
C  C657  1  0.67921000  0.00785000  0.57951000  1.0 -0.129937166
C  C658  1  0.72560000  0.90828000  0.58630000  1.0 -0.0901697978
C  C659  1  0.66212000  0.97170000  0.62272000  1.0 -0.0901697978
C  C660  1  0.68533000  0.92191000  0.62611000  1.0 -0.1711007343
C  C661  1  0.73901000  0.48745000  0.58899000  1.0 0.5870829245
C  C662  1  0.71434000  0.48604000  0.64120000  1.0 -0.0014182274
C  C663  1  0.73729000  0.49011000  0.66415000  1.0 -0.1711007343
C  C664  1  0.77684000  0.45666000  0.74974000  1.0 0.0420141059
C  C665  1  0.79393000  0.41345000  0.73971000  1.0 -0.0794434028
C  C666  1  0.83421000  0.37363000  0.75287000  1.0 -0.1424699046
C  C667  1  0.85741000  0.37703000  0.77607000  1.0 -0.129937166
C  C668  1  0.84033000  0.42023000  0.78611000  1.0 -0.0794434028
C  C669  1  0.80005000  0.46005000  0.77293000  1.0 0.0420141059
C  C670  1  0.74268000  0.54308000  0.76980000  1.0 0.0420141059
C  C671  1  0.71949000  0.53969000  0.74659000  1.0 0.0420141059
C  C672  1  0.67921000  0.57951000  0.73343000  1.0 -0.129937166
C  C673  1  0.72560000  0.58630000  0.77982000  1.0 -0.0901697978
C  C674  1  0.66212000  0.62272000  0.74346000  1.0 -0.0901697978
C  C675  1  0.68533000  0.62611000  0.76665000  1.0 -0.1711007343
C  C676  1  0.18455000  0.58899000  0.48745000  1.0 0.5870829245
C  C677  1  0.15842000  0.64120000  0.48604000  1.0 -0.0014182274
C  C678  1  0.10845000  0.66415000  0.49011000  1.0 -0.1711007343
C  C679  1  0.01676000  0.74974000  0.45666000  1.0 0.0420141059
C  C680  1  0.05291000  0.73971000  0.41345000  1.0 -0.0794434028
C  C681  1  0.03929000  0.75287000  0.37363000  1.0 -0.1455023827
C  C682  1  0.98949000  0.77607000  0.37703000  1.0 -0.129937166
C  C683  1  0.95333000  0.78611000  0.42023000  1.0 -0.0794434028
C  C684  1  0.96697000  0.77293000  0.46005000  1.0 0.0420141059
C  C685  1  0.94444000  0.76980000  0.54308000  1.0 0.0420141059
C  C686  1  0.99423000  0.74659000  0.53969000  1.0 0.0420141059
C  C687  1  0.00785000  0.73343000  0.57951000  1.0 -0.129937166
C  C688  1  0.90828000  0.77982000  0.58630000  1.0 -0.0901697978
C  C689  1  0.97170000  0.74346000  0.62272000  1.0 -0.0901697978
C  C690  1  0.92191000  0.76665000  0.62611000  1.0 -0.1711007343
C  C691  1  0.48745000  0.73901000  0.18455000  1.0 0.5870829245
C  C692  1  0.48604000  0.71434000  0.15842000  1.0 -0.0014182274
C  C693  1  0.49011000  0.73729000  0.10845000  1.0 -0.1711007343
C  C694  1  0.45666000  0.77684000  0.01676000  1.0 0.0420141059
C  C695  1  0.41345000  0.79393000  0.05291000  1.0 -0.0794434028
C  C696  1  0.37363000  0.83421000  0.03929000  1.0 -0.1424699046
C  C697  1  0.37703000  0.85741000  0.98949000  1.0 -0.129937166
C  C698  1  0.42023000  0.84033000  0.95333000  1.0 -0.0794434028
C  C699  1  0.46005000  0.80005000  0.96697000  1.0 0.0420141059
C  C700  1  0.54308000  0.74268000  0.94444000  1.0 0.0420141059
C  C701  1  0.53969000  0.71949000  0.99423000  1.0 0.0420141059
C  C702  1  0.57951000  0.67921000  0.00785000  1.0 -0.129937166
C  C703  1  0.58630000  0.72560000  0.90828000  1.0 -0.0901697978
C  C704  1  0.62272000  0.66212000  0.97170000  1.0 -0.0901697978
C  C705  1  0.62611000  0.68533000  0.92191000  1.0 -0.1711007343
C  C706  1  0.58899000  0.18455000  0.73901000  1.0 0.5870829245
C  C707  1  0.64120000  0.15842000  0.71434000  1.0 -0.0014182274
C  C708  1  0.66415000  0.10845000  0.73729000  1.0 -0.1711007343
C  C709  1  0.74974000  0.01676000  0.77684000  1.0 0.0420141059
C  C710  1  0.73971000  0.05291000  0.79393000  1.0 -0.0794434028
C  C711  1  0.75287000  0.03929000  0.83421000  1.0 -0.1424699046
C  C712  1  0.77607000  0.98949000  0.85741000  1.0 -0.129937166
C  C713  1  0.78611000  0.95333000  0.84033000  1.0 -0.0794434028
C  C714  1  0.77293000  0.96697000  0.80005000  1.0 0.0420141059
C  C715  1  0.76980000  0.94444000  0.74268000  1.0 0.0420141059
C  C716  1  0.74659000  0.99423000  0.71949000  1.0 0.0420141059
C  C717  1  0.73343000  0.00785000  0.67921000  1.0 -0.129937166
C  C718  1  0.77982000  0.90828000  0.72560000  1.0 -0.0901697978
C  C719  1  0.74346000  0.97170000  0.66212000  1.0 -0.0901697978
C  C720  1  0.76665000  0.92191000  0.68533000  1.0 -0.1711007343
C  C721  1  0.18341000  0.66629000  0.66629000  1.0 -0.1424699046
C  C722  1  0.08347000  0.71219000  0.71219000  1.0 0.0700430822
C  C723  1  0.03039000  0.73657000  0.73657000  1.0 -0.0107125913
C  C724  1  0.93080000  0.78296000  0.78296000  1.0 -0.0107125913
C  C725  1  0.87986000  0.80670000  0.80670000  1.0 0.0595438049
C  C726  1  0.66629000  0.48401000  0.18341000  1.0 -0.1424699046
C  C727  1  0.71219000  0.49215000  0.08347000  1.0 0.0700430822
C  C728  1  0.73657000  0.49647000  0.03039000  1.0 -0.0107125913
C  C729  1  0.78296000  0.50328000  0.93080000  1.0 -0.0107125913
C  C730  1  0.80670000  0.50674000  0.87986000  1.0 0.0595438049
C  C731  1  0.66629000  0.18341000  0.48401000  1.0 -0.1424699046
C  C732  1  0.71219000  0.08347000  0.49215000  1.0 0.0700430822
C  C733  1  0.73657000  0.03039000  0.49647000  1.0 -0.0107125913
C  C734  1  0.78296000  0.93080000  0.50328000  1.0 -0.0107125913
C  C735  1  0.80670000  0.87986000  0.50674000  1.0 0.0595438049
C  C736  1  0.48401000  0.66629000  0.66629000  1.0 -0.1424699046
C  C737  1  0.49215000  0.71219000  0.71219000  1.0 0.0700430822
C  C738  1  0.49647000  0.73657000  0.73657000  1.0 -0.0107125913
C  C739  1  0.50328000  0.78296000  0.78296000  1.0 -0.0107125913
C  C740  1  0.50674000  0.80670000  0.80670000  1.0 0.0595438049
C  C741  1  0.66629000  0.66629000  0.18341000  1.0 -0.1424699046
C  C742  1  0.71219000  0.71219000  0.08347000  1.0 0.0700430822
C  C743  1  0.73657000  0.73657000  0.03039000  1.0 -0.0107125913
C  C744  1  0.78296000  0.78296000  0.93080000  1.0 -0.0107125913
C  C745  1  0.80670000  0.80670000  0.87986000  1.0 0.0595438049
C  C746  1  0.48401000  0.18341000  0.66629000  1.0 -0.1424699046
C  C747  1  0.49215000  0.08347000  0.71219000  1.0 0.0700430822
C  C748  1  0.49647000  0.03039000  0.73657000  1.0 -0.0107125913
C  C749  1  0.50328000  0.93080000  0.78296000  1.0 -0.0107125913
C  C750  1  0.50674000  0.87986000  0.80670000  1.0 0.0595438049
C  C751  1  0.18341000  0.48401000  0.66629000  1.0 -0.1424699046
C  C752  1  0.08347000  0.49215000  0.71219000  1.0 0.0700430822
C  C753  1  0.03039000  0.49647000  0.73657000  1.0 -0.0107125913
C  C754  1  0.93080000  0.50328000  0.78296000  1.0 -0.0107125913
C  C755  1  0.87986000  0.50674000  0.80670000  1.0 0.0595438049
C  C756  1  0.66629000  0.66629000  0.48401000  1.0 -0.1424699046
C  C757  1  0.71219000  0.71219000  0.49215000  1.0 0.0700430822
C  C758  1  0.73657000  0.73657000  0.49647000  1.0 -0.0107125913
C  C759  1  0.78296000  0.78296000  0.50328000  1.0 -0.0107125913
C  C760  1  0.80670000  0.80670000  0.50674000  1.0 0.0595438049
C  C761  1  0.66629000  0.18341000  0.66629000  1.0 -0.1424699046
C  C762  1  0.71219000  0.08347000  0.71219000  1.0 0.0700430822
C  C763  1  0.73657000  0.03039000  0.73657000  1.0 -0.0107125913
C  C764  1  0.78296000  0.93080000  0.78296000  1.0 -0.0107125913
C  C765  1  0.80670000  0.87986000  0.80670000  1.0 0.0595438049
C  C766  1  0.18341000  0.66629000  0.48401000  1.0 -0.1424699046
C  C767  1  0.08347000  0.71219000  0.49215000  1.0 0.0700430822
C  C768  1  0.03039000  0.73657000  0.49647000  1.0 -0.0107125913
C  C769  1  0.93080000  0.78296000  0.50328000  1.0 -0.0107125913
C  C770  1  0.87986000  0.80670000  0.50674000  1.0 0.0595438049
C  C771  1  0.48401000  0.66629000  0.18341000  1.0 -0.1424699046
C  C772  1  0.49215000  0.71219000  0.08347000  1.0 0.0700430822
C  C773  1  0.49647000  0.73657000  0.03039000  1.0 -0.0107125913
C  C774  1  0.50328000  0.78296000  0.93080000  1.0 -0.0107125913
C  C775  1  0.50674000  0.80670000  0.87986000  1.0 0.0595438049
C  C776  1  0.66629000  0.48401000  0.66629000  1.0 -0.1424699046
C  C777  1  0.71219000  0.49215000  0.71219000  1.0 0.0700430822
C  C778  1  0.73657000  0.49647000  0.73657000  1.0 -0.0107125913
C  C779  1  0.78296000  0.50328000  0.78296000  1.0 -0.0107125913
C  C780  1  0.80670000  0.50674000  0.80670000  1.0 0.0595438049
C  C781  1  0.81659000  0.51599000  0.33371000  1.0 -0.1424699046
C  C782  1  0.91653000  0.50785000  0.28781000  1.0 0.0700430822
C  C783  1  0.96961000  0.50353000  0.26343000  1.0 -0.0107125913
C  C784  1  0.06920000  0.49672000  0.21704000  1.0 -0.0107125913
C  C785  1  0.12014000  0.49326000  0.19330000  1.0 0.0595438049
C  C786  1  0.33371000  0.33371000  0.81659000  1.0 -0.1424699046
C  C787  1  0.28781000  0.28781000  0.91653000  1.0 0.0700430822
C  C788  1  0.26343000  0.26343000  0.96961000  1.0 -0.0107125913
C  C789  1  0.21704000  0.21704000  0.06920000  1.0 -0.0107125913
C  C790  1  0.19330000  0.19330000  0.12014000  1.0 0.0595438049
C  C791  1  0.33371000  0.33371000  0.51599000  1.0 -0.1424699046
C  C792  1  0.28781000  0.28781000  0.50785000  1.0 0.0700430822
C  C793  1  0.26343000  0.26343000  0.50353000  1.0 -0.0107125913
C  C794  1  0.21704000  0.21704000  0.49672000  1.0 -0.0107125913
C  C795  1  0.19330000  0.19330000  0.49326000  1.0 0.0595438049
C  C796  1  0.51599000  0.81659000  0.33371000  1.0 -0.1424699046
C  C797  1  0.50785000  0.91653000  0.28781000  1.0 0.0700430822
C  C798  1  0.50353000  0.96961000  0.26343000  1.0 -0.0107125913
C  C799  1  0.49672000  0.06920000  0.21704000  1.0 -0.0107125913
C  C800  1  0.49326000  0.12014000  0.19330000  1.0 0.0595438049
C  C801  1  0.33371000  0.51599000  0.81659000  1.0 -0.1424699046
C  C802  1  0.28781000  0.50785000  0.91653000  1.0 0.0700430822
C  C803  1  0.26343000  0.50353000  0.96961000  1.0 -0.0107125913
C  C804  1  0.21704000  0.49672000  0.06920000  1.0 -0.0107125913
C  C805  1  0.19330000  0.49326000  0.12014000  1.0 0.0595438049
C  C806  1  0.51599000  0.33371000  0.33371000  1.0 -0.1424699046
C  C807  1  0.50785000  0.28781000  0.28781000  1.0 0.0700430822
C  C808  1  0.50353000  0.26343000  0.26343000  1.0 -0.0107125913
C  C809  1  0.49672000  0.21704000  0.21704000  1.0 -0.0107125913
C  C810  1  0.49326000  0.19330000  0.19330000  1.0 0.0595438049
C  C811  1  0.81659000  0.33371000  0.33371000  1.0 -0.1424699046
C  C812  1  0.91653000  0.28781000  0.28781000  1.0 0.0700430822
C  C813  1  0.96961000  0.26343000  0.26343000  1.0 -0.0107125913
C  C814  1  0.06920000  0.21704000  0.21704000  1.0 -0.0107125913
C  C815  1  0.12014000  0.19330000  0.19330000  1.0 0.0595438049
C  C816  1  0.33371000  0.81659000  0.51599000  1.0 -0.1424699046
C  C817  1  0.28781000  0.91653000  0.50785000  1.0 0.0700430822
C  C818  1  0.26343000  0.96961000  0.50353000  1.0 -0.0107125913
C  C819  1  0.21704000  0.06920000  0.49672000  1.0 -0.0107125913
C  C820  1  0.19330000  0.12014000  0.49326000  1.0 0.0595438049
C  C821  1  0.33371000  0.51599000  0.33371000  1.0 -0.1424699046
C  C822  1  0.28781000  0.50785000  0.28781000  1.0 0.0700430822
C  C823  1  0.26343000  0.50353000  0.26343000  1.0 -0.0107125913
C  C824  1  0.21704000  0.49672000  0.21704000  1.0 -0.0107125913
C  C825  1  0.19330000  0.49326000  0.19330000  1.0 0.0595438049
C  C826  1  0.81659000  0.33371000  0.51599000  1.0 -0.1424699046
C  C827  1  0.91653000  0.28781000  0.50785000  1.0 0.0700430822
C  C828  1  0.96961000  0.26343000  0.50353000  1.0 -0.0107125913
C  C829  1  0.06920000  0.21704000  0.49672000  1.0 -0.0107125913
C  C830  1  0.12014000  0.19330000  0.49326000  1.0 0.0595438049
C  C831  1  0.51599000  0.33371000  0.81659000  1.0 -0.1424699046
C  C832  1  0.50785000  0.28781000  0.91653000  1.0 0.0700430822
C  C833  1  0.50353000  0.26343000  0.96961000  1.0 -0.0107125913
C  C834  1  0.49672000  0.21704000  0.06920000  1.0 -0.0107125913
C  C835  1  0.49326000  0.19330000  0.12014000  1.0 0.0595438049
C  C836  1  0.33371000  0.81659000  0.33371000  1.0 -0.1424699046
C  C837  1  0.28781000  0.91653000  0.28781000  1.0 0.0700430822
C  C838  1  0.26343000  0.96961000  0.26343000  1.0 -0.0107125913
C  C839  1  0.21704000  0.06920000  0.21704000  1.0 -0.0107125913
C  C840  1  0.19330000  0.12014000  0.19330000  1.0 0.0595438049
C  C841  1  0.85547000  0.85547000  0.78233000  1.0 -0.2436403545
C  C842  1  0.78233000  0.50673000  0.85547000  1.0 -0.2466510264
C  C843  1  0.85547000  0.85547000  0.50673000  1.0 -0.2466510264
C  C844  1  0.50673000  0.78233000  0.85547000  1.0 -0.2436403545
C  C845  1  0.85547000  0.78233000  0.85547000  1.0 -0.2466510264
C  C846  1  0.50673000  0.85547000  0.78233000  1.0 -0.2436403545
C  C847  1  0.85547000  0.50673000  0.85547000  1.0 -0.2466510264
C  C848  1  0.78233000  0.85547000  0.50673000  1.0 -0.2466510264
C  C849  1  0.78233000  0.85547000  0.85547000  1.0 -0.2466510264
C  C850  1  0.85547000  0.78233000  0.50673000  1.0 -0.2466510264
C  C851  1  0.50673000  0.85547000  0.85547000  1.0 -0.2436403545
C  C852  1  0.85547000  0.50673000  0.78233000  1.0 -0.2436403545
C  C853  1  0.14453000  0.49327000  0.21767000  1.0 -0.2466510264
C  C854  1  0.21767000  0.14453000  0.14453000  1.0 -0.2436403545
C  C855  1  0.14453000  0.21767000  0.49327000  1.0 -0.2466510264
C  C856  1  0.49327000  0.14453000  0.14453000  1.0 -0.2436403545
C  C857  1  0.14453000  0.49327000  0.14453000  1.0 -0.2466510264
C  C858  1  0.49327000  0.14453000  0.21767000  1.0 -0.2466510264
C  C859  1  0.14453000  0.21767000  0.14453000  1.0 -0.2436403545
C  C860  1  0.21767000  0.14453000  0.49327000  1.0 -0.2436403545
C  C861  1  0.21767000  0.49327000  0.14453000  1.0 -0.2466510264
C  C862  1  0.14453000  0.14453000  0.49327000  1.0 -0.2466510264
C  C863  1  0.49327000  0.21767000  0.14453000  1.0 -0.2436403545
C  C864  1  0.14453000  0.14453000  0.21767000  1.0 -0.2466510264
O  O1  1  0.16270000  0.56610000  0.78330000  1.0 -0.5198138019
O  O2  1  0.22880000  0.56740000  0.71580000  1.0 -0.5198138019
O  O3  1  0.78330000  0.48790000  0.16270000  1.0 -0.5198138019
O  O4  1  0.71580000  0.48800000  0.22880000  1.0 -0.5198138019
O  O5  1  0.56610000  0.16270000  0.48790000  1.0 -0.5198138019
O  O6  1  0.56740000  0.22880000  0.48800000  1.0 -0.5198138019
O  O7  1  0.48790000  0.78330000  0.56610000  1.0 -0.5198138019
O  O8  1  0.48800000  0.71580000  0.56740000  1.0 -0.5198138019
O  O9  1  0.56610000  0.78330000  0.16270000  1.0 -0.5198138019
O  O10  1  0.56740000  0.71580000  0.22880000  1.0 -0.5198138019
O  O11  1  0.48790000  0.16270000  0.78330000  1.0 -0.5198138019
O  O12  1  0.48800000  0.22880000  0.71580000  1.0 -0.5198138019
O  O13  1  0.16270000  0.48790000  0.56610000  1.0 -0.5198138019
O  O14  1  0.22880000  0.48800000  0.56740000  1.0 -0.5198138019
O  O15  1  0.78330000  0.56610000  0.48790000  1.0 -0.5198138019
O  O16  1  0.71580000  0.56740000  0.48800000  1.0 -0.5198138019
O  O17  1  0.78330000  0.16270000  0.56610000  1.0 -0.5198138019
O  O18  1  0.71580000  0.22880000  0.56740000  1.0 -0.5198138019
O  O19  1  0.16270000  0.78330000  0.48790000  1.0 -0.5198138019
O  O20  1  0.22880000  0.71580000  0.48800000  1.0 -0.5198138019
O  O21  1  0.48790000  0.56610000  0.16270000  1.0 -0.5198138019
O  O22  1  0.48800000  0.56740000  0.22880000  1.0 -0.5198138019
O  O23  1  0.56610000  0.48790000  0.78330000  1.0 -0.5198138019
O  O24  1  0.56740000  0.48800000  0.71580000  1.0 -0.5198138019
O  O25  1  0.83730000  0.51210000  0.21670000  1.0 -0.5198138019
O  O26  1  0.77120000  0.51200000  0.28420000  1.0 -0.5198138019
O  O27  1  0.21670000  0.43390000  0.83730000  1.0 -0.5198138019
O  O28  1  0.28420000  0.43260000  0.77120000  1.0 -0.5198138019
O  O29  1  0.43390000  0.21670000  0.51210000  1.0 -0.5198138019
O  O30  1  0.43260000  0.28420000  0.51200000  1.0 -0.5198138019
O  O31  1  0.51210000  0.83730000  0.43390000  1.0 -0.5198138019
O  O32  1  0.51200000  0.77120000  0.43260000  1.0 -0.5198138019
O  O33  1  0.43390000  0.51210000  0.83730000  1.0 -0.5198138019
O  O34  1  0.43260000  0.51200000  0.77120000  1.0 -0.5198138019
O  O35  1  0.51210000  0.43390000  0.21670000  1.0 -0.5198138019
O  O36  1  0.51200000  0.43260000  0.28420000  1.0 -0.5198138019
O  O37  1  0.83730000  0.21670000  0.43390000  1.0 -0.5198138019
O  O38  1  0.77120000  0.28420000  0.43260000  1.0 -0.5198138019
O  O39  1  0.21670000  0.83730000  0.51210000  1.0 -0.5198138019
O  O40  1  0.28420000  0.77120000  0.51200000  1.0 -0.5198138019
O  O41  1  0.21670000  0.51210000  0.43390000  1.0 -0.5198138019
O  O42  1  0.28420000  0.51200000  0.43260000  1.0 -0.5198138019
O  O43  1  0.83730000  0.43390000  0.51210000  1.0 -0.5198138019
O  O44  1  0.77120000  0.43260000  0.51200000  1.0 -0.5198138019
O  O45  1  0.51210000  0.21670000  0.83730000  1.0 -0.5198138019
O  O46  1  0.51200000  0.28420000  0.77120000  1.0 -0.5198138019
O  O47  1  0.43390000  0.83730000  0.21670000  1.0 -0.5198138019
O  O48  1  0.43260000  0.77120000  0.28420000  1.0 -0.5198138019
O  O49  1  0.83730000  0.43390000  0.21670000  1.0 -0.5198138019
O  O50  1  0.77120000  0.43260000  0.28420000  1.0 -0.5198138019
O  O51  1  0.21670000  0.51210000  0.83730000  1.0 -0.5198138019
O  O52  1  0.28420000  0.51200000  0.77120000  1.0 -0.5198138019
O  O53  1  0.43390000  0.83730000  0.51210000  1.0 -0.5198138019
O  O54  1  0.43260000  0.77120000  0.51200000  1.0 -0.5198138019
O  O55  1  0.51210000  0.21670000  0.43390000  1.0 -0.5198138019
O  O56  1  0.51200000  0.28420000  0.43260000  1.0 -0.5198138019
O  O57  1  0.43390000  0.21670000  0.83730000  1.0 -0.5198138019
O  O58  1  0.43260000  0.28420000  0.77120000  1.0 -0.5198138019
O  O59  1  0.51210000  0.83730000  0.21670000  1.0 -0.5198138019
O  O60  1  0.51200000  0.77120000  0.28420000  1.0 -0.5198138019
O  O61  1  0.83730000  0.51210000  0.43390000  1.0 -0.5198138019
O  O62  1  0.77120000  0.51200000  0.43260000  1.0 -0.5198138019
O  O63  1  0.21670000  0.43390000  0.51210000  1.0 -0.5198138019
O  O64  1  0.28420000  0.43260000  0.51200000  1.0 -0.5198138019
O  O65  1  0.21670000  0.83730000  0.43390000  1.0 -0.5198138019
O  O66  1  0.28420000  0.77120000  0.43260000  1.0 -0.5198138019
O  O67  1  0.83730000  0.21670000  0.51210000  1.0 -0.5198138019
O  O68  1  0.77120000  0.28420000  0.51200000  1.0 -0.5198138019
O  O69  1  0.51210000  0.43390000  0.83730000  1.0 -0.5198138019
O  O70  1  0.51200000  0.43260000  0.77120000  1.0 -0.5198138019
O  O71  1  0.43390000  0.51210000  0.21670000  1.0 -0.5198138019
O  O72  1  0.43260000  0.51200000  0.28420000  1.0 -0.5198138019
O  O73  1  0.16270000  0.48790000  0.78330000  1.0 -0.5198138019
O  O74  1  0.22880000  0.48800000  0.71580000  1.0 -0.5198138019
O  O75  1  0.78330000  0.56610000  0.16270000  1.0 -0.5198138019
O  O76  1  0.71580000  0.56740000  0.22880000  1.0 -0.5198138019
O  O77  1  0.56610000  0.78330000  0.48790000  1.0 -0.5198138019
O  O78  1  0.56740000  0.71580000  0.48800000  1.0 -0.5198138019
O  O79  1  0.48790000  0.16270000  0.56610000  1.0 -0.5198138019
O  O80  1  0.48800000  0.22880000  0.56740000  1.0 -0.5198138019
O  O81  1  0.56610000  0.48790000  0.16270000  1.0 -0.5198138019
O  O82  1  0.56740000  0.48800000  0.22880000  1.0 -0.5198138019
O  O83  1  0.48790000  0.56610000  0.78330000  1.0 -0.5198138019
O  O84  1  0.48800000  0.56740000  0.71580000  1.0 -0.5198138019
O  O85  1  0.16270000  0.78330000  0.56610000  1.0 -0.5198138019
O  O86  1  0.22880000  0.71580000  0.56740000  1.0 -0.5198138019
O  O87  1  0.78330000  0.16270000  0.48790000  1.0 -0.5198138019
O  O88  1  0.71580000  0.22880000  0.48800000  1.0 -0.5198138019
O  O89  1  0.78330000  0.48790000  0.56610000  1.0 -0.5198138019
O  O90  1  0.71580000  0.48800000  0.56740000  1.0 -0.5198138019
O  O91  1  0.16270000  0.56610000  0.48790000  1.0 -0.5198138019
O  O92  1  0.22880000  0.56740000  0.48800000  1.0 -0.5198138019
O  O93  1  0.48790000  0.78330000  0.16270000  1.0 -0.5198138019
O  O94  1  0.48800000  0.71580000  0.22880000  1.0 -0.5198138019
O  O95  1  0.56610000  0.16270000  0.78330000  1.0 -0.5198138019
O  O96  1  0.56740000  0.22880000  0.71580000  1.0 -0.5198138019
