# DDEC6 charges by PACMAN v1.1 (https://github.com/mtap-research/PACMAN-charge/)
data_DEKNEP_FSR_pacman
_symmetry_space_group_name_H-M   'P 1'
_cell_length_a   30.90690000
_cell_length_b   30.90690000
_cell_length_c   30.90690000
_cell_angle_alpha   60.00000000
_cell_angle_beta   60.00000000
_cell_angle_gamma   60.00000000
_symmetry_Int_Tables_number   1
_chemical_formula_structural   Cu3H33C54NO12
_chemical_formula_sum   'Cu24 H264 C432 N8 O96'
_cell_volume   20876.19491588
_cell_formula_units_Z   8
loop_
 _symmetry_equiv_pos_site_id
 _symmetry_equiv_pos_as_xyz
  1  'x, y, z'
loop_
 _atom_site_type_symbol
 _atom_site_label
 _atom_site_symmetry_multiplicity
 _atom_site_fract_x
 _atom_site_fract_y
 _atom_site_fract_z
 _atom_site_occupancy
 _atom_site_charge
Cu  Cu1  1  0.00000000  0.00000000  0.65834000  1.0 0.7501968354
Cu  Cu2  1  0.00000000  0.00000000  0.73340000  1.0 0.7501968354
Cu  Cu3  1  0.65834000  0.34166000  0.00000000  1.0 0.7501968354
Cu  Cu4  1  0.73340000  0.26660000  0.00000000  1.0 0.7501968354
Cu  Cu5  1  0.00000000  0.00000000  0.34166000  1.0 0.7501968354
Cu  Cu6  1  0.00000000  0.00000000  0.26660000  1.0 0.7501968354
Cu  Cu7  1  0.34166000  0.65834000  0.00000000  1.0 0.7501968354
Cu  Cu8  1  0.26660000  0.73340000  0.00000000  1.0 0.7501968354
Cu  Cu9  1  0.00000000  0.65834000  0.00000000  1.0 0.7501968354
Cu  Cu10  1  0.00000000  0.73340000  0.00000000  1.0 0.7501968354
Cu  Cu11  1  0.34166000  0.00000000  0.65834000  1.0 0.7501968354
Cu  Cu12  1  0.26660000  0.00000000  0.73340000  1.0 0.7501968354
Cu  Cu13  1  0.00000000  0.34166000  0.00000000  1.0 0.7554056067
Cu  Cu14  1  0.00000000  0.26660000  0.00000000  1.0 0.7501968354
Cu  Cu15  1  0.65834000  0.00000000  0.34166000  1.0 0.7501968354
Cu  Cu16  1  0.73340000  0.00000000  0.26660000  1.0 0.7501968354
Cu  Cu17  1  0.65834000  0.00000000  0.00000000  1.0 0.7501968354
Cu  Cu18  1  0.73340000  0.00000000  0.00000000  1.0 0.7501968354
Cu  Cu19  1  0.00000000  0.65834000  0.34166000  1.0 0.7501968354
Cu  Cu20  1  0.00000000  0.73340000  0.26660000  1.0 0.7501968354
Cu  Cu21  1  0.34166000  0.00000000  0.00000000  1.0 0.7554056067
Cu  Cu22  1  0.26660000  0.00000000  0.00000000  1.0 0.7501968354
Cu  Cu23  1  0.00000000  0.34166000  0.65834000  1.0 0.7501968354
Cu  Cu24  1  0.00000000  0.26660000  0.73340000  1.0 0.7501968354
H  H1  1  0.83840000  0.02220000  0.69920000  1.0 0.1125169862
H  H2  1  0.80430000  0.96830000  0.69910000  1.0 0.0902734971
H  H3  1  0.75765000  0.96935000  0.65385000  1.0 0.0681367582
H  H4  1  0.66560000  0.07880000  0.76640000  1.0 0.0902734971
H  H5  1  0.61896000  0.07984000  0.72104000  1.0 0.0599308931
H  H6  1  0.69920000  0.44020000  0.83840000  1.0 0.1125169862
H  H7  1  0.69910000  0.52830000  0.80430000  1.0 0.0902734971
H  H8  1  0.65385000  0.61915000  0.75765000  1.0 0.0681367582
H  H9  1  0.76640000  0.48920000  0.66560000  1.0 0.0902734971
H  H10  1  0.72104000  0.58016000  0.61896000  1.0 0.0599308931
H  H11  1  0.02220000  0.83840000  0.44020000  1.0 0.1125169862
H  H12  1  0.96830000  0.80430000  0.52830000  1.0 0.0902734971
H  H13  1  0.96935000  0.75765000  0.61915000  1.0 0.0681367582
H  H14  1  0.07880000  0.66560000  0.48920000  1.0 0.0902734971
H  H15  1  0.07984000  0.61896000  0.58016000  1.0 0.0599308931
H  H16  1  0.44020000  0.69920000  0.02220000  1.0 0.1125169862
H  H17  1  0.52830000  0.69910000  0.96830000  1.0 0.0902734971
H  H18  1  0.61915000  0.65385000  0.96935000  1.0 0.0681367582
H  H19  1  0.48920000  0.76640000  0.07880000  1.0 0.0902734971
H  H20  1  0.58016000  0.72104000  0.07984000  1.0 0.0599308931
H  H21  1  0.02220000  0.69920000  0.83840000  1.0 0.1125169862
H  H22  1  0.96830000  0.69910000  0.80430000  1.0 0.0902734971
H  H23  1  0.96935000  0.65385000  0.75765000  1.0 0.0681367582
H  H24  1  0.07880000  0.76640000  0.66560000  1.0 0.0902734971
H  H25  1  0.07984000  0.72104000  0.61896000  1.0 0.0599308931
H  H26  1  0.44020000  0.83840000  0.69920000  1.0 0.1125169862
H  H27  1  0.52830000  0.80430000  0.69910000  1.0 0.0902734971
H  H28  1  0.61915000  0.75765000  0.65385000  1.0 0.0681367582
H  H29  1  0.48920000  0.66560000  0.76640000  1.0 0.0902734971
H  H30  1  0.58016000  0.61896000  0.72104000  1.0 0.0599308931
H  H31  1  0.83840000  0.44020000  0.02220000  1.0 0.1125169862
H  H32  1  0.80430000  0.52830000  0.96830000  1.0 0.0902734971
H  H33  1  0.75765000  0.61915000  0.96935000  1.0 0.0681367582
H  H34  1  0.66560000  0.48920000  0.07880000  1.0 0.0902734971
H  H35  1  0.61896000  0.58016000  0.07984000  1.0 0.0599308931
H  H36  1  0.69920000  0.02220000  0.44020000  1.0 0.1125169862
H  H37  1  0.69910000  0.96830000  0.52830000  1.0 0.0902734971
H  H38  1  0.65385000  0.96935000  0.61915000  1.0 0.0681367582
H  H39  1  0.76640000  0.07880000  0.48920000  1.0 0.0902734971
H  H40  1  0.72104000  0.07984000  0.58016000  1.0 0.0599308931
H  H41  1  0.69920000  0.83840000  0.02220000  1.0 0.1125169862
H  H42  1  0.69910000  0.80430000  0.96830000  1.0 0.0902734971
H  H43  1  0.65385000  0.75765000  0.96935000  1.0 0.0681367582
H  H44  1  0.76640000  0.66560000  0.07880000  1.0 0.0902734971
H  H45  1  0.72104000  0.61896000  0.07984000  1.0 0.0599308931
H  H46  1  0.83840000  0.69920000  0.44020000  1.0 0.1125169862
H  H47  1  0.80430000  0.69910000  0.52830000  1.0 0.0902734971
H  H48  1  0.75765000  0.65385000  0.61915000  1.0 0.0681367582
H  H49  1  0.66560000  0.76640000  0.48920000  1.0 0.0902734971
H  H50  1  0.61896000  0.72104000  0.58016000  1.0 0.0599308931
H  H51  1  0.44020000  0.02220000  0.83840000  1.0 0.1125169862
H  H52  1  0.52830000  0.96830000  0.80430000  1.0 0.0902734971
H  H53  1  0.61915000  0.96935000  0.75765000  1.0 0.0681367582
H  H54  1  0.48920000  0.07880000  0.66560000  1.0 0.0902734971
H  H55  1  0.58016000  0.07984000  0.61896000  1.0 0.0599308931
H  H56  1  0.02220000  0.44020000  0.69920000  1.0 0.1125169862
H  H57  1  0.96830000  0.52830000  0.69910000  1.0 0.0902734971
H  H58  1  0.96935000  0.61915000  0.65385000  1.0 0.0681367582
H  H59  1  0.07880000  0.48920000  0.76640000  1.0 0.0902734971
H  H60  1  0.07984000  0.58016000  0.72104000  1.0 0.0599308931
H  H61  1  0.16160000  0.55980000  0.30080000  1.0 0.1125169862
H  H62  1  0.19570000  0.47170000  0.30090000  1.0 0.0902734971
H  H63  1  0.24235000  0.38085000  0.34615000  1.0 0.0681367582
H  H64  1  0.33440000  0.51080000  0.23360000  1.0 0.0902734971
H  H65  1  0.38104000  0.41984000  0.27896000  1.0 0.0599308931
H  H66  1  0.30080000  0.97780000  0.16160000  1.0 0.1125169862
H  H67  1  0.30090000  0.03170000  0.19570000  1.0 0.0902734971
H  H68  1  0.34615000  0.03065000  0.24235000  1.0 0.0681367582
H  H69  1  0.23360000  0.92120000  0.33440000  1.0 0.0902734971
H  H70  1  0.27896000  0.92016000  0.38104000  1.0 0.0599308931
H  H71  1  0.97780000  0.30080000  0.55980000  1.0 0.1125169862
H  H72  1  0.03170000  0.30090000  0.47170000  1.0 0.0902734971
H  H73  1  0.03065000  0.34615000  0.38085000  1.0 0.0681367582
H  H74  1  0.92120000  0.23360000  0.51080000  1.0 0.0902734971
H  H75  1  0.92016000  0.27896000  0.41984000  1.0 0.0599308931
H  H76  1  0.55980000  0.16160000  0.97780000  1.0 0.1125169862
H  H77  1  0.47170000  0.19570000  0.03170000  1.0 0.0902734971
H  H78  1  0.38085000  0.24235000  0.03065000  1.0 0.0681367582
H  H79  1  0.51080000  0.33440000  0.92120000  1.0 0.0902734971
H  H80  1  0.41984000  0.38104000  0.92016000  1.0 0.0599308931
H  H81  1  0.97780000  0.55980000  0.16160000  1.0 0.1125169862
H  H82  1  0.03170000  0.47170000  0.19570000  1.0 0.0902734971
H  H83  1  0.03065000  0.38085000  0.24235000  1.0 0.0681367582
H  H84  1  0.92120000  0.51080000  0.33440000  1.0 0.0902734971
H  H85  1  0.92016000  0.41984000  0.38104000  1.0 0.0599308931
H  H86  1  0.55980000  0.97780000  0.30080000  1.0 0.1125169862
H  H87  1  0.47170000  0.03170000  0.30090000  1.0 0.0902734971
H  H88  1  0.38085000  0.03065000  0.34615000  1.0 0.0681367582
H  H89  1  0.51080000  0.92120000  0.23360000  1.0 0.0902734971
H  H90  1  0.41984000  0.92016000  0.27896000  1.0 0.0599308931
H  H91  1  0.16160000  0.30080000  0.97780000  1.0 0.1125169862
H  H92  1  0.19570000  0.30090000  0.03170000  1.0 0.0902734971
H  H93  1  0.24235000  0.34615000  0.03065000  1.0 0.0681367582
H  H94  1  0.33440000  0.23360000  0.92120000  1.0 0.0902734971
H  H95  1  0.38104000  0.27896000  0.92016000  1.0 0.0599308931
H  H96  1  0.30080000  0.16160000  0.55980000  1.0 0.1125169862
H  H97  1  0.30090000  0.19570000  0.47170000  1.0 0.0902734971
H  H98  1  0.34615000  0.24235000  0.38085000  1.0 0.0681367582
H  H99  1  0.23360000  0.33440000  0.51080000  1.0 0.0902734971
H  H100  1  0.27896000  0.38104000  0.41984000  1.0 0.0599308931
H  H101  1  0.30080000  0.55980000  0.97780000  1.0 0.1125169862
H  H102  1  0.30090000  0.47170000  0.03170000  1.0 0.0902734971
H  H103  1  0.34615000  0.38085000  0.03065000  1.0 0.0681367582
H  H104  1  0.23360000  0.51080000  0.92120000  1.0 0.0902734971
H  H105  1  0.27896000  0.41984000  0.92016000  1.0 0.0599308931
H  H106  1  0.16160000  0.97780000  0.55980000  1.0 0.1125169862
H  H107  1  0.19570000  0.03170000  0.47170000  1.0 0.0902734971
H  H108  1  0.24235000  0.03065000  0.38085000  1.0 0.0681367582
H  H109  1  0.33440000  0.92120000  0.51080000  1.0 0.0902734971
H  H110  1  0.38104000  0.92016000  0.41984000  1.0 0.0599308931
H  H111  1  0.55980000  0.30080000  0.16160000  1.0 0.1125169862
H  H112  1  0.47170000  0.30090000  0.19570000  1.0 0.0902734971
H  H113  1  0.38085000  0.34615000  0.24235000  1.0 0.0681367582
H  H114  1  0.51080000  0.23360000  0.33440000  1.0 0.0902734971
H  H115  1  0.41984000  0.27896000  0.38104000  1.0 0.0599308931
H  H116  1  0.97780000  0.16160000  0.30080000  1.0 0.1125169862
H  H117  1  0.03170000  0.19570000  0.30090000  1.0 0.0902734971
H  H118  1  0.03065000  0.24235000  0.34615000  1.0 0.0681367582
H  H119  1  0.92120000  0.33440000  0.23360000  1.0 0.0902734971
H  H120  1  0.92016000  0.38104000  0.27896000  1.0 0.0599308931
H  H121  1  0.16160000  0.97780000  0.30080000  1.0 0.1125169862
H  H122  1  0.19570000  0.03170000  0.30090000  1.0 0.0902734971
H  H123  1  0.24235000  0.03065000  0.34615000  1.0 0.0681367582
H  H124  1  0.33440000  0.92120000  0.23360000  1.0 0.0902734971
H  H125  1  0.38104000  0.92016000  0.27896000  1.0 0.0599308931
H  H126  1  0.30080000  0.55980000  0.16160000  1.0 0.1125169862
H  H127  1  0.30090000  0.47170000  0.19570000  1.0 0.0902734971
H  H128  1  0.34615000  0.38085000  0.24235000  1.0 0.0681367582
H  H129  1  0.23360000  0.51080000  0.33440000  1.0 0.0902734971
H  H130  1  0.27896000  0.41984000  0.38104000  1.0 0.0599308931
H  H131  1  0.97780000  0.16160000  0.55980000  1.0 0.1125169862
H  H132  1  0.03170000  0.19570000  0.47170000  1.0 0.0902734971
H  H133  1  0.03065000  0.24235000  0.38085000  1.0 0.0681367582
H  H134  1  0.92120000  0.33440000  0.51080000  1.0 0.0902734971
H  H135  1  0.92016000  0.38104000  0.41984000  1.0 0.0599308931
H  H136  1  0.55980000  0.30080000  0.97780000  1.0 0.1125169862
H  H137  1  0.47170000  0.30090000  0.03170000  1.0 0.0902734971
H  H138  1  0.38085000  0.34615000  0.03065000  1.0 0.0681367582
H  H139  1  0.51080000  0.23360000  0.92120000  1.0 0.0902734971
H  H140  1  0.41984000  0.27896000  0.92016000  1.0 0.0599308931
H  H141  1  0.97780000  0.30080000  0.16160000  1.0 0.1125169862
H  H142  1  0.03170000  0.30090000  0.19570000  1.0 0.0902734971
H  H143  1  0.03065000  0.34615000  0.24235000  1.0 0.0681367582
H  H144  1  0.92120000  0.23360000  0.33440000  1.0 0.0902734971
H  H145  1  0.92016000  0.27896000  0.38104000  1.0 0.0599308931
H  H146  1  0.55980000  0.16160000  0.30080000  1.0 0.1125169862
H  H147  1  0.47170000  0.19570000  0.30090000  1.0 0.0902734971
H  H148  1  0.38085000  0.24235000  0.34615000  1.0 0.0681367582
H  H149  1  0.51080000  0.33440000  0.23360000  1.0 0.0902734971
H  H150  1  0.41984000  0.38104000  0.27896000  1.0 0.0599308931
H  H151  1  0.16160000  0.55980000  0.97780000  1.0 0.1125169862
H  H152  1  0.19570000  0.47170000  0.03170000  1.0 0.0902734971
H  H153  1  0.24235000  0.38085000  0.03065000  1.0 0.0681367582
H  H154  1  0.33440000  0.51080000  0.92120000  1.0 0.0902734971
H  H155  1  0.38104000  0.41984000  0.92016000  1.0 0.0599308931
H  H156  1  0.30080000  0.97780000  0.55980000  1.0 0.1125169862
H  H157  1  0.30090000  0.03170000  0.47170000  1.0 0.0902734971
H  H158  1  0.34615000  0.03065000  0.38085000  1.0 0.0681367582
H  H159  1  0.23360000  0.92120000  0.51080000  1.0 0.0902734971
H  H160  1  0.27896000  0.92016000  0.41984000  1.0 0.0599308931
H  H161  1  0.30080000  0.16160000  0.97780000  1.0 0.1125169862
H  H162  1  0.30090000  0.19570000  0.03170000  1.0 0.0902734971
H  H163  1  0.34615000  0.24235000  0.03065000  1.0 0.0681367582
H  H164  1  0.23360000  0.33440000  0.92120000  1.0 0.0902734971
H  H165  1  0.27896000  0.38104000  0.92016000  1.0 0.0599308931
H  H166  1  0.16160000  0.30080000  0.55980000  1.0 0.1125169862
H  H167  1  0.19570000  0.30090000  0.47170000  1.0 0.0902734971
H  H168  1  0.24235000  0.34615000  0.38085000  1.0 0.0681367582
H  H169  1  0.33440000  0.23360000  0.51080000  1.0 0.0902734971
H  H170  1  0.38104000  0.27896000  0.41984000  1.0 0.0599308931
H  H171  1  0.55980000  0.97780000  0.16160000  1.0 0.1125169862
H  H172  1  0.47170000  0.03170000  0.19570000  1.0 0.0902734971
H  H173  1  0.38085000  0.03065000  0.24235000  1.0 0.0681367582
H  H174  1  0.51080000  0.92120000  0.33440000  1.0 0.0902734971
H  H175  1  0.41984000  0.92016000  0.38104000  1.0 0.0599308931
H  H176  1  0.97780000  0.55980000  0.30080000  1.0 0.1125169862
H  H177  1  0.03170000  0.47170000  0.30090000  1.0 0.0902734971
H  H178  1  0.03065000  0.38085000  0.34615000  1.0 0.0681367582
H  H179  1  0.92120000  0.51080000  0.23360000  1.0 0.0902734971
H  H180  1  0.92016000  0.41984000  0.27896000  1.0 0.0599308931
H  H181  1  0.83840000  0.44020000  0.69920000  1.0 0.1125169862
H  H182  1  0.80430000  0.52830000  0.69910000  1.0 0.0902734971
H  H183  1  0.75765000  0.61915000  0.65385000  1.0 0.0681367582
H  H184  1  0.66560000  0.48920000  0.76640000  1.0 0.0902734971
H  H185  1  0.61896000  0.58016000  0.72104000  1.0 0.0599308931
H  H186  1  0.69920000  0.02220000  0.83840000  1.0 0.1125169862
H  H187  1  0.69910000  0.96830000  0.80430000  1.0 0.0902734971
H  H188  1  0.65385000  0.96935000  0.75765000  1.0 0.0681367582
H  H189  1  0.76640000  0.07880000  0.66560000  1.0 0.0902734971
H  H190  1  0.72104000  0.07984000  0.61896000  1.0 0.0599308931
H  H191  1  0.02220000  0.69920000  0.44020000  1.0 0.1125169862
H  H192  1  0.96830000  0.69910000  0.52830000  1.0 0.0902734971
H  H193  1  0.96935000  0.65385000  0.61915000  1.0 0.0681367582
H  H194  1  0.07880000  0.76640000  0.48920000  1.0 0.0902734971
H  H195  1  0.07984000  0.72104000  0.58016000  1.0 0.0599308931
H  H196  1  0.44020000  0.83840000  0.02220000  1.0 0.1125169862
H  H197  1  0.52830000  0.80430000  0.96830000  1.0 0.0902734971
H  H198  1  0.61915000  0.75765000  0.96935000  1.0 0.0681367582
H  H199  1  0.48920000  0.66560000  0.07880000  1.0 0.0902734971
H  H200  1  0.58016000  0.61896000  0.07984000  1.0 0.0599308931
H  H201  1  0.02220000  0.44020000  0.83840000  1.0 0.1125169862
H  H202  1  0.96830000  0.52830000  0.80430000  1.0 0.0902734971
H  H203  1  0.96935000  0.61915000  0.75765000  1.0 0.0681367582
H  H204  1  0.07880000  0.48920000  0.66560000  1.0 0.0902734971
H  H205  1  0.07984000  0.58016000  0.61896000  1.0 0.0599308931
H  H206  1  0.44020000  0.02220000  0.69920000  1.0 0.1125169862
H  H207  1  0.52830000  0.96830000  0.69910000  1.0 0.0902734971
H  H208  1  0.61915000  0.96935000  0.65385000  1.0 0.0681367582
H  H209  1  0.48920000  0.07880000  0.76640000  1.0 0.0902734971
H  H210  1  0.58016000  0.07984000  0.72104000  1.0 0.0599308931
H  H211  1  0.83840000  0.69920000  0.02220000  1.0 0.1125169862
H  H212  1  0.80430000  0.69910000  0.96830000  1.0 0.0902734971
H  H213  1  0.75765000  0.65385000  0.96935000  1.0 0.0681367582
H  H214  1  0.66560000  0.76640000  0.07880000  1.0 0.0902734971
H  H215  1  0.61896000  0.72104000  0.07984000  1.0 0.0599308931
H  H216  1  0.69920000  0.83840000  0.44020000  1.0 0.1125169862
H  H217  1  0.69910000  0.80430000  0.52830000  1.0 0.0902734971
H  H218  1  0.65385000  0.75765000  0.61915000  1.0 0.0681367582
H  H219  1  0.76640000  0.66560000  0.48920000  1.0 0.0902734971
H  H220  1  0.72104000  0.61896000  0.58016000  1.0 0.0599308931
H  H221  1  0.69920000  0.44020000  0.02220000  1.0 0.1125169862
H  H222  1  0.69910000  0.52830000  0.96830000  1.0 0.0902734971
H  H223  1  0.65385000  0.61915000  0.96935000  1.0 0.0681367582
H  H224  1  0.76640000  0.48920000  0.07880000  1.0 0.0902734971
H  H225  1  0.72104000  0.58016000  0.07984000  1.0 0.0599308931
H  H226  1  0.83840000  0.02220000  0.44020000  1.0 0.1125169862
H  H227  1  0.80430000  0.96830000  0.52830000  1.0 0.0902734971
H  H228  1  0.75765000  0.96935000  0.61915000  1.0 0.0681367582
H  H229  1  0.66560000  0.07880000  0.48920000  1.0 0.0902734971
H  H230  1  0.61896000  0.07984000  0.58016000  1.0 0.0599308931
H  H231  1  0.44020000  0.69920000  0.83840000  1.0 0.1125169862
H  H232  1  0.52830000  0.69910000  0.80430000  1.0 0.0902734971
H  H233  1  0.61915000  0.65385000  0.75765000  1.0 0.0681367582
H  H234  1  0.48920000  0.76640000  0.66560000  1.0 0.0902734971
H  H235  1  0.58016000  0.72104000  0.61896000  1.0 0.0599308931
H  H236  1  0.02220000  0.83840000  0.69920000  1.0 0.1125169862
H  H237  1  0.96830000  0.80430000  0.69910000  1.0 0.0902734971
H  H238  1  0.96935000  0.75765000  0.65385000  1.0 0.0681367582
H  H239  1  0.07880000  0.66560000  0.76640000  1.0 0.0902734971
H  H240  1  0.07984000  0.61896000  0.72104000  1.0 0.0599308931
H  H241  1  0.83820000  0.01840000  0.83820000  1.0 0.1372510512
H  H242  1  0.83820000  0.30520000  0.83820000  1.0 0.1372510512
H  H243  1  0.01840000  0.83820000  0.30520000  1.0 0.1372510512
H  H244  1  0.30520000  0.83820000  0.01840000  1.0 0.1372510512
H  H245  1  0.01840000  0.83820000  0.83820000  1.0 0.1372510512
H  H246  1  0.30520000  0.83820000  0.83820000  1.0 0.1372510512
H  H247  1  0.83820000  0.30520000  0.01840000  1.0 0.1372510512
H  H248  1  0.83820000  0.01840000  0.30520000  1.0 0.1372510512
H  H249  1  0.83820000  0.83820000  0.01840000  1.0 0.1372510512
H  H250  1  0.83820000  0.83820000  0.30520000  1.0 0.1372510512
H  H251  1  0.30520000  0.01840000  0.83820000  1.0 0.1372510512
H  H252  1  0.01840000  0.30520000  0.83820000  1.0 0.1372510512
H  H253  1  0.16180000  0.69480000  0.16180000  1.0 0.1372510512
H  H254  1  0.16180000  0.98160000  0.16180000  1.0 0.1372510512
H  H255  1  0.98160000  0.16180000  0.69480000  1.0 0.1372510512
H  H256  1  0.69480000  0.16180000  0.98160000  1.0 0.1372510512
H  H257  1  0.98160000  0.69480000  0.16180000  1.0 0.1372510512
H  H258  1  0.69480000  0.98160000  0.16180000  1.0 0.1372510512
H  H259  1  0.16180000  0.16180000  0.98160000  1.0 0.1372510512
H  H260  1  0.16180000  0.16180000  0.69480000  1.0 0.1372510512
H  H261  1  0.16180000  0.69480000  0.98160000  1.0 0.1372510512
H  H262  1  0.16180000  0.98160000  0.69480000  1.0 0.1372510512
H  H263  1  0.69480000  0.16180000  0.16180000  1.0 0.1372510512
H  H264  1  0.98160000  0.16180000  0.16180000  1.0 0.1372510512
C  C1  1  0.90330000  0.01570000  0.73870000  1.0 0.5486793773
C  C2  1  0.84470000  0.02090000  0.76530000  1.0 -0.0034414791
C  C3  1  0.81870000  0.02190000  0.73910000  1.0 -0.1710031746
C  C4  1  0.76386000  0.99254000  0.70394000  1.0 -0.0788205208
C  C5  1  0.73761000  0.99313000  0.67833000  1.0 -0.0958629103
C  C6  1  0.68558000  0.05502000  0.74182000  1.0 -0.0788205208
C  C7  1  0.65924000  0.05554000  0.71628000  1.0 -0.0788205208
C  C8  1  0.73870000  0.34230000  0.90330000  1.0 0.5486793773
C  C9  1  0.76530000  0.36910000  0.84470000  1.0 -0.0034414791
C  C10  1  0.73910000  0.42030000  0.81870000  1.0 -0.1710031746
C  C11  1  0.70394000  0.53966000  0.76386000  1.0 -0.0788205208
C  C12  1  0.67833000  0.59093000  0.73761000  1.0 -0.0958629103
C  C13  1  0.74182000  0.51758000  0.68558000  1.0 -0.0788205208
C  C14  1  0.71628000  0.56894000  0.65924000  1.0 -0.0788205208
C  C15  1  0.01570000  0.90330000  0.34230000  1.0 0.5486793773
C  C16  1  0.02090000  0.84470000  0.36910000  1.0 -0.0034414791
C  C17  1  0.02190000  0.81870000  0.42030000  1.0 -0.1710031746
C  C18  1  0.99254000  0.76386000  0.53966000  1.0 -0.0788205208
C  C19  1  0.99313000  0.73761000  0.59093000  1.0 -0.0958629103
C  C20  1  0.05502000  0.68558000  0.51758000  1.0 -0.0788205208
C  C21  1  0.05554000  0.65924000  0.56894000  1.0 -0.0788205208
C  C22  1  0.34230000  0.73870000  0.01570000  1.0 0.5486793773
C  C23  1  0.36910000  0.76530000  0.02090000  1.0 -0.0034414791
C  C24  1  0.42030000  0.73910000  0.02190000  1.0 -0.1710031746
C  C25  1  0.53966000  0.70394000  0.99254000  1.0 -0.0788205208
C  C26  1  0.59093000  0.67833000  0.99313000  1.0 -0.0958629103
C  C27  1  0.51758000  0.74182000  0.05502000  1.0 -0.0788205208
C  C28  1  0.56894000  0.71628000  0.05554000  1.0 -0.0788205208
C  C29  1  0.01570000  0.73870000  0.90330000  1.0 0.5486793773
C  C30  1  0.02090000  0.76530000  0.84470000  1.0 -0.0034414791
C  C31  1  0.02190000  0.73910000  0.81870000  1.0 -0.1710031746
C  C32  1  0.99254000  0.70394000  0.76386000  1.0 -0.0788205208
C  C33  1  0.99313000  0.67833000  0.73761000  1.0 -0.0958629103
C  C34  1  0.05502000  0.74182000  0.68558000  1.0 -0.0788205208
C  C35  1  0.05554000  0.71628000  0.65924000  1.0 -0.0788205208
C  C36  1  0.34230000  0.90330000  0.73870000  1.0 0.5486793773
C  C37  1  0.36910000  0.84470000  0.76530000  1.0 -0.0034414791
C  C38  1  0.42030000  0.81870000  0.73910000  1.0 -0.1710031746
C  C39  1  0.53966000  0.76386000  0.70394000  1.0 -0.0788205208
C  C40  1  0.59093000  0.73761000  0.67833000  1.0 -0.0958629103
C  C41  1  0.51758000  0.68558000  0.74182000  1.0 -0.0788205208
C  C42  1  0.56894000  0.65924000  0.71628000  1.0 -0.0788205208
C  C43  1  0.90330000  0.34230000  0.01570000  1.0 0.5486793773
C  C44  1  0.84470000  0.36910000  0.02090000  1.0 -0.0034414791
C  C45  1  0.81870000  0.42030000  0.02190000  1.0 -0.1710031746
C  C46  1  0.76386000  0.53966000  0.99254000  1.0 -0.0788205208
C  C47  1  0.73761000  0.59093000  0.99313000  1.0 -0.0958629103
C  C48  1  0.68558000  0.51758000  0.05502000  1.0 -0.0788205208
C  C49  1  0.65924000  0.56894000  0.05554000  1.0 -0.0788205208
C  C50  1  0.73870000  0.01570000  0.34230000  1.0 0.5486793773
C  C51  1  0.76530000  0.02090000  0.36910000  1.0 -0.0034414791
C  C52  1  0.73910000  0.02190000  0.42030000  1.0 -0.1710031746
C  C53  1  0.70394000  0.99254000  0.53966000  1.0 -0.0788205208
C  C54  1  0.67833000  0.99313000  0.59093000  1.0 -0.0958629103
C  C55  1  0.74182000  0.05502000  0.51758000  1.0 -0.0788205208
C  C56  1  0.71628000  0.05554000  0.56894000  1.0 -0.0788205208
C  C57  1  0.73870000  0.90330000  0.01570000  1.0 0.5486793773
C  C58  1  0.76530000  0.84470000  0.02090000  1.0 -0.0034414791
C  C59  1  0.73910000  0.81870000  0.02190000  1.0 -0.1710031746
C  C60  1  0.70394000  0.76386000  0.99254000  1.0 -0.0788205208
C  C61  1  0.67833000  0.73761000  0.99313000  1.0 -0.0958629103
C  C62  1  0.74182000  0.68558000  0.05502000  1.0 -0.0788205208
C  C63  1  0.71628000  0.65924000  0.05554000  1.0 -0.0788205208
C  C64  1  0.90330000  0.73870000  0.34230000  1.0 0.5486793773
C  C65  1  0.84470000  0.76530000  0.36910000  1.0 -0.0034414791
C  C66  1  0.81870000  0.73910000  0.42030000  1.0 -0.1710031746
C  C67  1  0.76386000  0.70394000  0.53966000  1.0 -0.0788205208
C  C68  1  0.73761000  0.67833000  0.59093000  1.0 -0.0958629103
C  C69  1  0.68558000  0.74182000  0.51758000  1.0 -0.0788205208
C  C70  1  0.65924000  0.71628000  0.56894000  1.0 -0.0788205208
C  C71  1  0.34230000  0.01570000  0.90330000  1.0 0.5486793773
C  C72  1  0.36910000  0.02090000  0.84470000  1.0 -0.0034414791
C  C73  1  0.42030000  0.02190000  0.81870000  1.0 -0.1710031746
C  C74  1  0.53966000  0.99254000  0.76386000  1.0 -0.0788205208
C  C75  1  0.59093000  0.99313000  0.73761000  1.0 -0.0958629103
C  C76  1  0.51758000  0.05502000  0.68558000  1.0 -0.0788205208
C  C77  1  0.56894000  0.05554000  0.65924000  1.0 -0.0788205208
C  C78  1  0.01570000  0.34230000  0.73870000  1.0 0.5486793773
C  C79  1  0.02090000  0.36910000  0.76530000  1.0 -0.0034414791
C  C80  1  0.02190000  0.42030000  0.73910000  1.0 -0.1710031746
C  C81  1  0.99254000  0.53966000  0.70394000  1.0 -0.0788205208
C  C82  1  0.99313000  0.59093000  0.67833000  1.0 -0.0958629103
C  C83  1  0.05502000  0.51758000  0.74182000  1.0 -0.0788205208
C  C84  1  0.05554000  0.56894000  0.71628000  1.0 -0.0788205208
C  C85  1  0.09670000  0.65770000  0.26130000  1.0 0.5486793773
C  C86  1  0.15530000  0.63090000  0.23470000  1.0 -0.0034414791
C  C87  1  0.18130000  0.57970000  0.26090000  1.0 -0.1710031746
C  C88  1  0.23614000  0.46034000  0.29606000  1.0 -0.0788205208
C  C89  1  0.26239000  0.40907000  0.32167000  1.0 -0.0958629103
C  C90  1  0.31442000  0.48242000  0.25818000  1.0 -0.0788205208
C  C91  1  0.34076000  0.43106000  0.28372000  1.0 -0.0788205208
C  C92  1  0.26130000  0.98430000  0.09670000  1.0 0.5486793773
C  C93  1  0.23470000  0.97910000  0.15530000  1.0 -0.0034414791
C  C94  1  0.26090000  0.97810000  0.18130000  1.0 -0.1710031746
C  C95  1  0.29606000  0.00746000  0.23614000  1.0 -0.0788205208
C  C96  1  0.32167000  0.00687000  0.26239000  1.0 -0.0958629103
C  C97  1  0.25818000  0.94498000  0.31442000  1.0 -0.0788205208
C  C98  1  0.28372000  0.94446000  0.34076000  1.0 -0.0788205208
C  C99  1  0.98430000  0.26130000  0.65770000  1.0 0.5486793773
C  C100  1  0.97910000  0.23470000  0.63090000  1.0 -0.0034414791
C  C101  1  0.97810000  0.26090000  0.57970000  1.0 -0.1710031746
C  C102  1  0.00746000  0.29606000  0.46034000  1.0 -0.0788205208
C  C103  1  0.00687000  0.32167000  0.40907000  1.0 -0.0958629103
C  C104  1  0.94498000  0.25818000  0.48242000  1.0 -0.0788205208
C  C105  1  0.94446000  0.28372000  0.43106000  1.0 -0.0788205208
C  C106  1  0.65770000  0.09670000  0.98430000  1.0 0.5486793773
C  C107  1  0.63090000  0.15530000  0.97910000  1.0 -0.0034414791
C  C108  1  0.57970000  0.18130000  0.97810000  1.0 -0.1710031746
C  C109  1  0.46034000  0.23614000  0.00746000  1.0 -0.0788205208
C  C110  1  0.40907000  0.26239000  0.00687000  1.0 -0.0958629103
C  C111  1  0.48242000  0.31442000  0.94498000  1.0 -0.0788205208
C  C112  1  0.43106000  0.34076000  0.94446000  1.0 -0.0788205208
C  C113  1  0.98430000  0.65770000  0.09670000  1.0 0.5486793773
C  C114  1  0.97910000  0.63090000  0.15530000  1.0 -0.0034414791
C  C115  1  0.97810000  0.57970000  0.18130000  1.0 -0.1710031746
C  C116  1  0.00746000  0.46034000  0.23614000  1.0 -0.0788205208
C  C117  1  0.00687000  0.40907000  0.26239000  1.0 -0.0958629103
C  C118  1  0.94498000  0.48242000  0.31442000  1.0 -0.0788205208
C  C119  1  0.94446000  0.43106000  0.34076000  1.0 -0.0788205208
C  C120  1  0.65770000  0.98430000  0.26130000  1.0 0.5486793773
C  C121  1  0.63090000  0.97910000  0.23470000  1.0 -0.0034414791
C  C122  1  0.57970000  0.97810000  0.26090000  1.0 -0.1710031746
C  C123  1  0.46034000  0.00746000  0.29606000  1.0 -0.0788205208
C  C124  1  0.40907000  0.00687000  0.32167000  1.0 -0.0958629103
C  C125  1  0.48242000  0.94498000  0.25818000  1.0 -0.0788205208
C  C126  1  0.43106000  0.94446000  0.28372000  1.0 -0.0788205208
C  C127  1  0.09670000  0.26130000  0.98430000  1.0 0.5486793773
C  C128  1  0.15530000  0.23470000  0.97910000  1.0 -0.0034414791
C  C129  1  0.18130000  0.26090000  0.97810000  1.0 -0.1710031746
C  C130  1  0.23614000  0.29606000  0.00746000  1.0 -0.0788205208
C  C131  1  0.26239000  0.32167000  0.00687000  1.0 -0.0958629103
C  C132  1  0.31442000  0.25818000  0.94498000  1.0 -0.0788205208
C  C133  1  0.34076000  0.28372000  0.94446000  1.0 -0.0788205208
C  C134  1  0.26130000  0.09670000  0.65770000  1.0 0.5486793773
C  C135  1  0.23470000  0.15530000  0.63090000  1.0 -0.0034414791
C  C136  1  0.26090000  0.18130000  0.57970000  1.0 -0.1710031746
C  C137  1  0.29606000  0.23614000  0.46034000  1.0 -0.0788205208
C  C138  1  0.32167000  0.26239000  0.40907000  1.0 -0.0958629103
C  C139  1  0.25818000  0.31442000  0.48242000  1.0 -0.0788205208
C  C140  1  0.28372000  0.34076000  0.43106000  1.0 -0.0788205208
C  C141  1  0.26130000  0.65770000  0.98430000  1.0 0.5486793773
C  C142  1  0.23470000  0.63090000  0.97910000  1.0 -0.0034414791
C  C143  1  0.26090000  0.57970000  0.97810000  1.0 -0.1710031746
C  C144  1  0.29606000  0.46034000  0.00746000  1.0 -0.0788205208
C  C145  1  0.32167000  0.40907000  0.00687000  1.0 -0.0958629103
C  C146  1  0.25818000  0.48242000  0.94498000  1.0 -0.0788205208
C  C147  1  0.28372000  0.43106000  0.94446000  1.0 -0.0788205208
C  C148  1  0.09670000  0.98430000  0.65770000  1.0 0.5486793773
C  C149  1  0.15530000  0.97910000  0.63090000  1.0 -0.0034414791
C  C150  1  0.18130000  0.97810000  0.57970000  1.0 -0.1710031746
C  C151  1  0.23614000  0.00746000  0.46034000  1.0 -0.0788205208
C  C152  1  0.26239000  0.00687000  0.40907000  1.0 -0.0958629103
C  C153  1  0.31442000  0.94498000  0.48242000  1.0 -0.0788205208
C  C154  1  0.34076000  0.94446000  0.43106000  1.0 -0.0788205208
C  C155  1  0.65770000  0.26130000  0.09670000  1.0 0.5486793773
C  C156  1  0.63090000  0.23470000  0.15530000  1.0 -0.0034414791
C  C157  1  0.57970000  0.26090000  0.18130000  1.0 -0.1710031746
C  C158  1  0.46034000  0.29606000  0.23614000  1.0 -0.0788205208
C  C159  1  0.40907000  0.32167000  0.26239000  1.0 -0.0947372075
C  C160  1  0.48242000  0.25818000  0.31442000  1.0 -0.0788205208
C  C161  1  0.43106000  0.28372000  0.34076000  1.0 -0.0788205208
C  C162  1  0.98430000  0.09670000  0.26130000  1.0 0.5486793773
C  C163  1  0.97910000  0.15530000  0.23470000  1.0 -0.0034414791
C  C164  1  0.97810000  0.18130000  0.26090000  1.0 -0.1710031746
C  C165  1  0.00746000  0.23614000  0.29606000  1.0 -0.0788205208
C  C166  1  0.00687000  0.26239000  0.32167000  1.0 -0.0947372075
C  C167  1  0.94498000  0.31442000  0.25818000  1.0 -0.0788205208
C  C168  1  0.94446000  0.34076000  0.28372000  1.0 -0.0788205208
C  C169  1  0.09670000  0.98430000  0.26130000  1.0 0.5486793773
C  C170  1  0.15530000  0.97910000  0.23470000  1.0 -0.0034414791
C  C171  1  0.18130000  0.97810000  0.26090000  1.0 -0.1710031746
C  C172  1  0.23614000  0.00746000  0.29606000  1.0 -0.0788205208
C  C173  1  0.26239000  0.00687000  0.32167000  1.0 -0.0958629103
C  C174  1  0.31442000  0.94498000  0.25818000  1.0 -0.0788205208
C  C175  1  0.34076000  0.94446000  0.28372000  1.0 -0.0788205208
C  C176  1  0.26130000  0.65770000  0.09670000  1.0 0.5486793773
C  C177  1  0.23470000  0.63090000  0.15530000  1.0 -0.0034414791
C  C178  1  0.26090000  0.57970000  0.18130000  1.0 -0.1710031746
C  C179  1  0.29606000  0.46034000  0.23614000  1.0 -0.0788205208
C  C180  1  0.32167000  0.40907000  0.26239000  1.0 -0.0947372075
C  C181  1  0.25818000  0.48242000  0.31442000  1.0 -0.0788205208
C  C182  1  0.28372000  0.43106000  0.34076000  1.0 -0.0788205208
C  C183  1  0.98430000  0.09670000  0.65770000  1.0 0.5486793773
C  C184  1  0.97910000  0.15530000  0.63090000  1.0 -0.0034414791
C  C185  1  0.97810000  0.18130000  0.57970000  1.0 -0.1710031746
C  C186  1  0.00746000  0.23614000  0.46034000  1.0 -0.0788205208
C  C187  1  0.00687000  0.26239000  0.40907000  1.0 -0.0958629103
C  C188  1  0.94498000  0.31442000  0.48242000  1.0 -0.0788205208
C  C189  1  0.94446000  0.34076000  0.43106000  1.0 -0.0788205208
C  C190  1  0.65770000  0.26130000  0.98430000  1.0 0.5486793773
C  C191  1  0.63090000  0.23470000  0.97910000  1.0 -0.0034414791
C  C192  1  0.57970000  0.26090000  0.97810000  1.0 -0.1710031746
C  C193  1  0.46034000  0.29606000  0.00746000  1.0 -0.0788205208
C  C194  1  0.40907000  0.32167000  0.00687000  1.0 -0.0958629103
C  C195  1  0.48242000  0.25818000  0.94498000  1.0 -0.0788205208
C  C196  1  0.43106000  0.28372000  0.94446000  1.0 -0.0788205208
C  C197  1  0.98430000  0.26130000  0.09670000  1.0 0.5486793773
C  C198  1  0.97910000  0.23470000  0.15530000  1.0 -0.0034414791
C  C199  1  0.97810000  0.26090000  0.18130000  1.0 -0.1710031746
C  C200  1  0.00746000  0.29606000  0.23614000  1.0 -0.0788205208
C  C201  1  0.00687000  0.32167000  0.26239000  1.0 -0.0947372075
C  C202  1  0.94498000  0.25818000  0.31442000  1.0 -0.0788205208
C  C203  1  0.94446000  0.28372000  0.34076000  1.0 -0.0788205208
C  C204  1  0.65770000  0.09670000  0.26130000  1.0 0.5486793773
C  C205  1  0.63090000  0.15530000  0.23470000  1.0 -0.0034414791
C  C206  1  0.57970000  0.18130000  0.26090000  1.0 -0.1710031746
C  C207  1  0.46034000  0.23614000  0.29606000  1.0 -0.0788205208
C  C208  1  0.40907000  0.26239000  0.32167000  1.0 -0.0958629103
C  C209  1  0.48242000  0.31442000  0.25818000  1.0 -0.0788205208
C  C210  1  0.43106000  0.34076000  0.28372000  1.0 -0.0788205208
C  C211  1  0.09670000  0.65770000  0.98430000  1.0 0.5486793773
C  C212  1  0.15530000  0.63090000  0.97910000  1.0 -0.0034414791
C  C213  1  0.18130000  0.57970000  0.97810000  1.0 -0.1710031746
C  C214  1  0.23614000  0.46034000  0.00746000  1.0 -0.0788205208
C  C215  1  0.26239000  0.40907000  0.00687000  1.0 -0.0958629103
C  C216  1  0.31442000  0.48242000  0.94498000  1.0 -0.0788205208
C  C217  1  0.34076000  0.43106000  0.94446000  1.0 -0.0788205208
C  C218  1  0.26130000  0.98430000  0.65770000  1.0 0.5486793773
C  C219  1  0.23470000  0.97910000  0.63090000  1.0 -0.0034414791
C  C220  1  0.26090000  0.97810000  0.57970000  1.0 -0.1710031746
C  C221  1  0.29606000  0.00746000  0.46034000  1.0 -0.0788205208
C  C222  1  0.32167000  0.00687000  0.40907000  1.0 -0.0958629103
C  C223  1  0.25818000  0.94498000  0.48242000  1.0 -0.0788205208
C  C224  1  0.28372000  0.94446000  0.43106000  1.0 -0.0788205208
C  C225  1  0.26130000  0.09670000  0.98430000  1.0 0.5486793773
C  C226  1  0.23470000  0.15530000  0.97910000  1.0 -0.0034414791
C  C227  1  0.26090000  0.18130000  0.97810000  1.0 -0.1710031746
C  C228  1  0.29606000  0.23614000  0.00746000  1.0 -0.0788205208
C  C229  1  0.32167000  0.26239000  0.00687000  1.0 -0.0958629103
C  C230  1  0.25818000  0.31442000  0.94498000  1.0 -0.0788205208
C  C231  1  0.28372000  0.34076000  0.94446000  1.0 -0.0788205208
C  C232  1  0.09670000  0.26130000  0.65770000  1.0 0.5486793773
C  C233  1  0.15530000  0.23470000  0.63090000  1.0 -0.0034414791
C  C234  1  0.18130000  0.26090000  0.57970000  1.0 -0.1710031746
C  C235  1  0.23614000  0.29606000  0.46034000  1.0 -0.0788205208
C  C236  1  0.26239000  0.32167000  0.40907000  1.0 -0.0947372075
C  C237  1  0.31442000  0.25818000  0.48242000  1.0 -0.0788205208
C  C238  1  0.34076000  0.28372000  0.43106000  1.0 -0.0788205208
C  C239  1  0.65770000  0.98430000  0.09670000  1.0 0.5486793773
C  C240  1  0.63090000  0.97910000  0.15530000  1.0 -0.0034414791
C  C241  1  0.57970000  0.97810000  0.18130000  1.0 -0.1710031746
C  C242  1  0.46034000  0.00746000  0.23614000  1.0 -0.0788205208
C  C243  1  0.40907000  0.00687000  0.26239000  1.0 -0.0958629103
C  C244  1  0.48242000  0.94498000  0.31442000  1.0 -0.0788205208
C  C245  1  0.43106000  0.94446000  0.34076000  1.0 -0.0788205208
C  C246  1  0.98430000  0.65770000  0.26130000  1.0 0.5486793773
C  C247  1  0.97910000  0.63090000  0.23470000  1.0 -0.0034414791
C  C248  1  0.97810000  0.57970000  0.26090000  1.0 -0.1710031746
C  C249  1  0.00746000  0.46034000  0.29606000  1.0 -0.0788205208
C  C250  1  0.00687000  0.40907000  0.32167000  1.0 -0.0958629103
C  C251  1  0.94498000  0.48242000  0.25818000  1.0 -0.0788205208
C  C252  1  0.94446000  0.43106000  0.28372000  1.0 -0.0788205208
C  C253  1  0.90330000  0.34230000  0.73870000  1.0 0.5486793773
C  C254  1  0.84470000  0.36910000  0.76530000  1.0 -0.0034414791
C  C255  1  0.81870000  0.42030000  0.73910000  1.0 -0.1710031746
C  C256  1  0.76386000  0.53966000  0.70394000  1.0 -0.0788205208
C  C257  1  0.73761000  0.59093000  0.67833000  1.0 -0.0958629103
C  C258  1  0.68558000  0.51758000  0.74182000  1.0 -0.0788205208
C  C259  1  0.65924000  0.56894000  0.71628000  1.0 -0.0788205208
C  C260  1  0.73870000  0.01570000  0.90330000  1.0 0.5486793773
C  C261  1  0.76530000  0.02090000  0.84470000  1.0 -0.0034414791
C  C262  1  0.73910000  0.02190000  0.81870000  1.0 -0.1710031746
C  C263  1  0.70394000  0.99254000  0.76386000  1.0 -0.0788205208
C  C264  1  0.67833000  0.99313000  0.73761000  1.0 -0.0958629103
C  C265  1  0.74182000  0.05502000  0.68558000  1.0 -0.0788205208
C  C266  1  0.71628000  0.05554000  0.65924000  1.0 -0.0788205208
C  C267  1  0.01570000  0.73870000  0.34230000  1.0 0.5486793773
C  C268  1  0.02090000  0.76530000  0.36910000  1.0 -0.0034414791
C  C269  1  0.02190000  0.73910000  0.42030000  1.0 -0.1710031746
C  C270  1  0.99254000  0.70394000  0.53966000  1.0 -0.0788205208
C  C271  1  0.99313000  0.67833000  0.59093000  1.0 -0.0958629103
C  C272  1  0.05502000  0.74182000  0.51758000  1.0 -0.0788205208
C  C273  1  0.05554000  0.71628000  0.56894000  1.0 -0.0788205208
C  C274  1  0.34230000  0.90330000  0.01570000  1.0 0.5486793773
C  C275  1  0.36910000  0.84470000  0.02090000  1.0 -0.0034414791
C  C276  1  0.42030000  0.81870000  0.02190000  1.0 -0.1710031746
C  C277  1  0.53966000  0.76386000  0.99254000  1.0 -0.0788205208
C  C278  1  0.59093000  0.73761000  0.99313000  1.0 -0.0958629103
C  C279  1  0.51758000  0.68558000  0.05502000  1.0 -0.0788205208
C  C280  1  0.56894000  0.65924000  0.05554000  1.0 -0.0788205208
C  C281  1  0.01570000  0.34230000  0.90330000  1.0 0.5486793773
C  C282  1  0.02090000  0.36910000  0.84470000  1.0 -0.0034414791
C  C283  1  0.02190000  0.42030000  0.81870000  1.0 -0.1710031746
C  C284  1  0.99254000  0.53966000  0.76386000  1.0 -0.0788205208
C  C285  1  0.99313000  0.59093000  0.73761000  1.0 -0.0958629103
C  C286  1  0.05502000  0.51758000  0.68558000  1.0 -0.0788205208
C  C287  1  0.05554000  0.56894000  0.65924000  1.0 -0.0788205208
C  C288  1  0.34230000  0.01570000  0.73870000  1.0 0.5486793773
C  C289  1  0.36910000  0.02090000  0.76530000  1.0 -0.0034414791
C  C290  1  0.42030000  0.02190000  0.73910000  1.0 -0.1710031746
C  C291  1  0.53966000  0.99254000  0.70394000  1.0 -0.0788205208
C  C292  1  0.59093000  0.99313000  0.67833000  1.0 -0.0958629103
C  C293  1  0.51758000  0.05502000  0.74182000  1.0 -0.0788205208
C  C294  1  0.56894000  0.05554000  0.71628000  1.0 -0.0788205208
C  C295  1  0.90330000  0.73870000  0.01570000  1.0 0.5486793773
C  C296  1  0.84470000  0.76530000  0.02090000  1.0 -0.0034414791
C  C297  1  0.81870000  0.73910000  0.02190000  1.0 -0.1710031746
C  C298  1  0.76386000  0.70394000  0.99254000  1.0 -0.0788205208
C  C299  1  0.73761000  0.67833000  0.99313000  1.0 -0.0958629103
C  C300  1  0.68558000  0.74182000  0.05502000  1.0 -0.0788205208
C  C301  1  0.65924000  0.71628000  0.05554000  1.0 -0.0788205208
C  C302  1  0.73870000  0.90330000  0.34230000  1.0 0.5486793773
C  C303  1  0.76530000  0.84470000  0.36910000  1.0 -0.0034414791
C  C304  1  0.73910000  0.81870000  0.42030000  1.0 -0.1710031746
C  C305  1  0.70394000  0.76386000  0.53966000  1.0 -0.0788205208
C  C306  1  0.67833000  0.73761000  0.59093000  1.0 -0.0958629103
C  C307  1  0.74182000  0.68558000  0.51758000  1.0 -0.0788205208
C  C308  1  0.71628000  0.65924000  0.56894000  1.0 -0.0788205208
C  C309  1  0.73870000  0.34230000  0.01570000  1.0 0.5486793773
C  C310  1  0.76530000  0.36910000  0.02090000  1.0 -0.0034414791
C  C311  1  0.73910000  0.42030000  0.02190000  1.0 -0.1710031746
C  C312  1  0.70394000  0.53966000  0.99254000  1.0 -0.0788205208
C  C313  1  0.67833000  0.59093000  0.99313000  1.0 -0.0958629103
C  C314  1  0.74182000  0.51758000  0.05502000  1.0 -0.0788205208
C  C315  1  0.71628000  0.56894000  0.05554000  1.0 -0.0788205208
C  C316  1  0.90330000  0.01570000  0.34230000  1.0 0.5486793773
C  C317  1  0.84470000  0.02090000  0.36910000  1.0 -0.0034414791
C  C318  1  0.81870000  0.02190000  0.42030000  1.0 -0.1710031746
C  C319  1  0.76386000  0.99254000  0.53966000  1.0 -0.0788205208
C  C320  1  0.73761000  0.99313000  0.59093000  1.0 -0.0958629103
C  C321  1  0.68558000  0.05502000  0.51758000  1.0 -0.0788205208
C  C322  1  0.65924000  0.05554000  0.56894000  1.0 -0.0788205208
C  C323  1  0.34230000  0.73870000  0.90330000  1.0 0.5486793773
C  C324  1  0.36910000  0.76530000  0.84470000  1.0 -0.0034414791
C  C325  1  0.42030000  0.73910000  0.81870000  1.0 -0.1710031746
C  C326  1  0.53966000  0.70394000  0.76386000  1.0 -0.0788205208
C  C327  1  0.59093000  0.67833000  0.73761000  1.0 -0.0958629103
C  C328  1  0.51758000  0.74182000  0.68558000  1.0 -0.0788205208
C  C329  1  0.56894000  0.71628000  0.65924000  1.0 -0.0788205208
C  C330  1  0.01570000  0.90330000  0.73870000  1.0 0.5486793773
C  C331  1  0.02090000  0.84470000  0.76530000  1.0 -0.0034414791
C  C332  1  0.02190000  0.81870000  0.73910000  1.0 -0.1710031746
C  C333  1  0.99254000  0.76386000  0.70394000  1.0 -0.0788205208
C  C334  1  0.99313000  0.73761000  0.67833000  1.0 -0.0958629103
C  C335  1  0.05502000  0.68558000  0.74182000  1.0 -0.0788205208
C  C336  1  0.05554000  0.65924000  0.71628000  1.0 -0.0788205208
C  C337  1  0.81800000  0.01940000  0.81800000  1.0 -0.1196978316
C  C338  1  0.76580000  0.02120000  0.76580000  1.0 0.0902734971
C  C339  1  0.73680000  0.02240000  0.73680000  1.0 0.044493406
C  C340  1  0.68488000  0.02426000  0.68488000  1.0 0.0977665997
C  C341  1  0.81800000  0.34460000  0.81800000  1.0 -0.1196978316
C  C342  1  0.76580000  0.44720000  0.76580000  1.0 0.0902734971
C  C343  1  0.73680000  0.50400000  0.73680000  1.0 0.0454102021
C  C344  1  0.68488000  0.60598000  0.68488000  1.0 0.0977665997
C  C345  1  0.01940000  0.81800000  0.34460000  1.0 -0.1196978316
C  C346  1  0.02120000  0.76580000  0.44720000  1.0 0.0848856438
C  C347  1  0.02240000  0.73680000  0.50400000  1.0 0.0454102021
C  C348  1  0.02426000  0.68488000  0.60598000  1.0 0.0977665997
C  C349  1  0.34460000  0.81800000  0.01940000  1.0 -0.1196978316
C  C350  1  0.44720000  0.76580000  0.02120000  1.0 0.0902734971
C  C351  1  0.50400000  0.73680000  0.02240000  1.0 0.044493406
C  C352  1  0.60598000  0.68488000  0.02426000  1.0 0.0977665997
C  C353  1  0.01940000  0.81800000  0.81800000  1.0 -0.1196978316
C  C354  1  0.02120000  0.76580000  0.76580000  1.0 0.0902734971
C  C355  1  0.02240000  0.73680000  0.73680000  1.0 0.044493406
C  C356  1  0.02426000  0.68488000  0.68488000  1.0 0.0977665997
C  C357  1  0.34460000  0.81800000  0.81800000  1.0 -0.1196978316
C  C358  1  0.44720000  0.76580000  0.76580000  1.0 0.0902734971
C  C359  1  0.50400000  0.73680000  0.73680000  1.0 0.0454102021
C  C360  1  0.60598000  0.68488000  0.68488000  1.0 0.0977665997
C  C361  1  0.81800000  0.34460000  0.01940000  1.0 -0.1196978316
C  C362  1  0.76580000  0.44720000  0.02120000  1.0 0.0848856438
C  C363  1  0.73680000  0.50400000  0.02240000  1.0 0.044493406
C  C364  1  0.68488000  0.60598000  0.02426000  1.0 0.0977665997
C  C365  1  0.81800000  0.01940000  0.34460000  1.0 -0.1196978316
C  C366  1  0.76580000  0.02120000  0.44720000  1.0 0.0902734971
C  C367  1  0.73680000  0.02240000  0.50400000  1.0 0.044493406
C  C368  1  0.68488000  0.02426000  0.60598000  1.0 0.0977665997
C  C369  1  0.81800000  0.81800000  0.01940000  1.0 -0.1196978316
C  C370  1  0.76580000  0.76580000  0.02120000  1.0 0.0848856438
C  C371  1  0.73680000  0.73680000  0.02240000  1.0 0.044493406
C  C372  1  0.68488000  0.68488000  0.02426000  1.0 0.0977665997
C  C373  1  0.81800000  0.81800000  0.34460000  1.0 -0.1196978316
C  C374  1  0.76580000  0.76580000  0.44720000  1.0 0.0902734971
C  C375  1  0.73680000  0.73680000  0.50400000  1.0 0.0454102021
C  C376  1  0.68488000  0.68488000  0.60598000  1.0 0.0977665997
C  C377  1  0.34460000  0.01940000  0.81800000  1.0 -0.1196978316
C  C378  1  0.44720000  0.02120000  0.76580000  1.0 0.0902734971
C  C379  1  0.50400000  0.02240000  0.73680000  1.0 0.044493406
C  C380  1  0.60598000  0.02426000  0.68488000  1.0 0.0977665997
C  C381  1  0.01940000  0.34460000  0.81800000  1.0 -0.1196978316
C  C382  1  0.02120000  0.44720000  0.76580000  1.0 0.0902734971
C  C383  1  0.02240000  0.50400000  0.73680000  1.0 0.044493406
C  C384  1  0.02426000  0.60598000  0.68488000  1.0 0.0977665997
C  C385  1  0.18200000  0.65540000  0.18200000  1.0 -0.1196978316
C  C386  1  0.23420000  0.55280000  0.23420000  1.0 0.0902734971
C  C387  1  0.26320000  0.49600000  0.26320000  1.0 0.044493406
C  C388  1  0.31512000  0.39402000  0.31512000  1.0 0.0977665997
C  C389  1  0.18200000  0.98060000  0.18200000  1.0 -0.1196978316
C  C390  1  0.23420000  0.97880000  0.23420000  1.0 0.0902734971
C  C391  1  0.26320000  0.97760000  0.26320000  1.0 0.044493406
C  C392  1  0.31512000  0.97574000  0.31512000  1.0 0.0977665997
C  C393  1  0.98060000  0.18200000  0.65540000  1.0 -0.1196978316
C  C394  1  0.97880000  0.23420000  0.55280000  1.0 0.0902734971
C  C395  1  0.97760000  0.26320000  0.49600000  1.0 0.044493406
C  C396  1  0.97574000  0.31512000  0.39402000  1.0 0.0977665997
C  C397  1  0.65540000  0.18200000  0.98060000  1.0 -0.1196978316
C  C398  1  0.55280000  0.23420000  0.97880000  1.0 0.0902734971
C  C399  1  0.49600000  0.26320000  0.97760000  1.0 0.0454102021
C  C400  1  0.39402000  0.31512000  0.97574000  1.0 0.0977665997
C  C401  1  0.98060000  0.65540000  0.18200000  1.0 -0.1196978316
C  C402  1  0.97880000  0.55280000  0.23420000  1.0 0.0848856438
C  C403  1  0.97760000  0.49600000  0.26320000  1.0 0.044493406
C  C404  1  0.97574000  0.39402000  0.31512000  1.0 0.0977665997
C  C405  1  0.65540000  0.98060000  0.18200000  1.0 -0.1196978316
C  C406  1  0.55280000  0.97880000  0.23420000  1.0 0.0902734971
C  C407  1  0.49600000  0.97760000  0.26320000  1.0 0.044493406
C  C408  1  0.39402000  0.97574000  0.31512000  1.0 0.0977665997
C  C409  1  0.18200000  0.18200000  0.98060000  1.0 -0.1196978316
C  C410  1  0.23420000  0.23420000  0.97880000  1.0 0.0902734971
C  C411  1  0.26320000  0.26320000  0.97760000  1.0 0.044493406
C  C412  1  0.31512000  0.31512000  0.97574000  1.0 0.0977665997
C  C413  1  0.18200000  0.18200000  0.65540000  1.0 -0.1196978316
C  C414  1  0.23420000  0.23420000  0.55280000  1.0 0.0902734971
C  C415  1  0.26320000  0.26320000  0.49600000  1.0 0.044493406
C  C416  1  0.31512000  0.31512000  0.39402000  1.0 0.0977665997
C  C417  1  0.18200000  0.65540000  0.98060000  1.0 -0.1196978316
C  C418  1  0.23420000  0.55280000  0.97880000  1.0 0.0902734971
C  C419  1  0.26320000  0.49600000  0.97760000  1.0 0.044493406
C  C420  1  0.31512000  0.39402000  0.97574000  1.0 0.0977665997
C  C421  1  0.18200000  0.98060000  0.65540000  1.0 -0.1196978316
C  C422  1  0.23420000  0.97880000  0.55280000  1.0 0.0902734971
C  C423  1  0.26320000  0.97760000  0.49600000  1.0 0.044493406
C  C424  1  0.31512000  0.97574000  0.39402000  1.0 0.0977665997
C  C425  1  0.65540000  0.18200000  0.18200000  1.0 -0.1196978316
C  C426  1  0.55280000  0.23420000  0.23420000  1.0 0.0902734971
C  C427  1  0.49600000  0.26320000  0.26320000  1.0 0.044493406
C  C428  1  0.39402000  0.31512000  0.31512000  1.0 0.0977665997
C  C429  1  0.98060000  0.18200000  0.18200000  1.0 -0.1196978316
C  C430  1  0.97880000  0.23420000  0.23420000  1.0 0.0902734971
C  C431  1  0.97760000  0.26320000  0.26320000  1.0 0.044493406
C  C432  1  0.97574000  0.31512000  0.31512000  1.0 0.0977665997
N  N1  1  0.65825000  0.02525000  0.65825000  1.0 -0.2476521414
N  N2  1  0.65825000  0.65825000  0.65825000  1.0 -0.2476521414
N  N3  1  0.02525000  0.65825000  0.65825000  1.0 -0.2476521414
N  N4  1  0.65825000  0.65825000  0.02525000  1.0 -0.2476521414
N  N5  1  0.34175000  0.34175000  0.34175000  1.0 -0.2476521414
N  N6  1  0.34175000  0.97475000  0.34175000  1.0 -0.2476521414
N  N7  1  0.97475000  0.34175000  0.34175000  1.0 -0.2476521414
N  N8  1  0.34175000  0.34175000  0.97475000  1.0 -0.2476521414
O  O1  1  0.92370000  0.01630000  0.69390000  1.0 -0.4694065147
O  O2  1  0.92450000  0.01150000  0.76470000  1.0 -0.4524825948
O  O3  1  0.69390000  0.36610000  0.92370000  1.0 -0.4694065147
O  O4  1  0.76470000  0.29930000  0.92450000  1.0 -0.4524825948
O  O5  1  0.01630000  0.92370000  0.36610000  1.0 -0.4694065147
O  O6  1  0.01150000  0.92450000  0.29930000  1.0 -0.4524825948
O  O7  1  0.36610000  0.69390000  0.01630000  1.0 -0.4694065147
O  O8  1  0.29930000  0.76470000  0.01150000  1.0 -0.4524825948
O  O9  1  0.01630000  0.69390000  0.92370000  1.0 -0.4694065147
O  O10  1  0.01150000  0.76470000  0.92450000  1.0 -0.4524825948
O  O11  1  0.36610000  0.92370000  0.69390000  1.0 -0.4694065147
O  O12  1  0.29930000  0.92450000  0.76470000  1.0 -0.4524825948
O  O13  1  0.92370000  0.36610000  0.01630000  1.0 -0.4694065147
O  O14  1  0.92450000  0.29930000  0.01150000  1.0 -0.4524825948
O  O15  1  0.69390000  0.01630000  0.36610000  1.0 -0.4694065147
O  O16  1  0.76470000  0.01150000  0.29930000  1.0 -0.4524825948
O  O17  1  0.69390000  0.92370000  0.01630000  1.0 -0.4694065147
O  O18  1  0.76470000  0.92450000  0.01150000  1.0 -0.4524825948
O  O19  1  0.92370000  0.69390000  0.36610000  1.0 -0.4694065147
O  O20  1  0.92450000  0.76470000  0.29930000  1.0 -0.4524825948
O  O21  1  0.36610000  0.01630000  0.92370000  1.0 -0.4694065147
O  O22  1  0.29930000  0.01150000  0.92450000  1.0 -0.4524825948
O  O23  1  0.01630000  0.36610000  0.69390000  1.0 -0.4694065147
O  O24  1  0.01150000  0.29930000  0.76470000  1.0 -0.4524825948
O  O25  1  0.07630000  0.63390000  0.30610000  1.0 -0.4694065147
O  O26  1  0.07550000  0.70070000  0.23530000  1.0 -0.4524825948
O  O27  1  0.30610000  0.98370000  0.07630000  1.0 -0.4694065147
O  O28  1  0.23530000  0.98850000  0.07550000  1.0 -0.4524825948
O  O29  1  0.98370000  0.30610000  0.63390000  1.0 -0.4694065147
O  O30  1  0.98850000  0.23530000  0.70070000  1.0 -0.4524825948
O  O31  1  0.63390000  0.07630000  0.98370000  1.0 -0.4694065147
O  O32  1  0.70070000  0.07550000  0.98850000  1.0 -0.4524825948
O  O33  1  0.98370000  0.63390000  0.07630000  1.0 -0.4694065147
O  O34  1  0.98850000  0.70070000  0.07550000  1.0 -0.4524825948
O  O35  1  0.63390000  0.98370000  0.30610000  1.0 -0.4694065147
O  O36  1  0.70070000  0.98850000  0.23530000  1.0 -0.4524825948
O  O37  1  0.07630000  0.30610000  0.98370000  1.0 -0.4694065147
O  O38  1  0.07550000  0.23530000  0.98850000  1.0 -0.4524825948
O  O39  1  0.30610000  0.07630000  0.63390000  1.0 -0.4694065147
O  O40  1  0.23530000  0.07550000  0.70070000  1.0 -0.4524825948
O  O41  1  0.30610000  0.63390000  0.98370000  1.0 -0.4694065147
O  O42  1  0.23530000  0.70070000  0.98850000  1.0 -0.4524825948
O  O43  1  0.07630000  0.98370000  0.63390000  1.0 -0.4694065147
O  O44  1  0.07550000  0.98850000  0.70070000  1.0 -0.4524825948
O  O45  1  0.63390000  0.30610000  0.07630000  1.0 -0.4694065147
O  O46  1  0.70070000  0.23530000  0.07550000  1.0 -0.4524825948
O  O47  1  0.98370000  0.07630000  0.30610000  1.0 -0.4694065147
O  O48  1  0.98850000  0.07550000  0.23530000  1.0 -0.4524825948
O  O49  1  0.07630000  0.98370000  0.30610000  1.0 -0.4694065147
O  O50  1  0.07550000  0.98850000  0.23530000  1.0 -0.4524825948
O  O51  1  0.30610000  0.63390000  0.07630000  1.0 -0.4694065147
O  O52  1  0.23530000  0.70070000  0.07550000  1.0 -0.4524825948
O  O53  1  0.98370000  0.07630000  0.63390000  1.0 -0.4694065147
O  O54  1  0.98850000  0.07550000  0.70070000  1.0 -0.4524825948
O  O55  1  0.63390000  0.30610000  0.98370000  1.0 -0.4694065147
O  O56  1  0.70070000  0.23530000  0.98850000  1.0 -0.4524825948
O  O57  1  0.98370000  0.30610000  0.07630000  1.0 -0.4694065147
O  O58  1  0.98850000  0.23530000  0.07550000  1.0 -0.4524825948
O  O59  1  0.63390000  0.07630000  0.30610000  1.0 -0.4694065147
O  O60  1  0.70070000  0.07550000  0.23530000  1.0 -0.4524825948
O  O61  1  0.07630000  0.63390000  0.98370000  1.0 -0.4694065147
O  O62  1  0.07550000  0.70070000  0.98850000  1.0 -0.4524825948
O  O63  1  0.30610000  0.98370000  0.63390000  1.0 -0.4694065147
O  O64  1  0.23530000  0.98850000  0.70070000  1.0 -0.4524825948
O  O65  1  0.30610000  0.07630000  0.98370000  1.0 -0.4694065147
O  O66  1  0.23530000  0.07550000  0.98850000  1.0 -0.4524825948
O  O67  1  0.07630000  0.30610000  0.63390000  1.0 -0.4694065147
O  O68  1  0.07550000  0.23530000  0.70070000  1.0 -0.4524825948
O  O69  1  0.63390000  0.98370000  0.07630000  1.0 -0.4694065147
O  O70  1  0.70070000  0.98850000  0.07550000  1.0 -0.4524825948
O  O71  1  0.98370000  0.63390000  0.30610000  1.0 -0.4694065147
O  O72  1  0.98850000  0.70070000  0.23530000  1.0 -0.4524825948
O  O73  1  0.92370000  0.36610000  0.69390000  1.0 -0.4694065147
O  O74  1  0.92450000  0.29930000  0.76470000  1.0 -0.4524825948
O  O75  1  0.69390000  0.01630000  0.92370000  1.0 -0.4694065147
O  O76  1  0.76470000  0.01150000  0.92450000  1.0 -0.4524825948
O  O77  1  0.01630000  0.69390000  0.36610000  1.0 -0.4694065147
O  O78  1  0.01150000  0.76470000  0.29930000  1.0 -0.4524825948
O  O79  1  0.36610000  0.92370000  0.01630000  1.0 -0.4694065147
O  O80  1  0.29930000  0.92450000  0.01150000  1.0 -0.4524825948
O  O81  1  0.01630000  0.36610000  0.92370000  1.0 -0.4694065147
O  O82  1  0.01150000  0.29930000  0.92450000  1.0 -0.4524825948
O  O83  1  0.36610000  0.01630000  0.69390000  1.0 -0.4694065147
O  O84  1  0.29930000  0.01150000  0.76470000  1.0 -0.4524825948
O  O85  1  0.92370000  0.69390000  0.01630000  1.0 -0.4694065147
O  O86  1  0.92450000  0.76470000  0.01150000  1.0 -0.4524825948
O  O87  1  0.69390000  0.92370000  0.36610000  1.0 -0.4694065147
O  O88  1  0.76470000  0.92450000  0.29930000  1.0 -0.4524825948
O  O89  1  0.69390000  0.36610000  0.01630000  1.0 -0.4694065147
O  O90  1  0.76470000  0.29930000  0.01150000  1.0 -0.4524825948
O  O91  1  0.92370000  0.01630000  0.36610000  1.0 -0.4694065147
O  O92  1  0.92450000  0.01150000  0.29930000  1.0 -0.4524825948
O  O93  1  0.36610000  0.69390000  0.92370000  1.0 -0.4694065147
O  O94  1  0.29930000  0.76470000  0.92450000  1.0 -0.4524825948
O  O95  1  0.01630000  0.92370000  0.69390000  1.0 -0.4694065147
O  O96  1  0.01150000  0.92450000  0.76470000  1.0 -0.4524825948
