# DDEC6 charges by PACMAN v1.1 (https://github.com/mtap-research/PACMAN-charge/)
data_DEKNAL_ASR_pacman
_symmetry_space_group_name_H-M   'P 1'
_cell_length_a   30.89490000
_cell_length_b   30.89490000
_cell_length_c   30.89490000
_cell_angle_alpha   60.00000000
_cell_angle_beta   60.00000000
_cell_angle_gamma   60.00000000
_symmetry_Int_Tables_number   1
_chemical_formula_structural   Cu3H33C54NO12
_chemical_formula_sum   'Cu24 H264 C432 N8 O96'
_cell_volume   20851.88800517
_cell_formula_units_Z   8
loop_
 _symmetry_equiv_pos_site_id
 _symmetry_equiv_pos_as_xyz
  1  'x, y, z'
loop_
 _atom_site_type_symbol
 _atom_site_label
 _atom_site_symmetry_multiplicity
 _atom_site_fract_x
 _atom_site_fract_y
 _atom_site_fract_z
 _atom_site_occupancy
 _atom_site_charge
Cu  Cu1  1  0.00000000  0.00000000  0.65876000  1.0 0.8151695987
Cu  Cu2  1  0.00000000  0.00000000  0.73600000  1.0 0.8000506719
Cu  Cu3  1  0.65876000  0.34124000  0.00000000  1.0 0.8151695987
Cu  Cu4  1  0.73600000  0.26400000  0.00000000  1.0 0.8000506719
Cu  Cu5  1  0.00000000  0.00000000  0.34124000  1.0 0.8151695987
Cu  Cu6  1  0.00000000  0.00000000  0.26400000  1.0 0.8000506719
Cu  Cu7  1  0.34124000  0.65876000  0.00000000  1.0 0.8151695987
Cu  Cu8  1  0.26400000  0.73600000  0.00000000  1.0 0.8000506719
Cu  Cu9  1  0.00000000  0.65876000  0.00000000  1.0 0.8151695987
Cu  Cu10  1  0.00000000  0.73600000  0.00000000  1.0 0.8000506719
Cu  Cu11  1  0.34124000  0.00000000  0.65876000  1.0 0.8151695987
Cu  Cu12  1  0.26400000  0.00000000  0.73600000  1.0 0.8000506719
Cu  Cu13  1  0.00000000  0.34124000  0.00000000  1.0 0.8151695987
Cu  Cu14  1  0.00000000  0.26400000  0.00000000  1.0 0.8000506719
Cu  Cu15  1  0.65876000  0.00000000  0.34124000  1.0 0.8149000665
Cu  Cu16  1  0.73600000  0.00000000  0.26400000  1.0 0.8000506719
Cu  Cu17  1  0.65876000  0.00000000  0.00000000  1.0 0.8151695987
Cu  Cu18  1  0.73600000  0.00000000  0.00000000  1.0 0.8000506719
Cu  Cu19  1  0.00000000  0.65876000  0.34124000  1.0 0.8149000665
Cu  Cu20  1  0.00000000  0.73600000  0.26400000  1.0 0.8000506719
Cu  Cu21  1  0.34124000  0.00000000  0.00000000  1.0 0.8151695987
Cu  Cu22  1  0.26400000  0.00000000  0.00000000  1.0 0.8000506719
Cu  Cu23  1  0.00000000  0.34124000  0.65876000  1.0 0.8149000665
Cu  Cu24  1  0.00000000  0.26400000  0.73600000  1.0 0.8000506719
H  H1  1  0.83838000  0.02398000  0.69856000  1.0 0.1106139531
H  H2  1  0.80396000  0.97190000  0.69750000  1.0 0.0899379009
H  H3  1  0.75624000  0.97546000  0.65052000  1.0 0.0708650575
H  H4  1  0.66411000  0.08221000  0.76815000  1.0 0.0899379009
H  H5  1  0.61640000  0.08576000  0.72118000  1.0 0.057241123
H  H6  1  0.69856000  0.43908000  0.83838000  1.0 0.1106139531
H  H7  1  0.69750000  0.52664000  0.80396000  1.0 0.0899379009
H  H8  1  0.65052000  0.61778000  0.75624000  1.0 0.0708650575
H  H9  1  0.76815000  0.48553000  0.66411000  1.0 0.0899379009
H  H10  1  0.72118000  0.57666000  0.61640000  1.0 0.057241123
H  H11  1  0.02398000  0.83838000  0.43908000  1.0 0.1106139531
H  H12  1  0.97190000  0.80396000  0.52664000  1.0 0.0899379009
H  H13  1  0.97546000  0.75624000  0.61778000  1.0 0.0708650575
H  H14  1  0.08221000  0.66411000  0.48553000  1.0 0.0899379009
H  H15  1  0.08576000  0.61640000  0.57666000  1.0 0.057241123
H  H16  1  0.43908000  0.69856000  0.02398000  1.0 0.1106139531
H  H17  1  0.52664000  0.69750000  0.97190000  1.0 0.0899379009
H  H18  1  0.61778000  0.65052000  0.97546000  1.0 0.0708650575
H  H19  1  0.48553000  0.76815000  0.08221000  1.0 0.0899379009
H  H20  1  0.57666000  0.72118000  0.08576000  1.0 0.057241123
H  H21  1  0.02398000  0.69856000  0.83838000  1.0 0.1106139531
H  H22  1  0.97190000  0.69750000  0.80396000  1.0 0.0899379009
H  H23  1  0.97546000  0.65052000  0.75624000  1.0 0.0708650575
H  H24  1  0.08221000  0.76815000  0.66411000  1.0 0.0899379009
H  H25  1  0.08576000  0.72118000  0.61640000  1.0 0.057241123
H  H26  1  0.43908000  0.83838000  0.69856000  1.0 0.1106139531
H  H27  1  0.52664000  0.80396000  0.69750000  1.0 0.0899379009
H  H28  1  0.61778000  0.75624000  0.65052000  1.0 0.0708650575
H  H29  1  0.48553000  0.66411000  0.76815000  1.0 0.0899379009
H  H30  1  0.57666000  0.61640000  0.72118000  1.0 0.057241123
H  H31  1  0.83838000  0.43908000  0.02398000  1.0 0.1106139531
H  H32  1  0.80396000  0.52664000  0.97190000  1.0 0.0899379009
H  H33  1  0.75624000  0.61778000  0.97546000  1.0 0.0708650575
H  H34  1  0.66411000  0.48553000  0.08221000  1.0 0.0899379009
H  H35  1  0.61640000  0.57666000  0.08576000  1.0 0.057241123
H  H36  1  0.69856000  0.02398000  0.43908000  1.0 0.1106139531
H  H37  1  0.69750000  0.97190000  0.52664000  1.0 0.0899379009
H  H38  1  0.65052000  0.97546000  0.61778000  1.0 0.0708650575
H  H39  1  0.76815000  0.08221000  0.48553000  1.0 0.0899379009
H  H40  1  0.72118000  0.08576000  0.57666000  1.0 0.057241123
H  H41  1  0.69856000  0.83838000  0.02398000  1.0 0.1106139531
H  H42  1  0.69750000  0.80396000  0.97190000  1.0 0.0899379009
H  H43  1  0.65052000  0.75624000  0.97546000  1.0 0.0708650575
H  H44  1  0.76815000  0.66411000  0.08221000  1.0 0.0899379009
H  H45  1  0.72118000  0.61640000  0.08576000  1.0 0.057241123
H  H46  1  0.83838000  0.69856000  0.43908000  1.0 0.1106139531
H  H47  1  0.80396000  0.69750000  0.52664000  1.0 0.0899379009
H  H48  1  0.75624000  0.65052000  0.61778000  1.0 0.0708650575
H  H49  1  0.66411000  0.76815000  0.48553000  1.0 0.0899379009
H  H50  1  0.61640000  0.72118000  0.57666000  1.0 0.057241123
H  H51  1  0.43908000  0.02398000  0.83838000  1.0 0.1106139531
H  H52  1  0.52664000  0.97190000  0.80396000  1.0 0.0899379009
H  H53  1  0.61778000  0.97546000  0.75624000  1.0 0.0708650575
H  H54  1  0.48553000  0.08221000  0.66411000  1.0 0.0899379009
H  H55  1  0.57666000  0.08576000  0.61640000  1.0 0.057241123
H  H56  1  0.02398000  0.43908000  0.69856000  1.0 0.1106139531
H  H57  1  0.97190000  0.52664000  0.69750000  1.0 0.0899379009
H  H58  1  0.97546000  0.61778000  0.65052000  1.0 0.0708650575
H  H59  1  0.08221000  0.48553000  0.76815000  1.0 0.0899379009
H  H60  1  0.08576000  0.57666000  0.72118000  1.0 0.057241123
H  H61  1  0.16162000  0.56092000  0.30144000  1.0 0.1106139531
H  H62  1  0.19604000  0.47336000  0.30250000  1.0 0.0899379009
H  H63  1  0.24376000  0.38222000  0.34948000  1.0 0.0708650575
H  H64  1  0.33589000  0.51447000  0.23185000  1.0 0.0899379009
H  H65  1  0.38360000  0.42334000  0.27882000  1.0 0.057241123
H  H66  1  0.30144000  0.97602000  0.16162000  1.0 0.1106139531
H  H67  1  0.30250000  0.02810000  0.19604000  1.0 0.0899379009
H  H68  1  0.34948000  0.02454000  0.24376000  1.0 0.0708650575
H  H69  1  0.23185000  0.91779000  0.33589000  1.0 0.0899379009
H  H70  1  0.27882000  0.91424000  0.38360000  1.0 0.057241123
H  H71  1  0.97602000  0.30144000  0.56092000  1.0 0.1106139531
H  H72  1  0.02810000  0.30250000  0.47336000  1.0 0.0899379009
H  H73  1  0.02454000  0.34948000  0.38222000  1.0 0.0708650575
H  H74  1  0.91779000  0.23185000  0.51447000  1.0 0.0899379009
H  H75  1  0.91424000  0.27882000  0.42334000  1.0 0.057241123
H  H76  1  0.56092000  0.16162000  0.97602000  1.0 0.1106139531
H  H77  1  0.47336000  0.19604000  0.02810000  1.0 0.0899379009
H  H78  1  0.38222000  0.24376000  0.02454000  1.0 0.0708650575
H  H79  1  0.51447000  0.33589000  0.91779000  1.0 0.0899379009
H  H80  1  0.42334000  0.38360000  0.91424000  1.0 0.057241123
H  H81  1  0.97602000  0.56092000  0.16162000  1.0 0.1106139531
H  H82  1  0.02810000  0.47336000  0.19604000  1.0 0.0899379009
H  H83  1  0.02454000  0.38222000  0.24376000  1.0 0.0708650575
H  H84  1  0.91779000  0.51447000  0.33589000  1.0 0.0899379009
H  H85  1  0.91424000  0.42334000  0.38360000  1.0 0.057241123
H  H86  1  0.56092000  0.97602000  0.30144000  1.0 0.1106139531
H  H87  1  0.47336000  0.02810000  0.30250000  1.0 0.0899379009
H  H88  1  0.38222000  0.02454000  0.34948000  1.0 0.0708650575
H  H89  1  0.51447000  0.91779000  0.23185000  1.0 0.0899379009
H  H90  1  0.42334000  0.91424000  0.27882000  1.0 0.057241123
H  H91  1  0.16162000  0.30144000  0.97602000  1.0 0.1106139531
H  H92  1  0.19604000  0.30250000  0.02810000  1.0 0.0899379009
H  H93  1  0.24376000  0.34948000  0.02454000  1.0 0.0708650575
H  H94  1  0.33589000  0.23185000  0.91779000  1.0 0.0899379009
H  H95  1  0.38360000  0.27882000  0.91424000  1.0 0.057241123
H  H96  1  0.30144000  0.16162000  0.56092000  1.0 0.1106139531
H  H97  1  0.30250000  0.19604000  0.47336000  1.0 0.0899379009
H  H98  1  0.34948000  0.24376000  0.38222000  1.0 0.0708650575
H  H99  1  0.23185000  0.33589000  0.51447000  1.0 0.0899379009
H  H100  1  0.27882000  0.38360000  0.42334000  1.0 0.057241123
H  H101  1  0.30144000  0.56092000  0.97602000  1.0 0.1106139531
H  H102  1  0.30250000  0.47336000  0.02810000  1.0 0.0899379009
H  H103  1  0.34948000  0.38222000  0.02454000  1.0 0.0708650575
H  H104  1  0.23185000  0.51447000  0.91779000  1.0 0.0899379009
H  H105  1  0.27882000  0.42334000  0.91424000  1.0 0.057241123
H  H106  1  0.16162000  0.97602000  0.56092000  1.0 0.1106139531
H  H107  1  0.19604000  0.02810000  0.47336000  1.0 0.0899379009
H  H108  1  0.24376000  0.02454000  0.38222000  1.0 0.0708650575
H  H109  1  0.33589000  0.91779000  0.51447000  1.0 0.0899379009
H  H110  1  0.38360000  0.91424000  0.42334000  1.0 0.057241123
H  H111  1  0.56092000  0.30144000  0.16162000  1.0 0.1106139531
H  H112  1  0.47336000  0.30250000  0.19604000  1.0 0.0899379009
H  H113  1  0.38222000  0.34948000  0.24376000  1.0 0.0708650575
H  H114  1  0.51447000  0.23185000  0.33589000  1.0 0.0899379009
H  H115  1  0.42334000  0.27882000  0.38360000  1.0 0.057241123
H  H116  1  0.97602000  0.16162000  0.30144000  1.0 0.1106139531
H  H117  1  0.02810000  0.19604000  0.30250000  1.0 0.0899379009
H  H118  1  0.02454000  0.24376000  0.34948000  1.0 0.0708650575
H  H119  1  0.91779000  0.33589000  0.23185000  1.0 0.0899379009
H  H120  1  0.91424000  0.38360000  0.27882000  1.0 0.057241123
H  H121  1  0.16162000  0.97602000  0.30144000  1.0 0.1106139531
H  H122  1  0.19604000  0.02810000  0.30250000  1.0 0.0899379009
H  H123  1  0.24376000  0.02454000  0.34948000  1.0 0.0708650575
H  H124  1  0.33589000  0.91779000  0.23185000  1.0 0.0899379009
H  H125  1  0.38360000  0.91424000  0.27882000  1.0 0.057241123
H  H126  1  0.30144000  0.56092000  0.16162000  1.0 0.1106139531
H  H127  1  0.30250000  0.47336000  0.19604000  1.0 0.0899379009
H  H128  1  0.34948000  0.38222000  0.24376000  1.0 0.0708650575
H  H129  1  0.23185000  0.51447000  0.33589000  1.0 0.0899379009
H  H130  1  0.27882000  0.42334000  0.38360000  1.0 0.057241123
H  H131  1  0.97602000  0.16162000  0.56092000  1.0 0.1106139531
H  H132  1  0.02810000  0.19604000  0.47336000  1.0 0.0899379009
H  H133  1  0.02454000  0.24376000  0.38222000  1.0 0.0708650575
H  H134  1  0.91779000  0.33589000  0.51447000  1.0 0.0899379009
H  H135  1  0.91424000  0.38360000  0.42334000  1.0 0.057241123
H  H136  1  0.56092000  0.30144000  0.97602000  1.0 0.1106139531
H  H137  1  0.47336000  0.30250000  0.02810000  1.0 0.0899379009
H  H138  1  0.38222000  0.34948000  0.02454000  1.0 0.0708650575
H  H139  1  0.51447000  0.23185000  0.91779000  1.0 0.0899379009
H  H140  1  0.42334000  0.27882000  0.91424000  1.0 0.057241123
H  H141  1  0.97602000  0.30144000  0.16162000  1.0 0.1106139531
H  H142  1  0.02810000  0.30250000  0.19604000  1.0 0.0899379009
H  H143  1  0.02454000  0.34948000  0.24376000  1.0 0.0708650575
H  H144  1  0.91779000  0.23185000  0.33589000  1.0 0.0899379009
H  H145  1  0.91424000  0.27882000  0.38360000  1.0 0.057241123
H  H146  1  0.56092000  0.16162000  0.30144000  1.0 0.1106139531
H  H147  1  0.47336000  0.19604000  0.30250000  1.0 0.0899379009
H  H148  1  0.38222000  0.24376000  0.34948000  1.0 0.0708650575
H  H149  1  0.51447000  0.33589000  0.23185000  1.0 0.0899379009
H  H150  1  0.42334000  0.38360000  0.27882000  1.0 0.057241123
H  H151  1  0.16162000  0.56092000  0.97602000  1.0 0.1106139531
H  H152  1  0.19604000  0.47336000  0.02810000  1.0 0.0899379009
H  H153  1  0.24376000  0.38222000  0.02454000  1.0 0.0708650575
H  H154  1  0.33589000  0.51447000  0.91779000  1.0 0.0899379009
H  H155  1  0.38360000  0.42334000  0.91424000  1.0 0.057241123
H  H156  1  0.30144000  0.97602000  0.56092000  1.0 0.1106139531
H  H157  1  0.30250000  0.02810000  0.47336000  1.0 0.0899379009
H  H158  1  0.34948000  0.02454000  0.38222000  1.0 0.0708650575
H  H159  1  0.23185000  0.91779000  0.51447000  1.0 0.0899379009
H  H160  1  0.27882000  0.91424000  0.42334000  1.0 0.057241123
H  H161  1  0.30144000  0.16162000  0.97602000  1.0 0.1106139531
H  H162  1  0.30250000  0.19604000  0.02810000  1.0 0.0899379009
H  H163  1  0.34948000  0.24376000  0.02454000  1.0 0.0708650575
H  H164  1  0.23185000  0.33589000  0.91779000  1.0 0.0899379009
H  H165  1  0.27882000  0.38360000  0.91424000  1.0 0.057241123
H  H166  1  0.16162000  0.30144000  0.56092000  1.0 0.1106139531
H  H167  1  0.19604000  0.30250000  0.47336000  1.0 0.0899379009
H  H168  1  0.24376000  0.34948000  0.38222000  1.0 0.0708650575
H  H169  1  0.33589000  0.23185000  0.51447000  1.0 0.0899379009
H  H170  1  0.38360000  0.27882000  0.42334000  1.0 0.057241123
H  H171  1  0.56092000  0.97602000  0.16162000  1.0 0.1106139531
H  H172  1  0.47336000  0.02810000  0.19604000  1.0 0.0899379009
H  H173  1  0.38222000  0.02454000  0.24376000  1.0 0.0708650575
H  H174  1  0.51447000  0.91779000  0.33589000  1.0 0.0899379009
H  H175  1  0.42334000  0.91424000  0.38360000  1.0 0.057241123
H  H176  1  0.97602000  0.56092000  0.30144000  1.0 0.1106139531
H  H177  1  0.02810000  0.47336000  0.30250000  1.0 0.0899379009
H  H178  1  0.02454000  0.38222000  0.34948000  1.0 0.0708650575
H  H179  1  0.91779000  0.51447000  0.23185000  1.0 0.0899379009
H  H180  1  0.91424000  0.42334000  0.27882000  1.0 0.057241123
H  H181  1  0.83838000  0.43908000  0.69856000  1.0 0.1106139531
H  H182  1  0.80396000  0.52664000  0.69750000  1.0 0.0899379009
H  H183  1  0.75624000  0.61778000  0.65052000  1.0 0.0708650575
H  H184  1  0.66411000  0.48553000  0.76815000  1.0 0.0899379009
H  H185  1  0.61640000  0.57666000  0.72118000  1.0 0.057241123
H  H186  1  0.69856000  0.02398000  0.83838000  1.0 0.1106139531
H  H187  1  0.69750000  0.97190000  0.80396000  1.0 0.0899379009
H  H188  1  0.65052000  0.97546000  0.75624000  1.0 0.0708650575
H  H189  1  0.76815000  0.08221000  0.66411000  1.0 0.0899379009
H  H190  1  0.72118000  0.08576000  0.61640000  1.0 0.057241123
H  H191  1  0.02398000  0.69856000  0.43908000  1.0 0.1106139531
H  H192  1  0.97190000  0.69750000  0.52664000  1.0 0.0899379009
H  H193  1  0.97546000  0.65052000  0.61778000  1.0 0.0708650575
H  H194  1  0.08221000  0.76815000  0.48553000  1.0 0.0899379009
H  H195  1  0.08576000  0.72118000  0.57666000  1.0 0.057241123
H  H196  1  0.43908000  0.83838000  0.02398000  1.0 0.1106139531
H  H197  1  0.52664000  0.80396000  0.97190000  1.0 0.0899379009
H  H198  1  0.61778000  0.75624000  0.97546000  1.0 0.0708650575
H  H199  1  0.48553000  0.66411000  0.08221000  1.0 0.0899379009
H  H200  1  0.57666000  0.61640000  0.08576000  1.0 0.057241123
H  H201  1  0.02398000  0.43908000  0.83838000  1.0 0.1106139531
H  H202  1  0.97190000  0.52664000  0.80396000  1.0 0.0899379009
H  H203  1  0.97546000  0.61778000  0.75624000  1.0 0.0708650575
H  H204  1  0.08221000  0.48553000  0.66411000  1.0 0.0899379009
H  H205  1  0.08576000  0.57666000  0.61640000  1.0 0.057241123
H  H206  1  0.43908000  0.02398000  0.69856000  1.0 0.1106139531
H  H207  1  0.52664000  0.97190000  0.69750000  1.0 0.0899379009
H  H208  1  0.61778000  0.97546000  0.65052000  1.0 0.0708650575
H  H209  1  0.48553000  0.08221000  0.76815000  1.0 0.0899379009
H  H210  1  0.57666000  0.08576000  0.72118000  1.0 0.057241123
H  H211  1  0.83838000  0.69856000  0.02398000  1.0 0.1106139531
H  H212  1  0.80396000  0.69750000  0.97190000  1.0 0.0899379009
H  H213  1  0.75624000  0.65052000  0.97546000  1.0 0.0708650575
H  H214  1  0.66411000  0.76815000  0.08221000  1.0 0.0899379009
H  H215  1  0.61640000  0.72118000  0.08576000  1.0 0.057241123
H  H216  1  0.69856000  0.83838000  0.43908000  1.0 0.1106139531
H  H217  1  0.69750000  0.80396000  0.52664000  1.0 0.0899379009
H  H218  1  0.65052000  0.75624000  0.61778000  1.0 0.0708650575
H  H219  1  0.76815000  0.66411000  0.48553000  1.0 0.0899379009
H  H220  1  0.72118000  0.61640000  0.57666000  1.0 0.057241123
H  H221  1  0.69856000  0.43908000  0.02398000  1.0 0.1106139531
H  H222  1  0.69750000  0.52664000  0.97190000  1.0 0.0899379009
H  H223  1  0.65052000  0.61778000  0.97546000  1.0 0.0708650575
H  H224  1  0.76815000  0.48553000  0.08221000  1.0 0.0899379009
H  H225  1  0.72118000  0.57666000  0.08576000  1.0 0.057241123
H  H226  1  0.83838000  0.02398000  0.43908000  1.0 0.1106139531
H  H227  1  0.80396000  0.97190000  0.52664000  1.0 0.0899379009
H  H228  1  0.75624000  0.97546000  0.61778000  1.0 0.0708650575
H  H229  1  0.66411000  0.08221000  0.48553000  1.0 0.0899379009
H  H230  1  0.61640000  0.08576000  0.57666000  1.0 0.057241123
H  H231  1  0.43908000  0.69856000  0.83838000  1.0 0.1106139531
H  H232  1  0.52664000  0.69750000  0.80396000  1.0 0.0899379009
H  H233  1  0.61778000  0.65052000  0.75624000  1.0 0.0708650575
H  H234  1  0.48553000  0.76815000  0.66411000  1.0 0.0899379009
H  H235  1  0.57666000  0.72118000  0.61640000  1.0 0.057241123
H  H236  1  0.02398000  0.83838000  0.69856000  1.0 0.1106139531
H  H237  1  0.97190000  0.80396000  0.69750000  1.0 0.0899379009
H  H238  1  0.97546000  0.75624000  0.65052000  1.0 0.0708650575
H  H239  1  0.08221000  0.66411000  0.76815000  1.0 0.0899379009
H  H240  1  0.08576000  0.61640000  0.72118000  1.0 0.057241123
H  H241  1  0.83980000  0.01702000  0.83980000  1.0 0.1317214778
H  H242  1  0.83980000  0.30338000  0.83980000  1.0 0.1317214778
H  H243  1  0.01702000  0.83980000  0.30338000  1.0 0.1317214778
H  H244  1  0.30338000  0.83980000  0.01702000  1.0 0.1317214778
H  H245  1  0.01702000  0.83980000  0.83980000  1.0 0.1317214778
H  H246  1  0.30338000  0.83980000  0.83980000  1.0 0.1317214778
H  H247  1  0.83980000  0.30338000  0.01702000  1.0 0.1317214778
H  H248  1  0.83980000  0.01702000  0.30338000  1.0 0.1317214778
H  H249  1  0.83980000  0.83980000  0.01702000  1.0 0.1317214778
H  H250  1  0.83980000  0.83980000  0.30338000  1.0 0.1317214778
H  H251  1  0.30338000  0.01702000  0.83980000  1.0 0.1317214778
H  H252  1  0.01702000  0.30338000  0.83980000  1.0 0.1317214778
H  H253  1  0.16020000  0.69662000  0.16020000  1.0 0.1317214778
H  H254  1  0.16020000  0.98298000  0.16020000  1.0 0.1317214778
H  H255  1  0.98298000  0.16020000  0.69662000  1.0 0.1317214778
H  H256  1  0.69662000  0.16020000  0.98298000  1.0 0.1317214778
H  H257  1  0.98298000  0.69662000  0.16020000  1.0 0.1317214778
H  H258  1  0.69662000  0.98298000  0.16020000  1.0 0.1317214778
H  H259  1  0.16020000  0.16020000  0.98298000  1.0 0.1317214778
H  H260  1  0.16020000  0.16020000  0.69662000  1.0 0.1317214778
H  H261  1  0.16020000  0.69662000  0.98298000  1.0 0.1317214778
H  H262  1  0.16020000  0.98298000  0.69662000  1.0 0.1317214778
H  H263  1  0.69662000  0.16020000  0.16020000  1.0 0.1317214778
H  H264  1  0.98298000  0.16020000  0.16020000  1.0 0.1317214778
C  C1  1  0.90181000  0.01519000  0.74059000  1.0 0.575218167
C  C2  1  0.84505000  0.02065000  0.76615000  1.0 -0.0331464885
C  C3  1  0.81837000  0.02305000  0.73949000  1.0 -0.1441002599
C  C4  1  0.76272000  0.99694000  0.70270000  1.0 -0.0717589533
C  C5  1  0.73598000  0.99894000  0.67638000  1.0 -0.0895136448
C  C6  1  0.68437000  0.05873000  0.74229000  1.0 -0.0717589533
C  C7  1  0.65765000  0.06073000  0.71597000  1.0 -0.0717589533
C  C8  1  0.74059000  0.34241000  0.90181000  1.0 0.575218167
C  C9  1  0.76615000  0.36815000  0.84505000  1.0 -0.0331464885
C  C10  1  0.73949000  0.41909000  0.81837000  1.0 -0.1441002599
C  C11  1  0.70270000  0.53764000  0.76272000  1.0 -0.0717589533
C  C12  1  0.67638000  0.58870000  0.73598000  1.0 -0.0895136448
C  C13  1  0.74229000  0.51461000  0.68437000  1.0 -0.0717589533
C  C14  1  0.71597000  0.56565000  0.65765000  1.0 -0.0717589533
C  C15  1  0.01519000  0.90181000  0.34241000  1.0 0.5749144217
C  C16  1  0.02065000  0.84505000  0.36815000  1.0 -0.0331464885
C  C17  1  0.02305000  0.81837000  0.41909000  1.0 -0.1441002599
C  C18  1  0.99694000  0.76272000  0.53764000  1.0 -0.0717589533
C  C19  1  0.99894000  0.73598000  0.58870000  1.0 -0.0895136448
C  C20  1  0.05873000  0.68437000  0.51461000  1.0 -0.0717589533
C  C21  1  0.06073000  0.65765000  0.56565000  1.0 -0.0717589533
C  C22  1  0.34241000  0.74059000  0.01519000  1.0 0.5749144217
C  C23  1  0.36815000  0.76615000  0.02065000  1.0 -0.0331464885
C  C24  1  0.41909000  0.73949000  0.02305000  1.0 -0.1441002599
C  C25  1  0.53764000  0.70270000  0.99694000  1.0 -0.0717589533
C  C26  1  0.58870000  0.67638000  0.99894000  1.0 -0.0895136448
C  C27  1  0.51461000  0.74229000  0.05873000  1.0 -0.0717589533
C  C28  1  0.56565000  0.71597000  0.06073000  1.0 -0.0717589533
C  C29  1  0.01519000  0.74059000  0.90181000  1.0 0.575218167
C  C30  1  0.02065000  0.76615000  0.84505000  1.0 -0.0331464885
C  C31  1  0.02305000  0.73949000  0.81837000  1.0 -0.1441002599
C  C32  1  0.99694000  0.70270000  0.76272000  1.0 -0.0717589533
C  C33  1  0.99894000  0.67638000  0.73598000  1.0 -0.0895136448
C  C34  1  0.05873000  0.74229000  0.68437000  1.0 -0.0717589533
C  C35  1  0.06073000  0.71597000  0.65765000  1.0 -0.0717589533
C  C36  1  0.34241000  0.90181000  0.74059000  1.0 0.575218167
C  C37  1  0.36815000  0.84505000  0.76615000  1.0 -0.0331464885
C  C38  1  0.41909000  0.81837000  0.73949000  1.0 -0.1441002599
C  C39  1  0.53764000  0.76272000  0.70270000  1.0 -0.0717589533
C  C40  1  0.58870000  0.73598000  0.67638000  1.0 -0.0895136448
C  C41  1  0.51461000  0.68437000  0.74229000  1.0 -0.0717589533
C  C42  1  0.56565000  0.65765000  0.71597000  1.0 -0.0717589533
C  C43  1  0.90181000  0.34241000  0.01519000  1.0 0.575218167
C  C44  1  0.84505000  0.36815000  0.02065000  1.0 -0.0331464885
C  C45  1  0.81837000  0.41909000  0.02305000  1.0 -0.1441002599
C  C46  1  0.76272000  0.53764000  0.99694000  1.0 -0.0717589533
C  C47  1  0.73598000  0.58870000  0.99894000  1.0 -0.0895136448
C  C48  1  0.68437000  0.51461000  0.05873000  1.0 -0.0717589533
C  C49  1  0.65765000  0.56565000  0.06073000  1.0 -0.0717589533
C  C50  1  0.74059000  0.01519000  0.34241000  1.0 0.575218167
C  C51  1  0.76615000  0.02065000  0.36815000  1.0 -0.0331464885
C  C52  1  0.73949000  0.02305000  0.41909000  1.0 -0.1441002599
C  C53  1  0.70270000  0.99694000  0.53764000  1.0 -0.0717589533
C  C54  1  0.67638000  0.99894000  0.58870000  1.0 -0.0895136448
C  C55  1  0.74229000  0.05873000  0.51461000  1.0 -0.0717589533
C  C56  1  0.71597000  0.06073000  0.56565000  1.0 -0.0717589533
C  C57  1  0.74059000  0.90181000  0.01519000  1.0 0.575218167
C  C58  1  0.76615000  0.84505000  0.02065000  1.0 -0.0331464885
C  C59  1  0.73949000  0.81837000  0.02305000  1.0 -0.1441002599
C  C60  1  0.70270000  0.76272000  0.99694000  1.0 -0.0717589533
C  C61  1  0.67638000  0.73598000  0.99894000  1.0 -0.0895136448
C  C62  1  0.74229000  0.68437000  0.05873000  1.0 -0.0717589533
C  C63  1  0.71597000  0.65765000  0.06073000  1.0 -0.0717589533
C  C64  1  0.90181000  0.74059000  0.34241000  1.0 0.5749144217
C  C65  1  0.84505000  0.76615000  0.36815000  1.0 -0.0331464885
C  C66  1  0.81837000  0.73949000  0.41909000  1.0 -0.1441002599
C  C67  1  0.76272000  0.70270000  0.53764000  1.0 -0.0717589533
C  C68  1  0.73598000  0.67638000  0.58870000  1.0 -0.0895136448
C  C69  1  0.68437000  0.74229000  0.51461000  1.0 -0.0717589533
C  C70  1  0.65765000  0.71597000  0.56565000  1.0 -0.0717589533
C  C71  1  0.34241000  0.01519000  0.90181000  1.0 0.575218167
C  C72  1  0.36815000  0.02065000  0.84505000  1.0 -0.0331464885
C  C73  1  0.41909000  0.02305000  0.81837000  1.0 -0.1441002599
C  C74  1  0.53764000  0.99694000  0.76272000  1.0 -0.0717589533
C  C75  1  0.58870000  0.99894000  0.73598000  1.0 -0.0895136448
C  C76  1  0.51461000  0.05873000  0.68437000  1.0 -0.0717589533
C  C77  1  0.56565000  0.06073000  0.65765000  1.0 -0.0717589533
C  C78  1  0.01519000  0.34241000  0.74059000  1.0 0.575218167
C  C79  1  0.02065000  0.36815000  0.76615000  1.0 -0.0331464885
C  C80  1  0.02305000  0.41909000  0.73949000  1.0 -0.1441002599
C  C81  1  0.99694000  0.53764000  0.70270000  1.0 -0.0717589533
C  C82  1  0.99894000  0.58870000  0.67638000  1.0 -0.0895136448
C  C83  1  0.05873000  0.51461000  0.74229000  1.0 -0.0717589533
C  C84  1  0.06073000  0.56565000  0.71597000  1.0 -0.0717589533
C  C85  1  0.09819000  0.65759000  0.25941000  1.0 0.575218167
C  C86  1  0.15495000  0.63185000  0.23385000  1.0 -0.0331464885
C  C87  1  0.18163000  0.58091000  0.26051000  1.0 -0.1441002599
C  C88  1  0.23728000  0.46236000  0.29730000  1.0 -0.0717589533
C  C89  1  0.26402000  0.41130000  0.32362000  1.0 -0.0895136448
C  C90  1  0.31563000  0.48539000  0.25771000  1.0 -0.0717589533
C  C91  1  0.34235000  0.43435000  0.28403000  1.0 -0.0717589533
C  C92  1  0.25941000  0.98481000  0.09819000  1.0 0.5749144217
C  C93  1  0.23385000  0.97935000  0.15495000  1.0 -0.0331464885
C  C94  1  0.26051000  0.97695000  0.18163000  1.0 -0.1441002599
C  C95  1  0.29730000  0.00306000  0.23728000  1.0 -0.0717589533
C  C96  1  0.32362000  0.00106000  0.26402000  1.0 -0.0895136448
C  C97  1  0.25771000  0.94127000  0.31563000  1.0 -0.0717589533
C  C98  1  0.28403000  0.93927000  0.34235000  1.0 -0.0717589533
C  C99  1  0.98481000  0.25941000  0.65759000  1.0 0.575218167
C  C100  1  0.97935000  0.23385000  0.63185000  1.0 -0.0331464885
C  C101  1  0.97695000  0.26051000  0.58091000  1.0 -0.1441002599
C  C102  1  0.00306000  0.29730000  0.46236000  1.0 -0.0717589533
C  C103  1  0.00106000  0.32362000  0.41130000  1.0 -0.0895136448
C  C104  1  0.94127000  0.25771000  0.48539000  1.0 -0.0717589533
C  C105  1  0.93927000  0.28403000  0.43435000  1.0 -0.0717589533
C  C106  1  0.65759000  0.09819000  0.98481000  1.0 0.575218167
C  C107  1  0.63185000  0.15495000  0.97935000  1.0 -0.0331464885
C  C108  1  0.58091000  0.18163000  0.97695000  1.0 -0.1441002599
C  C109  1  0.46236000  0.23728000  0.00306000  1.0 -0.0717589533
C  C110  1  0.41130000  0.26402000  0.00106000  1.0 -0.0895136448
C  C111  1  0.48539000  0.31563000  0.94127000  1.0 -0.0717589533
C  C112  1  0.43435000  0.34235000  0.93927000  1.0 -0.0717589533
C  C113  1  0.98481000  0.65759000  0.09819000  1.0 0.575218167
C  C114  1  0.97935000  0.63185000  0.15495000  1.0 -0.0331464885
C  C115  1  0.97695000  0.58091000  0.18163000  1.0 -0.1441002599
C  C116  1  0.00306000  0.46236000  0.23728000  1.0 -0.0717589533
C  C117  1  0.00106000  0.41130000  0.26402000  1.0 -0.0895136448
C  C118  1  0.94127000  0.48539000  0.31563000  1.0 -0.0717589533
C  C119  1  0.93927000  0.43435000  0.34235000  1.0 -0.0717589533
C  C120  1  0.65759000  0.98481000  0.25941000  1.0 0.5749144217
C  C121  1  0.63185000  0.97935000  0.23385000  1.0 -0.0331464885
C  C122  1  0.58091000  0.97695000  0.26051000  1.0 -0.1441002599
C  C123  1  0.46236000  0.00306000  0.29730000  1.0 -0.0717589533
C  C124  1  0.41130000  0.00106000  0.32362000  1.0 -0.0895136448
C  C125  1  0.48539000  0.94127000  0.25771000  1.0 -0.0717589533
C  C126  1  0.43435000  0.93927000  0.28403000  1.0 -0.0717589533
C  C127  1  0.09819000  0.25941000  0.98481000  1.0 0.575218167
C  C128  1  0.15495000  0.23385000  0.97935000  1.0 -0.0331464885
C  C129  1  0.18163000  0.26051000  0.97695000  1.0 -0.1441002599
C  C130  1  0.23728000  0.29730000  0.00306000  1.0 -0.0717589533
C  C131  1  0.26402000  0.32362000  0.00106000  1.0 -0.0895136448
C  C132  1  0.31563000  0.25771000  0.94127000  1.0 -0.0717589533
C  C133  1  0.34235000  0.28403000  0.93927000  1.0 -0.0717589533
C  C134  1  0.25941000  0.09819000  0.65759000  1.0 0.575218167
C  C135  1  0.23385000  0.15495000  0.63185000  1.0 -0.0331464885
C  C136  1  0.26051000  0.18163000  0.58091000  1.0 -0.1441002599
C  C137  1  0.29730000  0.23728000  0.46236000  1.0 -0.0717589533
C  C138  1  0.32362000  0.26402000  0.41130000  1.0 -0.0895136448
C  C139  1  0.25771000  0.31563000  0.48539000  1.0 -0.0717589533
C  C140  1  0.28403000  0.34235000  0.43435000  1.0 -0.0717589533
C  C141  1  0.25941000  0.65759000  0.98481000  1.0 0.575218167
C  C142  1  0.23385000  0.63185000  0.97935000  1.0 -0.0331464885
C  C143  1  0.26051000  0.58091000  0.97695000  1.0 -0.1441002599
C  C144  1  0.29730000  0.46236000  0.00306000  1.0 -0.0717589533
C  C145  1  0.32362000  0.41130000  0.00106000  1.0 -0.0895136448
C  C146  1  0.25771000  0.48539000  0.94127000  1.0 -0.0717589533
C  C147  1  0.28403000  0.43435000  0.93927000  1.0 -0.0717589533
C  C148  1  0.09819000  0.98481000  0.65759000  1.0 0.575218167
C  C149  1  0.15495000  0.97935000  0.63185000  1.0 -0.0331464885
C  C150  1  0.18163000  0.97695000  0.58091000  1.0 -0.1441002599
C  C151  1  0.23728000  0.00306000  0.46236000  1.0 -0.0717589533
C  C152  1  0.26402000  0.00106000  0.41130000  1.0 -0.0895136448
C  C153  1  0.31563000  0.94127000  0.48539000  1.0 -0.0717589533
C  C154  1  0.34235000  0.93927000  0.43435000  1.0 -0.0717589533
C  C155  1  0.65759000  0.25941000  0.09819000  1.0 0.575218167
C  C156  1  0.63185000  0.23385000  0.15495000  1.0 -0.0331464885
C  C157  1  0.58091000  0.26051000  0.18163000  1.0 -0.1441002599
C  C158  1  0.46236000  0.29730000  0.23728000  1.0 -0.0717589533
C  C159  1  0.41130000  0.32362000  0.26402000  1.0 -0.0895136448
C  C160  1  0.48539000  0.25771000  0.31563000  1.0 -0.0717589533
C  C161  1  0.43435000  0.28403000  0.34235000  1.0 -0.0717589533
C  C162  1  0.98481000  0.09819000  0.25941000  1.0 0.575218167
C  C163  1  0.97935000  0.15495000  0.23385000  1.0 -0.0331464885
C  C164  1  0.97695000  0.18163000  0.26051000  1.0 -0.1441002599
C  C165  1  0.00306000  0.23728000  0.29730000  1.0 -0.0717589533
C  C166  1  0.00106000  0.26402000  0.32362000  1.0 -0.0895136448
C  C167  1  0.94127000  0.31563000  0.25771000  1.0 -0.0717589533
C  C168  1  0.93927000  0.34235000  0.28403000  1.0 -0.0717589533
C  C169  1  0.09819000  0.98481000  0.25941000  1.0 0.5749144217
C  C170  1  0.15495000  0.97935000  0.23385000  1.0 -0.0331464885
C  C171  1  0.18163000  0.97695000  0.26051000  1.0 -0.1441002599
C  C172  1  0.23728000  0.00306000  0.29730000  1.0 -0.0717589533
C  C173  1  0.26402000  0.00106000  0.32362000  1.0 -0.0895136448
C  C174  1  0.31563000  0.94127000  0.25771000  1.0 -0.0717589533
C  C175  1  0.34235000  0.93927000  0.28403000  1.0 -0.0717589533
C  C176  1  0.25941000  0.65759000  0.09819000  1.0 0.5749144217
C  C177  1  0.23385000  0.63185000  0.15495000  1.0 -0.0331464885
C  C178  1  0.26051000  0.58091000  0.18163000  1.0 -0.1441002599
C  C179  1  0.29730000  0.46236000  0.23728000  1.0 -0.0717589533
C  C180  1  0.32362000  0.41130000  0.26402000  1.0 -0.0895136448
C  C181  1  0.25771000  0.48539000  0.31563000  1.0 -0.0717589533
C  C182  1  0.28403000  0.43435000  0.34235000  1.0 -0.0717589533
C  C183  1  0.98481000  0.09819000  0.65759000  1.0 0.575218167
C  C184  1  0.97935000  0.15495000  0.63185000  1.0 -0.0331464885
C  C185  1  0.97695000  0.18163000  0.58091000  1.0 -0.1441002599
C  C186  1  0.00306000  0.23728000  0.46236000  1.0 -0.0717589533
C  C187  1  0.00106000  0.26402000  0.41130000  1.0 -0.0895136448
C  C188  1  0.94127000  0.31563000  0.48539000  1.0 -0.0717589533
C  C189  1  0.93927000  0.34235000  0.43435000  1.0 -0.0717589533
C  C190  1  0.65759000  0.25941000  0.98481000  1.0 0.575218167
C  C191  1  0.63185000  0.23385000  0.97935000  1.0 -0.0331464885
C  C192  1  0.58091000  0.26051000  0.97695000  1.0 -0.1441002599
C  C193  1  0.46236000  0.29730000  0.00306000  1.0 -0.0717589533
C  C194  1  0.41130000  0.32362000  0.00106000  1.0 -0.0895136448
C  C195  1  0.48539000  0.25771000  0.94127000  1.0 -0.0717589533
C  C196  1  0.43435000  0.28403000  0.93927000  1.0 -0.0717589533
C  C197  1  0.98481000  0.25941000  0.09819000  1.0 0.575218167
C  C198  1  0.97935000  0.23385000  0.15495000  1.0 -0.0331464885
C  C199  1  0.97695000  0.26051000  0.18163000  1.0 -0.1441002599
C  C200  1  0.00306000  0.29730000  0.23728000  1.0 -0.0717589533
C  C201  1  0.00106000  0.32362000  0.26402000  1.0 -0.0895136448
C  C202  1  0.94127000  0.25771000  0.31563000  1.0 -0.0717589533
C  C203  1  0.93927000  0.28403000  0.34235000  1.0 -0.0717589533
C  C204  1  0.65759000  0.09819000  0.25941000  1.0 0.575218167
C  C205  1  0.63185000  0.15495000  0.23385000  1.0 -0.0331464885
C  C206  1  0.58091000  0.18163000  0.26051000  1.0 -0.1441002599
C  C207  1  0.46236000  0.23728000  0.29730000  1.0 -0.0717589533
C  C208  1  0.41130000  0.26402000  0.32362000  1.0 -0.0895136448
C  C209  1  0.48539000  0.31563000  0.25771000  1.0 -0.0717589533
C  C210  1  0.43435000  0.34235000  0.28403000  1.0 -0.0717589533
C  C211  1  0.09819000  0.65759000  0.98481000  1.0 0.575218167
C  C212  1  0.15495000  0.63185000  0.97935000  1.0 -0.0331464885
C  C213  1  0.18163000  0.58091000  0.97695000  1.0 -0.1441002599
C  C214  1  0.23728000  0.46236000  0.00306000  1.0 -0.0717589533
C  C215  1  0.26402000  0.41130000  0.00106000  1.0 -0.0895136448
C  C216  1  0.31563000  0.48539000  0.94127000  1.0 -0.0717589533
C  C217  1  0.34235000  0.43435000  0.93927000  1.0 -0.0717589533
C  C218  1  0.25941000  0.98481000  0.65759000  1.0 0.575218167
C  C219  1  0.23385000  0.97935000  0.63185000  1.0 -0.0331464885
C  C220  1  0.26051000  0.97695000  0.58091000  1.0 -0.1441002599
C  C221  1  0.29730000  0.00306000  0.46236000  1.0 -0.0717589533
C  C222  1  0.32362000  0.00106000  0.41130000  1.0 -0.0895136448
C  C223  1  0.25771000  0.94127000  0.48539000  1.0 -0.0717589533
C  C224  1  0.28403000  0.93927000  0.43435000  1.0 -0.0717589533
C  C225  1  0.25941000  0.09819000  0.98481000  1.0 0.575218167
C  C226  1  0.23385000  0.15495000  0.97935000  1.0 -0.0331464885
C  C227  1  0.26051000  0.18163000  0.97695000  1.0 -0.1441002599
C  C228  1  0.29730000  0.23728000  0.00306000  1.0 -0.0717589533
C  C229  1  0.32362000  0.26402000  0.00106000  1.0 -0.0895136448
C  C230  1  0.25771000  0.31563000  0.94127000  1.0 -0.0717589533
C  C231  1  0.28403000  0.34235000  0.93927000  1.0 -0.0717589533
C  C232  1  0.09819000  0.25941000  0.65759000  1.0 0.575218167
C  C233  1  0.15495000  0.23385000  0.63185000  1.0 -0.0331464885
C  C234  1  0.18163000  0.26051000  0.58091000  1.0 -0.1441002599
C  C235  1  0.23728000  0.29730000  0.46236000  1.0 -0.0717589533
C  C236  1  0.26402000  0.32362000  0.41130000  1.0 -0.0895136448
C  C237  1  0.31563000  0.25771000  0.48539000  1.0 -0.0717589533
C  C238  1  0.34235000  0.28403000  0.43435000  1.0 -0.0717589533
C  C239  1  0.65759000  0.98481000  0.09819000  1.0 0.575218167
C  C240  1  0.63185000  0.97935000  0.15495000  1.0 -0.0331464885
C  C241  1  0.58091000  0.97695000  0.18163000  1.0 -0.1441002599
C  C242  1  0.46236000  0.00306000  0.23728000  1.0 -0.0717589533
C  C243  1  0.41130000  0.00106000  0.26402000  1.0 -0.0895136448
C  C244  1  0.48539000  0.94127000  0.31563000  1.0 -0.0717589533
C  C245  1  0.43435000  0.93927000  0.34235000  1.0 -0.0717589533
C  C246  1  0.98481000  0.65759000  0.25941000  1.0 0.575218167
C  C247  1  0.97935000  0.63185000  0.23385000  1.0 -0.0331464885
C  C248  1  0.97695000  0.58091000  0.26051000  1.0 -0.1441002599
C  C249  1  0.00306000  0.46236000  0.29730000  1.0 -0.0717589533
C  C250  1  0.00106000  0.41130000  0.32362000  1.0 -0.0895136448
C  C251  1  0.94127000  0.48539000  0.25771000  1.0 -0.0717589533
C  C252  1  0.93927000  0.43435000  0.28403000  1.0 -0.0717589533
C  C253  1  0.90181000  0.34241000  0.74059000  1.0 0.575218167
C  C254  1  0.84505000  0.36815000  0.76615000  1.0 -0.0331464885
C  C255  1  0.81837000  0.41909000  0.73949000  1.0 -0.1441002599
C  C256  1  0.76272000  0.53764000  0.70270000  1.0 -0.0717589533
C  C257  1  0.73598000  0.58870000  0.67638000  1.0 -0.0895136448
C  C258  1  0.68437000  0.51461000  0.74229000  1.0 -0.0717589533
C  C259  1  0.65765000  0.56565000  0.71597000  1.0 -0.0717589533
C  C260  1  0.74059000  0.01519000  0.90181000  1.0 0.575218167
C  C261  1  0.76615000  0.02065000  0.84505000  1.0 -0.0331464885
C  C262  1  0.73949000  0.02305000  0.81837000  1.0 -0.1441002599
C  C263  1  0.70270000  0.99694000  0.76272000  1.0 -0.0717589533
C  C264  1  0.67638000  0.99894000  0.73598000  1.0 -0.0895136448
C  C265  1  0.74229000  0.05873000  0.68437000  1.0 -0.0717589533
C  C266  1  0.71597000  0.06073000  0.65765000  1.0 -0.0717589533
C  C267  1  0.01519000  0.74059000  0.34241000  1.0 0.575218167
C  C268  1  0.02065000  0.76615000  0.36815000  1.0 -0.0331464885
C  C269  1  0.02305000  0.73949000  0.41909000  1.0 -0.1441002599
C  C270  1  0.99694000  0.70270000  0.53764000  1.0 -0.0717589533
C  C271  1  0.99894000  0.67638000  0.58870000  1.0 -0.0895136448
C  C272  1  0.05873000  0.74229000  0.51461000  1.0 -0.0717589533
C  C273  1  0.06073000  0.71597000  0.56565000  1.0 -0.0717589533
C  C274  1  0.34241000  0.90181000  0.01519000  1.0 0.5749144217
C  C275  1  0.36815000  0.84505000  0.02065000  1.0 -0.0331464885
C  C276  1  0.41909000  0.81837000  0.02305000  1.0 -0.1441002599
C  C277  1  0.53764000  0.76272000  0.99694000  1.0 -0.0717589533
C  C278  1  0.58870000  0.73598000  0.99894000  1.0 -0.0895136448
C  C279  1  0.51461000  0.68437000  0.05873000  1.0 -0.0717589533
C  C280  1  0.56565000  0.65765000  0.06073000  1.0 -0.0717589533
C  C281  1  0.01519000  0.34241000  0.90181000  1.0 0.575218167
C  C282  1  0.02065000  0.36815000  0.84505000  1.0 -0.0331464885
C  C283  1  0.02305000  0.41909000  0.81837000  1.0 -0.1441002599
C  C284  1  0.99694000  0.53764000  0.76272000  1.0 -0.0717589533
C  C285  1  0.99894000  0.58870000  0.73598000  1.0 -0.0895136448
C  C286  1  0.05873000  0.51461000  0.68437000  1.0 -0.0717589533
C  C287  1  0.06073000  0.56565000  0.65765000  1.0 -0.0717589533
C  C288  1  0.34241000  0.01519000  0.74059000  1.0 0.575218167
C  C289  1  0.36815000  0.02065000  0.76615000  1.0 -0.0331464885
C  C290  1  0.41909000  0.02305000  0.73949000  1.0 -0.1441002599
C  C291  1  0.53764000  0.99694000  0.70270000  1.0 -0.0717589533
C  C292  1  0.58870000  0.99894000  0.67638000  1.0 -0.0895136448
C  C293  1  0.51461000  0.05873000  0.74229000  1.0 -0.0717589533
C  C294  1  0.56565000  0.06073000  0.71597000  1.0 -0.0717589533
C  C295  1  0.90181000  0.74059000  0.01519000  1.0 0.575218167
C  C296  1  0.84505000  0.76615000  0.02065000  1.0 -0.0331464885
C  C297  1  0.81837000  0.73949000  0.02305000  1.0 -0.1441002599
C  C298  1  0.76272000  0.70270000  0.99694000  1.0 -0.0717589533
C  C299  1  0.73598000  0.67638000  0.99894000  1.0 -0.0895136448
C  C300  1  0.68437000  0.74229000  0.05873000  1.0 -0.0717589533
C  C301  1  0.65765000  0.71597000  0.06073000  1.0 -0.0717589533
C  C302  1  0.74059000  0.90181000  0.34241000  1.0 0.5749144217
C  C303  1  0.76615000  0.84505000  0.36815000  1.0 -0.0331464885
C  C304  1  0.73949000  0.81837000  0.41909000  1.0 -0.1441002599
C  C305  1  0.70270000  0.76272000  0.53764000  1.0 -0.0717589533
C  C306  1  0.67638000  0.73598000  0.58870000  1.0 -0.0895136448
C  C307  1  0.74229000  0.68437000  0.51461000  1.0 -0.0717589533
C  C308  1  0.71597000  0.65765000  0.56565000  1.0 -0.0717589533
C  C309  1  0.74059000  0.34241000  0.01519000  1.0 0.575218167
C  C310  1  0.76615000  0.36815000  0.02065000  1.0 -0.0331464885
C  C311  1  0.73949000  0.41909000  0.02305000  1.0 -0.1441002599
C  C312  1  0.70270000  0.53764000  0.99694000  1.0 -0.0717589533
C  C313  1  0.67638000  0.58870000  0.99894000  1.0 -0.0895136448
C  C314  1  0.74229000  0.51461000  0.05873000  1.0 -0.0717589533
C  C315  1  0.71597000  0.56565000  0.06073000  1.0 -0.0717589533
C  C316  1  0.90181000  0.01519000  0.34241000  1.0 0.575218167
C  C317  1  0.84505000  0.02065000  0.36815000  1.0 -0.0331464885
C  C318  1  0.81837000  0.02305000  0.41909000  1.0 -0.1441002599
C  C319  1  0.76272000  0.99694000  0.53764000  1.0 -0.0717589533
C  C320  1  0.73598000  0.99894000  0.58870000  1.0 -0.0895136448
C  C321  1  0.68437000  0.05873000  0.51461000  1.0 -0.0717589533
C  C322  1  0.65765000  0.06073000  0.56565000  1.0 -0.0717589533
C  C323  1  0.34241000  0.74059000  0.90181000  1.0 0.575218167
C  C324  1  0.36815000  0.76615000  0.84505000  1.0 -0.0331464885
C  C325  1  0.41909000  0.73949000  0.81837000  1.0 -0.1441002599
C  C326  1  0.53764000  0.70270000  0.76272000  1.0 -0.0717589533
C  C327  1  0.58870000  0.67638000  0.73598000  1.0 -0.0895136448
C  C328  1  0.51461000  0.74229000  0.68437000  1.0 -0.0717589533
C  C329  1  0.56565000  0.71597000  0.65765000  1.0 -0.0717589533
C  C330  1  0.01519000  0.90181000  0.74059000  1.0 0.575218167
C  C331  1  0.02065000  0.84505000  0.76615000  1.0 -0.0331464885
C  C332  1  0.02305000  0.81837000  0.73949000  1.0 -0.1441002599
C  C333  1  0.99694000  0.76272000  0.70270000  1.0 -0.0717589533
C  C334  1  0.99894000  0.73598000  0.67638000  1.0 -0.0895136448
C  C335  1  0.05873000  0.68437000  0.74229000  1.0 -0.0717589533
C  C336  1  0.06073000  0.65765000  0.71597000  1.0 -0.0717589533
C  C337  1  0.81890000  0.01886000  0.81890000  1.0 -0.0895136448
C  C338  1  0.76561000  0.02361000  0.76561000  1.0 0.0750710627
C  C339  1  0.73628000  0.02620000  0.73628000  1.0 0.0490972038
C  C340  1  0.68323000  0.03063000  0.68323000  1.0 0.0956215829
C  C341  1  0.81890000  0.34334000  0.81890000  1.0 -0.0895136448
C  C342  1  0.76561000  0.44517000  0.76561000  1.0 0.0750710627
C  C343  1  0.73628000  0.50124000  0.73628000  1.0 0.0490972038
C  C344  1  0.68323000  0.60291000  0.68323000  1.0 0.0956215829
C  C345  1  0.01886000  0.81890000  0.34334000  1.0 -0.0895136448
C  C346  1  0.02361000  0.76561000  0.44517000  1.0 0.0708650575
C  C347  1  0.02620000  0.73628000  0.50124000  1.0 0.0490972038
C  C348  1  0.03063000  0.68323000  0.60291000  1.0 0.0956215829
C  C349  1  0.34334000  0.81890000  0.01886000  1.0 -0.0895136448
C  C350  1  0.44517000  0.76561000  0.02361000  1.0 0.0708650575
C  C351  1  0.50124000  0.73628000  0.02620000  1.0 0.0490972038
C  C352  1  0.60291000  0.68323000  0.03063000  1.0 0.0956215829
C  C353  1  0.01886000  0.81890000  0.81890000  1.0 -0.0895136448
C  C354  1  0.02361000  0.76561000  0.76561000  1.0 0.0750710627
C  C355  1  0.02620000  0.73628000  0.73628000  1.0 0.0490972038
C  C356  1  0.03063000  0.68323000  0.68323000  1.0 0.0956215829
C  C357  1  0.34334000  0.81890000  0.81890000  1.0 -0.0895136448
C  C358  1  0.44517000  0.76561000  0.76561000  1.0 0.0750710627
C  C359  1  0.50124000  0.73628000  0.73628000  1.0 0.0490972038
C  C360  1  0.60291000  0.68323000  0.68323000  1.0 0.0956215829
C  C361  1  0.81890000  0.34334000  0.01886000  1.0 -0.0895136448
C  C362  1  0.76561000  0.44517000  0.02361000  1.0 0.0708650575
C  C363  1  0.73628000  0.50124000  0.02620000  1.0 0.0490972038
C  C364  1  0.68323000  0.60291000  0.03063000  1.0 0.0956215829
C  C365  1  0.81890000  0.01886000  0.34334000  1.0 -0.0895136448
C  C366  1  0.76561000  0.02361000  0.44517000  1.0 0.0750710627
C  C367  1  0.73628000  0.02620000  0.50124000  1.0 0.0490972038
C  C368  1  0.68323000  0.03063000  0.60291000  1.0 0.0956215829
C  C369  1  0.81890000  0.81890000  0.01886000  1.0 -0.0895136448
C  C370  1  0.76561000  0.76561000  0.02361000  1.0 0.0708650575
C  C371  1  0.73628000  0.73628000  0.02620000  1.0 0.0490972038
C  C372  1  0.68323000  0.68323000  0.03063000  1.0 0.0956215829
C  C373  1  0.81890000  0.81890000  0.34334000  1.0 -0.0895136448
C  C374  1  0.76561000  0.76561000  0.44517000  1.0 0.0708650575
C  C375  1  0.73628000  0.73628000  0.50124000  1.0 0.0490972038
C  C376  1  0.68323000  0.68323000  0.60291000  1.0 0.0956215829
C  C377  1  0.34334000  0.01886000  0.81890000  1.0 -0.0895136448
C  C378  1  0.44517000  0.02361000  0.76561000  1.0 0.0750710627
C  C379  1  0.50124000  0.02620000  0.73628000  1.0 0.0490972038
C  C380  1  0.60291000  0.03063000  0.68323000  1.0 0.0956215829
C  C381  1  0.01886000  0.34334000  0.81890000  1.0 -0.0895136448
C  C382  1  0.02361000  0.44517000  0.76561000  1.0 0.0750710627
C  C383  1  0.02620000  0.50124000  0.73628000  1.0 0.0490972038
C  C384  1  0.03063000  0.60291000  0.68323000  1.0 0.0956215829
C  C385  1  0.18110000  0.65666000  0.18110000  1.0 -0.0895136448
C  C386  1  0.23439000  0.55483000  0.23439000  1.0 0.0708650575
C  C387  1  0.26372000  0.49876000  0.26372000  1.0 0.0490972038
C  C388  1  0.31677000  0.39709000  0.31677000  1.0 0.0956215829
C  C389  1  0.18110000  0.98114000  0.18110000  1.0 -0.0895136448
C  C390  1  0.23439000  0.97639000  0.23439000  1.0 0.0708650575
C  C391  1  0.26372000  0.97380000  0.26372000  1.0 0.0490972038
C  C392  1  0.31677000  0.96937000  0.31677000  1.0 0.0956215829
C  C393  1  0.98114000  0.18110000  0.65666000  1.0 -0.0895136448
C  C394  1  0.97639000  0.23439000  0.55483000  1.0 0.0750710627
C  C395  1  0.97380000  0.26372000  0.49876000  1.0 0.0490972038
C  C396  1  0.96937000  0.31677000  0.39709000  1.0 0.0956215829
C  C397  1  0.65666000  0.18110000  0.98114000  1.0 -0.0895136448
C  C398  1  0.55483000  0.23439000  0.97639000  1.0 0.0750710627
C  C399  1  0.49876000  0.26372000  0.97380000  1.0 0.0490972038
C  C400  1  0.39709000  0.31677000  0.96937000  1.0 0.0956215829
C  C401  1  0.98114000  0.65666000  0.18110000  1.0 -0.0895136448
C  C402  1  0.97639000  0.55483000  0.23439000  1.0 0.0708650575
C  C403  1  0.97380000  0.49876000  0.26372000  1.0 0.0490972038
C  C404  1  0.96937000  0.39709000  0.31677000  1.0 0.0956215829
C  C405  1  0.65666000  0.98114000  0.18110000  1.0 -0.0895136448
C  C406  1  0.55483000  0.97639000  0.23439000  1.0 0.0708650575
C  C407  1  0.49876000  0.97380000  0.26372000  1.0 0.0490972038
C  C408  1  0.39709000  0.96937000  0.31677000  1.0 0.0956215829
C  C409  1  0.18110000  0.18110000  0.98114000  1.0 -0.0895136448
C  C410  1  0.23439000  0.23439000  0.97639000  1.0 0.0750710627
C  C411  1  0.26372000  0.26372000  0.97380000  1.0 0.0490972038
C  C412  1  0.31677000  0.31677000  0.96937000  1.0 0.0956215829
C  C413  1  0.18110000  0.18110000  0.65666000  1.0 -0.0895136448
C  C414  1  0.23439000  0.23439000  0.55483000  1.0 0.0750710627
C  C415  1  0.26372000  0.26372000  0.49876000  1.0 0.0490972038
C  C416  1  0.31677000  0.31677000  0.39709000  1.0 0.0956215829
C  C417  1  0.18110000  0.65666000  0.98114000  1.0 -0.0895136448
C  C418  1  0.23439000  0.55483000  0.97639000  1.0 0.0750710627
C  C419  1  0.26372000  0.49876000  0.97380000  1.0 0.0490972038
C  C420  1  0.31677000  0.39709000  0.96937000  1.0 0.0956215829
C  C421  1  0.18110000  0.98114000  0.65666000  1.0 -0.0895136448
C  C422  1  0.23439000  0.97639000  0.55483000  1.0 0.0750710627
C  C423  1  0.26372000  0.97380000  0.49876000  1.0 0.0490972038
C  C424  1  0.31677000  0.96937000  0.39709000  1.0 0.0956215829
C  C425  1  0.65666000  0.18110000  0.18110000  1.0 -0.0895136448
C  C426  1  0.55483000  0.23439000  0.23439000  1.0 0.0708650575
C  C427  1  0.49876000  0.26372000  0.26372000  1.0 0.0490972038
C  C428  1  0.39709000  0.31677000  0.31677000  1.0 0.0956215829
C  C429  1  0.98114000  0.18110000  0.18110000  1.0 -0.0895136448
C  C430  1  0.97639000  0.23439000  0.23439000  1.0 0.0708650575
C  C431  1  0.97380000  0.26372000  0.26372000  1.0 0.0490972038
C  C432  1  0.96937000  0.31677000  0.31677000  1.0 0.0956215829
N  N1  1  0.65570000  0.03290000  0.65570000  1.0 -0.2564902345
N  N2  1  0.65570000  0.65570000  0.65570000  1.0 -0.2564902345
N  N3  1  0.03290000  0.65570000  0.65570000  1.0 -0.2564902345
N  N4  1  0.65570000  0.65570000  0.03290000  1.0 -0.2564902345
N  N5  1  0.34430000  0.34430000  0.34430000  1.0 -0.2564902345
N  N6  1  0.34430000  0.96710000  0.34430000  1.0 -0.2564902345
N  N7  1  0.96710000  0.34430000  0.34430000  1.0 -0.2564902345
N  N8  1  0.34430000  0.34430000  0.96710000  1.0 -0.2564902345
O  O1  1  0.92398000  0.01482000  0.69422000  1.0 -0.508890583
O  O2  1  0.92470000  0.01130000  0.76650000  1.0 -0.4939041288
O  O3  1  0.69422000  0.36698000  0.92398000  1.0 -0.508890583
O  O4  1  0.76650000  0.29750000  0.92470000  1.0 -0.4939041288
O  O5  1  0.01482000  0.92398000  0.36698000  1.0 -0.508890583
O  O6  1  0.01130000  0.92470000  0.29750000  1.0 -0.4939041288
O  O7  1  0.36698000  0.69422000  0.01482000  1.0 -0.508890583
O  O8  1  0.29750000  0.76650000  0.01130000  1.0 -0.4939041288
O  O9  1  0.01482000  0.69422000  0.92398000  1.0 -0.508890583
O  O10  1  0.01130000  0.76650000  0.92470000  1.0 -0.4939041288
O  O11  1  0.36698000  0.92398000  0.69422000  1.0 -0.508890583
O  O12  1  0.29750000  0.92470000  0.76650000  1.0 -0.4939041288
O  O13  1  0.92398000  0.36698000  0.01482000  1.0 -0.508890583
O  O14  1  0.92470000  0.29750000  0.01130000  1.0 -0.4939041288
O  O15  1  0.69422000  0.01482000  0.36698000  1.0 -0.508890583
O  O16  1  0.76650000  0.01130000  0.29750000  1.0 -0.4939041288
O  O17  1  0.69422000  0.92398000  0.01482000  1.0 -0.508890583
O  O18  1  0.76650000  0.92470000  0.01130000  1.0 -0.4939041288
O  O19  1  0.92398000  0.69422000  0.36698000  1.0 -0.508890583
O  O20  1  0.92470000  0.76650000  0.29750000  1.0 -0.4939041288
O  O21  1  0.36698000  0.01482000  0.92398000  1.0 -0.508890583
O  O22  1  0.29750000  0.01130000  0.92470000  1.0 -0.4939041288
O  O23  1  0.01482000  0.36698000  0.69422000  1.0 -0.508890583
O  O24  1  0.01130000  0.29750000  0.76650000  1.0 -0.4939041288
O  O25  1  0.07602000  0.63302000  0.30578000  1.0 -0.508890583
O  O26  1  0.07530000  0.70250000  0.23350000  1.0 -0.4939041288
O  O27  1  0.30578000  0.98518000  0.07602000  1.0 -0.508890583
O  O28  1  0.23350000  0.98870000  0.07530000  1.0 -0.4939041288
O  O29  1  0.98518000  0.30578000  0.63302000  1.0 -0.508890583
O  O30  1  0.98870000  0.23350000  0.70250000  1.0 -0.4939041288
O  O31  1  0.63302000  0.07602000  0.98518000  1.0 -0.508890583
O  O32  1  0.70250000  0.07530000  0.98870000  1.0 -0.4939041288
O  O33  1  0.98518000  0.63302000  0.07602000  1.0 -0.508890583
O  O34  1  0.98870000  0.70250000  0.07530000  1.0 -0.4939041288
O  O35  1  0.63302000  0.98518000  0.30578000  1.0 -0.508890583
O  O36  1  0.70250000  0.98870000  0.23350000  1.0 -0.4939041288
O  O37  1  0.07602000  0.30578000  0.98518000  1.0 -0.508890583
O  O38  1  0.07530000  0.23350000  0.98870000  1.0 -0.4939041288
O  O39  1  0.30578000  0.07602000  0.63302000  1.0 -0.508890583
O  O40  1  0.23350000  0.07530000  0.70250000  1.0 -0.4939041288
O  O41  1  0.30578000  0.63302000  0.98518000  1.0 -0.508890583
O  O42  1  0.23350000  0.70250000  0.98870000  1.0 -0.4939041288
O  O43  1  0.07602000  0.98518000  0.63302000  1.0 -0.508890583
O  O44  1  0.07530000  0.98870000  0.70250000  1.0 -0.4939041288
O  O45  1  0.63302000  0.30578000  0.07602000  1.0 -0.508890583
O  O46  1  0.70250000  0.23350000  0.07530000  1.0 -0.4939041288
O  O47  1  0.98518000  0.07602000  0.30578000  1.0 -0.508890583
O  O48  1  0.98870000  0.07530000  0.23350000  1.0 -0.4939041288
O  O49  1  0.07602000  0.98518000  0.30578000  1.0 -0.508890583
O  O50  1  0.07530000  0.98870000  0.23350000  1.0 -0.4939041288
O  O51  1  0.30578000  0.63302000  0.07602000  1.0 -0.508890583
O  O52  1  0.23350000  0.70250000  0.07530000  1.0 -0.4939041288
O  O53  1  0.98518000  0.07602000  0.63302000  1.0 -0.508890583
O  O54  1  0.98870000  0.07530000  0.70250000  1.0 -0.4939041288
O  O55  1  0.63302000  0.30578000  0.98518000  1.0 -0.508890583
O  O56  1  0.70250000  0.23350000  0.98870000  1.0 -0.4939041288
O  O57  1  0.98518000  0.30578000  0.07602000  1.0 -0.508890583
O  O58  1  0.98870000  0.23350000  0.07530000  1.0 -0.4939041288
O  O59  1  0.63302000  0.07602000  0.30578000  1.0 -0.508890583
O  O60  1  0.70250000  0.07530000  0.23350000  1.0 -0.4939041288
O  O61  1  0.07602000  0.63302000  0.98518000  1.0 -0.508890583
O  O62  1  0.07530000  0.70250000  0.98870000  1.0 -0.4939041288
O  O63  1  0.30578000  0.98518000  0.63302000  1.0 -0.508890583
O  O64  1  0.23350000  0.98870000  0.70250000  1.0 -0.4939041288
O  O65  1  0.30578000  0.07602000  0.98518000  1.0 -0.508890583
O  O66  1  0.23350000  0.07530000  0.98870000  1.0 -0.4939041288
O  O67  1  0.07602000  0.30578000  0.63302000  1.0 -0.508890583
O  O68  1  0.07530000  0.23350000  0.70250000  1.0 -0.4939041288
O  O69  1  0.63302000  0.98518000  0.07602000  1.0 -0.508890583
O  O70  1  0.70250000  0.98870000  0.07530000  1.0 -0.4939041288
O  O71  1  0.98518000  0.63302000  0.30578000  1.0 -0.508890583
O  O72  1  0.98870000  0.70250000  0.23350000  1.0 -0.4939041288
O  O73  1  0.92398000  0.36698000  0.69422000  1.0 -0.508890583
O  O74  1  0.92470000  0.29750000  0.76650000  1.0 -0.4939041288
O  O75  1  0.69422000  0.01482000  0.92398000  1.0 -0.508890583
O  O76  1  0.76650000  0.01130000  0.92470000  1.0 -0.4939041288
O  O77  1  0.01482000  0.69422000  0.36698000  1.0 -0.508890583
O  O78  1  0.01130000  0.76650000  0.29750000  1.0 -0.4939041288
O  O79  1  0.36698000  0.92398000  0.01482000  1.0 -0.508890583
O  O80  1  0.29750000  0.92470000  0.01130000  1.0 -0.4939041288
O  O81  1  0.01482000  0.36698000  0.92398000  1.0 -0.508890583
O  O82  1  0.01130000  0.29750000  0.92470000  1.0 -0.4939041288
O  O83  1  0.36698000  0.01482000  0.69422000  1.0 -0.508890583
O  O84  1  0.29750000  0.01130000  0.76650000  1.0 -0.4939041288
O  O85  1  0.92398000  0.69422000  0.01482000  1.0 -0.508890583
O  O86  1  0.92470000  0.76650000  0.01130000  1.0 -0.4939041288
O  O87  1  0.69422000  0.92398000  0.36698000  1.0 -0.508890583
O  O88  1  0.76650000  0.92470000  0.29750000  1.0 -0.4939041288
O  O89  1  0.69422000  0.36698000  0.01482000  1.0 -0.508890583
O  O90  1  0.76650000  0.29750000  0.01130000  1.0 -0.4939041288
O  O91  1  0.92398000  0.01482000  0.36698000  1.0 -0.508890583
O  O92  1  0.92470000  0.01130000  0.29750000  1.0 -0.4939041288
O  O93  1  0.36698000  0.69422000  0.92398000  1.0 -0.508890583
O  O94  1  0.29750000  0.76650000  0.92470000  1.0 -0.4939041288
O  O95  1  0.01482000  0.92398000  0.69422000  1.0 -0.508890583
O  O96  1  0.01130000  0.92470000  0.76650000  1.0 -0.4939041288
