# DDEC6 charges by PACMAN v1.1 (https://github.com/mtap-research/PACMAN-charge/)
data_DEMFEK_ASR_pacman
_symmetry_space_group_name_H-M   'P 1'
_cell_length_a   21.23050000
_cell_length_b   21.23050000
_cell_length_c   33.79100000
_cell_angle_alpha   90.00000000
_cell_angle_beta   90.00000000
_cell_angle_gamma   90.10880000
_symmetry_Int_Tables_number   1
_chemical_formula_structural   Cu7H18C30SN6O13
_chemical_formula_sum   'Cu56 H144 C240 S8 N48 O104'
_cell_volume   15230.72953507
_cell_formula_units_Z   8
loop_
 _symmetry_equiv_pos_site_id
 _symmetry_equiv_pos_as_xyz
  1  'x, y, z'
loop_
 _atom_site_type_symbol
 _atom_site_label
 _atom_site_symmetry_multiplicity
 _atom_site_fract_x
 _atom_site_fract_y
 _atom_site_fract_z
 _atom_site_occupancy
 _atom_site_charge
Cu  Cu1  1  0.54107000  0.45893000  0.63399000  1.0 0.839836017
Cu  Cu2  1  0.95893000  0.04107000  0.13399000  1.0 0.839836017
Cu  Cu3  1  0.04107000  0.95893000  0.86601000  1.0 0.839836017
Cu  Cu4  1  0.45893000  0.54107000  0.36601000  1.0 0.839836017
Cu  Cu5  1  0.47106000  0.52894000  0.68095000  1.0 0.8666247583
Cu  Cu6  1  0.02894000  0.97106000  0.18095000  1.0 0.8666247583
Cu  Cu7  1  0.97106000  0.02894000  0.81905000  1.0 0.8666247583
Cu  Cu8  1  0.52894000  0.47106000  0.31905000  1.0 0.8666247583
Cu  Cu9  1  0.48360000  0.96760000  0.45850000  1.0 0.5533116318
Cu  Cu10  1  0.01640000  0.53240000  0.95850000  1.0 0.5617081917
Cu  Cu11  1  0.53240000  0.01640000  0.04150000  1.0 0.5533116318
Cu  Cu12  1  0.96760000  0.48360000  0.54150000  1.0 0.5533116318
Cu  Cu13  1  0.51640000  0.03240000  0.54150000  1.0 0.5533116318
Cu  Cu14  1  0.98360000  0.46760000  0.04150000  1.0 0.5533116318
Cu  Cu15  1  0.46760000  0.98360000  0.95850000  1.0 0.5617081917
Cu  Cu16  1  0.03240000  0.51640000  0.45850000  1.0 0.5533116318
Cu  Cu17  1  0.61704000  0.91296000  0.42150000  1.0 0.4659531769
Cu  Cu18  1  0.88296000  0.58704000  0.92150000  1.0 0.4642430849
Cu  Cu19  1  0.58704000  0.88296000  0.07850000  1.0 0.4659531769
Cu  Cu20  1  0.91296000  0.61704000  0.57850000  1.0 0.4659531769
Cu  Cu21  1  0.38296000  0.08704000  0.57850000  1.0 0.4659531769
Cu  Cu22  1  0.11704000  0.41296000  0.07850000  1.0 0.4659531769
Cu  Cu23  1  0.41296000  0.11704000  0.92150000  1.0 0.4642430849
Cu  Cu24  1  0.08704000  0.38296000  0.42150000  1.0 0.4659531769
Cu  Cu25  1  0.56240000  0.05300000  0.39100000  1.0 0.3376876093
Cu  Cu26  1  0.93760000  0.44700000  0.89100000  1.0 0.3376876093
Cu  Cu27  1  0.44700000  0.93760000  0.10900000  1.0 0.3286348936
Cu  Cu28  1  0.05300000  0.56240000  0.60900000  1.0 0.3376876093
Cu  Cu29  1  0.43760000  0.94700000  0.60900000  1.0 0.3466524339
Cu  Cu30  1  0.06240000  0.55300000  0.10900000  1.0 0.3286348936
Cu  Cu31  1  0.55300000  0.06240000  0.89100000  1.0 0.3376876093
Cu  Cu32  1  0.94700000  0.43760000  0.39100000  1.0 0.3376876093
Cu  Cu33  1  0.46730000  0.95470000  0.44840000  1.0 0.5102972008
Cu  Cu34  1  0.03270000  0.54530000  0.94840000  1.0 0.516817178
Cu  Cu35  1  0.54530000  0.03270000  0.05160000  1.0 0.5102972008
Cu  Cu36  1  0.95470000  0.46730000  0.55160000  1.0 0.516817178
Cu  Cu37  1  0.53270000  0.04530000  0.55160000  1.0 0.5102972008
Cu  Cu38  1  0.96730000  0.45470000  0.05160000  1.0 0.5102972008
Cu  Cu39  1  0.45470000  0.96730000  0.94840000  1.0 0.516817178
Cu  Cu40  1  0.04530000  0.53270000  0.44840000  1.0 0.5102972008
Cu  Cu41  1  0.60330000  0.90090000  0.40730000  1.0 0.4362354136
Cu  Cu42  1  0.89670000  0.59910000  0.90730000  1.0 0.434430074
Cu  Cu43  1  0.59910000  0.89670000  0.09270000  1.0 0.434430074
Cu  Cu44  1  0.90090000  0.60330000  0.59270000  1.0 0.434430074
Cu  Cu45  1  0.39670000  0.09910000  0.59270000  1.0 0.434430074
Cu  Cu46  1  0.10330000  0.40090000  0.09270000  1.0 0.434430074
Cu  Cu47  1  0.40090000  0.10330000  0.90730000  1.0 0.434430074
Cu  Cu48  1  0.09910000  0.39670000  0.40730000  1.0 0.434430074
Cu  Cu49  1  0.53870000  0.03210000  0.37570000  1.0 0.3018101349
Cu  Cu50  1  0.96130000  0.46790000  0.87570000  1.0 0.3018101349
Cu  Cu51  1  0.46790000  0.96130000  0.12430000  1.0 0.3018101349
Cu  Cu52  1  0.03210000  0.53870000  0.62430000  1.0 0.3018101349
Cu  Cu53  1  0.46130000  0.96790000  0.62430000  1.0 0.3018101349
Cu  Cu54  1  0.03870000  0.53210000  0.12430000  1.0 0.3018101349
Cu  Cu55  1  0.53210000  0.03870000  0.87570000  1.0 0.3018101349
Cu  Cu56  1  0.96790000  0.46130000  0.37570000  1.0 0.3018101349
H  H1  1  0.68923000  0.58361000  0.81494000  1.0 0.1119762584
H  H2  1  0.81077000  0.91639000  0.31494000  1.0 0.1119762584
H  H3  1  0.91639000  0.81077000  0.68506000  1.0 0.1119762584
H  H4  1  0.58361000  0.68923000  0.18506000  1.0 0.1119762584
H  H5  1  0.31077000  0.41639000  0.18506000  1.0 0.1119762584
H  H6  1  0.18923000  0.08361000  0.68506000  1.0 0.1119762584
H  H7  1  0.08361000  0.18923000  0.31494000  1.0 0.1119762584
H  H8  1  0.41639000  0.31077000  0.81494000  1.0 0.1119762584
H  H9  1  0.60879000  0.57923000  0.76796000  1.0 0.1119762584
H  H10  1  0.89121000  0.92077000  0.26796000  1.0 0.1119762584
H  H11  1  0.92077000  0.89121000  0.73204000  1.0 0.1119762584
H  H12  1  0.57923000  0.60879000  0.23204000  1.0 0.1119762584
H  H13  1  0.39121000  0.42077000  0.23204000  1.0 0.1119762584
H  H14  1  0.10879000  0.07923000  0.73204000  1.0 0.1119762584
H  H15  1  0.07923000  0.10879000  0.26796000  1.0 0.1119762584
H  H16  1  0.42077000  0.39121000  0.76796000  1.0 0.1119762584
H  H17  1  0.71299000  0.45855000  0.70152000  1.0 0.119544293
H  H18  1  0.78701000  0.04145000  0.20152000  1.0 0.119544293
H  H19  1  0.04145000  0.78701000  0.79848000  1.0 0.119544293
H  H20  1  0.45855000  0.71299000  0.29848000  1.0 0.119544293
H  H21  1  0.28701000  0.54145000  0.29848000  1.0 0.119544293
H  H22  1  0.21299000  0.95855000  0.79848000  1.0 0.119544293
H  H23  1  0.95855000  0.21299000  0.20152000  1.0 0.119544293
H  H24  1  0.54145000  0.28701000  0.70152000  1.0 0.119544293
H  H25  1  0.79268000  0.46142000  0.75016000  1.0 0.1001564979
H  H26  1  0.70732000  0.03858000  0.25016000  1.0 0.1001564979
H  H27  1  0.03858000  0.70732000  0.74984000  1.0 0.1001564979
H  H28  1  0.46142000  0.79268000  0.24984000  1.0 0.1001564979
H  H29  1  0.20732000  0.53858000  0.24984000  1.0 0.1001564979
H  H30  1  0.29268000  0.96142000  0.74984000  1.0 0.1001564979
H  H31  1  0.96142000  0.29268000  0.25016000  1.0 0.1001564979
H  H32  1  0.53858000  0.20732000  0.75016000  1.0 0.1001564979
H  H33  1  0.60672000  0.68996000  0.50750000  1.0 0.1001564979
H  H34  1  0.89328000  0.81004000  0.00750000  1.0 0.1001564979
H  H35  1  0.81004000  0.89328000  0.99250000  1.0 0.1001564979
H  H36  1  0.68996000  0.60672000  0.49250000  1.0 0.1001564979
H  H37  1  0.39328000  0.31004000  0.49250000  1.0 0.1001564979
H  H38  1  0.10672000  0.18996000  0.99250000  1.0 0.1001564979
H  H39  1  0.18996000  0.10672000  0.00750000  1.0 0.1001564979
H  H40  1  0.31004000  0.39328000  0.50750000  1.0 0.1001564979
H  H41  1  0.60282000  0.60666000  0.55231000  1.0 0.119544293
H  H42  1  0.89718000  0.89334000  0.05231000  1.0 0.1119762584
H  H43  1  0.89334000  0.89718000  0.94769000  1.0 0.1119762584
H  H44  1  0.60666000  0.60282000  0.44769000  1.0 0.1119762584
H  H45  1  0.39718000  0.39334000  0.44769000  1.0 0.1119762584
H  H46  1  0.10282000  0.10666000  0.94769000  1.0 0.1119762584
H  H47  1  0.10666000  0.10282000  0.05231000  1.0 0.1119762584
H  H48  1  0.39334000  0.39718000  0.55231000  1.0 0.1119762584
H  H49  1  0.46836000  0.69660000  0.61528000  1.0 0.119544293
H  H50  1  0.03164000  0.80340000  0.11528000  1.0 0.1119762584
H  H51  1  0.80340000  0.03164000  0.88472000  1.0 0.1119762584
H  H52  1  0.69660000  0.46836000  0.38472000  1.0 0.1119762584
H  H53  1  0.53164000  0.30340000  0.38472000  1.0 0.119544293
H  H54  1  0.96836000  0.19660000  0.88472000  1.0 0.119544293
H  H55  1  0.19660000  0.96836000  0.11528000  1.0 0.119544293
H  H56  1  0.30340000  0.53164000  0.61528000  1.0 0.119544293
H  H57  1  0.46894000  0.78024000  0.56842000  1.0 0.1119762584
H  H58  1  0.03106000  0.71976000  0.06842000  1.0 0.1119762584
H  H59  1  0.71976000  0.03106000  0.93158000  1.0 0.1119762584
H  H60  1  0.78024000  0.46894000  0.43158000  1.0 0.1119762584
H  H61  1  0.53106000  0.21976000  0.43158000  1.0 0.1119762584
H  H62  1  0.96894000  0.28024000  0.93158000  1.0 0.1119762584
H  H63  1  0.28024000  0.96894000  0.06842000  1.0 0.1119762584
H  H64  1  0.21976000  0.53106000  0.56842000  1.0 0.1119762584
H  H65  1  0.86436000  0.71876000  0.46183000  1.0 0.119544293
H  H66  1  0.63564000  0.78124000  0.96183000  1.0 0.119544293
H  H67  1  0.78124000  0.63564000  0.03817000  1.0 0.119544293
H  H68  1  0.71876000  0.86436000  0.53817000  1.0 0.119544293
H  H69  1  0.13564000  0.28124000  0.53817000  1.0 0.119544293
H  H70  1  0.36436000  0.21876000  0.03817000  1.0 0.119544293
H  H71  1  0.21876000  0.36436000  0.96183000  1.0 0.119544293
H  H72  1  0.28124000  0.13564000  0.46183000  1.0 0.119544293
H  H73  1  0.78341000  0.79385000  0.46397000  1.0 0.1119762584
H  H74  1  0.71659000  0.70615000  0.96397000  1.0 0.1119762584
H  H75  1  0.70615000  0.71659000  0.03603000  1.0 0.1119762584
H  H76  1  0.79385000  0.78341000  0.53603000  1.0 0.1119762584
H  H77  1  0.21659000  0.20615000  0.53603000  1.0 0.1119762584
H  H78  1  0.28341000  0.29385000  0.03603000  1.0 0.1119762584
H  H79  1  0.29385000  0.28341000  0.96397000  1.0 0.1119762584
H  H80  1  0.20615000  0.21659000  0.46397000  1.0 0.1119762584
H  H81  1  0.70315000  0.71049000  0.37004000  1.0 0.119544293
H  H82  1  0.79685000  0.78951000  0.87004000  1.0 0.119544293
H  H83  1  0.78951000  0.79685000  0.12996000  1.0 0.119544293
H  H84  1  0.71049000  0.70315000  0.62996000  1.0 0.119544293
H  H85  1  0.29685000  0.28951000  0.62996000  1.0 0.119544293
H  H86  1  0.20315000  0.21049000  0.12996000  1.0 0.119544293
H  H87  1  0.21049000  0.20315000  0.87004000  1.0 0.119544293
H  H88  1  0.28951000  0.29685000  0.37004000  1.0 0.119544293
H  H89  1  0.78018000  0.63294000  0.37183000  1.0 0.1119762584
H  H90  1  0.71982000  0.86706000  0.87183000  1.0 0.1119762584
H  H91  1  0.86706000  0.71982000  0.12817000  1.0 0.1119762584
H  H92  1  0.63294000  0.78018000  0.62817000  1.0 0.1119762584
H  H93  1  0.21982000  0.36706000  0.62817000  1.0 0.1119762584
H  H94  1  0.28018000  0.13294000  0.12817000  1.0 0.1119762584
H  H95  1  0.13294000  0.28018000  0.87183000  1.0 0.1119762584
H  H96  1  0.36706000  0.21982000  0.37183000  1.0 0.1119762584
H  H97  1  0.45782000  0.84832000  0.51742000  1.0 0.1119762584
H  H98  1  0.04218000  0.65168000  0.01742000  1.0 0.1119762584
H  H99  1  0.65168000  0.04218000  0.98258000  1.0 0.1119762584
H  H100  1  0.84832000  0.45782000  0.48258000  1.0 0.1119762584
H  H101  1  0.54218000  0.15168000  0.48258000  1.0 0.1119762584
H  H102  1  0.95782000  0.34832000  0.98258000  1.0 0.1119762584
H  H103  1  0.34832000  0.95782000  0.01742000  1.0 0.1119762584
H  H104  1  0.15168000  0.54218000  0.51742000  1.0 0.1119762584
H  H105  1  0.62278000  0.78660000  0.47383000  1.0 0.0808745738
H  H106  1  0.87722000  0.71340000  0.97383000  1.0 0.0808745738
H  H107  1  0.71340000  0.87722000  0.02617000  1.0 0.0808745738
H  H108  1  0.78660000  0.62278000  0.52617000  1.0 0.0808745738
H  H109  1  0.37722000  0.21340000  0.52617000  1.0 0.0808745738
H  H110  1  0.12278000  0.28660000  0.02617000  1.0 0.0808745738
H  H111  1  0.28660000  0.12278000  0.97383000  1.0 0.0808745738
H  H112  1  0.21340000  0.37722000  0.47383000  1.0 0.0808745738
H  H113  1  0.94033000  0.63717000  0.46533000  1.0 0.119544293
H  H114  1  0.55967000  0.86283000  0.96533000  1.0 0.119544293
H  H115  1  0.86283000  0.55967000  0.03467000  1.0 0.119544293
H  H116  1  0.63717000  0.94033000  0.53467000  1.0 0.119544293
H  H117  1  0.05967000  0.36283000  0.53467000  1.0 0.119544293
H  H118  1  0.44033000  0.13717000  0.03467000  1.0 0.119544293
H  H119  1  0.13717000  0.44033000  0.96533000  1.0 0.119544293
H  H120  1  0.36283000  0.05967000  0.46533000  1.0 0.119544293
H  H121  1  0.85620000  0.55854000  0.37148000  1.0 0.1001564979
H  H122  1  0.64380000  0.94146000  0.87148000  1.0 0.1001564979
H  H123  1  0.94146000  0.64380000  0.12852000  1.0 0.1001564979
H  H124  1  0.55854000  0.85620000  0.62852000  1.0 0.1001564979
H  H125  1  0.14380000  0.44146000  0.62852000  1.0 0.1001564979
H  H126  1  0.35620000  0.05854000  0.12852000  1.0 0.1001564979
H  H127  1  0.05854000  0.35620000  0.87148000  1.0 0.1001564979
H  H128  1  0.44146000  0.14380000  0.37148000  1.0 0.1001564979
H  H129  1  0.85588000  0.44304000  0.80580000  1.0 0.1001564979
H  H130  1  0.64412000  0.05696000  0.30580000  1.0 0.1001564979
H  H131  1  0.05696000  0.64412000  0.69420000  1.0 0.1001564979
H  H132  1  0.44304000  0.85588000  0.19420000  1.0 0.1001564979
H  H133  1  0.14412000  0.55696000  0.19420000  1.0 0.1001564979
H  H134  1  0.35588000  0.94304000  0.69420000  1.0 0.1001564979
H  H135  1  0.94304000  0.35588000  0.30580000  1.0 0.1001564979
H  H136  1  0.55696000  0.14412000  0.80580000  1.0 0.1001564979
H  H137  1  0.77574000  0.59990000  0.85376000  1.0 0.0808745738
H  H138  1  0.72426000  0.90010000  0.35376000  1.0 0.0808745738
H  H139  1  0.90010000  0.72426000  0.64624000  1.0 0.0808745738
H  H140  1  0.59990000  0.77574000  0.14624000  1.0 0.0808745738
H  H141  1  0.22426000  0.40010000  0.14624000  1.0 0.0808745738
H  H142  1  0.27574000  0.09990000  0.64624000  1.0 0.0808745738
H  H143  1  0.09990000  0.27574000  0.35376000  1.0 0.0808745738
H  H144  1  0.40010000  0.22426000  0.85376000  1.0 0.0808745738
C  C1  1  0.74860000  0.51960000  0.78730000  1.0 0.0808745738
C  C2  1  0.75140000  0.98040000  0.28730000  1.0 0.0808745738
C  C3  1  0.98040000  0.75140000  0.71270000  1.0 0.0808745738
C  C4  1  0.51960000  0.74860000  0.21270000  1.0 0.0808745738
C  C5  1  0.25140000  0.48040000  0.21270000  1.0 0.0808745738
C  C6  1  0.24860000  0.01960000  0.71270000  1.0 0.0808745738
C  C7  1  0.01960000  0.24860000  0.28730000  1.0 0.0808745738
C  C8  1  0.48040000  0.25140000  0.78730000  1.0 0.0808745738
C  C9  1  0.69340000  0.55720000  0.79240000  1.0 -0.1606167616
C  C10  1  0.80660000  0.94280000  0.29240000  1.0 -0.1606167616
C  C11  1  0.94280000  0.80660000  0.70760000  1.0 -0.1606167616
C  C12  1  0.55720000  0.69340000  0.20760000  1.0 -0.1606167616
C  C13  1  0.30660000  0.44280000  0.20760000  1.0 -0.1606167616
C  C14  1  0.19340000  0.05720000  0.70760000  1.0 -0.1606167616
C  C15  1  0.05720000  0.19340000  0.29240000  1.0 -0.1606167616
C  C16  1  0.44280000  0.30660000  0.79240000  1.0 -0.1606167616
C  C17  1  0.64600000  0.55520000  0.76420000  1.0 -0.089585057
C  C18  1  0.85400000  0.94480000  0.26420000  1.0 -0.089585057
C  C19  1  0.94480000  0.85400000  0.73580000  1.0 -0.089585057
C  C20  1  0.55520000  0.64600000  0.23580000  1.0 -0.089585057
C  C21  1  0.35400000  0.44480000  0.23580000  1.0 -0.089585057
C  C22  1  0.14600000  0.05520000  0.73580000  1.0 -0.089585057
C  C23  1  0.05520000  0.14600000  0.26420000  1.0 -0.089585057
C  C24  1  0.44480000  0.35400000  0.76420000  1.0 -0.089585057
C  C25  1  0.65270000  0.51730000  0.72990000  1.0 -0.0627353667
C  C26  1  0.84730000  0.98270000  0.22990000  1.0 -0.0627353667
C  C27  1  0.98270000  0.84730000  0.77010000  1.0 -0.0627353667
C  C28  1  0.51730000  0.65270000  0.27010000  1.0 -0.0627353667
C  C29  1  0.34730000  0.48270000  0.27010000  1.0 -0.0627353667
C  C30  1  0.15270000  0.01730000  0.77010000  1.0 -0.0627353667
C  C31  1  0.01730000  0.15270000  0.22990000  1.0 -0.0627353667
C  C32  1  0.48270000  0.34730000  0.72990000  1.0 -0.0627353667
C  C33  1  0.70740000  0.48320000  0.72470000  1.0 -0.089585057
C  C34  1  0.79260000  0.01680000  0.22470000  1.0 -0.089585057
C  C35  1  0.01680000  0.79260000  0.77530000  1.0 -0.089585057
C  C36  1  0.48320000  0.70740000  0.27530000  1.0 -0.089585057
C  C37  1  0.29260000  0.51680000  0.27530000  1.0 -0.089585057
C  C38  1  0.20740000  0.98320000  0.77530000  1.0 -0.089585057
C  C39  1  0.98320000  0.20740000  0.22470000  1.0 -0.089585057
C  C40  1  0.51680000  0.29260000  0.72470000  1.0 -0.089585057
C  C41  1  0.75520000  0.48500000  0.75400000  1.0 -0.1495692957
C  C42  1  0.74480000  0.01500000  0.25400000  1.0 -0.1495692957
C  C43  1  0.01500000  0.74480000  0.74600000  1.0 -0.1495692957
C  C44  1  0.48500000  0.75520000  0.24600000  1.0 -0.1495692957
C  C45  1  0.24480000  0.51500000  0.24600000  1.0 -0.1495692957
C  C46  1  0.25520000  0.98500000  0.74600000  1.0 -0.1495692957
C  C47  1  0.98500000  0.25520000  0.25400000  1.0 -0.1495692957
C  C48  1  0.51500000  0.24480000  0.75400000  1.0 -0.1495692957
C  C49  1  0.53920000  0.74480000  0.53420000  1.0 0.0915627626
C  C50  1  0.96080000  0.75520000  0.03420000  1.0 0.0915627626
C  C51  1  0.75520000  0.96080000  0.96580000  1.0 0.0915627626
C  C52  1  0.74480000  0.53920000  0.46580000  1.0 0.0915627626
C  C53  1  0.46080000  0.25520000  0.46580000  1.0 0.0915627626
C  C54  1  0.03920000  0.24480000  0.96580000  1.0 0.0915627626
C  C55  1  0.24480000  0.03920000  0.03420000  1.0 0.0915627626
C  C56  1  0.25520000  0.46080000  0.53420000  1.0 0.0915627626
C  C57  1  0.57840000  0.69160000  0.52920000  1.0 -0.1606167616
C  C58  1  0.92160000  0.80840000  0.02920000  1.0 -0.1606167616
C  C59  1  0.80840000  0.92160000  0.97080000  1.0 -0.1695895635
C  C60  1  0.69160000  0.57840000  0.47080000  1.0 -0.1606167616
C  C61  1  0.42160000  0.30840000  0.47080000  1.0 -0.1606167616
C  C62  1  0.07840000  0.19160000  0.97080000  1.0 -0.1606167616
C  C63  1  0.19160000  0.07840000  0.02920000  1.0 -0.1606167616
C  C64  1  0.30840000  0.42160000  0.52920000  1.0 -0.1606167616
C  C65  1  0.57570000  0.64170000  0.55580000  1.0 -0.089585057
C  C66  1  0.92430000  0.85830000  0.05580000  1.0 -0.089585057
C  C67  1  0.85830000  0.92430000  0.94420000  1.0 -0.089585057
C  C68  1  0.64170000  0.57570000  0.44420000  1.0 -0.089585057
C  C69  1  0.42430000  0.35830000  0.44420000  1.0 -0.089585057
C  C70  1  0.07570000  0.14170000  0.94420000  1.0 -0.089585057
C  C71  1  0.14170000  0.07570000  0.05580000  1.0 -0.089585057
C  C72  1  0.35830000  0.42430000  0.55580000  1.0 -0.089585057
C  C73  1  0.53350000  0.64250000  0.58750000  1.0 -0.0627353667
C  C74  1  0.96650000  0.85750000  0.08750000  1.0 -0.0627353667
C  C75  1  0.85750000  0.96650000  0.91250000  1.0 -0.0627353667
C  C76  1  0.64250000  0.53350000  0.41250000  1.0 -0.0627353667
C  C77  1  0.46650000  0.35750000  0.41250000  1.0 -0.0627353667
C  C78  1  0.03350000  0.14250000  0.91250000  1.0 -0.0627353667
C  C79  1  0.14250000  0.03350000  0.08750000  1.0 -0.0627353667
C  C80  1  0.35750000  0.46650000  0.58750000  1.0 -0.0627353667
C  C81  1  0.49560000  0.69460000  0.59300000  1.0 -0.0970113271
C  C82  1  0.00440000  0.80540000  0.09300000  1.0 -0.0970113271
C  C83  1  0.80540000  0.00440000  0.90700000  1.0 -0.0970113271
C  C84  1  0.69460000  0.49560000  0.40700000  1.0 -0.0970113271
C  C85  1  0.50440000  0.30540000  0.40700000  1.0 -0.0970113271
C  C86  1  0.99560000  0.19460000  0.90700000  1.0 -0.0970113271
C  C87  1  0.19460000  0.99560000  0.09300000  1.0 -0.0970113271
C  C88  1  0.30540000  0.50440000  0.59300000  1.0 -0.0970113271
C  C89  1  0.49700000  0.74580000  0.56540000  1.0 -0.1695895635
C  C90  1  0.00300000  0.75420000  0.06540000  1.0 -0.1695895635
C  C91  1  0.75420000  0.00300000  0.93460000  1.0 -0.1695895635
C  C92  1  0.74580000  0.49700000  0.43460000  1.0 -0.1695895635
C  C93  1  0.50300000  0.25420000  0.43460000  1.0 -0.1695895635
C  C94  1  0.99700000  0.24580000  0.93460000  1.0 -0.1695895635
C  C95  1  0.24580000  0.99700000  0.06540000  1.0 -0.1695895635
C  C96  1  0.25420000  0.50300000  0.56540000  1.0 -0.1695895635
C  C97  1  0.82890000  0.66870000  0.41800000  1.0 0.0915627626
C  C98  1  0.67110000  0.83130000  0.91800000  1.0 0.0915627626
C  C99  1  0.83130000  0.67110000  0.08200000  1.0 0.0915627626
C  C100  1  0.66870000  0.82890000  0.58200000  1.0 0.0915627626
C  C101  1  0.17110000  0.33130000  0.58200000  1.0 0.0915627626
C  C102  1  0.32890000  0.16870000  0.08200000  1.0 0.0915627626
C  C103  1  0.16870000  0.32890000  0.91800000  1.0 0.0915627626
C  C104  1  0.33130000  0.17110000  0.41800000  1.0 0.0915627626
C  C105  1  0.83070000  0.71630000  0.44330000  1.0 -0.1411854883
C  C106  1  0.66930000  0.78370000  0.94330000  1.0 -0.1411854883
C  C107  1  0.78370000  0.66930000  0.05670000  1.0 -0.1411854883
C  C108  1  0.71630000  0.83070000  0.55670000  1.0 -0.1411854883
C  C109  1  0.16930000  0.28370000  0.55670000  1.0 -0.1411854883
C  C110  1  0.33070000  0.21630000  0.05670000  1.0 -0.1411854883
C  C111  1  0.21630000  0.33070000  0.94330000  1.0 -0.1411854883
C  C112  1  0.28370000  0.16930000  0.44330000  1.0 -0.1411854883
C  C113  1  0.78390000  0.76350000  0.44330000  1.0 -0.1318918604
C  C114  1  0.71610000  0.73650000  0.94330000  1.0 -0.1318918604
C  C115  1  0.73650000  0.71610000  0.05670000  1.0 -0.1318918604
C  C116  1  0.76350000  0.78390000  0.55670000  1.0 -0.1318918604
C  C117  1  0.21610000  0.23650000  0.55670000  1.0 -0.1318918604
C  C118  1  0.28390000  0.26350000  0.05670000  1.0 -0.1318918604
C  C119  1  0.26350000  0.28390000  0.94330000  1.0 -0.1318918604
C  C120  1  0.23650000  0.21610000  0.44330000  1.0 -0.1318918604
C  C121  1  0.74080000  0.76620000  0.41510000  1.0 -0.089585057
C  C122  1  0.75920000  0.73380000  0.91510000  1.0 -0.089585057
C  C123  1  0.73380000  0.75920000  0.08490000  1.0 -0.0785379763
C  C124  1  0.76620000  0.74080000  0.58490000  1.0 -0.089585057
C  C125  1  0.25920000  0.23380000  0.58490000  1.0 -0.0785379763
C  C126  1  0.24080000  0.26620000  0.08490000  1.0 -0.089585057
C  C127  1  0.26620000  0.24080000  0.91510000  1.0 -0.089585057
C  C128  1  0.23380000  0.25920000  0.41510000  1.0 -0.089585057
C  C129  1  0.73670000  0.71330000  0.38860000  1.0 -0.1070498426
C  C130  1  0.76330000  0.78670000  0.88860000  1.0 -0.1070498426
C  C131  1  0.78670000  0.76330000  0.11140000  1.0 -0.1070498426
C  C132  1  0.71330000  0.73670000  0.61140000  1.0 -0.1070498426
C  C133  1  0.26330000  0.28670000  0.61140000  1.0 -0.1070498426
C  C134  1  0.23670000  0.21330000  0.11140000  1.0 -0.1070498426
C  C135  1  0.21330000  0.23670000  0.88860000  1.0 -0.1070498426
C  C136  1  0.28670000  0.26330000  0.38860000  1.0 -0.1070498426
C  C137  1  0.78180000  0.66680000  0.39020000  1.0 -0.1606167616
C  C138  1  0.71820000  0.83320000  0.89020000  1.0 -0.1606167616
C  C139  1  0.83320000  0.71820000  0.10980000  1.0 -0.1606167616
C  C140  1  0.66680000  0.78180000  0.60980000  1.0 -0.1606167616
C  C141  1  0.21820000  0.33320000  0.60980000  1.0 -0.1606167616
C  C142  1  0.28180000  0.16680000  0.10980000  1.0 -0.1606167616
C  C143  1  0.16680000  0.28180000  0.89020000  1.0 -0.1606167616
C  C144  1  0.33320000  0.21820000  0.39020000  1.0 -0.1606167616
C  C145  1  0.52730000  0.58850000  0.61420000  1.0 0.5691805861
C  C146  1  0.97270000  0.91150000  0.11420000  1.0 0.5691805861
C  C147  1  0.91150000  0.97270000  0.88580000  1.0 0.5691805861
C  C148  1  0.58850000  0.52730000  0.38580000  1.0 0.5691805861
C  C149  1  0.47270000  0.41150000  0.38580000  1.0 0.5691805861
C  C150  1  0.02730000  0.08850000  0.88580000  1.0 0.5691805861
C  C151  1  0.08850000  0.02730000  0.11420000  1.0 0.5691805861
C  C152  1  0.41150000  0.47270000  0.61420000  1.0 0.5691805861
C  C153  1  0.69040000  0.81900000  0.41280000  1.0 0.3286348936
C  C154  1  0.80960000  0.68100000  0.91280000  1.0 0.3286348936
C  C155  1  0.68100000  0.80960000  0.08720000  1.0 0.3286348936
C  C156  1  0.81900000  0.69040000  0.58720000  1.0 0.3242170594
C  C157  1  0.30960000  0.18100000  0.58720000  1.0 0.3242170594
C  C158  1  0.19040000  0.31900000  0.08720000  1.0 0.3242170594
C  C159  1  0.31900000  0.19040000  0.91280000  1.0 0.3286348936
C  C160  1  0.18100000  0.30960000  0.41280000  1.0 0.3242170594
C  C161  1  0.49580000  0.84540000  0.50270000  1.0 0.0169800978
C  C162  1  0.00420000  0.65460000  0.00270000  1.0 0.0169800978
C  C163  1  0.65460000  0.00420000  0.99730000  1.0 0.0169800978
C  C164  1  0.84540000  0.49580000  0.49730000  1.0 0.0169800978
C  C165  1  0.50420000  0.15460000  0.49730000  1.0 0.0169800978
C  C166  1  0.99580000  0.34540000  0.99730000  1.0 0.0169800978
C  C167  1  0.34540000  0.99580000  0.00270000  1.0 0.0169800978
C  C168  1  0.15460000  0.50420000  0.50270000  1.0 0.0169800978
C  C169  1  0.54100000  0.79700000  0.50570000  1.0 -0.0332340424
C  C170  1  0.95900000  0.70300000  0.00570000  1.0 -0.0332340424
C  C171  1  0.70300000  0.95900000  0.99430000  1.0 -0.0332340424
C  C172  1  0.79700000  0.54100000  0.49430000  1.0 -0.0332340424
C  C173  1  0.45900000  0.20300000  0.49430000  1.0 -0.0332340424
C  C174  1  0.04100000  0.29700000  0.99430000  1.0 -0.0332340424
C  C175  1  0.29700000  0.04100000  0.00570000  1.0 -0.0332340424
C  C176  1  0.20300000  0.45900000  0.50570000  1.0 -0.0332340424
C  C177  1  0.87560000  0.61720000  0.41840000  1.0 -0.0332340424
C  C178  1  0.62440000  0.88280000  0.91840000  1.0 -0.0332340424
C  C179  1  0.88280000  0.62440000  0.08160000  1.0 -0.0332340424
C  C180  1  0.61720000  0.87560000  0.58160000  1.0 -0.0332340424
C  C181  1  0.12440000  0.38280000  0.58160000  1.0 -0.0332340424
C  C182  1  0.37560000  0.11720000  0.08160000  1.0 -0.0332340424
C  C183  1  0.11720000  0.37560000  0.91840000  1.0 -0.0332340424
C  C184  1  0.38280000  0.12440000  0.41840000  1.0 -0.0332340424
C  C185  1  0.58640000  0.81140000  0.47880000  1.0 -0.0785379763
C  C186  1  0.91360000  0.68860000  0.97880000  1.0 -0.0785379763
C  C187  1  0.68860000  0.91360000  0.02120000  1.0 -0.0691227748
C  C188  1  0.81140000  0.58640000  0.52120000  1.0 -0.0691227748
C  C189  1  0.41360000  0.18860000  0.52120000  1.0 -0.0691227748
C  C190  1  0.08640000  0.31140000  0.02120000  1.0 -0.0785379763
C  C191  1  0.31140000  0.08640000  0.97880000  1.0 -0.0785379763
C  C192  1  0.18860000  0.41360000  0.47880000  1.0 -0.0691227748
C  C193  1  0.60150000  0.51250000  0.70070000  1.0 0.5617081917
C  C194  1  0.89850000  0.98750000  0.20070000  1.0 0.5617081917
C  C195  1  0.98750000  0.89850000  0.79930000  1.0 0.5617081917
C  C196  1  0.51250000  0.60150000  0.29930000  1.0 0.5617081917
C  C197  1  0.39850000  0.48750000  0.29930000  1.0 0.5617081917
C  C198  1  0.10150000  0.01250000  0.79930000  1.0 0.5617081917
C  C199  1  0.01250000  0.10150000  0.20070000  1.0 0.5617081917
C  C200  1  0.48750000  0.39850000  0.70070000  1.0 0.5617081917
C  C201  1  0.92910000  0.60970000  0.44430000  1.0 0.0169800978
C  C202  1  0.57090000  0.89030000  0.94430000  1.0 0.0169800978
C  C203  1  0.89030000  0.57090000  0.05570000  1.0 0.0169800978
C  C204  1  0.60970000  0.92910000  0.55570000  1.0 0.0169800978
C  C205  1  0.07090000  0.39030000  0.55570000  1.0 0.0169800978
C  C206  1  0.42910000  0.10970000  0.05570000  1.0 0.0169800978
C  C207  1  0.10970000  0.42910000  0.94430000  1.0 0.0169800978
C  C208  1  0.39030000  0.07090000  0.44430000  1.0 0.0169800978
C  C209  1  0.88230000  0.56650000  0.39380000  1.0 -0.0691227748
C  C210  1  0.61770000  0.93350000  0.89380000  1.0 -0.0691227748
C  C211  1  0.93350000  0.61770000  0.10620000  1.0 -0.0691227748
C  C212  1  0.56650000  0.88230000  0.60620000  1.0 -0.0691227748
C  C213  1  0.11770000  0.43350000  0.60620000  1.0 -0.0691227748
C  C214  1  0.38230000  0.06650000  0.10620000  1.0 -0.0691227748
C  C215  1  0.06650000  0.38230000  0.89380000  1.0 -0.0691227748
C  C216  1  0.43350000  0.11770000  0.39380000  1.0 -0.0691227748
C  C217  1  0.84690000  0.47730000  0.82300000  1.0 -0.018168915
C  C218  1  0.65310000  0.02270000  0.32300000  1.0 -0.018168915
C  C219  1  0.02270000  0.65310000  0.67700000  1.0 -0.018168915
C  C220  1  0.47730000  0.84690000  0.17700000  1.0 -0.018168915
C  C221  1  0.15310000  0.52270000  0.17700000  1.0 -0.018168915
C  C222  1  0.34690000  0.97730000  0.67700000  1.0 -0.018168915
C  C223  1  0.97730000  0.34690000  0.32300000  1.0 -0.018168915
C  C224  1  0.52270000  0.15310000  0.82300000  1.0 -0.018168915
C  C225  1  0.80170000  0.56410000  0.84980000  1.0 -0.018168915
C  C226  1  0.69830000  0.93590000  0.34980000  1.0 -0.018168915
C  C227  1  0.93590000  0.69830000  0.65020000  1.0 -0.018168915
C  C228  1  0.56410000  0.80170000  0.15020000  1.0 -0.018168915
C  C229  1  0.19830000  0.43590000  0.15020000  1.0 -0.018168915
C  C230  1  0.30170000  0.06410000  0.65020000  1.0 -0.018168915
C  C231  1  0.06410000  0.30170000  0.34980000  1.0 -0.018168915
C  C232  1  0.43590000  0.19830000  0.84980000  1.0 -0.018168915
C  C233  1  0.79640000  0.52300000  0.81820000  1.0 0.0020334143
C  C234  1  0.70360000  0.97700000  0.31820000  1.0 0.0020334143
C  C235  1  0.97700000  0.70360000  0.68180000  1.0 0.0020334143
C  C236  1  0.52300000  0.79640000  0.18180000  1.0 0.0020334143
C  C237  1  0.20360000  0.47700000  0.18180000  1.0 0.0020334143
C  C238  1  0.29640000  0.02300000  0.68180000  1.0 0.0020334143
C  C239  1  0.02300000  0.29640000  0.31820000  1.0 0.0020334143
C  C240  1  0.47700000  0.20360000  0.81820000  1.0 0.0020334143
S  S1  1  0.37138000  0.95362000  0.52040000  1.0 1.4212409413
S  S2  1  0.12862000  0.54638000  0.02040000  1.0 1.4212409413
S  S3  1  0.54638000  0.12862000  0.97960000  1.0 1.4212409413
S  S4  1  0.95362000  0.37138000  0.47960000  1.0 1.4212409413
S  S5  1  0.62862000  0.04638000  0.47960000  1.0 1.4212409413
S  S6  1  0.87138000  0.45362000  0.97960000  1.0 1.4212409413
S  S7  1  0.45362000  0.87138000  0.02040000  1.0 1.4212409413
S  S8  1  0.04638000  0.62862000  0.52040000  1.0 1.4212409413
N  N1  1  0.51580000  0.88620000  0.47560000  1.0 -0.1695895635
N  N2  1  0.98420000  0.61380000  0.97560000  1.0 -0.1695895635
N  N3  1  0.61380000  0.98420000  0.02440000  1.0 -0.1695895635
N  N4  1  0.88620000  0.51580000  0.52440000  1.0 -0.1695895635
N  N5  1  0.48420000  0.11380000  0.52440000  1.0 -0.1695895635
N  N6  1  0.01580000  0.38620000  0.02440000  1.0 -0.1695895635
N  N7  1  0.38620000  0.01580000  0.97560000  1.0 -0.1695895635
N  N8  1  0.11380000  0.48420000  0.47560000  1.0 -0.1695895635
N  N9  1  0.95950000  0.55910000  0.43400000  1.0 -0.1606167616
N  N10  1  0.54050000  0.94090000  0.93400000  1.0 -0.1606167616
N  N11  1  0.94090000  0.54050000  0.06600000  1.0 -0.1606167616
N  N12  1  0.55910000  0.95950000  0.56600000  1.0 -0.1606167616
N  N13  1  0.04050000  0.44090000  0.56600000  1.0 -0.1606167616
N  N14  1  0.45950000  0.05910000  0.06600000  1.0 -0.1606167616
N  N15  1  0.05910000  0.45950000  0.93400000  1.0 -0.1606167616
N  N16  1  0.44090000  0.04050000  0.43400000  1.0 -0.1606167616
N  N17  1  0.57270000  0.86470000  0.46070000  1.0 -0.1913646006
N  N18  1  0.92730000  0.63530000  0.96070000  1.0 -0.1913646006
N  N19  1  0.63530000  0.92730000  0.03930000  1.0 -0.1913646006
N  N20  1  0.86470000  0.57270000  0.53930000  1.0 -0.1913646006
N  N21  1  0.42730000  0.13530000  0.53930000  1.0 -0.1913646006
N  N22  1  0.07270000  0.36470000  0.03930000  1.0 -0.1913646006
N  N23  1  0.36470000  0.07270000  0.96070000  1.0 -0.1913646006
N  N24  1  0.13530000  0.42730000  0.46070000  1.0 -0.1913646006
N  N25  1  0.92890000  0.53050000  0.40470000  1.0 -0.1318918604
N  N26  1  0.57110000  0.96950000  0.90470000  1.0 -0.1318918604
N  N27  1  0.96950000  0.57110000  0.09530000  1.0 -0.1318918604
N  N28  1  0.53050000  0.92890000  0.59530000  1.0 -0.1318918604
N  N29  1  0.07110000  0.46950000  0.59530000  1.0 -0.1318918604
N  N30  1  0.42890000  0.03050000  0.09530000  1.0 -0.1318918604
N  N31  1  0.03050000  0.42890000  0.90470000  1.0 -0.1318918604
N  N32  1  0.46950000  0.07110000  0.40470000  1.0 -0.1318918604
N  N33  1  0.84750000  0.54690000  0.87350000  1.0 -0.1831335493
N  N34  1  0.65250000  0.95310000  0.37350000  1.0 -0.1831335493
N  N35  1  0.95310000  0.65250000  0.62650000  1.0 -0.1831335493
N  N36  1  0.54690000  0.84750000  0.12650000  1.0 -0.1831335493
N  N37  1  0.15250000  0.45310000  0.12650000  1.0 -0.1831335493
N  N38  1  0.34750000  0.04690000  0.62650000  1.0 -0.1831335493
N  N39  1  0.04690000  0.34750000  0.37350000  1.0 -0.1831335493
N  N40  1  0.45310000  0.15250000  0.87350000  1.0 -0.1831335493
N  N41  1  0.87920000  0.49280000  0.85670000  1.0 -0.1411854883
N  N42  1  0.62080000  0.00720000  0.35670000  1.0 -0.1495692957
N  N43  1  0.00720000  0.62080000  0.64330000  1.0 -0.1495692957
N  N44  1  0.49280000  0.87920000  0.14330000  1.0 -0.1411854883
N  N45  1  0.12080000  0.50720000  0.14330000  1.0 -0.1495692957
N  N46  1  0.37920000  0.99280000  0.64330000  1.0 -0.1495692957
N  N47  1  0.99280000  0.37920000  0.35670000  1.0 -0.1495692957
N  N48  1  0.50720000  0.12080000  0.85670000  1.0 -0.1495692957
O  O1  1  0.53680000  0.96300000  0.41080000  1.0 -0.6329941892
O  O2  1  0.96320000  0.53700000  0.91080000  1.0 -0.6329941892
O  O3  1  0.53700000  0.96320000  0.08920000  1.0 -0.6329941892
O  O4  1  0.96300000  0.53680000  0.58920000  1.0 -0.6329941892
O  O5  1  0.46320000  0.03700000  0.58920000  1.0 -0.6329941892
O  O6  1  0.03680000  0.46300000  0.08920000  1.0 -0.6329941892
O  O7  1  0.46300000  0.03680000  0.91080000  1.0 -0.6329941892
O  O8  1  0.03700000  0.46320000  0.41080000  1.0 -0.6329941892
O  O9  1  0.55452000  0.53768000  0.60540000  1.0 -0.5209076473
O  O10  1  0.94548000  0.96232000  0.10540000  1.0 -0.5209076473
O  O11  1  0.96232000  0.94548000  0.89460000  1.0 -0.5209076473
O  O12  1  0.53768000  0.55452000  0.39460000  1.0 -0.5209076473
O  O13  1  0.44548000  0.46232000  0.39460000  1.0 -0.5209076473
O  O14  1  0.05452000  0.03768000  0.89460000  1.0 -0.5209076473
O  O15  1  0.03768000  0.05452000  0.10540000  1.0 -0.5209076473
O  O16  1  0.46232000  0.44548000  0.60540000  1.0 -0.5209076473
O  O17  1  0.49440000  0.59700000  0.64520000  1.0 -0.5295327522
O  O18  1  0.00560000  0.90300000  0.14520000  1.0 -0.5295327522
O  O19  1  0.90300000  0.00560000  0.85480000  1.0 -0.5295327522
O  O20  1  0.59700000  0.49440000  0.35480000  1.0 -0.5295327522
O  O21  1  0.50560000  0.40300000  0.35480000  1.0 -0.5295327522
O  O22  1  0.99440000  0.09700000  0.85480000  1.0 -0.5295327522
O  O23  1  0.09700000  0.99440000  0.14520000  1.0 -0.5295327522
O  O24  1  0.40300000  0.50560000  0.64520000  1.0 -0.5295327522
O  O25  1  0.61050000  0.48050000  0.67070000  1.0 -0.5015838773
O  O26  1  0.88950000  0.01950000  0.17070000  1.0 -0.5015838773
O  O27  1  0.01950000  0.88950000  0.82930000  1.0 -0.5015838773
O  O28  1  0.48050000  0.61050000  0.32930000  1.0 -0.5015838773
O  O29  1  0.38950000  0.51950000  0.32930000  1.0 -0.5015838773
O  O30  1  0.11050000  0.98050000  0.82930000  1.0 -0.5015838773
O  O31  1  0.98050000  0.11050000  0.17070000  1.0 -0.5015838773
O  O32  1  0.51950000  0.38950000  0.67070000  1.0 -0.5015838773
O  O33  1  0.55050000  0.54250000  0.70990000  1.0 -0.5490657532
O  O34  1  0.94950000  0.95750000  0.20990000  1.0 -0.5490657532
O  O35  1  0.95750000  0.94950000  0.79010000  1.0 -0.5490657532
O  O36  1  0.54250000  0.55050000  0.29010000  1.0 -0.5490657532
O  O37  1  0.44950000  0.45750000  0.29010000  1.0 -0.5490657532
O  O38  1  0.05050000  0.04250000  0.79010000  1.0 -0.5490657532
O  O39  1  0.04250000  0.05050000  0.20990000  1.0 -0.5490657532
O  O40  1  0.45750000  0.44950000  0.70990000  1.0 -0.5490657532
O  O41  1  0.69750000  0.86290000  0.42810000  1.0 0.119544293
O  O42  1  0.80250000  0.63710000  0.92810000  1.0 0.119544293
O  O43  1  0.63710000  0.80250000  0.07190000  1.0 0.1257014132
O  O44  1  0.86290000  0.69750000  0.57190000  1.0 0.119544293
O  O45  1  0.30250000  0.13710000  0.57190000  1.0 0.119544293
O  O46  1  0.19750000  0.36290000  0.07190000  1.0 0.119544293
O  O47  1  0.36290000  0.19750000  0.92810000  1.0 0.119544293
O  O48  1  0.13710000  0.30250000  0.42810000  1.0 0.119544293
O  O49  1  0.64050000  0.80210000  0.38470000  1.0 -0.3439702422
O  O50  1  0.85950000  0.69790000  0.88470000  1.0 -0.3439702422
O  O51  1  0.69790000  0.85950000  0.11530000  1.0 -0.3439702422
O  O52  1  0.80210000  0.64050000  0.61530000  1.0 -0.3439702422
O  O53  1  0.35950000  0.19790000  0.61530000  1.0 -0.3439702422
O  O54  1  0.14050000  0.30210000  0.11530000  1.0 -0.3439702422
O  O55  1  0.30210000  0.14050000  0.88470000  1.0 -0.3439702422
O  O56  1  0.19790000  0.35950000  0.38470000  1.0 -0.3439702422
O  O57  1  0.33350000  0.01170000  0.53250000  1.0 -0.6509756634
O  O58  1  0.16650000  0.48830000  0.03250000  1.0 -0.6509756634
O  O59  1  0.48830000  0.16650000  0.96750000  1.0 -0.6509756634
O  O60  1  0.01170000  0.33350000  0.46750000  1.0 -0.6509756634
O  O61  1  0.66650000  0.98830000  0.46750000  1.0 -0.6509756634
O  O62  1  0.83350000  0.51170000  0.96750000  1.0 -0.6509756634
O  O63  1  0.51170000  0.83350000  0.03250000  1.0 -0.6509756634
O  O64  1  0.98830000  0.66650000  0.53250000  1.0 -0.6509756634
O  O65  1  0.38470000  0.91290000  0.56190000  1.0 -0.6509756634
O  O66  1  0.11530000  0.58710000  0.06190000  1.0 -0.655402317
O  O67  1  0.58710000  0.11530000  0.93810000  1.0 -0.655402317
O  O68  1  0.91290000  0.38470000  0.43810000  1.0 -0.655402317
O  O69  1  0.61530000  0.08710000  0.43810000  1.0 -0.6509756634
O  O70  1  0.88470000  0.41290000  0.93810000  1.0 -0.6509756634
O  O71  1  0.41290000  0.88470000  0.06190000  1.0 -0.6509756634
O  O72  1  0.08710000  0.61530000  0.56190000  1.0 -0.6509756634
O  O73  1  0.43420000  0.97580000  0.50690000  1.0 -0.6384680935
O  O74  1  0.06580000  0.52420000  0.00690000  1.0 -0.6384680935
O  O75  1  0.52420000  0.06580000  0.99310000  1.0 -0.6384680935
O  O76  1  0.97580000  0.43420000  0.49310000  1.0 -0.6384680935
O  O77  1  0.56580000  0.02420000  0.49310000  1.0 -0.6384680935
O  O78  1  0.93420000  0.47580000  0.99310000  1.0 -0.6384680935
O  O79  1  0.47580000  0.93420000  0.00690000  1.0 -0.6384680935
O  O80  1  0.02420000  0.56580000  0.50690000  1.0 -0.6384680935
O  O81  1  0.33210000  0.91350000  0.48250000  1.0 -0.6688993865
O  O82  1  0.16790000  0.58650000  0.98250000  1.0 -0.6688993865
O  O83  1  0.58650000  0.16790000  0.01750000  1.0 -0.6688993865
O  O84  1  0.91350000  0.33210000  0.51750000  1.0 -0.6688993865
O  O85  1  0.66790000  0.08650000  0.51750000  1.0 -0.6688993865
O  O86  1  0.83210000  0.41350000  0.01750000  1.0 -0.6688993865
O  O87  1  0.41350000  0.83210000  0.98250000  1.0 -0.6688993865
O  O88  1  0.08650000  0.66790000  0.48250000  1.0 -0.6688993865
O  O89  1  0.72460000  0.87140000  0.44800000  1.0 -0.1411854883
O  O90  1  0.77540000  0.62860000  0.94800000  1.0 -0.1411854883
O  O91  1  0.62860000  0.77540000  0.05200000  1.0 -0.1411854883
O  O92  1  0.87140000  0.72460000  0.55200000  1.0 -0.1411854883
O  O93  1  0.27540000  0.12860000  0.55200000  1.0 -0.1411854883
O  O94  1  0.22460000  0.37140000  0.05200000  1.0 -0.1411854883
O  O95  1  0.37140000  0.22460000  0.94800000  1.0 -0.1411854883
O  O96  1  0.12860000  0.27540000  0.44800000  1.0 -0.1411854883
O  O97  1  0.66950000  0.84250000  0.41000000  1.0 0.119544293
O  O98  1  0.83050000  0.65750000  0.91000000  1.0 0.119544293
O  O99  1  0.65750000  0.83050000  0.09000000  1.0 0.119544293
O  O100  1  0.84250000  0.66950000  0.59000000  1.0 0.119544293
O  O101  1  0.33050000  0.15750000  0.59000000  1.0 0.119544293
O  O102  1  0.16950000  0.34250000  0.09000000  1.0 0.119544293
O  O103  1  0.34250000  0.16950000  0.91000000  1.0 0.119544293
O  O104  1  0.15750000  0.33050000  0.41000000  1.0 0.119544293
