# DDEC6 charges by PACMAN v1.1 (https://github.com/mtap-research/PACMAN-charge/)
data_DEQDOW_ASR_pacman
_symmetry_space_group_name_H-M   'P 1'
_cell_length_a   40.61550000
_cell_length_b   40.61550000
_cell_length_c   40.61550000
_cell_angle_alpha   60.00000000
_cell_angle_beta   60.00000000
_cell_angle_gamma   60.00000000
_symmetry_Int_Tables_number   1
_chemical_formula_structural   Eu3H136C192N3O16
_chemical_formula_sum   'Eu24 H1088 C1536 N24 O128'
_cell_volume   47376.22081190
_cell_formula_units_Z   8
loop_
 _symmetry_equiv_pos_site_id
 _symmetry_equiv_pos_as_xyz
  1  'x, y, z'
loop_
 _atom_site_type_symbol
 _atom_site_label
 _atom_site_symmetry_multiplicity
 _atom_site_fract_x
 _atom_site_fract_y
 _atom_site_fract_z
 _atom_site_occupancy
 _atom_site_charge
Eu  Eu1  1  0.10909000  0.57563000  0.10909000  1.0 2.1048607889
Eu  Eu2  1  0.57563000  0.10909000  0.20619000  1.0 2.1064398947
Eu  Eu3  1  0.10909000  0.20619000  0.10909000  1.0 2.1048607889
Eu  Eu4  1  0.20619000  0.10909000  0.57563000  1.0 2.1048607889
Eu  Eu5  1  0.10909000  0.10909000  0.57563000  1.0 2.1048607889
Eu  Eu6  1  0.20619000  0.57563000  0.10909000  1.0 2.1048607889
Eu  Eu7  1  0.10909000  0.10909000  0.20619000  1.0 2.1064398947
Eu  Eu8  1  0.57563000  0.20619000  0.10909000  1.0 2.1064398947
Eu  Eu9  1  0.57563000  0.10909000  0.10909000  1.0 2.1064398947
Eu  Eu10  1  0.10909000  0.20619000  0.57563000  1.0 2.1048607889
Eu  Eu11  1  0.20619000  0.10909000  0.10909000  1.0 2.1064398947
Eu  Eu12  1  0.10909000  0.57563000  0.20619000  1.0 2.1048607889
Eu  Eu13  1  0.14091000  0.67437000  0.04381000  1.0 2.1064398947
Eu  Eu14  1  0.67437000  0.14091000  0.14091000  1.0 2.1064398947
Eu  Eu15  1  0.14091000  0.04381000  0.67437000  1.0 2.1048607889
Eu  Eu16  1  0.04381000  0.14091000  0.14091000  1.0 2.1064398947
Eu  Eu17  1  0.14091000  0.14091000  0.04381000  1.0 2.1064398947
Eu  Eu18  1  0.04381000  0.67437000  0.14091000  1.0 2.1048607889
Eu  Eu19  1  0.14091000  0.14091000  0.67437000  1.0 2.1064398947
Eu  Eu20  1  0.67437000  0.04381000  0.14091000  1.0 2.1064398947
Eu  Eu21  1  0.67437000  0.14091000  0.04381000  1.0 2.1048607889
Eu  Eu22  1  0.14091000  0.04381000  0.14091000  1.0 2.1064398947
Eu  Eu23  1  0.04381000  0.14091000  0.67437000  1.0 2.1048607889
Eu  Eu24  1  0.14091000  0.67437000  0.14091000  1.0 2.1048607889
H  H1  1  0.15639000  0.53083000  0.15639000  1.0 0.3870228741
H  H2  1  0.53083000  0.15639000  0.15639000  1.0 0.3870228741
H  H3  1  0.15639000  0.15639000  0.15639000  1.0 0.3870228741
H  H4  1  0.15639000  0.15639000  0.53083000  1.0 0.3870228741
H  H5  1  0.09361000  0.71917000  0.09361000  1.0 0.3870228741
H  H6  1  0.71917000  0.09361000  0.09361000  1.0 0.3870228741
H  H7  1  0.09361000  0.09361000  0.71917000  1.0 0.3870228741
H  H8  1  0.09361000  0.09361000  0.09361000  1.0 0.3870228741
H  H9  1  0.17663000  0.59401000  0.05273000  1.0 0.3438459623
H  H10  1  0.59401000  0.17663000  0.17663000  1.0 0.3438459623
H  H11  1  0.05273000  0.17663000  0.17663000  1.0 0.3438459623
H  H12  1  0.17663000  0.05273000  0.59401000  1.0 0.3438459623
H  H13  1  0.05273000  0.17663000  0.59401000  1.0 0.3438459623
H  H14  1  0.17663000  0.59401000  0.17663000  1.0 0.3438459623
H  H15  1  0.17663000  0.05273000  0.17663000  1.0 0.3438459623
H  H16  1  0.59401000  0.17663000  0.05273000  1.0 0.3438459623
H  H17  1  0.59401000  0.05273000  0.17663000  1.0 0.3438459623
H  H18  1  0.17663000  0.17663000  0.59401000  1.0 0.3438459623
H  H19  1  0.17663000  0.17663000  0.05273000  1.0 0.3438459623
H  H20  1  0.05273000  0.59401000  0.17663000  1.0 0.3438459623
H  H21  1  0.07337000  0.65599000  0.07337000  1.0 0.3438459623
H  H22  1  0.65599000  0.07337000  0.19727000  1.0 0.3438459623
H  H23  1  0.19727000  0.07337000  0.65599000  1.0 0.3438459623
H  H24  1  0.07337000  0.19727000  0.07337000  1.0 0.3438459623
H  H25  1  0.19727000  0.07337000  0.07337000  1.0 0.3438459623
H  H26  1  0.07337000  0.65599000  0.19727000  1.0 0.3438459623
H  H27  1  0.07337000  0.19727000  0.65599000  1.0 0.3438459623
H  H28  1  0.65599000  0.07337000  0.07337000  1.0 0.3438459623
H  H29  1  0.65599000  0.19727000  0.07337000  1.0 0.3438459623
H  H30  1  0.07337000  0.07337000  0.19727000  1.0 0.3438459623
H  H31  1  0.07337000  0.07337000  0.65599000  1.0 0.3438459623
H  H32  1  0.19727000  0.65599000  0.07337000  1.0 0.3438459623
H  H33  1  0.08446000  0.39096000  0.21274000  1.0 0.119440015
H  H34  1  0.39096000  0.08446000  0.31184000  1.0 0.119440015
H  H35  1  0.21274000  0.31184000  0.08446000  1.0 0.119440015
H  H36  1  0.31184000  0.21274000  0.39096000  1.0 0.119440015
H  H37  1  0.21274000  0.08446000  0.39096000  1.0 0.119440015
H  H38  1  0.31184000  0.39096000  0.08446000  1.0 0.119440015
H  H39  1  0.08446000  0.21274000  0.31184000  1.0 0.119440015
H  H40  1  0.39096000  0.31184000  0.21274000  1.0 0.119440015
H  H41  1  0.39096000  0.21274000  0.08446000  1.0 0.119440015
H  H42  1  0.08446000  0.31184000  0.39096000  1.0 0.119440015
H  H43  1  0.31184000  0.08446000  0.21274000  1.0 0.119440015
H  H44  1  0.21274000  0.39096000  0.31184000  1.0 0.119440015
H  H45  1  0.16554000  0.85904000  0.93816000  1.0 0.119440015
H  H46  1  0.85904000  0.16554000  0.03726000  1.0 0.119440015
H  H47  1  0.03726000  0.93816000  0.85904000  1.0 0.119440015
H  H48  1  0.93816000  0.03726000  0.16554000  1.0 0.119440015
H  H49  1  0.03726000  0.16554000  0.93816000  1.0 0.119440015
H  H50  1  0.93816000  0.85904000  0.03726000  1.0 0.119440015
H  H51  1  0.16554000  0.03726000  0.85904000  1.0 0.119440015
H  H52  1  0.85904000  0.93816000  0.16554000  1.0 0.119440015
H  H53  1  0.85904000  0.03726000  0.93816000  1.0 0.119440015
H  H54  1  0.16554000  0.93816000  0.03726000  1.0 0.119440015
H  H55  1  0.93816000  0.16554000  0.85904000  1.0 0.119440015
H  H56  1  0.03726000  0.85904000  0.16554000  1.0 0.119440015
H  H57  1  0.16554000  0.85904000  0.03726000  1.0 0.119440015
H  H58  1  0.85904000  0.16554000  0.93816000  1.0 0.119440015
H  H59  1  0.03726000  0.93816000  0.16554000  1.0 0.119440015
H  H60  1  0.93816000  0.03726000  0.85904000  1.0 0.119440015
H  H61  1  0.03726000  0.16554000  0.85904000  1.0 0.119440015
H  H62  1  0.93816000  0.85904000  0.16554000  1.0 0.119440015
H  H63  1  0.16554000  0.03726000  0.93816000  1.0 0.119440015
H  H64  1  0.85904000  0.93816000  0.03726000  1.0 0.119440015
H  H65  1  0.85904000  0.03726000  0.16554000  1.0 0.119440015
H  H66  1  0.16554000  0.93816000  0.85904000  1.0 0.119440015
H  H67  1  0.93816000  0.16554000  0.03726000  1.0 0.119440015
H  H68  1  0.03726000  0.85904000  0.93816000  1.0 0.119440015
H  H69  1  0.08446000  0.39096000  0.31184000  1.0 0.119440015
H  H70  1  0.39096000  0.08446000  0.21274000  1.0 0.119440015
H  H71  1  0.21274000  0.31184000  0.39096000  1.0 0.119440015
H  H72  1  0.31184000  0.21274000  0.08446000  1.0 0.119440015
H  H73  1  0.21274000  0.08446000  0.31184000  1.0 0.119440015
H  H74  1  0.31184000  0.39096000  0.21274000  1.0 0.119440015
H  H75  1  0.08446000  0.21274000  0.39096000  1.0 0.119440015
H  H76  1  0.39096000  0.31184000  0.08446000  1.0 0.119440015
H  H77  1  0.39096000  0.21274000  0.31184000  1.0 0.119440015
H  H78  1  0.08446000  0.31184000  0.21274000  1.0 0.119440015
H  H79  1  0.31184000  0.08446000  0.39096000  1.0 0.119440015
H  H80  1  0.21274000  0.39096000  0.08446000  1.0 0.119440015
H  H81  1  0.08790000  0.45604000  0.17864000  1.0 0.119440015
H  H82  1  0.45604000  0.08790000  0.27742000  1.0 0.119440015
H  H83  1  0.17864000  0.27742000  0.08790000  1.0 0.119440015
H  H84  1  0.27742000  0.17864000  0.45604000  1.0 0.119440015
H  H85  1  0.17864000  0.08790000  0.45604000  1.0 0.119440015
H  H86  1  0.27742000  0.45604000  0.08790000  1.0 0.119440015
H  H87  1  0.08790000  0.17864000  0.27742000  1.0 0.119440015
H  H88  1  0.45604000  0.27742000  0.17864000  1.0 0.119440015
H  H89  1  0.45604000  0.17864000  0.08790000  1.0 0.119440015
H  H90  1  0.08790000  0.27742000  0.45604000  1.0 0.119440015
H  H91  1  0.27742000  0.08790000  0.17864000  1.0 0.119440015
H  H92  1  0.17864000  0.45604000  0.27742000  1.0 0.119440015
H  H93  1  0.16210000  0.79396000  0.97258000  1.0 0.119440015
H  H94  1  0.79396000  0.16210000  0.07136000  1.0 0.119440015
H  H95  1  0.07136000  0.97258000  0.79396000  1.0 0.119440015
H  H96  1  0.97258000  0.07136000  0.16210000  1.0 0.119440015
H  H97  1  0.07136000  0.16210000  0.97258000  1.0 0.119440015
H  H98  1  0.97258000  0.79396000  0.07136000  1.0 0.119440015
H  H99  1  0.16210000  0.07136000  0.79396000  1.0 0.119440015
H  H100  1  0.79396000  0.97258000  0.16210000  1.0 0.119440015
H  H101  1  0.79396000  0.07136000  0.97258000  1.0 0.119440015
H  H102  1  0.16210000  0.97258000  0.07136000  1.0 0.119440015
H  H103  1  0.97258000  0.16210000  0.79396000  1.0 0.119440015
H  H104  1  0.07136000  0.79396000  0.16210000  1.0 0.119440015
H  H105  1  0.16210000  0.79396000  0.07136000  1.0 0.119440015
H  H106  1  0.79396000  0.16210000  0.97258000  1.0 0.119440015
H  H107  1  0.07136000  0.97258000  0.16210000  1.0 0.119440015
H  H108  1  0.97258000  0.07136000  0.79396000  1.0 0.119440015
H  H109  1  0.07136000  0.16210000  0.79396000  1.0 0.119440015
H  H110  1  0.97258000  0.79396000  0.16210000  1.0 0.119440015
H  H111  1  0.16210000  0.07136000  0.97258000  1.0 0.119440015
H  H112  1  0.79396000  0.97258000  0.07136000  1.0 0.119440015
H  H113  1  0.79396000  0.07136000  0.16210000  1.0 0.119440015
H  H114  1  0.16210000  0.97258000  0.79396000  1.0 0.119440015
H  H115  1  0.97258000  0.16210000  0.07136000  1.0 0.119440015
H  H116  1  0.07136000  0.79396000  0.97258000  1.0 0.119440015
H  H117  1  0.08790000  0.45604000  0.27742000  1.0 0.119440015
H  H118  1  0.45604000  0.08790000  0.17864000  1.0 0.119440015
H  H119  1  0.17864000  0.27742000  0.45604000  1.0 0.119440015
H  H120  1  0.27742000  0.17864000  0.08790000  1.0 0.119440015
H  H121  1  0.17864000  0.08790000  0.27742000  1.0 0.119440015
H  H122  1  0.27742000  0.45604000  0.17864000  1.0 0.119440015
H  H123  1  0.08790000  0.17864000  0.45604000  1.0 0.119440015
H  H124  1  0.45604000  0.27742000  0.08790000  1.0 0.119440015
H  H125  1  0.45604000  0.17864000  0.27742000  1.0 0.119440015
H  H126  1  0.08790000  0.27742000  0.17864000  1.0 0.119440015
H  H127  1  0.27742000  0.08790000  0.45604000  1.0 0.119440015
H  H128  1  0.17864000  0.45604000  0.08790000  1.0 0.119440015
H  H129  1  0.00011000  0.68925000  0.73753000  1.0 0.0989723343
H  H130  1  0.68925000  0.00011000  0.57311000  1.0 0.0989723343
H  H131  1  0.73753000  0.57311000  0.00011000  1.0 0.0989723343
H  H132  1  0.57311000  0.73753000  0.68925000  1.0 0.0989723343
H  H133  1  0.73753000  0.00011000  0.68925000  1.0 0.0989723343
H  H134  1  0.57311000  0.68925000  0.00011000  1.0 0.0989723343
H  H135  1  0.00011000  0.73753000  0.57311000  1.0 0.0989723343
H  H136  1  0.68925000  0.57311000  0.73753000  1.0 0.0989723343
H  H137  1  0.68925000  0.73753000  0.00011000  1.0 0.0989723343
H  H138  1  0.00011000  0.57311000  0.68925000  1.0 0.0989723343
H  H139  1  0.57311000  0.00011000  0.73753000  1.0 0.0989723343
H  H140  1  0.73753000  0.68925000  0.57311000  1.0 0.0989723343
H  H141  1  0.24989000  0.56075000  0.67689000  1.0 0.0989723343
H  H142  1  0.56075000  0.24989000  0.51247000  1.0 0.0989723343
H  H143  1  0.51247000  0.67689000  0.56075000  1.0 0.0989723343
H  H144  1  0.67689000  0.51247000  0.24989000  1.0 0.0989723343
H  H145  1  0.51247000  0.24989000  0.67689000  1.0 0.0989723343
H  H146  1  0.67689000  0.56075000  0.51247000  1.0 0.0989723343
H  H147  1  0.24989000  0.51247000  0.56075000  1.0 0.0989723343
H  H148  1  0.56075000  0.67689000  0.24989000  1.0 0.0989723343
H  H149  1  0.56075000  0.51247000  0.67689000  1.0 0.0989723343
H  H150  1  0.24989000  0.67689000  0.51247000  1.0 0.0989723343
H  H151  1  0.67689000  0.24989000  0.56075000  1.0 0.0989723343
H  H152  1  0.51247000  0.56075000  0.24989000  1.0 0.0989723343
H  H153  1  0.24989000  0.56075000  0.51247000  1.0 0.0989723343
H  H154  1  0.56075000  0.24989000  0.67689000  1.0 0.0989723343
H  H155  1  0.51247000  0.67689000  0.24989000  1.0 0.0989723343
H  H156  1  0.67689000  0.51247000  0.56075000  1.0 0.0989723343
H  H157  1  0.51247000  0.24989000  0.56075000  1.0 0.0989723343
H  H158  1  0.67689000  0.56075000  0.24989000  1.0 0.0989723343
H  H159  1  0.24989000  0.51247000  0.67689000  1.0 0.0989723343
H  H160  1  0.56075000  0.67689000  0.51247000  1.0 0.0989723343
H  H161  1  0.56075000  0.51247000  0.24989000  1.0 0.0989723343
H  H162  1  0.24989000  0.67689000  0.56075000  1.0 0.0989723343
H  H163  1  0.67689000  0.24989000  0.51247000  1.0 0.0989723343
H  H164  1  0.51247000  0.56075000  0.67689000  1.0 0.0989723343
H  H165  1  0.00011000  0.68925000  0.57311000  1.0 0.0989723343
H  H166  1  0.68925000  0.00011000  0.73753000  1.0 0.0989723343
H  H167  1  0.73753000  0.57311000  0.68925000  1.0 0.0989723343
H  H168  1  0.57311000  0.73753000  0.00011000  1.0 0.0989723343
H  H169  1  0.73753000  0.00011000  0.57311000  1.0 0.0989723343
H  H170  1  0.57311000  0.68925000  0.73753000  1.0 0.0989723343
H  H171  1  0.00011000  0.73753000  0.68925000  1.0 0.0989723343
H  H172  1  0.68925000  0.57311000  0.00011000  1.0 0.0989723343
H  H173  1  0.68925000  0.73753000  0.57311000  1.0 0.0989723343
H  H174  1  0.00011000  0.57311000  0.73753000  1.0 0.0989723343
H  H175  1  0.57311000  0.00011000  0.68925000  1.0 0.0989723343
H  H176  1  0.73753000  0.68925000  0.00011000  1.0 0.0989723343
H  H177  1  0.00812000  0.68654000  0.79212000  1.0 0.0908283901
H  H178  1  0.68654000  0.00812000  0.51322000  1.0 0.0908283901
H  H179  1  0.79212000  0.51322000  0.00812000  1.0 0.0908283901
H  H180  1  0.51322000  0.79212000  0.68654000  1.0 0.0908283901
H  H181  1  0.79212000  0.00812000  0.68654000  1.0 0.0908283901
H  H182  1  0.51322000  0.68654000  0.00812000  1.0 0.0908283901
H  H183  1  0.00812000  0.79212000  0.51322000  1.0 0.0908283901
H  H184  1  0.68654000  0.51322000  0.79212000  1.0 0.0908283901
H  H185  1  0.68654000  0.79212000  0.00812000  1.0 0.0908283901
H  H186  1  0.00812000  0.51322000  0.68654000  1.0 0.0908283901
H  H187  1  0.51322000  0.00812000  0.79212000  1.0 0.0908283901
H  H188  1  0.79212000  0.68654000  0.51322000  1.0 0.0908283901
H  H189  1  0.24188000  0.56346000  0.73678000  1.0 0.0908283901
H  H190  1  0.56346000  0.24188000  0.45788000  1.0 0.0908283901
H  H191  1  0.45788000  0.73678000  0.56346000  1.0 0.0908283901
H  H192  1  0.73678000  0.45788000  0.24188000  1.0 0.0908283901
H  H193  1  0.45788000  0.24188000  0.73678000  1.0 0.0908283901
H  H194  1  0.73678000  0.56346000  0.45788000  1.0 0.0908283901
H  H195  1  0.24188000  0.45788000  0.56346000  1.0 0.0908283901
H  H196  1  0.56346000  0.73678000  0.24188000  1.0 0.0908283901
H  H197  1  0.56346000  0.45788000  0.73678000  1.0 0.0908283901
H  H198  1  0.24188000  0.73678000  0.45788000  1.0 0.0908283901
H  H199  1  0.73678000  0.24188000  0.56346000  1.0 0.0908283901
H  H200  1  0.45788000  0.56346000  0.24188000  1.0 0.0908283901
H  H201  1  0.24188000  0.56346000  0.45788000  1.0 0.0908283901
H  H202  1  0.56346000  0.24188000  0.73678000  1.0 0.0908283901
H  H203  1  0.45788000  0.73678000  0.24188000  1.0 0.0908283901
H  H204  1  0.73678000  0.45788000  0.56346000  1.0 0.0908283901
H  H205  1  0.45788000  0.24188000  0.56346000  1.0 0.0908283901
H  H206  1  0.73678000  0.56346000  0.24188000  1.0 0.0908283901
H  H207  1  0.24188000  0.45788000  0.73678000  1.0 0.0908283901
H  H208  1  0.56346000  0.73678000  0.45788000  1.0 0.0908283901
H  H209  1  0.56346000  0.45788000  0.24188000  1.0 0.0908283901
H  H210  1  0.24188000  0.73678000  0.56346000  1.0 0.0908283901
H  H211  1  0.73678000  0.24188000  0.45788000  1.0 0.0908283901
H  H212  1  0.45788000  0.56346000  0.73678000  1.0 0.0908283901
H  H213  1  0.00812000  0.68654000  0.51322000  1.0 0.0908283901
H  H214  1  0.68654000  0.00812000  0.79212000  1.0 0.0908283901
H  H215  1  0.79212000  0.51322000  0.68654000  1.0 0.0908283901
H  H216  1  0.51322000  0.79212000  0.00812000  1.0 0.0908283901
H  H217  1  0.79212000  0.00812000  0.51322000  1.0 0.0908283901
H  H218  1  0.51322000  0.68654000  0.79212000  1.0 0.0908283901
H  H219  1  0.00812000  0.79212000  0.68654000  1.0 0.0908283901
H  H220  1  0.68654000  0.51322000  0.00812000  1.0 0.0908283901
H  H221  1  0.68654000  0.79212000  0.51322000  1.0 0.0908283901
H  H222  1  0.00812000  0.51322000  0.79212000  1.0 0.0908283901
H  H223  1  0.51322000  0.00812000  0.68654000  1.0 0.0908283901
H  H224  1  0.79212000  0.68654000  0.00812000  1.0 0.0908283901
H  H225  1  0.12045000  0.60533000  0.76605000  1.0 0.1112148273
H  H226  1  0.60533000  0.12045000  0.50817000  1.0 0.1112148273
H  H227  1  0.76605000  0.50817000  0.12045000  1.0 0.1112148273
H  H228  1  0.50817000  0.76605000  0.60533000  1.0 0.1112148273
H  H229  1  0.76605000  0.12045000  0.60533000  1.0 0.1112148273
H  H230  1  0.50817000  0.60533000  0.12045000  1.0 0.1112148273
H  H231  1  0.12045000  0.76605000  0.50817000  1.0 0.1112148273
H  H232  1  0.60533000  0.50817000  0.76605000  1.0 0.1112148273
H  H233  1  0.60533000  0.76605000  0.12045000  1.0 0.1112148273
H  H234  1  0.12045000  0.50817000  0.60533000  1.0 0.1112148273
H  H235  1  0.50817000  0.12045000  0.76605000  1.0 0.1112148273
H  H236  1  0.76605000  0.60533000  0.50817000  1.0 0.1112148273
H  H237  1  0.12955000  0.64467000  0.74183000  1.0 0.1112148273
H  H238  1  0.64467000  0.12955000  0.48395000  1.0 0.1112148273
H  H239  1  0.48395000  0.74183000  0.64467000  1.0 0.1112148273
H  H240  1  0.74183000  0.48395000  0.12955000  1.0 0.1112148273
H  H241  1  0.48395000  0.12955000  0.74183000  1.0 0.1112148273
H  H242  1  0.74183000  0.64467000  0.48395000  1.0 0.1112148273
H  H243  1  0.12955000  0.48395000  0.64467000  1.0 0.1112148273
H  H244  1  0.64467000  0.74183000  0.12955000  1.0 0.1112148273
H  H245  1  0.64467000  0.48395000  0.74183000  1.0 0.1112148273
H  H246  1  0.12955000  0.74183000  0.48395000  1.0 0.1112148273
H  H247  1  0.74183000  0.12955000  0.64467000  1.0 0.1112148273
H  H248  1  0.48395000  0.64467000  0.12955000  1.0 0.1112148273
H  H249  1  0.12955000  0.64467000  0.48395000  1.0 0.1112148273
H  H250  1  0.64467000  0.12955000  0.74183000  1.0 0.1112148273
H  H251  1  0.48395000  0.74183000  0.12955000  1.0 0.1112148273
H  H252  1  0.74183000  0.48395000  0.64467000  1.0 0.1112148273
H  H253  1  0.48395000  0.12955000  0.64467000  1.0 0.1112148273
H  H254  1  0.74183000  0.64467000  0.12955000  1.0 0.1112148273
H  H255  1  0.12955000  0.48395000  0.74183000  1.0 0.1112148273
H  H256  1  0.64467000  0.74183000  0.48395000  1.0 0.1112148273
H  H257  1  0.64467000  0.48395000  0.12955000  1.0 0.1112148273
H  H258  1  0.12955000  0.74183000  0.64467000  1.0 0.1112148273
H  H259  1  0.74183000  0.12955000  0.48395000  1.0 0.1112148273
H  H260  1  0.48395000  0.64467000  0.74183000  1.0 0.1112148273
H  H261  1  0.12045000  0.60533000  0.50817000  1.0 0.1112148273
H  H262  1  0.60533000  0.12045000  0.76605000  1.0 0.1112148273
H  H263  1  0.76605000  0.50817000  0.60533000  1.0 0.1112148273
H  H264  1  0.50817000  0.76605000  0.12045000  1.0 0.1112148273
H  H265  1  0.76605000  0.12045000  0.50817000  1.0 0.1112148273
H  H266  1  0.50817000  0.60533000  0.76605000  1.0 0.1112148273
H  H267  1  0.12045000  0.76605000  0.60533000  1.0 0.1112148273
H  H268  1  0.60533000  0.50817000  0.12045000  1.0 0.1112148273
H  H269  1  0.60533000  0.76605000  0.50817000  1.0 0.1112148273
H  H270  1  0.12045000  0.50817000  0.76605000  1.0 0.1112148273
H  H271  1  0.50817000  0.12045000  0.60533000  1.0 0.1112148273
H  H272  1  0.76605000  0.60533000  0.12045000  1.0 0.1112148273
H  H273  1  0.11244000  0.60806000  0.71144000  1.0 0.0908283901
H  H274  1  0.60806000  0.11244000  0.56806000  1.0 0.0908283901
H  H275  1  0.71144000  0.56806000  0.11244000  1.0 0.0908283901
H  H276  1  0.56806000  0.71144000  0.60806000  1.0 0.0908283901
H  H277  1  0.71144000  0.11244000  0.60806000  1.0 0.0908283901
H  H278  1  0.56806000  0.60806000  0.11244000  1.0 0.0908283901
H  H279  1  0.11244000  0.71144000  0.56806000  1.0 0.0908283901
H  H280  1  0.60806000  0.56806000  0.71144000  1.0 0.0908283901
H  H281  1  0.60806000  0.71144000  0.11244000  1.0 0.0908283901
H  H282  1  0.11244000  0.56806000  0.60806000  1.0 0.0908283901
H  H283  1  0.56806000  0.11244000  0.71144000  1.0 0.0908283901
H  H284  1  0.71144000  0.60806000  0.56806000  1.0 0.0908283901
H  H285  1  0.13756000  0.64194000  0.68194000  1.0 0.0908283901
H  H286  1  0.64194000  0.13756000  0.53856000  1.0 0.0908283901
H  H287  1  0.53856000  0.68194000  0.64194000  1.0 0.0908283901
H  H288  1  0.68194000  0.53856000  0.13756000  1.0 0.0908283901
H  H289  1  0.53856000  0.13756000  0.68194000  1.0 0.0908283901
H  H290  1  0.68194000  0.64194000  0.53856000  1.0 0.0908283901
H  H291  1  0.13756000  0.53856000  0.64194000  1.0 0.0908283901
H  H292  1  0.64194000  0.68194000  0.13756000  1.0 0.0908283901
H  H293  1  0.64194000  0.53856000  0.68194000  1.0 0.0908283901
H  H294  1  0.13756000  0.68194000  0.53856000  1.0 0.0908283901
H  H295  1  0.68194000  0.13756000  0.64194000  1.0 0.0908283901
H  H296  1  0.53856000  0.64194000  0.13756000  1.0 0.0908283901
H  H297  1  0.13756000  0.64194000  0.53856000  1.0 0.0908283901
H  H298  1  0.64194000  0.13756000  0.68194000  1.0 0.0908283901
H  H299  1  0.53856000  0.68194000  0.13756000  1.0 0.0908283901
H  H300  1  0.68194000  0.53856000  0.64194000  1.0 0.0908283901
H  H301  1  0.53856000  0.13756000  0.64194000  1.0 0.0908283901
H  H302  1  0.68194000  0.64194000  0.13756000  1.0 0.0908283901
H  H303  1  0.13756000  0.53856000  0.68194000  1.0 0.0908283901
H  H304  1  0.64194000  0.68194000  0.53856000  1.0 0.0908283901
H  H305  1  0.64194000  0.53856000  0.13756000  1.0 0.0908283901
H  H306  1  0.13756000  0.68194000  0.64194000  1.0 0.0908283901
H  H307  1  0.68194000  0.13756000  0.53856000  1.0 0.0908283901
H  H308  1  0.53856000  0.64194000  0.68194000  1.0 0.0908283901
H  H309  1  0.11244000  0.60806000  0.56806000  1.0 0.0908283901
H  H310  1  0.60806000  0.11244000  0.71144000  1.0 0.0908283901
H  H311  1  0.71144000  0.56806000  0.60806000  1.0 0.0908283901
H  H312  1  0.56806000  0.71144000  0.11244000  1.0 0.0908283901
H  H313  1  0.71144000  0.11244000  0.56806000  1.0 0.0908283901
H  H314  1  0.56806000  0.60806000  0.71144000  1.0 0.0908283901
H  H315  1  0.11244000  0.71144000  0.60806000  1.0 0.0908283901
H  H316  1  0.60806000  0.56806000  0.11244000  1.0 0.0908283901
H  H317  1  0.60806000  0.71144000  0.56806000  1.0 0.0908283901
H  H318  1  0.11244000  0.56806000  0.71144000  1.0 0.0908283901
H  H319  1  0.56806000  0.11244000  0.60806000  1.0 0.0908283901
H  H320  1  0.71144000  0.60806000  0.11244000  1.0 0.0908283901
H  H321  1  0.01843000  0.63955000  0.86137000  1.0 0.0989723343
H  H322  1  0.63955000  0.01843000  0.48065000  1.0 0.0989723343
H  H323  1  0.86137000  0.48065000  0.01843000  1.0 0.0989723343
H  H324  1  0.48065000  0.86137000  0.63955000  1.0 0.0989723343
H  H325  1  0.86137000  0.01843000  0.63955000  1.0 0.0989723343
H  H326  1  0.48065000  0.63955000  0.01843000  1.0 0.0989723343
H  H327  1  0.01843000  0.86137000  0.48065000  1.0 0.0989723343
H  H328  1  0.63955000  0.48065000  0.86137000  1.0 0.0989723343
H  H329  1  0.63955000  0.86137000  0.01843000  1.0 0.0989723343
H  H330  1  0.01843000  0.48065000  0.63955000  1.0 0.0989723343
H  H331  1  0.48065000  0.01843000  0.86137000  1.0 0.0989723343
H  H332  1  0.86137000  0.63955000  0.48065000  1.0 0.0989723343
H  H333  1  0.23157000  0.61045000  0.76935000  1.0 0.0989723343
H  H334  1  0.61045000  0.23157000  0.38863000  1.0 0.0989723343
H  H335  1  0.38863000  0.76935000  0.61045000  1.0 0.0989723343
H  H336  1  0.76935000  0.38863000  0.23157000  1.0 0.0989723343
H  H337  1  0.38863000  0.23157000  0.76935000  1.0 0.0989723343
H  H338  1  0.76935000  0.61045000  0.38863000  1.0 0.0989723343
H  H339  1  0.23157000  0.38863000  0.61045000  1.0 0.0989723343
H  H340  1  0.61045000  0.76935000  0.23157000  1.0 0.0989723343
H  H341  1  0.61045000  0.38863000  0.76935000  1.0 0.0989723343
H  H342  1  0.23157000  0.76935000  0.38863000  1.0 0.0989723343
H  H343  1  0.76935000  0.23157000  0.61045000  1.0 0.0989723343
H  H344  1  0.38863000  0.61045000  0.23157000  1.0 0.0989723343
H  H345  1  0.23157000  0.61045000  0.38863000  1.0 0.0989723343
H  H346  1  0.61045000  0.23157000  0.76935000  1.0 0.0989723343
H  H347  1  0.38863000  0.76935000  0.23157000  1.0 0.0989723343
H  H348  1  0.76935000  0.38863000  0.61045000  1.0 0.0989723343
H  H349  1  0.38863000  0.23157000  0.61045000  1.0 0.0989723343
H  H350  1  0.76935000  0.61045000  0.23157000  1.0 0.0989723343
H  H351  1  0.23157000  0.38863000  0.76935000  1.0 0.0989723343
H  H352  1  0.61045000  0.76935000  0.38863000  1.0 0.0989723343
H  H353  1  0.61045000  0.38863000  0.23157000  1.0 0.0989723343
H  H354  1  0.23157000  0.76935000  0.61045000  1.0 0.0989723343
H  H355  1  0.76935000  0.23157000  0.38863000  1.0 0.0989723343
H  H356  1  0.38863000  0.61045000  0.76935000  1.0 0.0989723343
H  H357  1  0.01843000  0.63955000  0.48065000  1.0 0.0989723343
H  H358  1  0.63955000  0.01843000  0.86137000  1.0 0.0989723343
H  H359  1  0.86137000  0.48065000  0.63955000  1.0 0.0989723343
H  H360  1  0.48065000  0.86137000  0.01843000  1.0 0.0989723343
H  H361  1  0.86137000  0.01843000  0.48065000  1.0 0.0989723343
H  H362  1  0.48065000  0.63955000  0.86137000  1.0 0.0989723343
H  H363  1  0.01843000  0.86137000  0.63955000  1.0 0.0989723343
H  H364  1  0.63955000  0.48065000  0.01843000  1.0 0.0989723343
H  H365  1  0.63955000  0.86137000  0.48065000  1.0 0.0989723343
H  H366  1  0.01843000  0.48065000  0.86137000  1.0 0.0989723343
H  H367  1  0.48065000  0.01843000  0.63955000  1.0 0.0989723343
H  H368  1  0.86137000  0.63955000  0.01843000  1.0 0.0989723343
H  H369  1  0.03134000  0.63658000  0.91304000  1.0 0.119440015
H  H370  1  0.63658000  0.03134000  0.41904000  1.0 0.119440015
H  H371  1  0.91304000  0.41904000  0.03134000  1.0 0.119440015
H  H372  1  0.41904000  0.91304000  0.63658000  1.0 0.119440015
H  H373  1  0.91304000  0.03134000  0.63658000  1.0 0.119440015
H  H374  1  0.41904000  0.63658000  0.03134000  1.0 0.119440015
H  H375  1  0.03134000  0.91304000  0.41904000  1.0 0.119440015
H  H376  1  0.63658000  0.41904000  0.91304000  1.0 0.119440015
H  H377  1  0.63658000  0.91304000  0.03134000  1.0 0.119440015
H  H378  1  0.03134000  0.41904000  0.63658000  1.0 0.119440015
H  H379  1  0.41904000  0.03134000  0.91304000  1.0 0.119440015
H  H380  1  0.91304000  0.63658000  0.41904000  1.0 0.119440015
H  H381  1  0.21866000  0.61342000  0.83096000  1.0 0.119440015
H  H382  1  0.61342000  0.21866000  0.33696000  1.0 0.119440015
H  H383  1  0.33696000  0.83096000  0.61342000  1.0 0.119440015
H  H384  1  0.83096000  0.33696000  0.21866000  1.0 0.119440015
H  H385  1  0.33696000  0.21866000  0.83096000  1.0 0.119440015
H  H386  1  0.83096000  0.61342000  0.33696000  1.0 0.119440015
H  H387  1  0.21866000  0.33696000  0.61342000  1.0 0.119440015
H  H388  1  0.61342000  0.83096000  0.21866000  1.0 0.119440015
H  H389  1  0.61342000  0.33696000  0.83096000  1.0 0.119440015
H  H390  1  0.21866000  0.83096000  0.33696000  1.0 0.119440015
H  H391  1  0.83096000  0.21866000  0.61342000  1.0 0.119440015
H  H392  1  0.33696000  0.61342000  0.21866000  1.0 0.119440015
H  H393  1  0.21866000  0.61342000  0.33696000  1.0 0.119440015
H  H394  1  0.61342000  0.21866000  0.83096000  1.0 0.119440015
H  H395  1  0.33696000  0.83096000  0.21866000  1.0 0.119440015
H  H396  1  0.83096000  0.33696000  0.61342000  1.0 0.119440015
H  H397  1  0.33696000  0.21866000  0.61342000  1.0 0.119440015
H  H398  1  0.83096000  0.61342000  0.21866000  1.0 0.119440015
H  H399  1  0.21866000  0.33696000  0.83096000  1.0 0.119440015
H  H400  1  0.61342000  0.83096000  0.33696000  1.0 0.119440015
H  H401  1  0.61342000  0.33696000  0.21866000  1.0 0.119440015
H  H402  1  0.21866000  0.83096000  0.61342000  1.0 0.119440015
H  H403  1  0.83096000  0.21866000  0.33696000  1.0 0.119440015
H  H404  1  0.33696000  0.61342000  0.83096000  1.0 0.119440015
H  H405  1  0.03134000  0.63658000  0.41904000  1.0 0.119440015
H  H406  1  0.63658000  0.03134000  0.91304000  1.0 0.119440015
H  H407  1  0.91304000  0.41904000  0.63658000  1.0 0.119440015
H  H408  1  0.41904000  0.91304000  0.03134000  1.0 0.119440015
H  H409  1  0.91304000  0.03134000  0.41904000  1.0 0.119440015
H  H410  1  0.41904000  0.63658000  0.91304000  1.0 0.119440015
H  H411  1  0.03134000  0.91304000  0.63658000  1.0 0.119440015
H  H412  1  0.63658000  0.41904000  0.03134000  1.0 0.119440015
H  H413  1  0.63658000  0.91304000  0.41904000  1.0 0.119440015
H  H414  1  0.03134000  0.41904000  0.91304000  1.0 0.119440015
H  H415  1  0.41904000  0.03134000  0.63658000  1.0 0.119440015
H  H416  1  0.91304000  0.63658000  0.03134000  1.0 0.119440015
H  H417  1  0.14109000  0.64647000  0.83571000  1.0 0.0820941113
H  H418  1  0.64647000  0.14109000  0.37673000  1.0 0.0820941113
H  H419  1  0.83571000  0.37673000  0.14109000  1.0 0.0820941113
H  H420  1  0.37673000  0.83571000  0.64647000  1.0 0.0820941113
H  H421  1  0.83571000  0.14109000  0.64647000  1.0 0.0820941113
H  H422  1  0.37673000  0.64647000  0.14109000  1.0 0.0820941113
H  H423  1  0.14109000  0.83571000  0.37673000  1.0 0.0820941113
H  H424  1  0.64647000  0.37673000  0.83571000  1.0 0.0820941113
H  H425  1  0.64647000  0.83571000  0.14109000  1.0 0.0820941113
H  H426  1  0.14109000  0.37673000  0.64647000  1.0 0.0820941113
H  H427  1  0.37673000  0.14109000  0.83571000  1.0 0.0820941113
H  H428  1  0.83571000  0.64647000  0.37673000  1.0 0.0820941113
H  H429  1  0.10891000  0.60353000  0.87327000  1.0 0.0820941113
H  H430  1  0.60353000  0.10891000  0.41429000  1.0 0.0820941113
H  H431  1  0.41429000  0.87327000  0.60353000  1.0 0.0820941113
H  H432  1  0.87327000  0.41429000  0.10891000  1.0 0.0820941113
H  H433  1  0.41429000  0.10891000  0.87327000  1.0 0.0820941113
H  H434  1  0.87327000  0.60353000  0.41429000  1.0 0.0820941113
H  H435  1  0.10891000  0.41429000  0.60353000  1.0 0.0820941113
H  H436  1  0.60353000  0.87327000  0.10891000  1.0 0.0820941113
H  H437  1  0.60353000  0.41429000  0.87327000  1.0 0.0820941113
H  H438  1  0.10891000  0.87327000  0.41429000  1.0 0.0820941113
H  H439  1  0.87327000  0.10891000  0.60353000  1.0 0.0820941113
H  H440  1  0.41429000  0.60353000  0.10891000  1.0 0.0820941113
H  H441  1  0.10891000  0.60353000  0.41429000  1.0 0.0820941113
H  H442  1  0.60353000  0.10891000  0.87327000  1.0 0.0820941113
H  H443  1  0.41429000  0.87327000  0.10891000  1.0 0.0820941113
H  H444  1  0.87327000  0.41429000  0.60353000  1.0 0.0820941113
H  H445  1  0.41429000  0.10891000  0.60353000  1.0 0.0820941113
H  H446  1  0.87327000  0.60353000  0.10891000  1.0 0.0820941113
H  H447  1  0.10891000  0.41429000  0.87327000  1.0 0.0820941113
H  H448  1  0.60353000  0.87327000  0.41429000  1.0 0.0820941113
H  H449  1  0.60353000  0.41429000  0.10891000  1.0 0.0820941113
H  H450  1  0.10891000  0.87327000  0.60353000  1.0 0.0820941113
H  H451  1  0.87327000  0.10891000  0.41429000  1.0 0.0820941113
H  H452  1  0.41429000  0.60353000  0.87327000  1.0 0.0820941113
H  H453  1  0.14109000  0.64647000  0.37673000  1.0 0.0820941113
H  H454  1  0.64647000  0.14109000  0.83571000  1.0 0.0820941113
H  H455  1  0.83571000  0.37673000  0.64647000  1.0 0.0820941113
H  H456  1  0.37673000  0.83571000  0.14109000  1.0 0.0820941113
H  H457  1  0.83571000  0.14109000  0.37673000  1.0 0.0820941113
H  H458  1  0.37673000  0.64647000  0.83571000  1.0 0.0820941113
H  H459  1  0.14109000  0.83571000  0.64647000  1.0 0.0820941113
H  H460  1  0.64647000  0.37673000  0.14109000  1.0 0.0820941113
H  H461  1  0.64647000  0.83571000  0.37673000  1.0 0.0820941113
H  H462  1  0.14109000  0.37673000  0.83571000  1.0 0.0820941113
H  H463  1  0.37673000  0.14109000  0.64647000  1.0 0.0820941113
H  H464  1  0.83571000  0.64647000  0.14109000  1.0 0.0820941113
H  H465  1  0.12819000  0.64943000  0.78405000  1.0 0.0689119572
H  H466  1  0.64943000  0.12819000  0.43833000  1.0 0.0689119572
H  H467  1  0.78405000  0.43833000  0.12819000  1.0 0.0689119572
H  H468  1  0.43833000  0.78405000  0.64943000  1.0 0.0689119572
H  H469  1  0.78405000  0.12819000  0.64943000  1.0 0.0689119572
H  H470  1  0.43833000  0.64943000  0.12819000  1.0 0.0689119572
H  H471  1  0.12819000  0.78405000  0.43833000  1.0 0.0689119572
H  H472  1  0.64943000  0.43833000  0.78405000  1.0 0.0689119572
H  H473  1  0.64943000  0.78405000  0.12819000  1.0 0.0689119572
H  H474  1  0.12819000  0.43833000  0.64943000  1.0 0.0689119572
H  H475  1  0.43833000  0.12819000  0.78405000  1.0 0.0689119572
H  H476  1  0.78405000  0.64943000  0.43833000  1.0 0.0689119572
H  H477  1  0.12181000  0.60057000  0.81167000  1.0 0.0689119572
H  H478  1  0.60057000  0.12181000  0.46595000  1.0 0.0689119572
H  H479  1  0.46595000  0.81167000  0.60057000  1.0 0.0689119572
H  H480  1  0.81167000  0.46595000  0.12181000  1.0 0.0689119572
H  H481  1  0.46595000  0.12181000  0.81167000  1.0 0.0689119572
H  H482  1  0.81167000  0.60057000  0.46595000  1.0 0.0689119572
H  H483  1  0.12181000  0.46595000  0.60057000  1.0 0.0689119572
H  H484  1  0.60057000  0.81167000  0.12181000  1.0 0.0689119572
H  H485  1  0.60057000  0.46595000  0.81167000  1.0 0.0689119572
H  H486  1  0.12181000  0.81167000  0.46595000  1.0 0.0689119572
H  H487  1  0.81167000  0.12181000  0.60057000  1.0 0.0689119572
H  H488  1  0.46595000  0.60057000  0.12181000  1.0 0.0689119572
H  H489  1  0.12181000  0.60057000  0.46595000  1.0 0.0689119572
H  H490  1  0.60057000  0.12181000  0.81167000  1.0 0.0689119572
H  H491  1  0.46595000  0.81167000  0.12181000  1.0 0.0689119572
H  H492  1  0.81167000  0.46595000  0.60057000  1.0 0.0689119572
H  H493  1  0.46595000  0.12181000  0.60057000  1.0 0.0689119572
H  H494  1  0.81167000  0.60057000  0.12181000  1.0 0.0689119572
H  H495  1  0.12181000  0.46595000  0.81167000  1.0 0.0689119572
H  H496  1  0.60057000  0.81167000  0.46595000  1.0 0.0689119572
H  H497  1  0.60057000  0.46595000  0.12181000  1.0 0.0689119572
H  H498  1  0.12181000  0.81167000  0.60057000  1.0 0.0689119572
H  H499  1  0.81167000  0.12181000  0.46595000  1.0 0.0689119572
H  H500  1  0.46595000  0.60057000  0.81167000  1.0 0.0689119572
H  H501  1  0.12819000  0.64943000  0.43833000  1.0 0.0689119572
H  H502  1  0.64943000  0.12819000  0.78405000  1.0 0.0689119572
H  H503  1  0.78405000  0.43833000  0.64943000  1.0 0.0689119572
H  H504  1  0.43833000  0.78405000  0.12819000  1.0 0.0689119572
H  H505  1  0.78405000  0.12819000  0.43833000  1.0 0.0689119572
H  H506  1  0.43833000  0.64943000  0.78405000  1.0 0.0689119572
H  H507  1  0.12819000  0.78405000  0.64943000  1.0 0.0689119572
H  H508  1  0.64943000  0.43833000  0.12819000  1.0 0.0689119572
H  H509  1  0.64943000  0.78405000  0.43833000  1.0 0.0689119572
H  H510  1  0.12819000  0.43833000  0.78405000  1.0 0.0689119572
H  H511  1  0.43833000  0.12819000  0.64943000  1.0 0.0689119572
H  H512  1  0.78405000  0.64943000  0.12819000  1.0 0.0689119572
H  H513  1  0.07551000  0.59065000  0.95547000  1.0 0.0908283901
H  H514  1  0.59065000  0.07551000  0.37837000  1.0 0.0908283901
H  H515  1  0.95547000  0.37837000  0.07551000  1.0 0.0908283901
H  H516  1  0.37837000  0.95547000  0.59065000  1.0 0.0908283901
H  H517  1  0.95547000  0.07551000  0.59065000  1.0 0.0908283901
H  H518  1  0.37837000  0.59065000  0.07551000  1.0 0.0908283901
H  H519  1  0.07551000  0.95547000  0.37837000  1.0 0.0908283901
H  H520  1  0.59065000  0.37837000  0.95547000  1.0 0.0908283901
H  H521  1  0.59065000  0.95547000  0.07551000  1.0 0.0908283901
H  H522  1  0.07551000  0.37837000  0.59065000  1.0 0.0908283901
H  H523  1  0.37837000  0.07551000  0.95547000  1.0 0.0908283901
H  H524  1  0.95547000  0.59065000  0.37837000  1.0 0.0908283901
H  H525  1  0.17449000  0.65935000  0.87163000  1.0 0.0908283901
H  H526  1  0.65935000  0.17449000  0.29453000  1.0 0.0908283901
H  H527  1  0.29453000  0.87163000  0.65935000  1.0 0.0908283901
H  H528  1  0.87163000  0.29453000  0.17449000  1.0 0.0908283901
H  H529  1  0.29453000  0.17449000  0.87163000  1.0 0.0908283901
H  H530  1  0.87163000  0.65935000  0.29453000  1.0 0.0908283901
H  H531  1  0.17449000  0.29453000  0.65935000  1.0 0.0908283901
H  H532  1  0.65935000  0.87163000  0.17449000  1.0 0.0908283901
H  H533  1  0.65935000  0.29453000  0.87163000  1.0 0.0908283901
H  H534  1  0.17449000  0.87163000  0.29453000  1.0 0.0908283901
H  H535  1  0.87163000  0.17449000  0.65935000  1.0 0.0908283901
H  H536  1  0.29453000  0.65935000  0.17449000  1.0 0.0908283901
H  H537  1  0.17449000  0.65935000  0.29453000  1.0 0.0908283901
H  H538  1  0.65935000  0.17449000  0.87163000  1.0 0.0908283901
H  H539  1  0.29453000  0.87163000  0.17449000  1.0 0.0908283901
H  H540  1  0.87163000  0.29453000  0.65935000  1.0 0.0908283901
H  H541  1  0.29453000  0.17449000  0.65935000  1.0 0.0908283901
H  H542  1  0.87163000  0.65935000  0.17449000  1.0 0.0908283901
H  H543  1  0.17449000  0.29453000  0.87163000  1.0 0.0908283901
H  H544  1  0.65935000  0.87163000  0.29453000  1.0 0.0908283901
H  H545  1  0.65935000  0.29453000  0.17449000  1.0 0.0908283901
H  H546  1  0.17449000  0.87163000  0.65935000  1.0 0.0908283901
H  H547  1  0.87163000  0.17449000  0.29453000  1.0 0.0908283901
H  H548  1  0.29453000  0.65935000  0.87163000  1.0 0.0908283901
H  H549  1  0.07551000  0.59065000  0.37837000  1.0 0.0908283901
H  H550  1  0.59065000  0.07551000  0.95547000  1.0 0.0908283901
H  H551  1  0.95547000  0.37837000  0.59065000  1.0 0.0908283901
H  H552  1  0.37837000  0.95547000  0.07551000  1.0 0.0908283901
H  H553  1  0.95547000  0.07551000  0.37837000  1.0 0.0908283901
H  H554  1  0.37837000  0.59065000  0.95547000  1.0 0.0908283901
H  H555  1  0.07551000  0.95547000  0.59065000  1.0 0.0908283901
H  H556  1  0.59065000  0.37837000  0.07551000  1.0 0.0908283901
H  H557  1  0.59065000  0.95547000  0.37837000  1.0 0.0908283901
H  H558  1  0.07551000  0.37837000  0.95547000  1.0 0.0908283901
H  H559  1  0.37837000  0.07551000  0.59065000  1.0 0.0908283901
H  H560  1  0.95547000  0.59065000  0.07551000  1.0 0.0908283901
H  H561  1  0.08893000  0.58529000  0.00801000  1.0 0.1112148273
H  H562  1  0.58529000  0.08893000  0.31777000  1.0 0.1112148273
H  H563  1  0.00801000  0.31777000  0.08893000  1.0 0.1112148273
H  H564  1  0.31777000  0.00801000  0.58529000  1.0 0.1112148273
H  H565  1  0.00801000  0.08893000  0.58529000  1.0 0.1112148273
H  H566  1  0.31777000  0.58529000  0.08893000  1.0 0.1112148273
H  H567  1  0.08893000  0.00801000  0.31777000  1.0 0.1112148273
H  H568  1  0.58529000  0.31777000  0.00801000  1.0 0.1112148273
H  H569  1  0.58529000  0.00801000  0.08893000  1.0 0.1112148273
H  H570  1  0.08893000  0.31777000  0.58529000  1.0 0.1112148273
H  H571  1  0.31777000  0.08893000  0.00801000  1.0 0.1112148273
H  H572  1  0.00801000  0.58529000  0.31777000  1.0 0.1112148273
H  H573  1  0.16107000  0.66471000  0.93223000  1.0 0.1112148273
H  H574  1  0.66471000  0.16107000  0.24199000  1.0 0.1112148273
H  H575  1  0.24199000  0.93223000  0.66471000  1.0 0.1112148273
H  H576  1  0.93223000  0.24199000  0.16107000  1.0 0.1112148273
H  H577  1  0.24199000  0.16107000  0.93223000  1.0 0.1112148273
H  H578  1  0.93223000  0.66471000  0.24199000  1.0 0.1112148273
H  H579  1  0.16107000  0.24199000  0.66471000  1.0 0.1112148273
H  H580  1  0.66471000  0.93223000  0.16107000  1.0 0.1112148273
H  H581  1  0.66471000  0.24199000  0.93223000  1.0 0.1112148273
H  H582  1  0.16107000  0.93223000  0.24199000  1.0 0.1112148273
H  H583  1  0.93223000  0.16107000  0.66471000  1.0 0.1112148273
H  H584  1  0.24199000  0.66471000  0.16107000  1.0 0.1112148273
H  H585  1  0.16107000  0.66471000  0.24199000  1.0 0.1112148273
H  H586  1  0.66471000  0.16107000  0.93223000  1.0 0.1112148273
H  H587  1  0.24199000  0.93223000  0.16107000  1.0 0.1112148273
H  H588  1  0.93223000  0.24199000  0.66471000  1.0 0.1112148273
H  H589  1  0.24199000  0.16107000  0.66471000  1.0 0.1112148273
H  H590  1  0.93223000  0.66471000  0.16107000  1.0 0.1112148273
H  H591  1  0.16107000  0.24199000  0.93223000  1.0 0.1112148273
H  H592  1  0.66471000  0.93223000  0.24199000  1.0 0.1112148273
H  H593  1  0.66471000  0.24199000  0.16107000  1.0 0.1112148273
H  H594  1  0.16107000  0.93223000  0.66471000  1.0 0.1112148273
H  H595  1  0.93223000  0.16107000  0.24199000  1.0 0.1112148273
H  H596  1  0.24199000  0.66471000  0.93223000  1.0 0.1112148273
H  H597  1  0.08893000  0.58529000  0.31777000  1.0 0.1112148273
H  H598  1  0.58529000  0.08893000  0.00801000  1.0 0.1112148273
H  H599  1  0.00801000  0.31777000  0.58529000  1.0 0.1112148273
H  H600  1  0.31777000  0.00801000  0.08893000  1.0 0.1112148273
H  H601  1  0.00801000  0.08893000  0.31777000  1.0 0.1112148273
H  H602  1  0.31777000  0.58529000  0.00801000  1.0 0.1112148273
H  H603  1  0.08893000  0.00801000  0.58529000  1.0 0.1112148273
H  H604  1  0.58529000  0.31777000  0.08893000  1.0 0.1112148273
H  H605  1  0.58529000  0.00801000  0.31777000  1.0 0.1112148273
H  H606  1  0.08893000  0.31777000  0.00801000  1.0 0.1112148273
H  H607  1  0.31777000  0.08893000  0.58529000  1.0 0.1112148273
H  H608  1  0.00801000  0.58529000  0.08893000  1.0 0.1112148273
H  H609  1  0.13520000  0.67628000  0.93332000  1.0 0.1112148273
H  H610  1  0.67628000  0.13520000  0.25520000  1.0 0.1112148273
H  H611  1  0.93332000  0.25520000  0.13520000  1.0 0.1112148273
H  H612  1  0.25520000  0.93332000  0.67628000  1.0 0.1112148273
H  H613  1  0.93332000  0.13520000  0.67628000  1.0 0.1112148273
H  H614  1  0.25520000  0.67628000  0.13520000  1.0 0.1112148273
H  H615  1  0.13520000  0.93332000  0.25520000  1.0 0.1112148273
H  H616  1  0.67628000  0.25520000  0.93332000  1.0 0.1112148273
H  H617  1  0.67628000  0.93332000  0.13520000  1.0 0.1112148273
H  H618  1  0.13520000  0.25520000  0.67628000  1.0 0.1112148273
H  H619  1  0.25520000  0.13520000  0.93332000  1.0 0.1112148273
H  H620  1  0.93332000  0.67628000  0.25520000  1.0 0.1112148273
H  H621  1  0.11480000  0.57372000  0.99480000  1.0 0.1112148273
H  H622  1  0.57372000  0.11480000  0.31668000  1.0 0.1112148273
H  H623  1  0.31668000  0.99480000  0.57372000  1.0 0.1112148273
H  H624  1  0.99480000  0.31668000  0.11480000  1.0 0.1112148273
H  H625  1  0.31668000  0.11480000  0.99480000  1.0 0.1112148273
H  H626  1  0.99480000  0.57372000  0.31668000  1.0 0.1112148273
H  H627  1  0.11480000  0.31668000  0.57372000  1.0 0.1112148273
H  H628  1  0.57372000  0.99480000  0.11480000  1.0 0.1112148273
H  H629  1  0.57372000  0.31668000  0.99480000  1.0 0.1112148273
H  H630  1  0.11480000  0.99480000  0.31668000  1.0 0.1112148273
H  H631  1  0.99480000  0.11480000  0.57372000  1.0 0.1112148273
H  H632  1  0.31668000  0.57372000  0.11480000  1.0 0.1112148273
H  H633  1  0.11480000  0.57372000  0.31668000  1.0 0.1112148273
H  H634  1  0.57372000  0.11480000  0.99480000  1.0 0.1112148273
H  H635  1  0.31668000  0.99480000  0.11480000  1.0 0.1112148273
H  H636  1  0.99480000  0.31668000  0.57372000  1.0 0.1112148273
H  H637  1  0.31668000  0.11480000  0.57372000  1.0 0.1112148273
H  H638  1  0.99480000  0.57372000  0.11480000  1.0 0.1112148273
H  H639  1  0.11480000  0.31668000  0.99480000  1.0 0.1112148273
H  H640  1  0.57372000  0.99480000  0.31668000  1.0 0.1112148273
H  H641  1  0.57372000  0.31668000  0.11480000  1.0 0.1112148273
H  H642  1  0.11480000  0.99480000  0.57372000  1.0 0.1112148273
H  H643  1  0.99480000  0.11480000  0.31668000  1.0 0.1112148273
H  H644  1  0.31668000  0.57372000  0.99480000  1.0 0.1112148273
H  H645  1  0.13520000  0.67628000  0.25520000  1.0 0.1112148273
H  H646  1  0.67628000  0.13520000  0.93332000  1.0 0.1112148273
H  H647  1  0.93332000  0.25520000  0.67628000  1.0 0.1112148273
H  H648  1  0.25520000  0.93332000  0.13520000  1.0 0.1112148273
H  H649  1  0.93332000  0.13520000  0.25520000  1.0 0.1112148273
H  H650  1  0.25520000  0.67628000  0.93332000  1.0 0.1112148273
H  H651  1  0.13520000  0.93332000  0.67628000  1.0 0.1112148273
H  H652  1  0.67628000  0.25520000  0.13520000  1.0 0.1112148273
H  H653  1  0.67628000  0.93332000  0.25520000  1.0 0.1112148273
H  H654  1  0.13520000  0.25520000  0.93332000  1.0 0.1112148273
H  H655  1  0.25520000  0.13520000  0.67628000  1.0 0.1112148273
H  H656  1  0.93332000  0.67628000  0.13520000  1.0 0.1112148273
H  H657  1  0.12179000  0.68165000  0.88077000  1.0 0.0908283901
H  H658  1  0.68165000  0.12179000  0.31579000  1.0 0.0908283901
H  H659  1  0.88077000  0.31579000  0.12179000  1.0 0.0908283901
H  H660  1  0.31579000  0.88077000  0.68165000  1.0 0.0908283901
H  H661  1  0.88077000  0.12179000  0.68165000  1.0 0.0908283901
H  H662  1  0.31579000  0.68165000  0.12179000  1.0 0.0908283901
H  H663  1  0.12179000  0.88077000  0.31579000  1.0 0.0908283901
H  H664  1  0.68165000  0.31579000  0.88077000  1.0 0.0908283901
H  H665  1  0.68165000  0.88077000  0.12179000  1.0 0.0908283901
H  H666  1  0.12179000  0.31579000  0.68165000  1.0 0.0908283901
H  H667  1  0.31579000  0.12179000  0.88077000  1.0 0.0908283901
H  H668  1  0.88077000  0.68165000  0.31579000  1.0 0.0908283901
H  H669  1  0.12821000  0.56835000  0.93421000  1.0 0.0908283901
H  H670  1  0.56835000  0.12821000  0.36923000  1.0 0.0908283901
H  H671  1  0.36923000  0.93421000  0.56835000  1.0 0.0908283901
H  H672  1  0.93421000  0.36923000  0.12821000  1.0 0.0908283901
H  H673  1  0.36923000  0.12821000  0.93421000  1.0 0.0908283901
H  H674  1  0.93421000  0.56835000  0.36923000  1.0 0.0908283901
H  H675  1  0.12821000  0.36923000  0.56835000  1.0 0.0908283901
H  H676  1  0.56835000  0.93421000  0.12821000  1.0 0.0908283901
H  H677  1  0.56835000  0.36923000  0.93421000  1.0 0.0908283901
H  H678  1  0.12821000  0.93421000  0.36923000  1.0 0.0908283901
H  H679  1  0.93421000  0.12821000  0.56835000  1.0 0.0908283901
H  H680  1  0.36923000  0.56835000  0.12821000  1.0 0.0908283901
H  H681  1  0.12821000  0.56835000  0.36923000  1.0 0.0908283901
H  H682  1  0.56835000  0.12821000  0.93421000  1.0 0.0908283901
H  H683  1  0.36923000  0.93421000  0.12821000  1.0 0.0908283901
H  H684  1  0.93421000  0.36923000  0.56835000  1.0 0.0908283901
H  H685  1  0.36923000  0.12821000  0.56835000  1.0 0.0908283901
H  H686  1  0.93421000  0.56835000  0.12821000  1.0 0.0908283901
H  H687  1  0.12821000  0.36923000  0.93421000  1.0 0.0908283901
H  H688  1  0.56835000  0.93421000  0.36923000  1.0 0.0908283901
H  H689  1  0.56835000  0.36923000  0.12821000  1.0 0.0908283901
H  H690  1  0.12821000  0.93421000  0.56835000  1.0 0.0908283901
H  H691  1  0.93421000  0.12821000  0.36923000  1.0 0.0908283901
H  H692  1  0.36923000  0.56835000  0.93421000  1.0 0.0908283901
H  H693  1  0.12179000  0.68165000  0.31579000  1.0 0.0908283901
H  H694  1  0.68165000  0.12179000  0.88077000  1.0 0.0908283901
H  H695  1  0.88077000  0.31579000  0.68165000  1.0 0.0908283901
H  H696  1  0.31579000  0.88077000  0.12179000  1.0 0.0908283901
H  H697  1  0.88077000  0.12179000  0.31579000  1.0 0.0908283901
H  H698  1  0.31579000  0.68165000  0.88077000  1.0 0.0908283901
H  H699  1  0.12179000  0.88077000  0.68165000  1.0 0.0908283901
H  H700  1  0.68165000  0.31579000  0.12179000  1.0 0.0908283901
H  H701  1  0.68165000  0.88077000  0.31579000  1.0 0.0908283901
H  H702  1  0.12179000  0.31579000  0.88077000  1.0 0.0908283901
H  H703  1  0.31579000  0.12179000  0.68165000  1.0 0.0908283901
H  H704  1  0.88077000  0.68165000  0.12179000  1.0 0.0908283901
H  H705  1  0.10059000  0.58367000  0.83641000  1.0 0.0624581155
H  H706  1  0.58367000  0.10059000  0.47933000  1.0 0.0624581155
H  H707  1  0.83641000  0.47933000  0.10059000  1.0 0.0624581155
H  H708  1  0.47933000  0.83641000  0.58367000  1.0 0.0624581155
H  H709  1  0.83641000  0.10059000  0.58367000  1.0 0.0624581155
H  H710  1  0.47933000  0.58367000  0.10059000  1.0 0.0624581155
H  H711  1  0.10059000  0.83641000  0.47933000  1.0 0.0624581155
H  H712  1  0.58367000  0.47933000  0.83641000  1.0 0.0624581155
H  H713  1  0.58367000  0.83641000  0.10059000  1.0 0.0624581155
H  H714  1  0.10059000  0.47933000  0.58367000  1.0 0.0624581155
H  H715  1  0.47933000  0.10059000  0.83641000  1.0 0.0624581155
H  H716  1  0.83641000  0.58367000  0.47933000  1.0 0.0624581155
H  H717  1  0.14941000  0.66633000  0.77067000  1.0 0.0624581155
H  H718  1  0.66633000  0.14941000  0.41359000  1.0 0.0624581155
H  H719  1  0.41359000  0.77067000  0.66633000  1.0 0.0624581155
H  H720  1  0.77067000  0.41359000  0.14941000  1.0 0.0624581155
H  H721  1  0.41359000  0.14941000  0.77067000  1.0 0.0624581155
H  H722  1  0.77067000  0.66633000  0.41359000  1.0 0.0624581155
H  H723  1  0.14941000  0.41359000  0.66633000  1.0 0.0624581155
H  H724  1  0.66633000  0.77067000  0.14941000  1.0 0.0624581155
H  H725  1  0.66633000  0.41359000  0.77067000  1.0 0.0624581155
H  H726  1  0.14941000  0.77067000  0.41359000  1.0 0.0624581155
H  H727  1  0.77067000  0.14941000  0.66633000  1.0 0.0624581155
H  H728  1  0.41359000  0.66633000  0.14941000  1.0 0.0624581155
H  H729  1  0.14941000  0.66633000  0.41359000  1.0 0.0624581155
H  H730  1  0.66633000  0.14941000  0.77067000  1.0 0.0624581155
H  H731  1  0.41359000  0.77067000  0.14941000  1.0 0.0624581155
H  H732  1  0.77067000  0.41359000  0.66633000  1.0 0.0624581155
H  H733  1  0.41359000  0.14941000  0.66633000  1.0 0.0624581155
H  H734  1  0.77067000  0.66633000  0.14941000  1.0 0.0624581155
H  H735  1  0.14941000  0.41359000  0.77067000  1.0 0.0624581155
H  H736  1  0.66633000  0.77067000  0.41359000  1.0 0.0624581155
H  H737  1  0.66633000  0.41359000  0.14941000  1.0 0.0624581155
H  H738  1  0.14941000  0.77067000  0.66633000  1.0 0.0624581155
H  H739  1  0.77067000  0.14941000  0.41359000  1.0 0.0624581155
H  H740  1  0.41359000  0.66633000  0.77067000  1.0 0.0624581155
H  H741  1  0.10059000  0.58367000  0.47933000  1.0 0.0624581155
H  H742  1  0.58367000  0.10059000  0.83641000  1.0 0.0624581155
H  H743  1  0.83641000  0.47933000  0.58367000  1.0 0.0624581155
H  H744  1  0.47933000  0.83641000  0.10059000  1.0 0.0624581155
H  H745  1  0.83641000  0.10059000  0.47933000  1.0 0.0624581155
H  H746  1  0.47933000  0.58367000  0.83641000  1.0 0.0624581155
H  H747  1  0.10059000  0.83641000  0.58367000  1.0 0.0624581155
H  H748  1  0.58367000  0.47933000  0.10059000  1.0 0.0624581155
H  H749  1  0.58367000  0.83641000  0.47933000  1.0 0.0624581155
H  H750  1  0.10059000  0.47933000  0.83641000  1.0 0.0624581155
H  H751  1  0.47933000  0.10059000  0.58367000  1.0 0.0624581155
H  H752  1  0.83641000  0.58367000  0.10059000  1.0 0.0624581155
H  H753  1  0.11347000  0.58079000  0.88819000  1.0 0.0820941113
H  H754  1  0.58079000  0.11347000  0.41755000  1.0 0.0820941113
H  H755  1  0.88819000  0.41755000  0.11347000  1.0 0.0820941113
H  H756  1  0.41755000  0.88819000  0.58079000  1.0 0.0820941113
H  H757  1  0.88819000  0.11347000  0.58079000  1.0 0.0820941113
H  H758  1  0.41755000  0.58079000  0.11347000  1.0 0.0820941113
H  H759  1  0.11347000  0.88819000  0.41755000  1.0 0.0820941113
H  H760  1  0.58079000  0.41755000  0.88819000  1.0 0.0820941113
H  H761  1  0.58079000  0.88819000  0.11347000  1.0 0.0820941113
H  H762  1  0.11347000  0.41755000  0.58079000  1.0 0.0820941113
H  H763  1  0.41755000  0.11347000  0.88819000  1.0 0.0820941113
H  H764  1  0.88819000  0.58079000  0.41755000  1.0 0.0820941113
H  H765  1  0.13653000  0.66921000  0.83245000  1.0 0.0820941113
H  H766  1  0.66921000  0.13653000  0.36181000  1.0 0.0820941113
H  H767  1  0.36181000  0.83245000  0.66921000  1.0 0.0820941113
H  H768  1  0.83245000  0.36181000  0.13653000  1.0 0.0820941113
H  H769  1  0.36181000  0.13653000  0.83245000  1.0 0.0820941113
H  H770  1  0.83245000  0.66921000  0.36181000  1.0 0.0820941113
H  H771  1  0.13653000  0.36181000  0.66921000  1.0 0.0820941113
H  H772  1  0.66921000  0.83245000  0.13653000  1.0 0.0820941113
H  H773  1  0.66921000  0.36181000  0.83245000  1.0 0.0820941113
H  H774  1  0.13653000  0.83245000  0.36181000  1.0 0.0820941113
H  H775  1  0.83245000  0.13653000  0.66921000  1.0 0.0820941113
H  H776  1  0.36181000  0.66921000  0.13653000  1.0 0.0820941113
H  H777  1  0.13653000  0.66921000  0.36181000  1.0 0.0820941113
H  H778  1  0.66921000  0.13653000  0.83245000  1.0 0.0820941113
H  H779  1  0.36181000  0.83245000  0.13653000  1.0 0.0820941113
H  H780  1  0.83245000  0.36181000  0.66921000  1.0 0.0820941113
H  H781  1  0.36181000  0.13653000  0.66921000  1.0 0.0820941113
H  H782  1  0.83245000  0.66921000  0.13653000  1.0 0.0820941113
H  H783  1  0.13653000  0.36181000  0.83245000  1.0 0.0820941113
H  H784  1  0.66921000  0.83245000  0.36181000  1.0 0.0820941113
H  H785  1  0.66921000  0.36181000  0.13653000  1.0 0.0820941113
H  H786  1  0.13653000  0.83245000  0.66921000  1.0 0.0820941113
H  H787  1  0.83245000  0.13653000  0.36181000  1.0 0.0820941113
H  H788  1  0.36181000  0.66921000  0.83245000  1.0 0.0820941113
H  H789  1  0.11347000  0.58079000  0.41755000  1.0 0.0820941113
H  H790  1  0.58079000  0.11347000  0.88819000  1.0 0.0820941113
H  H791  1  0.88819000  0.41755000  0.58079000  1.0 0.0820941113
H  H792  1  0.41755000  0.88819000  0.11347000  1.0 0.0820941113
H  H793  1  0.88819000  0.11347000  0.41755000  1.0 0.0820941113
H  H794  1  0.41755000  0.58079000  0.88819000  1.0 0.0820941113
H  H795  1  0.11347000  0.88819000  0.58079000  1.0 0.0820941113
H  H796  1  0.58079000  0.41755000  0.11347000  1.0 0.0820941113
H  H797  1  0.58079000  0.88819000  0.41755000  1.0 0.0820941113
H  H798  1  0.11347000  0.41755000  0.88819000  1.0 0.0820941113
H  H799  1  0.41755000  0.11347000  0.58079000  1.0 0.0820941113
H  H800  1  0.88819000  0.58079000  0.11347000  1.0 0.0820941113
H  H801  1  0.05959000  0.70233000  0.86049000  1.0 0.119440015
H  H802  1  0.70233000  0.05959000  0.37759000  1.0 0.119440015
H  H803  1  0.86049000  0.37759000  0.05959000  1.0 0.119440015
H  H804  1  0.37759000  0.86049000  0.70233000  1.0 0.119440015
H  H805  1  0.86049000  0.05959000  0.70233000  1.0 0.119440015
H  H806  1  0.37759000  0.70233000  0.05959000  1.0 0.119440015
H  H807  1  0.05959000  0.86049000  0.37759000  1.0 0.119440015
H  H808  1  0.70233000  0.37759000  0.86049000  1.0 0.119440015
H  H809  1  0.70233000  0.86049000  0.05959000  1.0 0.119440015
H  H810  1  0.05959000  0.37759000  0.70233000  1.0 0.119440015
H  H811  1  0.37759000  0.05959000  0.86049000  1.0 0.119440015
H  H812  1  0.86049000  0.70233000  0.37759000  1.0 0.119440015
H  H813  1  0.19041000  0.54767000  0.87241000  1.0 0.119440015
H  H814  1  0.54767000  0.19041000  0.38951000  1.0 0.119440015
H  H815  1  0.38951000  0.87241000  0.54767000  1.0 0.119440015
H  H816  1  0.87241000  0.38951000  0.19041000  1.0 0.119440015
H  H817  1  0.38951000  0.19041000  0.87241000  1.0 0.119440015
H  H818  1  0.87241000  0.54767000  0.38951000  1.0 0.119440015
H  H819  1  0.19041000  0.38951000  0.54767000  1.0 0.119440015
H  H820  1  0.54767000  0.87241000  0.19041000  1.0 0.119440015
H  H821  1  0.54767000  0.38951000  0.87241000  1.0 0.119440015
H  H822  1  0.19041000  0.87241000  0.38951000  1.0 0.119440015
H  H823  1  0.87241000  0.19041000  0.54767000  1.0 0.119440015
H  H824  1  0.38951000  0.54767000  0.19041000  1.0 0.119440015
H  H825  1  0.19041000  0.54767000  0.38951000  1.0 0.119440015
H  H826  1  0.54767000  0.19041000  0.87241000  1.0 0.119440015
H  H827  1  0.38951000  0.87241000  0.19041000  1.0 0.119440015
H  H828  1  0.87241000  0.38951000  0.54767000  1.0 0.119440015
H  H829  1  0.38951000  0.19041000  0.54767000  1.0 0.119440015
H  H830  1  0.87241000  0.54767000  0.19041000  1.0 0.119440015
H  H831  1  0.19041000  0.38951000  0.87241000  1.0 0.119440015
H  H832  1  0.54767000  0.87241000  0.38951000  1.0 0.119440015
H  H833  1  0.54767000  0.38951000  0.19041000  1.0 0.119440015
H  H834  1  0.19041000  0.87241000  0.54767000  1.0 0.119440015
H  H835  1  0.87241000  0.19041000  0.38951000  1.0 0.119440015
H  H836  1  0.38951000  0.54767000  0.87241000  1.0 0.119440015
H  H837  1  0.05959000  0.70233000  0.37759000  1.0 0.119440015
H  H838  1  0.70233000  0.05959000  0.86049000  1.0 0.119440015
H  H839  1  0.86049000  0.37759000  0.70233000  1.0 0.119440015
H  H840  1  0.37759000  0.86049000  0.05959000  1.0 0.119440015
H  H841  1  0.86049000  0.05959000  0.37759000  1.0 0.119440015
H  H842  1  0.37759000  0.70233000  0.86049000  1.0 0.119440015
H  H843  1  0.05959000  0.86049000  0.70233000  1.0 0.119440015
H  H844  1  0.70233000  0.37759000  0.05959000  1.0 0.119440015
H  H845  1  0.70233000  0.86049000  0.37759000  1.0 0.119440015
H  H846  1  0.05959000  0.37759000  0.86049000  1.0 0.119440015
H  H847  1  0.37759000  0.05959000  0.70233000  1.0 0.119440015
H  H848  1  0.86049000  0.70233000  0.05959000  1.0 0.119440015
H  H849  1  0.04592000  0.70482000  0.80952000  1.0 0.1112148273
H  H850  1  0.70482000  0.04592000  0.43974000  1.0 0.1112148273
H  H851  1  0.80952000  0.43974000  0.04592000  1.0 0.1112148273
H  H852  1  0.43974000  0.80952000  0.70482000  1.0 0.1112148273
H  H853  1  0.80952000  0.04592000  0.70482000  1.0 0.1112148273
H  H854  1  0.43974000  0.70482000  0.04592000  1.0 0.1112148273
H  H855  1  0.04592000  0.80952000  0.43974000  1.0 0.1112148273
H  H856  1  0.70482000  0.43974000  0.80952000  1.0 0.1112148273
H  H857  1  0.70482000  0.80952000  0.04592000  1.0 0.1112148273
H  H858  1  0.04592000  0.43974000  0.70482000  1.0 0.1112148273
H  H859  1  0.43974000  0.04592000  0.80952000  1.0 0.1112148273
H  H860  1  0.80952000  0.70482000  0.43974000  1.0 0.1112148273
H  H861  1  0.20408000  0.54518000  0.81026000  1.0 0.1112148273
H  H862  1  0.54518000  0.20408000  0.44048000  1.0 0.1112148273
H  H863  1  0.44048000  0.81026000  0.54518000  1.0 0.1112148273
H  H864  1  0.81026000  0.44048000  0.20408000  1.0 0.1112148273
H  H865  1  0.44048000  0.20408000  0.81026000  1.0 0.1112148273
H  H866  1  0.81026000  0.54518000  0.44048000  1.0 0.1112148273
H  H867  1  0.20408000  0.44048000  0.54518000  1.0 0.1112148273
H  H868  1  0.54518000  0.81026000  0.20408000  1.0 0.1112148273
H  H869  1  0.54518000  0.44048000  0.81026000  1.0 0.1112148273
H  H870  1  0.20408000  0.81026000  0.44048000  1.0 0.1112148273
H  H871  1  0.81026000  0.20408000  0.54518000  1.0 0.1112148273
H  H872  1  0.44048000  0.54518000  0.20408000  1.0 0.1112148273
H  H873  1  0.20408000  0.54518000  0.44048000  1.0 0.1112148273
H  H874  1  0.54518000  0.20408000  0.81026000  1.0 0.1112148273
H  H875  1  0.44048000  0.81026000  0.20408000  1.0 0.1112148273
H  H876  1  0.81026000  0.44048000  0.54518000  1.0 0.1112148273
H  H877  1  0.44048000  0.20408000  0.54518000  1.0 0.1112148273
H  H878  1  0.81026000  0.54518000  0.20408000  1.0 0.1112148273
H  H879  1  0.20408000  0.44048000  0.81026000  1.0 0.1112148273
H  H880  1  0.54518000  0.81026000  0.44048000  1.0 0.1112148273
H  H881  1  0.54518000  0.44048000  0.20408000  1.0 0.1112148273
H  H882  1  0.20408000  0.81026000  0.54518000  1.0 0.1112148273
H  H883  1  0.81026000  0.20408000  0.44048000  1.0 0.1112148273
H  H884  1  0.44048000  0.54518000  0.81026000  1.0 0.1112148273
H  H885  1  0.04592000  0.70482000  0.43974000  1.0 0.1112148273
H  H886  1  0.70482000  0.04592000  0.80952000  1.0 0.1112148273
H  H887  1  0.80952000  0.43974000  0.70482000  1.0 0.1112148273
H  H888  1  0.43974000  0.80952000  0.04592000  1.0 0.1112148273
H  H889  1  0.80952000  0.04592000  0.43974000  1.0 0.1112148273
H  H890  1  0.43974000  0.70482000  0.80952000  1.0 0.1112148273
H  H891  1  0.04592000  0.80952000  0.70482000  1.0 0.1112148273
H  H892  1  0.70482000  0.43974000  0.04592000  1.0 0.1112148273
H  H893  1  0.70482000  0.80952000  0.43974000  1.0 0.1112148273
H  H894  1  0.04592000  0.43974000  0.80952000  1.0 0.1112148273
H  H895  1  0.43974000  0.04592000  0.70482000  1.0 0.1112148273
H  H896  1  0.80952000  0.70482000  0.04592000  1.0 0.1112148273
H  H897  1  0.00057000  0.64499000  0.75929000  1.0 0.0989723343
H  H898  1  0.64499000  0.00057000  0.59515000  1.0 0.0989723343
H  H899  1  0.75929000  0.59515000  0.00057000  1.0 0.0989723343
H  H900  1  0.59515000  0.75929000  0.64499000  1.0 0.0989723343
H  H901  1  0.75929000  0.00057000  0.64499000  1.0 0.0989723343
H  H902  1  0.59515000  0.64499000  0.00057000  1.0 0.0989723343
H  H903  1  0.00057000  0.75929000  0.59515000  1.0 0.0989723343
H  H904  1  0.64499000  0.59515000  0.75929000  1.0 0.0989723343
H  H905  1  0.64499000  0.75929000  0.00057000  1.0 0.0989723343
H  H906  1  0.00057000  0.59515000  0.64499000  1.0 0.0989723343
H  H907  1  0.59515000  0.00057000  0.75929000  1.0 0.0989723343
H  H908  1  0.75929000  0.64499000  0.59515000  1.0 0.0989723343
H  H909  1  0.24943000  0.60501000  0.65485000  1.0 0.0989723343
H  H910  1  0.60501000  0.24943000  0.49071000  1.0 0.0989723343
H  H911  1  0.49071000  0.65485000  0.60501000  1.0 0.0989723343
H  H912  1  0.65485000  0.49071000  0.24943000  1.0 0.0989723343
H  H913  1  0.49071000  0.24943000  0.65485000  1.0 0.0989723343
H  H914  1  0.65485000  0.60501000  0.49071000  1.0 0.0989723343
H  H915  1  0.24943000  0.49071000  0.60501000  1.0 0.0989723343
H  H916  1  0.60501000  0.65485000  0.24943000  1.0 0.0989723343
H  H917  1  0.60501000  0.49071000  0.65485000  1.0 0.0989723343
H  H918  1  0.24943000  0.65485000  0.49071000  1.0 0.0989723343
H  H919  1  0.65485000  0.24943000  0.60501000  1.0 0.0989723343
H  H920  1  0.49071000  0.60501000  0.24943000  1.0 0.0989723343
H  H921  1  0.24943000  0.60501000  0.49071000  1.0 0.0989723343
H  H922  1  0.60501000  0.24943000  0.65485000  1.0 0.0989723343
H  H923  1  0.49071000  0.65485000  0.24943000  1.0 0.0989723343
H  H924  1  0.65485000  0.49071000  0.60501000  1.0 0.0989723343
H  H925  1  0.49071000  0.24943000  0.60501000  1.0 0.0989723343
H  H926  1  0.65485000  0.60501000  0.24943000  1.0 0.0989723343
H  H927  1  0.24943000  0.49071000  0.65485000  1.0 0.0989723343
H  H928  1  0.60501000  0.65485000  0.49071000  1.0 0.0989723343
H  H929  1  0.60501000  0.49071000  0.24943000  1.0 0.0989723343
H  H930  1  0.24943000  0.65485000  0.60501000  1.0 0.0989723343
H  H931  1  0.65485000  0.24943000  0.49071000  1.0 0.0989723343
H  H932  1  0.49071000  0.60501000  0.65485000  1.0 0.0989723343
H  H933  1  0.00057000  0.64499000  0.59515000  1.0 0.0989723343
H  H934  1  0.64499000  0.00057000  0.75929000  1.0 0.0989723343
H  H935  1  0.75929000  0.59515000  0.64499000  1.0 0.0989723343
H  H936  1  0.59515000  0.75929000  0.00057000  1.0 0.0989723343
H  H937  1  0.75929000  0.00057000  0.59515000  1.0 0.0989723343
H  H938  1  0.59515000  0.64499000  0.75929000  1.0 0.0989723343
H  H939  1  0.00057000  0.75929000  0.64499000  1.0 0.0989723343
H  H940  1  0.64499000  0.59515000  0.00057000  1.0 0.0989723343
H  H941  1  0.64499000  0.75929000  0.59515000  1.0 0.0989723343
H  H942  1  0.00057000  0.59515000  0.75929000  1.0 0.0989723343
H  H943  1  0.59515000  0.00057000  0.64499000  1.0 0.0989723343
H  H944  1  0.75929000  0.64499000  0.00057000  1.0 0.0989723343
H  H945  1  0.00778000  0.64462000  0.81306000  1.0 0.0908283901
H  H946  1  0.64462000  0.00778000  0.53454000  1.0 0.0908283901
H  H947  1  0.81306000  0.53454000  0.00778000  1.0 0.0908283901
H  H948  1  0.53454000  0.81306000  0.64462000  1.0 0.0908283901
H  H949  1  0.81306000  0.00778000  0.64462000  1.0 0.0908283901
H  H950  1  0.53454000  0.64462000  0.00778000  1.0 0.0908283901
H  H951  1  0.00778000  0.81306000  0.53454000  1.0 0.0908283901
H  H952  1  0.64462000  0.53454000  0.81306000  1.0 0.0908283901
H  H953  1  0.64462000  0.81306000  0.00778000  1.0 0.0908283901
H  H954  1  0.00778000  0.53454000  0.64462000  1.0 0.0908283901
H  H955  1  0.53454000  0.00778000  0.81306000  1.0 0.0908283901
H  H956  1  0.81306000  0.64462000  0.53454000  1.0 0.0908283901
H  H957  1  0.24222000  0.60538000  0.71546000  1.0 0.0908283901
H  H958  1  0.60538000  0.24222000  0.43694000  1.0 0.0908283901
H  H959  1  0.43694000  0.71546000  0.60538000  1.0 0.0908283901
H  H960  1  0.71546000  0.43694000  0.24222000  1.0 0.0908283901
H  H961  1  0.43694000  0.24222000  0.71546000  1.0 0.0908283901
H  H962  1  0.71546000  0.60538000  0.43694000  1.0 0.0908283901
H  H963  1  0.24222000  0.43694000  0.60538000  1.0 0.0908283901
H  H964  1  0.60538000  0.71546000  0.24222000  1.0 0.0908283901
H  H965  1  0.60538000  0.43694000  0.71546000  1.0 0.0908283901
H  H966  1  0.24222000  0.71546000  0.43694000  1.0 0.0908283901
H  H967  1  0.71546000  0.24222000  0.60538000  1.0 0.0908283901
H  H968  1  0.43694000  0.60538000  0.24222000  1.0 0.0908283901
H  H969  1  0.24222000  0.60538000  0.43694000  1.0 0.0908283901
H  H970  1  0.60538000  0.24222000  0.71546000  1.0 0.0908283901
H  H971  1  0.43694000  0.71546000  0.24222000  1.0 0.0908283901
H  H972  1  0.71546000  0.43694000  0.60538000  1.0 0.0908283901
H  H973  1  0.43694000  0.24222000  0.60538000  1.0 0.0908283901
H  H974  1  0.71546000  0.60538000  0.24222000  1.0 0.0908283901
H  H975  1  0.24222000  0.43694000  0.71546000  1.0 0.0908283901
H  H976  1  0.60538000  0.71546000  0.43694000  1.0 0.0908283901
H  H977  1  0.60538000  0.43694000  0.24222000  1.0 0.0908283901
H  H978  1  0.24222000  0.71546000  0.60538000  1.0 0.0908283901
H  H979  1  0.71546000  0.24222000  0.43694000  1.0 0.0908283901
H  H980  1  0.43694000  0.60538000  0.71546000  1.0 0.0908283901
H  H981  1  0.00778000  0.64462000  0.53454000  1.0 0.0908283901
H  H982  1  0.64462000  0.00778000  0.81306000  1.0 0.0908283901
H  H983  1  0.81306000  0.53454000  0.64462000  1.0 0.0908283901
H  H984  1  0.53454000  0.81306000  0.00778000  1.0 0.0908283901
H  H985  1  0.81306000  0.00778000  0.53454000  1.0 0.0908283901
H  H986  1  0.53454000  0.64462000  0.81306000  1.0 0.0908283901
H  H987  1  0.00778000  0.81306000  0.64462000  1.0 0.0908283901
H  H988  1  0.64462000  0.53454000  0.00778000  1.0 0.0908283901
H  H989  1  0.64462000  0.81306000  0.53454000  1.0 0.0908283901
H  H990  1  0.00778000  0.53454000  0.81306000  1.0 0.0908283901
H  H991  1  0.53454000  0.00778000  0.64462000  1.0 0.0908283901
H  H992  1  0.81306000  0.64462000  0.00778000  1.0 0.0908283901
H  H993  1  0.12018000  0.65042000  0.74332000  1.0 0.1112148273
H  H994  1  0.65042000  0.12018000  0.48608000  1.0 0.1112148273
H  H995  1  0.74332000  0.48608000  0.12018000  1.0 0.1112148273
H  H996  1  0.48608000  0.74332000  0.65042000  1.0 0.1112148273
H  H997  1  0.74332000  0.12018000  0.65042000  1.0 0.1112148273
H  H998  1  0.48608000  0.65042000  0.12018000  1.0 0.1112148273
H  H999  1  0.12018000  0.74332000  0.48608000  1.0 0.1112148273
H  H1000  1  0.65042000  0.48608000  0.74332000  1.0 0.1112148273
H  H1001  1  0.65042000  0.74332000  0.12018000  1.0 0.1112148273
H  H1002  1  0.12018000  0.48608000  0.65042000  1.0 0.1112148273
H  H1003  1  0.48608000  0.12018000  0.74332000  1.0 0.1112148273
H  H1004  1  0.74332000  0.65042000  0.48608000  1.0 0.1112148273
H  H1005  1  0.12982000  0.59958000  0.76392000  1.0 0.1112148273
H  H1006  1  0.59958000  0.12982000  0.50668000  1.0 0.1112148273
H  H1007  1  0.50668000  0.76392000  0.59958000  1.0 0.1112148273
H  H1008  1  0.76392000  0.50668000  0.12982000  1.0 0.1112148273
H  H1009  1  0.50668000  0.12982000  0.76392000  1.0 0.1112148273
H  H1010  1  0.76392000  0.59958000  0.50668000  1.0 0.1112148273
H  H1011  1  0.12982000  0.50668000  0.59958000  1.0 0.1112148273
H  H1012  1  0.59958000  0.76392000  0.12982000  1.0 0.1112148273
H  H1013  1  0.59958000  0.50668000  0.76392000  1.0 0.1112148273
H  H1014  1  0.12982000  0.76392000  0.50668000  1.0 0.1112148273
H  H1015  1  0.76392000  0.12982000  0.59958000  1.0 0.1112148273
H  H1016  1  0.50668000  0.59958000  0.12982000  1.0 0.1112148273
H  H1017  1  0.12982000  0.59958000  0.50668000  1.0 0.1112148273
H  H1018  1  0.59958000  0.12982000  0.76392000  1.0 0.1112148273
H  H1019  1  0.50668000  0.76392000  0.12982000  1.0 0.1112148273
H  H1020  1  0.76392000  0.50668000  0.59958000  1.0 0.1112148273
H  H1021  1  0.50668000  0.12982000  0.59958000  1.0 0.1112148273
H  H1022  1  0.76392000  0.59958000  0.12982000  1.0 0.1112148273
H  H1023  1  0.12982000  0.50668000  0.76392000  1.0 0.1112148273
H  H1024  1  0.59958000  0.76392000  0.50668000  1.0 0.1112148273
H  H1025  1  0.59958000  0.50668000  0.12982000  1.0 0.1112148273
H  H1026  1  0.12982000  0.76392000  0.59958000  1.0 0.1112148273
H  H1027  1  0.76392000  0.12982000  0.50668000  1.0 0.1112148273
H  H1028  1  0.50668000  0.59958000  0.76392000  1.0 0.1112148273
H  H1029  1  0.12018000  0.65042000  0.48608000  1.0 0.1112148273
H  H1030  1  0.65042000  0.12018000  0.74332000  1.0 0.1112148273
H  H1031  1  0.74332000  0.48608000  0.65042000  1.0 0.1112148273
H  H1032  1  0.48608000  0.74332000  0.12018000  1.0 0.1112148273
H  H1033  1  0.74332000  0.12018000  0.48608000  1.0 0.1112148273
H  H1034  1  0.48608000  0.65042000  0.74332000  1.0 0.1112148273
H  H1035  1  0.12018000  0.74332000  0.65042000  1.0 0.1112148273
H  H1036  1  0.65042000  0.48608000  0.12018000  1.0 0.1112148273
H  H1037  1  0.65042000  0.74332000  0.48608000  1.0 0.1112148273
H  H1038  1  0.12018000  0.48608000  0.74332000  1.0 0.1112148273
H  H1039  1  0.48608000  0.12018000  0.65042000  1.0 0.1112148273
H  H1040  1  0.74332000  0.65042000  0.12018000  1.0 0.1112148273
H  H1041  1  0.11184000  0.65381000  0.68860000  1.0 0.0820941113
H  H1042  1  0.65382000  0.11183000  0.54575000  1.0 0.0820941113
H  H1043  1  0.68860000  0.54575000  0.11184000  1.0 0.0820941113
H  H1044  1  0.54574000  0.68860000  0.65382000  1.0 0.0820941113
H  H1045  1  0.68860000  0.11184000  0.65382000  1.0 0.0820941113
H  H1046  1  0.54574000  0.65381000  0.11184000  1.0 0.0820941113
H  H1047  1  0.11184000  0.68860000  0.54575000  1.0 0.0820941113
H  H1048  1  0.65382000  0.54575000  0.68860000  1.0 0.0820941113
H  H1049  1  0.65382000  0.68860000  0.11184000  1.0 0.0820941113
H  H1050  1  0.11183000  0.54575000  0.65382000  1.0 0.0820941113
H  H1051  1  0.54575000  0.11184000  0.68860000  1.0 0.0820941113
H  H1052  1  0.68860000  0.65381000  0.54575000  1.0 0.0820941113
H  H1053  1  0.13817000  0.59618000  0.70425000  1.0 0.0820941113
H  H1054  1  0.59618000  0.13816000  0.56139000  1.0 0.0820941113
H  H1055  1  0.56139000  0.70425000  0.59618000  1.0 0.0820941113
H  H1056  1  0.70425000  0.56140000  0.13817000  1.0 0.0820941113
H  H1057  1  0.56139000  0.13816000  0.70425000  1.0 0.0820941113
H  H1058  1  0.70426000  0.59618000  0.56139000  1.0 0.0820941113
H  H1059  1  0.13816000  0.56140000  0.59618000  1.0 0.0820941113
H  H1060  1  0.59618000  0.70425000  0.13817000  1.0 0.0820941113
H  H1061  1  0.59618000  0.56139000  0.70425000  1.0 0.0820941113
H  H1062  1  0.13817000  0.70425000  0.56139000  1.0 0.0820941113
H  H1063  1  0.70425000  0.13817000  0.59618000  1.0 0.0820941113
H  H1064  1  0.56139000  0.59619000  0.13817000  1.0 0.0820941113
H  H1065  1  0.13817000  0.59618000  0.56139000  1.0 0.0820941113
H  H1066  1  0.59618000  0.13816000  0.70425000  1.0 0.0820941113
H  H1067  1  0.56139000  0.70425000  0.13817000  1.0 0.0820941113
H  H1068  1  0.70425000  0.56140000  0.59618000  1.0 0.0820941113
H  H1069  1  0.56139000  0.13817000  0.59618000  1.0 0.0820941113
H  H1070  1  0.70425000  0.59619000  0.13817000  1.0 0.0820941113
H  H1071  1  0.13817000  0.56139000  0.70425000  1.0 0.0820941113
H  H1072  1  0.59618000  0.70425000  0.56139000  1.0 0.0820941113
H  H1073  1  0.59618000  0.56140000  0.13817000  1.0 0.0820941113
H  H1074  1  0.13817000  0.70425000  0.59618000  1.0 0.0820941113
H  H1075  1  0.70425000  0.13816000  0.56139000  1.0 0.0820941113
H  H1076  1  0.56140000  0.59618000  0.70425000  1.0 0.0820941113
H  H1077  1  0.11184000  0.65381000  0.54575000  1.0 0.0820941113
H  H1078  1  0.65382000  0.11184000  0.68860000  1.0 0.0820941113
H  H1079  1  0.68860000  0.54575000  0.65382000  1.0 0.0820941113
H  H1080  1  0.54574000  0.68860000  0.11184000  1.0 0.0820941113
H  H1081  1  0.68861000  0.11183000  0.54575000  1.0 0.0820941113
H  H1082  1  0.54575000  0.65381000  0.68860000  1.0 0.0820941113
H  H1083  1  0.11184000  0.68860000  0.65382000  1.0 0.0820941113
H  H1084  1  0.65382000  0.54575000  0.11184000  1.0 0.0820941113
H  H1085  1  0.65382000  0.68860000  0.54575000  1.0 0.0820941113
H  H1086  1  0.11184000  0.54575000  0.68860000  1.0 0.0820941113
H  H1087  1  0.54574000  0.11184000  0.65382000  1.0 0.0820941113
H  H1088  1  0.68860000  0.65381000  0.11184000  1.0 0.0820941113
C  C1  1  0.08405000  0.34257000  0.28669000  1.0 0.3837117206
C  C2  1  0.34257000  0.08405000  0.28669000  1.0 0.3837117206
C  C3  1  0.28669000  0.28669000  0.08405000  1.0 0.3837117206
C  C4  1  0.28669000  0.28669000  0.34257000  1.0 0.3837117206
C  C5  1  0.28669000  0.08405000  0.34257000  1.0 0.3837117206
C  C6  1  0.28669000  0.34257000  0.08405000  1.0 0.3837117206
C  C7  1  0.08405000  0.28669000  0.28669000  1.0 0.3837117206
C  C8  1  0.34257000  0.28669000  0.28669000  1.0 0.3837117206
C  C9  1  0.34257000  0.28669000  0.08405000  1.0 0.3837117206
C  C10  1  0.08405000  0.28669000  0.34257000  1.0 0.3837117206
C  C11  1  0.28669000  0.08405000  0.28669000  1.0 0.3837117206
C  C12  1  0.28669000  0.34257000  0.28669000  1.0 0.3837117206
C  C13  1  0.16595000  0.90743000  0.96331000  1.0 0.3837117206
C  C14  1  0.90743000  0.16595000  0.96331000  1.0 0.3837117206
C  C15  1  0.96331000  0.96331000  0.90743000  1.0 0.3837117206
C  C16  1  0.96331000  0.96331000  0.16595000  1.0 0.3837117206
C  C17  1  0.96331000  0.16595000  0.96331000  1.0 0.3837117206
C  C18  1  0.96331000  0.90743000  0.96331000  1.0 0.3837117206
C  C19  1  0.16595000  0.96331000  0.90743000  1.0 0.3837117206
C  C20  1  0.90743000  0.96331000  0.16595000  1.0 0.3837117206
C  C21  1  0.90743000  0.96331000  0.96331000  1.0 0.3837117206
C  C22  1  0.16595000  0.96331000  0.96331000  1.0 0.3837117206
C  C23  1  0.96331000  0.16595000  0.90743000  1.0 0.3837117206
C  C24  1  0.96331000  0.90743000  0.16595000  1.0 0.3837117206
C  C25  1  0.08367000  0.38431000  0.26601000  1.0 0.0070878657
C  C26  1  0.38431000  0.08367000  0.26601000  1.0 0.0070878657
C  C27  1  0.26601000  0.26601000  0.08367000  1.0 0.0070878657
C  C28  1  0.26601000  0.26601000  0.38431000  1.0 0.0070878657
C  C29  1  0.26601000  0.08367000  0.38431000  1.0 0.0070878657
C  C30  1  0.26601000  0.38431000  0.08367000  1.0 0.0070878657
C  C31  1  0.08367000  0.26601000  0.26601000  1.0 0.0070878657
C  C32  1  0.38431000  0.26601000  0.26601000  1.0 0.0070878657
C  C33  1  0.38431000  0.26601000  0.08367000  1.0 0.0070878657
C  C34  1  0.08367000  0.26601000  0.38431000  1.0 0.0070878657
C  C35  1  0.26601000  0.08367000  0.26601000  1.0 0.0070878657
C  C36  1  0.26601000  0.38431000  0.26601000  1.0 0.0070878657
C  C37  1  0.16633000  0.86569000  0.98399000  1.0 0.0070878657
C  C38  1  0.86569000  0.16633000  0.98399000  1.0 0.0070878657
C  C39  1  0.98399000  0.98399000  0.86569000  1.0 0.0070878657
C  C40  1  0.98399000  0.98399000  0.16633000  1.0 0.0070878657
C  C41  1  0.98399000  0.16633000  0.98399000  1.0 0.0070878657
C  C42  1  0.98399000  0.86569000  0.98399000  1.0 0.0070878657
C  C43  1  0.16633000  0.98399000  0.86569000  1.0 0.0070878657
C  C44  1  0.86569000  0.98399000  0.16633000  1.0 0.0070878657
C  C45  1  0.86569000  0.98399000  0.98399000  1.0 0.0070878657
C  C46  1  0.16633000  0.98399000  0.98399000  1.0 0.0070878657
C  C47  1  0.98399000  0.16633000  0.86569000  1.0 0.0070878657
C  C48  1  0.98399000  0.86569000  0.16633000  1.0 0.0070878657
C  C49  1  0.08503000  0.40403000  0.22629000  1.0 -0.1104067433
C  C50  1  0.40403000  0.08503000  0.28465000  1.0 -0.1104067433
C  C51  1  0.22629000  0.28465000  0.08503000  1.0 -0.1104067433
C  C52  1  0.28465000  0.22629000  0.40403000  1.0 -0.1104067433
C  C53  1  0.22629000  0.08503000  0.40403000  1.0 -0.1104067433
C  C54  1  0.28465000  0.40403000  0.08503000  1.0 -0.1104067433
C  C55  1  0.08503000  0.22629000  0.28465000  1.0 -0.1104067433
C  C56  1  0.40403000  0.28465000  0.22629000  1.0 -0.1104067433
C  C57  1  0.40403000  0.22629000  0.08503000  1.0 -0.1104067433
C  C58  1  0.08503000  0.28465000  0.40403000  1.0 -0.1104067433
C  C59  1  0.28465000  0.08503000  0.22629000  1.0 -0.1104067433
C  C60  1  0.22629000  0.40403000  0.28465000  1.0 -0.1104067433
C  C61  1  0.16497000  0.84597000  0.96535000  1.0 -0.1104067433
C  C62  1  0.84597000  0.16497000  0.02371000  1.0 -0.1104067433
C  C63  1  0.02371000  0.96535000  0.84597000  1.0 -0.1104067433
C  C64  1  0.96535000  0.02371000  0.16497000  1.0 -0.1104067433
C  C65  1  0.02371000  0.16497000  0.96535000  1.0 -0.1104067433
C  C66  1  0.96535000  0.84597000  0.02371000  1.0 -0.1104067433
C  C67  1  0.16497000  0.02371000  0.84597000  1.0 -0.1104067433
C  C68  1  0.84597000  0.96535000  0.16497000  1.0 -0.1104067433
C  C69  1  0.84597000  0.02371000  0.96535000  1.0 -0.1104067433
C  C70  1  0.16497000  0.96535000  0.02371000  1.0 -0.1104067433
C  C71  1  0.96535000  0.16497000  0.84597000  1.0 -0.1104067433
C  C72  1  0.02371000  0.84597000  0.16497000  1.0 -0.1104067433
C  C73  1  0.16497000  0.84597000  0.02371000  1.0 -0.1104067433
C  C74  1  0.84597000  0.16497000  0.96535000  1.0 -0.1104067433
C  C75  1  0.02371000  0.96535000  0.16497000  1.0 -0.1104067433
C  C76  1  0.96535000  0.02371000  0.84597000  1.0 -0.1104067433
C  C77  1  0.02371000  0.16497000  0.84597000  1.0 -0.1104067433
C  C78  1  0.96535000  0.84597000  0.16497000  1.0 -0.1104067433
C  C79  1  0.16497000  0.02371000  0.96535000  1.0 -0.1104067433
C  C80  1  0.84597000  0.96535000  0.02371000  1.0 -0.1104067433
C  C81  1  0.84597000  0.02371000  0.16497000  1.0 -0.1104067433
C  C82  1  0.16497000  0.96535000  0.84597000  1.0 -0.1104067433
C  C83  1  0.96535000  0.16497000  0.02371000  1.0 -0.1104067433
C  C84  1  0.02371000  0.84597000  0.96535000  1.0 -0.1104067433
C  C85  1  0.08503000  0.40403000  0.28465000  1.0 -0.1104067433
C  C86  1  0.40403000  0.08503000  0.22629000  1.0 -0.1104067433
C  C87  1  0.22629000  0.28465000  0.40403000  1.0 -0.1104067433
C  C88  1  0.28465000  0.22629000  0.08503000  1.0 -0.1104067433
C  C89  1  0.22629000  0.08503000  0.28465000  1.0 -0.1104067433
C  C90  1  0.28465000  0.40403000  0.22629000  1.0 -0.1104067433
C  C91  1  0.08503000  0.22629000  0.40403000  1.0 -0.1104067433
C  C92  1  0.40403000  0.28465000  0.08503000  1.0 -0.1104067433
C  C93  1  0.40403000  0.22629000  0.28465000  1.0 -0.1104067433
C  C94  1  0.08503000  0.28465000  0.22629000  1.0 -0.1104067433
C  C95  1  0.28465000  0.08503000  0.40403000  1.0 -0.1104067433
C  C96  1  0.22629000  0.40403000  0.08503000  1.0 -0.1104067433
C  C97  1  0.08727000  0.44287000  0.20585000  1.0 -0.0995689509
C  C98  1  0.44287000  0.08727000  0.26401000  1.0 -0.0995689509
C  C99  1  0.20585000  0.26401000  0.08727000  1.0 -0.0995689509
C  C100  1  0.26401000  0.20585000  0.44287000  1.0 -0.0995689509
C  C101  1  0.20585000  0.08727000  0.44287000  1.0 -0.0995689509
C  C102  1  0.26401000  0.44287000  0.08727000  1.0 -0.0995689509
C  C103  1  0.08727000  0.20585000  0.26401000  1.0 -0.0995689509
C  C104  1  0.44287000  0.26401000  0.20585000  1.0 -0.0995689509
C  C105  1  0.44287000  0.20585000  0.08727000  1.0 -0.0995689509
C  C106  1  0.08727000  0.26401000  0.44287000  1.0 -0.0995689509
C  C107  1  0.26401000  0.08727000  0.20585000  1.0 -0.0995689509
C  C108  1  0.20585000  0.44287000  0.26401000  1.0 -0.0995689509
C  C109  1  0.16273000  0.80713000  0.98599000  1.0 -0.0995689509
C  C110  1  0.80713000  0.16273000  0.04415000  1.0 -0.0995689509
C  C111  1  0.04415000  0.98599000  0.80713000  1.0 -0.0995689509
C  C112  1  0.98599000  0.04415000  0.16273000  1.0 -0.0995689509
C  C113  1  0.04415000  0.16273000  0.98599000  1.0 -0.0995689509
C  C114  1  0.98599000  0.80713000  0.04415000  1.0 -0.0995689509
C  C115  1  0.16273000  0.04415000  0.80713000  1.0 -0.0995689509
C  C116  1  0.80713000  0.98599000  0.16273000  1.0 -0.0995689509
C  C117  1  0.80713000  0.04415000  0.98599000  1.0 -0.0995689509
C  C118  1  0.16273000  0.98599000  0.04415000  1.0 -0.0995689509
C  C119  1  0.98599000  0.16273000  0.80713000  1.0 -0.0995689509
C  C120  1  0.04415000  0.80713000  0.16273000  1.0 -0.0995689509
C  C121  1  0.16273000  0.80713000  0.04415000  1.0 -0.0995689509
C  C122  1  0.80713000  0.16273000  0.98599000  1.0 -0.0995689509
C  C123  1  0.04415000  0.98599000  0.16273000  1.0 -0.0995689509
C  C124  1  0.98599000  0.04415000  0.80713000  1.0 -0.0995689509
C  C125  1  0.04415000  0.16273000  0.80713000  1.0 -0.0995689509
C  C126  1  0.98599000  0.80713000  0.16273000  1.0 -0.0995689509
C  C127  1  0.16273000  0.04415000  0.98599000  1.0 -0.0995689509
C  C128  1  0.80713000  0.98599000  0.04415000  1.0 -0.0995689509
C  C129  1  0.80713000  0.04415000  0.16273000  1.0 -0.0995689509
C  C130  1  0.16273000  0.98599000  0.80713000  1.0 -0.0995689509
C  C131  1  0.98599000  0.16273000  0.04415000  1.0 -0.0995689509
C  C132  1  0.04415000  0.80713000  0.98599000  1.0 -0.0995689509
C  C133  1  0.08727000  0.44287000  0.26401000  1.0 -0.0995689509
C  C134  1  0.44287000  0.08727000  0.20585000  1.0 -0.0995689509
C  C135  1  0.20585000  0.26401000  0.44287000  1.0 -0.0995689509
C  C136  1  0.26401000  0.20585000  0.08727000  1.0 -0.0995689509
C  C137  1  0.20585000  0.08727000  0.26401000  1.0 -0.0995689509
C  C138  1  0.26401000  0.44287000  0.20585000  1.0 -0.0995689509
C  C139  1  0.08727000  0.20585000  0.44287000  1.0 -0.0995689509
C  C140  1  0.44287000  0.26401000  0.08727000  1.0 -0.0995689509
C  C141  1  0.44287000  0.20585000  0.26401000  1.0 -0.0995689509
C  C142  1  0.08727000  0.26401000  0.20585000  1.0 -0.0995689509
C  C143  1  0.26401000  0.08727000  0.44287000  1.0 -0.0995689509
C  C144  1  0.20585000  0.44287000  0.08727000  1.0 -0.0995689509
C  C145  1  0.08853000  0.46237000  0.22455000  1.0 -0.0168722122
C  C146  1  0.46237000  0.08853000  0.22455000  1.0 -0.0168722122
C  C147  1  0.22455000  0.22455000  0.08853000  1.0 -0.0168722122
C  C148  1  0.22455000  0.22455000  0.46237000  1.0 -0.0168722122
C  C149  1  0.22455000  0.08853000  0.46237000  1.0 -0.0168722122
C  C150  1  0.22455000  0.46237000  0.08853000  1.0 -0.0168722122
C  C151  1  0.08853000  0.22455000  0.22455000  1.0 -0.0168722122
C  C152  1  0.46237000  0.22455000  0.22455000  1.0 -0.0168722122
C  C153  1  0.46237000  0.22455000  0.08853000  1.0 -0.0168722122
C  C154  1  0.08853000  0.22455000  0.46237000  1.0 -0.0168722122
C  C155  1  0.22455000  0.08853000  0.22455000  1.0 -0.0168722122
C  C156  1  0.22455000  0.46237000  0.22455000  1.0 -0.0168722122
C  C157  1  0.16147000  0.78763000  0.02545000  1.0 -0.0168722122
C  C158  1  0.78763000  0.16147000  0.02545000  1.0 -0.0168722122
C  C159  1  0.02545000  0.02545000  0.78763000  1.0 -0.0168722122
C  C160  1  0.02545000  0.02545000  0.16147000  1.0 -0.0168722122
C  C161  1  0.02545000  0.16147000  0.02545000  1.0 -0.0168722122
C  C162  1  0.02545000  0.78763000  0.02545000  1.0 -0.0168722122
C  C163  1  0.16147000  0.02545000  0.78763000  1.0 -0.0168722122
C  C164  1  0.78763000  0.02545000  0.16147000  1.0 -0.0168722122
C  C165  1  0.78763000  0.02545000  0.02545000  1.0 -0.0168722122
C  C166  1  0.16147000  0.02545000  0.02545000  1.0 -0.0168722122
C  C167  1  0.02545000  0.16147000  0.78763000  1.0 -0.0168722122
C  C168  1  0.02545000  0.78763000  0.16147000  1.0 -0.0168722122
C  C169  1  0.09107000  0.50431000  0.20231000  1.0 0.6410781034
C  C170  1  0.50431000  0.09107000  0.20231000  1.0 0.6410781034
C  C171  1  0.20231000  0.20231000  0.09107000  1.0 0.6410781034
C  C172  1  0.20231000  0.20231000  0.50431000  1.0 0.6410781034
C  C173  1  0.20231000  0.09107000  0.50431000  1.0 0.6410781034
C  C174  1  0.20231000  0.50431000  0.09107000  1.0 0.6410781034
C  C175  1  0.09107000  0.20231000  0.20231000  1.0 0.6410781034
C  C176  1  0.50431000  0.20231000  0.20231000  1.0 0.6410781034
C  C177  1  0.50431000  0.20231000  0.09107000  1.0 0.6410781034
C  C178  1  0.09107000  0.20231000  0.50431000  1.0 0.6410781034
C  C179  1  0.20231000  0.09107000  0.20231000  1.0 0.6410781034
C  C180  1  0.20231000  0.50431000  0.20231000  1.0 0.6410781034
C  C181  1  0.15893000  0.74569000  0.04769000  1.0 0.6410781034
C  C182  1  0.74569000  0.15893000  0.04769000  1.0 0.6410781034
C  C183  1  0.04769000  0.04769000  0.74569000  1.0 0.6410781034
C  C184  1  0.04769000  0.04769000  0.15893000  1.0 0.6410781034
C  C185  1  0.04769000  0.15893000  0.04769000  1.0 0.6410781034
C  C186  1  0.04769000  0.74569000  0.04769000  1.0 0.6410781034
C  C187  1  0.15893000  0.04769000  0.74569000  1.0 0.6410781034
C  C188  1  0.74569000  0.04769000  0.15893000  1.0 0.6410781034
C  C189  1  0.74569000  0.04769000  0.04769000  1.0 0.6410781034
C  C190  1  0.15893000  0.04769000  0.04769000  1.0 0.6410781034
C  C191  1  0.04769000  0.15893000  0.74569000  1.0 0.6410781034
C  C192  1  0.04769000  0.74569000  0.15893000  1.0 0.6410781034
C  C193  1  0.05190000  0.65030000  0.68390000  1.0 -0.275361348
C  C194  1  0.65030000  0.05190000  0.61390000  1.0 -0.275361348
C  C195  1  0.68390000  0.61390000  0.05190000  1.0 -0.275361348
C  C196  1  0.61390000  0.68390000  0.65030000  1.0 -0.275361348
C  C197  1  0.68390000  0.05190000  0.65030000  1.0 -0.275361348
C  C198  1  0.61390000  0.65030000  0.05190000  1.0 -0.275361348
C  C199  1  0.05190000  0.68390000  0.61390000  1.0 -0.275361348
C  C200  1  0.65030000  0.61390000  0.68390000  1.0 -0.2745102581
C  C201  1  0.65030000  0.68390000  0.05190000  1.0 -0.275361348
C  C202  1  0.05190000  0.61390000  0.65030000  1.0 -0.275361348
C  C203  1  0.61390000  0.05190000  0.68390000  1.0 -0.275361348
C  C204  1  0.68390000  0.65030000  0.61390000  1.0 -0.2745102581
C  C205  1  0.19810000  0.59970000  0.63610000  1.0 -0.275361348
C  C206  1  0.59970000  0.19810000  0.56610000  1.0 -0.275361348
C  C207  1  0.56610000  0.63610000  0.59970000  1.0 -0.2745102581
C  C208  1  0.63610000  0.56610000  0.19810000  1.0 -0.275361348
C  C209  1  0.56610000  0.19810000  0.63610000  1.0 -0.275361348
C  C210  1  0.63610000  0.59970000  0.56610000  1.0 -0.2745102581
C  C211  1  0.19810000  0.56610000  0.59970000  1.0 -0.275361348
C  C212  1  0.59970000  0.63610000  0.19810000  1.0 -0.275361348
C  C213  1  0.59970000  0.56610000  0.63610000  1.0 -0.2745102581
C  C214  1  0.19810000  0.63610000  0.56610000  1.0 -0.275361348
C  C215  1  0.63610000  0.19810000  0.59970000  1.0 -0.275361348
C  C216  1  0.56610000  0.59970000  0.19810000  1.0 -0.275361348
C  C217  1  0.19810000  0.59970000  0.56610000  1.0 -0.275361348
C  C218  1  0.59970000  0.19810000  0.63610000  1.0 -0.275361348
C  C219  1  0.56610000  0.63610000  0.19810000  1.0 -0.275361348
C  C220  1  0.63610000  0.56610000  0.59970000  1.0 -0.2745102581
C  C221  1  0.56610000  0.19810000  0.59970000  1.0 -0.275361348
C  C222  1  0.63610000  0.59970000  0.19810000  1.0 -0.275361348
C  C223  1  0.19810000  0.56610000  0.63610000  1.0 -0.275361348
C  C224  1  0.59970000  0.63610000  0.56610000  1.0 -0.2745102581
C  C225  1  0.59970000  0.56610000  0.19810000  1.0 -0.275361348
C  C226  1  0.19810000  0.63610000  0.59970000  1.0 -0.275361348
C  C227  1  0.63610000  0.19810000  0.56610000  1.0 -0.275361348
C  C228  1  0.56610000  0.59970000  0.63610000  1.0 -0.2745102581
C  C229  1  0.05190000  0.65030000  0.61390000  1.0 -0.275361348
C  C230  1  0.65030000  0.05190000  0.68390000  1.0 -0.275361348
C  C231  1  0.68390000  0.61390000  0.65030000  1.0 -0.2745102581
C  C232  1  0.61390000  0.68390000  0.05190000  1.0 -0.275361348
C  C233  1  0.68390000  0.05190000  0.61390000  1.0 -0.275361348
C  C234  1  0.61390000  0.65030000  0.68390000  1.0 -0.2745102581
C  C235  1  0.05190000  0.68390000  0.65030000  1.0 -0.275361348
C  C236  1  0.65030000  0.61390000  0.05190000  1.0 -0.275361348
C  C237  1  0.65030000  0.68390000  0.61390000  1.0 -0.2745102581
C  C238  1  0.05190000  0.61390000  0.68390000  1.0 -0.275361348
C  C239  1  0.61390000  0.05190000  0.65030000  1.0 -0.275361348
C  C240  1  0.68390000  0.65030000  0.05190000  1.0 -0.275361348
C  C241  1  0.05554000  0.64886000  0.71934000  1.0 0.0624581155
C  C242  1  0.64886000  0.05554000  0.57626000  1.0 0.0624581155
C  C243  1  0.71934000  0.57626000  0.05554000  1.0 0.0624581155
C  C244  1  0.57626000  0.71934000  0.64886000  1.0 0.0624581155
C  C245  1  0.71934000  0.05554000  0.64886000  1.0 0.0624581155
C  C246  1  0.57626000  0.64886000  0.05554000  1.0 0.0624581155
C  C247  1  0.05554000  0.71934000  0.57626000  1.0 0.0624581155
C  C248  1  0.64886000  0.57626000  0.71934000  1.0 0.0624581155
C  C249  1  0.64886000  0.71934000  0.05554000  1.0 0.0624581155
C  C250  1  0.05554000  0.57626000  0.64886000  1.0 0.0624581155
C  C251  1  0.57626000  0.05554000  0.71934000  1.0 0.0624581155
C  C252  1  0.71934000  0.64886000  0.57626000  1.0 0.0624581155
C  C253  1  0.19446000  0.60114000  0.67374000  1.0 0.0624581155
C  C254  1  0.60114000  0.19446000  0.53066000  1.0 0.0624581155
C  C255  1  0.53066000  0.67374000  0.60114000  1.0 0.0624581155
C  C256  1  0.67374000  0.53066000  0.19446000  1.0 0.0624581155
C  C257  1  0.53066000  0.19446000  0.67374000  1.0 0.0624581155
C  C258  1  0.67374000  0.60114000  0.53066000  1.0 0.0624581155
C  C259  1  0.19446000  0.53066000  0.60114000  1.0 0.0624581155
C  C260  1  0.60114000  0.67374000  0.19446000  1.0 0.0624581155
C  C261  1  0.60114000  0.53066000  0.67374000  1.0 0.0624581155
C  C262  1  0.19446000  0.67374000  0.53066000  1.0 0.0624581155
C  C263  1  0.67374000  0.19446000  0.60114000  1.0 0.0624581155
C  C264  1  0.53066000  0.60114000  0.19446000  1.0 0.0624581155
C  C265  1  0.19446000  0.60114000  0.53066000  1.0 0.0624581155
C  C266  1  0.60114000  0.19446000  0.67374000  1.0 0.0624581155
C  C267  1  0.53066000  0.67374000  0.19446000  1.0 0.0624581155
C  C268  1  0.67374000  0.53066000  0.60114000  1.0 0.0624581155
C  C269  1  0.53066000  0.19446000  0.60114000  1.0 0.0624581155
C  C270  1  0.67374000  0.60114000  0.19446000  1.0 0.0624581155
C  C271  1  0.19446000  0.53066000  0.67374000  1.0 0.0624581155
C  C272  1  0.60114000  0.67374000  0.53066000  1.0 0.0624581155
C  C273  1  0.60114000  0.53066000  0.19446000  1.0 0.0624581155
C  C274  1  0.19446000  0.67374000  0.60114000  1.0 0.0624581155
C  C275  1  0.67374000  0.19446000  0.53066000  1.0 0.0624581155
C  C276  1  0.53066000  0.60114000  0.67374000  1.0 0.0624581155
C  C277  1  0.05554000  0.64886000  0.57626000  1.0 0.0624581155
C  C278  1  0.64886000  0.05554000  0.71934000  1.0 0.0624581155
C  C279  1  0.71934000  0.57626000  0.64886000  1.0 0.0624581155
C  C280  1  0.57626000  0.71934000  0.05554000  1.0 0.0624581155
C  C281  1  0.71934000  0.05554000  0.57626000  1.0 0.0624581155
C  C282  1  0.57626000  0.64886000  0.71934000  1.0 0.0624581155
C  C283  1  0.05554000  0.71934000  0.64886000  1.0 0.0624581155
C  C284  1  0.64886000  0.57626000  0.05554000  1.0 0.0624581155
C  C285  1  0.64886000  0.71934000  0.57626000  1.0 0.0624581155
C  C286  1  0.05554000  0.57626000  0.71934000  1.0 0.0624581155
C  C287  1  0.57626000  0.05554000  0.64886000  1.0 0.0624581155
C  C288  1  0.71934000  0.64886000  0.05554000  1.0 0.0624581155
C  C289  1  0.02452000  0.67228000  0.74332000  1.0 -0.0595803921
C  C290  1  0.67228000  0.02452000  0.55988000  1.0 -0.0595803921
C  C291  1  0.74332000  0.55988000  0.02452000  1.0 -0.0595803921
C  C292  1  0.55988000  0.74332000  0.67228000  1.0 -0.0595803921
C  C293  1  0.74332000  0.02452000  0.67228000  1.0 -0.0595803921
C  C294  1  0.55988000  0.67228000  0.02452000  1.0 -0.0595803921
C  C295  1  0.02452000  0.74332000  0.55988000  1.0 -0.0595803921
C  C296  1  0.67228000  0.55988000  0.74332000  1.0 -0.0595803921
C  C297  1  0.67228000  0.74332000  0.02452000  1.0 -0.0595803921
C  C298  1  0.02452000  0.55988000  0.67228000  1.0 -0.0595803921
C  C299  1  0.55988000  0.02452000  0.74332000  1.0 -0.0595803921
C  C300  1  0.74332000  0.67228000  0.55988000  1.0 -0.0595803921
C  C301  1  0.22548000  0.57772000  0.69012000  1.0 -0.0595803921
C  C302  1  0.57772000  0.22548000  0.50668000  1.0 -0.0595803921
C  C303  1  0.50668000  0.69012000  0.57772000  1.0 -0.0595803921
C  C304  1  0.69012000  0.50668000  0.22548000  1.0 -0.0595803921
C  C305  1  0.50668000  0.22548000  0.69012000  1.0 -0.0595803921
C  C306  1  0.69012000  0.57772000  0.50668000  1.0 -0.0595803921
C  C307  1  0.22548000  0.50668000  0.57772000  1.0 -0.0595803921
C  C308  1  0.57772000  0.69012000  0.22548000  1.0 -0.0595803921
C  C309  1  0.57772000  0.50668000  0.69012000  1.0 -0.0595803921
C  C310  1  0.22548000  0.69012000  0.50668000  1.0 -0.0595803921
C  C311  1  0.69012000  0.22548000  0.57772000  1.0 -0.0595803921
C  C312  1  0.50668000  0.57772000  0.22548000  1.0 -0.0595803921
C  C313  1  0.22548000  0.57772000  0.50668000  1.0 -0.0595803921
C  C314  1  0.57772000  0.22548000  0.69012000  1.0 -0.0595803921
C  C315  1  0.50668000  0.69012000  0.22548000  1.0 -0.0595803921
C  C316  1  0.69012000  0.50668000  0.57772000  1.0 -0.0595803921
C  C317  1  0.50668000  0.22548000  0.57772000  1.0 -0.0595803921
C  C318  1  0.69012000  0.57772000  0.22548000  1.0 -0.0595803921
C  C319  1  0.22548000  0.50668000  0.69012000  1.0 -0.0595803921
C  C320  1  0.57772000  0.69012000  0.50668000  1.0 -0.0595803921
C  C321  1  0.57772000  0.50668000  0.22548000  1.0 -0.0595803921
C  C322  1  0.22548000  0.69012000  0.57772000  1.0 -0.0595803921
C  C323  1  0.69012000  0.22548000  0.50668000  1.0 -0.0595803921
C  C324  1  0.50668000  0.57772000  0.69012000  1.0 -0.0595803921
C  C325  1  0.02452000  0.67228000  0.55988000  1.0 -0.0595803921
C  C326  1  0.67228000  0.02452000  0.74332000  1.0 -0.0595803921
C  C327  1  0.74332000  0.55988000  0.67228000  1.0 -0.0595803921
C  C328  1  0.55988000  0.74332000  0.02452000  1.0 -0.0595803921
C  C329  1  0.74332000  0.02452000  0.55988000  1.0 -0.0595803921
C  C330  1  0.55988000  0.67228000  0.74332000  1.0 -0.0595803921
C  C331  1  0.02452000  0.74332000  0.67228000  1.0 -0.0595803921
C  C332  1  0.67228000  0.55988000  0.02452000  1.0 -0.0595803921
C  C333  1  0.67228000  0.74332000  0.55988000  1.0 -0.0595803921
C  C334  1  0.02452000  0.55988000  0.74332000  1.0 -0.0595803921
C  C335  1  0.55988000  0.02452000  0.67228000  1.0 -0.0595803921
C  C336  1  0.74332000  0.67228000  0.02452000  1.0 -0.0595803921
C  C337  1  0.02923000  0.67057000  0.77577000  1.0 -0.0679811911
C  C338  1  0.67057000  0.02923000  0.52443000  1.0 -0.0679811911
C  C339  1  0.77577000  0.52443000  0.02923000  1.0 -0.0679811911
C  C340  1  0.52443000  0.77577000  0.67057000  1.0 -0.0679811911
C  C341  1  0.77577000  0.02923000  0.67057000  1.0 -0.0679811911
C  C342  1  0.52443000  0.67057000  0.02923000  1.0 -0.0679811911
C  C343  1  0.02923000  0.77577000  0.52443000  1.0 -0.0679811911
C  C344  1  0.67057000  0.52443000  0.77577000  1.0 -0.0679811911
C  C345  1  0.67057000  0.77577000  0.02923000  1.0 -0.0679811911
C  C346  1  0.02923000  0.52443000  0.67057000  1.0 -0.0679811911
C  C347  1  0.52443000  0.02923000  0.77577000  1.0 -0.0679811911
C  C348  1  0.77577000  0.67057000  0.52443000  1.0 -0.0679811911
C  C349  1  0.22077000  0.57943000  0.72557000  1.0 -0.0679811911
C  C350  1  0.57943000  0.22077000  0.47423000  1.0 -0.0679811911
C  C351  1  0.47423000  0.72557000  0.57943000  1.0 -0.0679811911
C  C352  1  0.72557000  0.47423000  0.22077000  1.0 -0.0679811911
C  C353  1  0.47423000  0.22077000  0.72557000  1.0 -0.0679811911
C  C354  1  0.72557000  0.57943000  0.47423000  1.0 -0.0679811911
C  C355  1  0.22077000  0.47423000  0.57943000  1.0 -0.0679811911
C  C356  1  0.57943000  0.72557000  0.22077000  1.0 -0.0679811911
C  C357  1  0.57943000  0.47423000  0.72557000  1.0 -0.0679811911
C  C358  1  0.22077000  0.72557000  0.47423000  1.0 -0.0679811911
C  C359  1  0.72557000  0.22077000  0.57943000  1.0 -0.0679811911
C  C360  1  0.47423000  0.57943000  0.22077000  1.0 -0.0679811911
C  C361  1  0.22077000  0.57943000  0.47423000  1.0 -0.0679811911
C  C362  1  0.57943000  0.22077000  0.72557000  1.0 -0.0679811911
C  C363  1  0.47423000  0.72557000  0.22077000  1.0 -0.0679811911
C  C364  1  0.72557000  0.47423000  0.57943000  1.0 -0.0679811911
C  C365  1  0.47423000  0.22077000  0.57943000  1.0 -0.0679811911
C  C366  1  0.72557000  0.57943000  0.22077000  1.0 -0.0679811911
C  C367  1  0.22077000  0.47423000  0.72557000  1.0 -0.0679811911
C  C368  1  0.57943000  0.72557000  0.47423000  1.0 -0.0679811911
C  C369  1  0.57943000  0.47423000  0.22077000  1.0 -0.0679811911
C  C370  1  0.22077000  0.72557000  0.57943000  1.0 -0.0679811911
C  C371  1  0.72557000  0.22077000  0.47423000  1.0 -0.0679811911
C  C372  1  0.47423000  0.57943000  0.72557000  1.0 -0.0679811911
C  C373  1  0.02923000  0.67057000  0.52443000  1.0 -0.0679811911
C  C374  1  0.67057000  0.02923000  0.77577000  1.0 -0.0679811911
C  C375  1  0.77577000  0.52443000  0.67057000  1.0 -0.0679811911
C  C376  1  0.52443000  0.77577000  0.02923000  1.0 -0.0679811911
C  C377  1  0.77577000  0.02923000  0.52443000  1.0 -0.0679811911
C  C378  1  0.52443000  0.67057000  0.77577000  1.0 -0.0679811911
C  C379  1  0.02923000  0.77577000  0.67057000  1.0 -0.0679811911
C  C380  1  0.67057000  0.52443000  0.02923000  1.0 -0.0679811911
C  C381  1  0.67057000  0.77577000  0.52443000  1.0 -0.0679811911
C  C382  1  0.02923000  0.52443000  0.77577000  1.0 -0.0679811911
C  C383  1  0.52443000  0.02923000  0.67057000  1.0 -0.0679811911
C  C384  1  0.77577000  0.67057000  0.02923000  1.0 -0.0679811911
C  C385  1  0.06512000  0.64568000  0.78412000  1.0 -0.0490776735
C  C386  1  0.64568000  0.06512000  0.50508000  1.0 -0.0490776735
C  C387  1  0.78412000  0.50508000  0.06512000  1.0 -0.0490776735
C  C388  1  0.50508000  0.78412000  0.64568000  1.0 -0.0490776735
C  C389  1  0.78412000  0.06512000  0.64568000  1.0 -0.0490776735
C  C390  1  0.50508000  0.64568000  0.06512000  1.0 -0.0490776735
C  C391  1  0.06512000  0.78412000  0.50508000  1.0 -0.0490776735
C  C392  1  0.64568000  0.50508000  0.78412000  1.0 -0.0490776735
C  C393  1  0.64568000  0.78412000  0.06512000  1.0 -0.0490776735
C  C394  1  0.06512000  0.50508000  0.64568000  1.0 -0.0490776735
C  C395  1  0.50508000  0.06512000  0.78412000  1.0 -0.0490776735
C  C396  1  0.78412000  0.64568000  0.50508000  1.0 -0.0490776735
C  C397  1  0.18488000  0.60432000  0.74492000  1.0 -0.0490776735
C  C398  1  0.60432000  0.18488000  0.46588000  1.0 -0.0490776735
C  C399  1  0.46588000  0.74492000  0.60432000  1.0 -0.0490776735
C  C400  1  0.74492000  0.46588000  0.18488000  1.0 -0.0490776735
C  C401  1  0.46588000  0.18488000  0.74492000  1.0 -0.0490776735
C  C402  1  0.74492000  0.60432000  0.46588000  1.0 -0.0490776735
C  C403  1  0.18488000  0.46588000  0.60432000  1.0 -0.0490776735
C  C404  1  0.60432000  0.74492000  0.18488000  1.0 -0.0490776735
C  C405  1  0.60432000  0.46588000  0.74492000  1.0 -0.0490776735
C  C406  1  0.18488000  0.74492000  0.46588000  1.0 -0.0490776735
C  C407  1  0.74492000  0.18488000  0.60432000  1.0 -0.0490776735
C  C408  1  0.46588000  0.60432000  0.18488000  1.0 -0.0490776735
C  C409  1  0.18488000  0.60432000  0.46588000  1.0 -0.0490776735
C  C410  1  0.60432000  0.18488000  0.74492000  1.0 -0.0490776735
C  C411  1  0.46588000  0.74492000  0.18488000  1.0 -0.0490776735
C  C412  1  0.74492000  0.46588000  0.60432000  1.0 -0.0490776735
C  C413  1  0.46588000  0.18488000  0.60432000  1.0 -0.0490776735
C  C414  1  0.74492000  0.60432000  0.18488000  1.0 -0.0490776735
C  C415  1  0.18488000  0.46588000  0.74492000  1.0 -0.0490776735
C  C416  1  0.60432000  0.74492000  0.46588000  1.0 -0.0490776735
C  C417  1  0.60432000  0.46588000  0.18488000  1.0 -0.0490776735
C  C418  1  0.18488000  0.74492000  0.60432000  1.0 -0.0490776735
C  C419  1  0.74492000  0.18488000  0.46588000  1.0 -0.0490776735
C  C420  1  0.46588000  0.60432000  0.74492000  1.0 -0.0490776735
C  C421  1  0.06512000  0.64568000  0.50508000  1.0 -0.0490776735
C  C422  1  0.64568000  0.06512000  0.78412000  1.0 -0.0490776735
C  C423  1  0.78412000  0.50508000  0.64568000  1.0 -0.0490776735
C  C424  1  0.50508000  0.78412000  0.06512000  1.0 -0.0490776735
C  C425  1  0.78412000  0.06512000  0.50508000  1.0 -0.0490776735
C  C426  1  0.50508000  0.64568000  0.78412000  1.0 -0.0490776735
C  C427  1  0.06512000  0.78412000  0.64568000  1.0 -0.0490776735
C  C428  1  0.64568000  0.50508000  0.06512000  1.0 -0.0490776735
C  C429  1  0.64568000  0.78412000  0.50508000  1.0 -0.0490776735
C  C430  1  0.06512000  0.50508000  0.78412000  1.0 -0.0490776735
C  C431  1  0.50508000  0.06512000  0.64568000  1.0 -0.0490776735
C  C432  1  0.78412000  0.64568000  0.06512000  1.0 -0.0490776735
C  C433  1  0.09604000  0.62236000  0.76024000  1.0 -0.0995689509
C  C434  1  0.62236000  0.09604000  0.52136000  1.0 -0.0995689509
C  C435  1  0.76024000  0.52136000  0.09604000  1.0 -0.0995689509
C  C436  1  0.52136000  0.76024000  0.62236000  1.0 -0.0995689509
C  C437  1  0.76024000  0.09604000  0.62236000  1.0 -0.0995689509
C  C438  1  0.52136000  0.62236000  0.09604000  1.0 -0.0995689509
C  C439  1  0.09604000  0.76024000  0.52136000  1.0 -0.0995689509
C  C440  1  0.62236000  0.52136000  0.76024000  1.0 -0.0995689509
C  C441  1  0.62236000  0.76024000  0.09604000  1.0 -0.0995689509
C  C442  1  0.09604000  0.52136000  0.62236000  1.0 -0.0995689509
C  C443  1  0.52136000  0.09604000  0.76024000  1.0 -0.0995689509
C  C444  1  0.76024000  0.62236000  0.52136000  1.0 -0.0995689509
C  C445  1  0.15396000  0.62764000  0.72864000  1.0 -0.0995689509
C  C446  1  0.62764000  0.15396000  0.48976000  1.0 -0.0995689509
C  C447  1  0.48976000  0.72864000  0.62764000  1.0 -0.0995689509
C  C448  1  0.72864000  0.48976000  0.15396000  1.0 -0.0995689509
C  C449  1  0.48976000  0.15396000  0.72864000  1.0 -0.0995689509
C  C450  1  0.72864000  0.62764000  0.48976000  1.0 -0.0995689509
C  C451  1  0.15396000  0.48976000  0.62764000  1.0 -0.0995689509
C  C452  1  0.62764000  0.72864000  0.15396000  1.0 -0.0995689509
C  C453  1  0.62764000  0.48976000  0.72864000  1.0 -0.0995689509
C  C454  1  0.15396000  0.72864000  0.48976000  1.0 -0.0995689509
C  C455  1  0.72864000  0.15396000  0.62764000  1.0 -0.0995689509
C  C456  1  0.48976000  0.62764000  0.15396000  1.0 -0.0995689509
C  C457  1  0.15396000  0.62764000  0.48976000  1.0 -0.0995689509
C  C458  1  0.62764000  0.15396000  0.72864000  1.0 -0.0995689509
C  C459  1  0.48976000  0.72864000  0.15396000  1.0 -0.0995689509
C  C460  1  0.72864000  0.48976000  0.62764000  1.0 -0.0995689509
C  C461  1  0.48976000  0.15396000  0.62764000  1.0 -0.0995689509
C  C462  1  0.72864000  0.62764000  0.15396000  1.0 -0.0995689509
C  C463  1  0.15396000  0.48976000  0.72864000  1.0 -0.0995689509
C  C464  1  0.62764000  0.72864000  0.48976000  1.0 -0.0995689509
C  C465  1  0.62764000  0.48976000  0.15396000  1.0 -0.0995689509
C  C466  1  0.15396000  0.72864000  0.62764000  1.0 -0.0995689509
C  C467  1  0.72864000  0.15396000  0.48976000  1.0 -0.0995689509
C  C468  1  0.48976000  0.62764000  0.72864000  1.0 -0.0995689509
C  C469  1  0.09604000  0.62236000  0.52136000  1.0 -0.0995689509
C  C470  1  0.62236000  0.09604000  0.76024000  1.0 -0.0995689509
C  C471  1  0.76024000  0.52136000  0.62236000  1.0 -0.0995689509
C  C472  1  0.52136000  0.76024000  0.09604000  1.0 -0.0995689509
C  C473  1  0.76024000  0.09604000  0.52136000  1.0 -0.0995689509
C  C474  1  0.52136000  0.62236000  0.76024000  1.0 -0.0995689509
C  C475  1  0.09604000  0.76024000  0.62236000  1.0 -0.0995689509
C  C476  1  0.62236000  0.52136000  0.09604000  1.0 -0.0995689509
C  C477  1  0.62236000  0.76024000  0.52136000  1.0 -0.0995689509
C  C478  1  0.09604000  0.52136000  0.76024000  1.0 -0.0995689509
C  C479  1  0.52136000  0.09604000  0.62236000  1.0 -0.0995689509
C  C480  1  0.76024000  0.62236000  0.09604000  1.0 -0.0995689509
C  C481  1  0.09119000  0.62401000  0.72781000  1.0 -0.1104067433
C  C482  1  0.62401000  0.09119000  0.55699000  1.0 -0.1104067433
C  C483  1  0.72781000  0.55699000  0.09119000  1.0 -0.1104067433
C  C484  1  0.55699000  0.72781000  0.62401000  1.0 -0.1104067433
C  C485  1  0.72781000  0.09119000  0.62401000  1.0 -0.1104067433
C  C486  1  0.55699000  0.62401000  0.09119000  1.0 -0.1104067433
C  C487  1  0.09119000  0.72781000  0.55699000  1.0 -0.1104067433
C  C488  1  0.62401000  0.55699000  0.72781000  1.0 -0.1104067433
C  C489  1  0.62401000  0.72781000  0.09119000  1.0 -0.1104067433
C  C490  1  0.09119000  0.55699000  0.62401000  1.0 -0.1104067433
C  C491  1  0.55699000  0.09119000  0.72781000  1.0 -0.1104067433
C  C492  1  0.72781000  0.62401000  0.55699000  1.0 -0.1104067433
C  C493  1  0.15881000  0.62599000  0.69301000  1.0 -0.1104067433
C  C494  1  0.62599000  0.15881000  0.52219000  1.0 -0.1104067433
C  C495  1  0.52219000  0.69301000  0.62599000  1.0 -0.1104067433
C  C496  1  0.69301000  0.52219000  0.15881000  1.0 -0.1104067433
C  C497  1  0.52219000  0.15881000  0.69301000  1.0 -0.1104067433
C  C498  1  0.69301000  0.62599000  0.52219000  1.0 -0.1104067433
C  C499  1  0.15881000  0.52219000  0.62599000  1.0 -0.1104067433
C  C500  1  0.62599000  0.69301000  0.15881000  1.0 -0.1104067433
C  C501  1  0.62599000  0.52219000  0.69301000  1.0 -0.1104067433
C  C502  1  0.15881000  0.69301000  0.52219000  1.0 -0.1104067433
C  C503  1  0.69301000  0.15881000  0.62599000  1.0 -0.1104067433
C  C504  1  0.52219000  0.62599000  0.15881000  1.0 -0.1104067433
C  C505  1  0.15881000  0.62599000  0.52219000  1.0 -0.1104067433
C  C506  1  0.62599000  0.15881000  0.69301000  1.0 -0.1104067433
C  C507  1  0.52219000  0.69301000  0.15881000  1.0 -0.1104067433
C  C508  1  0.69301000  0.52219000  0.62599000  1.0 -0.1104067433
C  C509  1  0.52219000  0.15881000  0.62599000  1.0 -0.1104067433
C  C510  1  0.69301000  0.62599000  0.15881000  1.0 -0.1104067433
C  C511  1  0.15881000  0.52219000  0.69301000  1.0 -0.1104067433
C  C512  1  0.62599000  0.69301000  0.52219000  1.0 -0.1104067433
C  C513  1  0.62599000  0.52219000  0.15881000  1.0 -0.1104067433
C  C514  1  0.15881000  0.69301000  0.62599000  1.0 -0.1104067433
C  C515  1  0.69301000  0.15881000  0.52219000  1.0 -0.1104067433
C  C516  1  0.52219000  0.62599000  0.69301000  1.0 -0.1104067433
C  C517  1  0.09119000  0.62401000  0.55699000  1.0 -0.1104067433
C  C518  1  0.62401000  0.09119000  0.72781000  1.0 -0.1104067433
C  C519  1  0.72781000  0.55699000  0.62401000  1.0 -0.1104067433
C  C520  1  0.55699000  0.72781000  0.09119000  1.0 -0.1104067433
C  C521  1  0.72781000  0.09119000  0.55699000  1.0 -0.1104067433
C  C522  1  0.55699000  0.62401000  0.72781000  1.0 -0.1104067433
C  C523  1  0.09119000  0.72781000  0.62401000  1.0 -0.1104067433
C  C524  1  0.62401000  0.55699000  0.09119000  1.0 -0.1104067433
C  C525  1  0.62401000  0.72781000  0.55699000  1.0 -0.1104067433
C  C526  1  0.09119000  0.55699000  0.72781000  1.0 -0.1104067433
C  C527  1  0.55699000  0.09119000  0.62401000  1.0 -0.1104067433
C  C528  1  0.72781000  0.62401000  0.09119000  1.0 -0.1104067433
C  C529  1  0.07210000  0.64470000  0.81790000  1.0 -0.0168722122
C  C530  1  0.64470000  0.07210000  0.46530000  1.0 -0.0133388093
C  C531  1  0.81790000  0.46530000  0.07210000  1.0 -0.0133388093
C  C532  1  0.46530000  0.81790000  0.64470000  1.0 -0.0133388093
C  C533  1  0.81790000  0.07210000  0.64470000  1.0 -0.0133388093
C  C534  1  0.46530000  0.64470000  0.07210000  1.0 -0.0133388093
C  C535  1  0.07210000  0.81790000  0.46530000  1.0 -0.0168722122
C  C536  1  0.64470000  0.46530000  0.81790000  1.0 -0.0133388093
C  C537  1  0.64470000  0.81790000  0.07210000  1.0 -0.0133388093
C  C538  1  0.07210000  0.46530000  0.64470000  1.0 -0.0133388093
C  C539  1  0.46530000  0.07210000  0.81790000  1.0 -0.0133388093
C  C540  1  0.81790000  0.64470000  0.46530000  1.0 -0.0133388093
C  C541  1  0.17790000  0.60530000  0.78470000  1.0 -0.0168722122
C  C542  1  0.60530000  0.17790000  0.43210000  1.0 -0.0133388093
C  C543  1  0.43210000  0.78470000  0.60530000  1.0 -0.0133388093
C  C544  1  0.78470000  0.43210000  0.17790000  1.0 -0.0133388093
C  C545  1  0.43210000  0.17790000  0.78470000  1.0 -0.0133388093
C  C546  1  0.78470000  0.60530000  0.43210000  1.0 -0.0133388093
C  C547  1  0.17790000  0.43210000  0.60530000  1.0 -0.0133388093
C  C548  1  0.60530000  0.78470000  0.17790000  1.0 -0.0133388093
C  C549  1  0.60530000  0.43210000  0.78470000  1.0 -0.0133388093
C  C550  1  0.17790000  0.78470000  0.43210000  1.0 -0.0168722122
C  C551  1  0.78470000  0.17790000  0.60530000  1.0 -0.0133388093
C  C552  1  0.43210000  0.60530000  0.17790000  1.0 -0.0133388093
C  C553  1  0.17790000  0.60530000  0.43210000  1.0 -0.0133388093
C  C554  1  0.60530000  0.17790000  0.78470000  1.0 -0.0133388093
C  C555  1  0.43210000  0.78470000  0.17790000  1.0 -0.0133388093
C  C556  1  0.78470000  0.43210000  0.60530000  1.0 -0.0133388093
C  C557  1  0.43210000  0.17790000  0.60530000  1.0 -0.0133388093
C  C558  1  0.78470000  0.60530000  0.17790000  1.0 -0.0133388093
C  C559  1  0.17790000  0.43210000  0.78470000  1.0 -0.0133388093
C  C560  1  0.60530000  0.78470000  0.43210000  1.0 -0.0133388093
C  C561  1  0.60530000  0.43210000  0.17790000  1.0 -0.0133388093
C  C562  1  0.17790000  0.78470000  0.60530000  1.0 -0.0168722122
C  C563  1  0.78470000  0.17790000  0.43210000  1.0 -0.0133388093
C  C564  1  0.43210000  0.60530000  0.78470000  1.0 -0.0133388093
C  C565  1  0.07210000  0.64470000  0.46530000  1.0 -0.0168722122
C  C566  1  0.64470000  0.07210000  0.81790000  1.0 -0.0133388093
C  C567  1  0.81790000  0.46530000  0.64470000  1.0 -0.0133388093
C  C568  1  0.46530000  0.81790000  0.07210000  1.0 -0.0133388093
C  C569  1  0.81790000  0.07210000  0.46530000  1.0 -0.0133388093
C  C570  1  0.46530000  0.64470000  0.81790000  1.0 -0.0133388093
C  C571  1  0.07210000  0.81790000  0.64470000  1.0 -0.0168722122
C  C572  1  0.64470000  0.46530000  0.07210000  1.0 -0.0133388093
C  C573  1  0.64470000  0.81790000  0.46530000  1.0 -0.0133388093
C  C574  1  0.07210000  0.46530000  0.81790000  1.0 -0.0168722122
C  C575  1  0.46530000  0.07210000  0.64470000  1.0 -0.0133388093
C  C576  1  0.81790000  0.64470000  0.07210000  1.0 -0.0133388093
C  C577  1  0.04320000  0.64100000  0.85620000  1.0 -0.0922709556
C  C578  1  0.64100000  0.04320000  0.45960000  1.0 -0.0922709556
C  C579  1  0.85620000  0.45960000  0.04320000  1.0 -0.0922709556
C  C580  1  0.45960000  0.85620000  0.64100000  1.0 -0.0922709556
C  C581  1  0.85620000  0.04320000  0.64100000  1.0 -0.0922709556
C  C582  1  0.45960000  0.64100000  0.04320000  1.0 -0.0922709556
C  C583  1  0.04320000  0.85620000  0.45960000  1.0 -0.0922709556
C  C584  1  0.64100000  0.45960000  0.85620000  1.0 -0.0922709556
C  C585  1  0.64100000  0.85620000  0.04320000  1.0 -0.0922709556
C  C586  1  0.04320000  0.45960000  0.64100000  1.0 -0.0922709556
C  C587  1  0.45960000  0.04320000  0.85620000  1.0 -0.0922709556
C  C588  1  0.85620000  0.64100000  0.45960000  1.0 -0.0922709556
C  C589  1  0.20680000  0.60900000  0.79040000  1.0 -0.0922709556
C  C590  1  0.60900000  0.20680000  0.39380000  1.0 -0.0922709556
C  C591  1  0.39380000  0.79040000  0.60900000  1.0 -0.0922709556
C  C592  1  0.79040000  0.39380000  0.20680000  1.0 -0.0922709556
C  C593  1  0.39380000  0.20680000  0.79040000  1.0 -0.0922709556
C  C594  1  0.79040000  0.60900000  0.39380000  1.0 -0.0922709556
C  C595  1  0.20680000  0.39380000  0.60900000  1.0 -0.0922709556
C  C596  1  0.60900000  0.79040000  0.20680000  1.0 -0.0922709556
C  C597  1  0.60900000  0.39380000  0.79040000  1.0 -0.0922709556
C  C598  1  0.20680000  0.79040000  0.39380000  1.0 -0.0922709556
C  C599  1  0.79040000  0.20680000  0.60900000  1.0 -0.0922709556
C  C600  1  0.39380000  0.60900000  0.20680000  1.0 -0.0922709556
C  C601  1  0.20680000  0.60900000  0.39380000  1.0 -0.0922709556
C  C602  1  0.60900000  0.20680000  0.79040000  1.0 -0.0922709556
C  C603  1  0.39380000  0.79040000  0.20680000  1.0 -0.0922709556
C  C604  1  0.79040000  0.39380000  0.60900000  1.0 -0.0922709556
C  C605  1  0.39380000  0.20680000  0.60900000  1.0 -0.0922709556
C  C606  1  0.79040000  0.60900000  0.20680000  1.0 -0.0922709556
C  C607  1  0.20680000  0.39380000  0.79040000  1.0 -0.0922709556
C  C608  1  0.60900000  0.79040000  0.39380000  1.0 -0.0922709556
C  C609  1  0.60900000  0.39380000  0.20680000  1.0 -0.0922709556
C  C610  1  0.20680000  0.79040000  0.60900000  1.0 -0.0922709556
C  C611  1  0.79040000  0.20680000  0.39380000  1.0 -0.0922709556
C  C612  1  0.39380000  0.60900000  0.79040000  1.0 -0.0922709556
C  C613  1  0.04320000  0.64100000  0.45960000  1.0 -0.0922709556
C  C614  1  0.64100000  0.04320000  0.85620000  1.0 -0.0922709556
C  C615  1  0.85620000  0.45960000  0.64100000  1.0 -0.0922709556
C  C616  1  0.45960000  0.85620000  0.04320000  1.0 -0.0922709556
C  C617  1  0.85620000  0.04320000  0.45960000  1.0 -0.0922709556
C  C618  1  0.45960000  0.64100000  0.85620000  1.0 -0.0922709556
C  C619  1  0.04320000  0.85620000  0.64100000  1.0 -0.0922709556
C  C620  1  0.64100000  0.45960000  0.04320000  1.0 -0.0922709556
C  C621  1  0.64100000  0.85620000  0.45960000  1.0 -0.0922709556
C  C622  1  0.04320000  0.45960000  0.85620000  1.0 -0.0922709556
C  C623  1  0.45960000  0.04320000  0.64100000  1.0 -0.0922709556
C  C624  1  0.85620000  0.64100000  0.04320000  1.0 -0.0922709556
C  C625  1  0.05100000  0.63920000  0.88680000  1.0 -0.1104067433
C  C626  1  0.63920000  0.05100000  0.42300000  1.0 -0.1104067433
C  C627  1  0.88680000  0.42300000  0.05100000  1.0 -0.1104067433
C  C628  1  0.42300000  0.88680000  0.63920000  1.0 -0.1104067433
C  C629  1  0.88680000  0.05100000  0.63920000  1.0 -0.1104067433
C  C630  1  0.42300000  0.63920000  0.05100000  1.0 -0.1104067433
C  C631  1  0.05100000  0.88680000  0.42300000  1.0 -0.1104067433
C  C632  1  0.63920000  0.42300000  0.88680000  1.0 -0.1104067433
C  C633  1  0.63920000  0.88680000  0.05100000  1.0 -0.1104067433
C  C634  1  0.05100000  0.42300000  0.63920000  1.0 -0.1104067433
C  C635  1  0.42300000  0.05100000  0.88680000  1.0 -0.1104067433
C  C636  1  0.88680000  0.63920000  0.42300000  1.0 -0.1104067433
C  C637  1  0.19900000  0.61080000  0.82700000  1.0 -0.1104067433
C  C638  1  0.61080000  0.19900000  0.36320000  1.0 -0.1104067433
C  C639  1  0.36320000  0.82700000  0.61080000  1.0 -0.1104067433
C  C640  1  0.82700000  0.36320000  0.19900000  1.0 -0.1104067433
C  C641  1  0.36320000  0.19900000  0.82700000  1.0 -0.1104067433
C  C642  1  0.82700000  0.61080000  0.36320000  1.0 -0.1104067433
C  C643  1  0.19900000  0.36320000  0.61080000  1.0 -0.1104067433
C  C644  1  0.61080000  0.82700000  0.19900000  1.0 -0.1104067433
C  C645  1  0.61080000  0.36320000  0.82700000  1.0 -0.1104067433
C  C646  1  0.19900000  0.82700000  0.36320000  1.0 -0.1104067433
C  C647  1  0.82700000  0.19900000  0.61080000  1.0 -0.1104067433
C  C648  1  0.36320000  0.61080000  0.19900000  1.0 -0.1104067433
C  C649  1  0.19900000  0.61080000  0.36320000  1.0 -0.1104067433
C  C650  1  0.61080000  0.19900000  0.82700000  1.0 -0.1104067433
C  C651  1  0.36320000  0.82700000  0.19900000  1.0 -0.1104067433
C  C652  1  0.82700000  0.36320000  0.61080000  1.0 -0.1104067433
C  C653  1  0.36320000  0.19900000  0.61080000  1.0 -0.1104067433
C  C654  1  0.82700000  0.61080000  0.19900000  1.0 -0.1104067433
C  C655  1  0.19900000  0.36320000  0.82700000  1.0 -0.1104067433
C  C656  1  0.61080000  0.82700000  0.36320000  1.0 -0.1104067433
C  C657  1  0.61080000  0.36320000  0.19900000  1.0 -0.1104067433
C  C658  1  0.19900000  0.82700000  0.61080000  1.0 -0.1104067433
C  C659  1  0.82700000  0.19900000  0.36320000  1.0 -0.1104067433
C  C660  1  0.36320000  0.61080000  0.82700000  1.0 -0.1104067433
C  C661  1  0.05100000  0.63920000  0.42300000  1.0 -0.1104067433
C  C662  1  0.63920000  0.05100000  0.88680000  1.0 -0.1104067433
C  C663  1  0.88680000  0.42300000  0.63920000  1.0 -0.1104067433
C  C664  1  0.42300000  0.88680000  0.05100000  1.0 -0.1104067433
C  C665  1  0.88680000  0.05100000  0.42300000  1.0 -0.1104067433
C  C666  1  0.42300000  0.63920000  0.88680000  1.0 -0.1104067433
C  C667  1  0.05100000  0.88680000  0.63920000  1.0 -0.1104067433
C  C668  1  0.63920000  0.42300000  0.05100000  1.0 -0.1104067433
C  C669  1  0.63920000  0.88680000  0.42300000  1.0 -0.1104067433
C  C670  1  0.05100000  0.42300000  0.88680000  1.0 -0.1104067433
C  C671  1  0.42300000  0.05100000  0.63920000  1.0 -0.1104067433
C  C672  1  0.88680000  0.63920000  0.05100000  1.0 -0.1104067433
C  C673  1  0.08740000  0.64120000  0.87920000  1.0 0.0070878657
C  C674  1  0.64120000  0.08740000  0.39220000  1.0 0.0070878657
C  C675  1  0.87920000  0.39220000  0.08740000  1.0 0.0070878657
C  C676  1  0.39220000  0.87920000  0.64120000  1.0 0.0070878657
C  C677  1  0.87920000  0.08740000  0.64120000  1.0 0.0070878657
C  C678  1  0.39220000  0.64120000  0.08740000  1.0 0.0070878657
C  C679  1  0.08740000  0.87920000  0.39220000  1.0 0.0070878657
C  C680  1  0.64120000  0.39220000  0.87920000  1.0 0.0070878657
C  C681  1  0.64120000  0.87920000  0.08740000  1.0 0.0070878657
C  C682  1  0.08740000  0.39220000  0.64120000  1.0 0.0070878657
C  C683  1  0.39220000  0.08740000  0.87920000  1.0 0.0070878657
C  C684  1  0.87920000  0.64120000  0.39220000  1.0 0.0070878657
C  C685  1  0.16260000  0.60880000  0.85780000  1.0 0.0070878657
C  C686  1  0.60880000  0.16260000  0.37080000  1.0 0.0070878657
C  C687  1  0.37080000  0.85780000  0.60880000  1.0 0.0070878657
C  C688  1  0.85780000  0.37080000  0.16260000  1.0 0.0070878657
C  C689  1  0.37080000  0.16260000  0.85780000  1.0 0.0070878657
C  C690  1  0.85780000  0.60880000  0.37080000  1.0 0.0070878657
C  C691  1  0.16260000  0.37080000  0.60880000  1.0 0.0070878657
C  C692  1  0.60880000  0.85780000  0.16260000  1.0 0.0070878657
C  C693  1  0.60880000  0.37080000  0.85780000  1.0 0.0070878657
C  C694  1  0.16260000  0.85780000  0.37080000  1.0 0.0070878657
C  C695  1  0.85780000  0.16260000  0.60880000  1.0 0.0070878657
C  C696  1  0.37080000  0.60880000  0.16260000  1.0 0.0070878657
C  C697  1  0.16260000  0.60880000  0.37080000  1.0 0.0070878657
C  C698  1  0.60880000  0.16260000  0.85780000  1.0 0.0070878657
C  C699  1  0.37080000  0.85780000  0.16260000  1.0 0.0070878657
C  C700  1  0.85780000  0.37080000  0.60880000  1.0 0.0070878657
C  C701  1  0.37080000  0.16260000  0.60880000  1.0 0.0070878657
C  C702  1  0.85780000  0.60880000  0.16260000  1.0 0.0070878657
C  C703  1  0.16260000  0.37080000  0.85780000  1.0 0.0070878657
C  C704  1  0.60880000  0.85780000  0.37080000  1.0 0.0070878657
C  C705  1  0.60880000  0.37080000  0.16260000  1.0 0.0070878657
C  C706  1  0.16260000  0.85780000  0.60880000  1.0 0.0070878657
C  C707  1  0.85780000  0.16260000  0.37080000  1.0 0.0070878657
C  C708  1  0.37080000  0.60880000  0.85780000  1.0 0.0070878657
C  C709  1  0.08740000  0.64120000  0.39220000  1.0 0.0070878657
C  C710  1  0.64120000  0.08740000  0.87920000  1.0 0.0070878657
C  C711  1  0.87920000  0.39220000  0.64120000  1.0 0.0070878657
C  C712  1  0.39220000  0.87920000  0.08740000  1.0 0.0070878657
C  C713  1  0.87920000  0.08740000  0.39220000  1.0 0.0070878657
C  C714  1  0.39220000  0.64120000  0.87920000  1.0 0.0070878657
C  C715  1  0.08740000  0.87920000  0.64120000  1.0 0.0070878657
C  C716  1  0.64120000  0.39220000  0.08740000  1.0 0.0070878657
C  C717  1  0.64120000  0.87920000  0.39220000  1.0 0.0070878657
C  C718  1  0.08740000  0.39220000  0.87920000  1.0 0.0070878657
C  C719  1  0.39220000  0.08740000  0.64120000  1.0 0.0070878657
C  C720  1  0.87920000  0.64120000  0.08740000  1.0 0.0070878657
C  C721  1  0.11620000  0.64500000  0.84100000  1.0 -0.0303494844
C  C722  1  0.64500000  0.11620000  0.39780000  1.0 -0.0303494844
C  C723  1  0.84100000  0.39780000  0.11620000  1.0 -0.0303494844
C  C724  1  0.39780000  0.84100000  0.64500000  1.0 -0.0303494844
C  C725  1  0.84100000  0.11620000  0.64500000  1.0 -0.0303494844
C  C726  1  0.39780000  0.64500000  0.11620000  1.0 -0.0303494844
C  C727  1  0.11620000  0.84100000  0.39780000  1.0 -0.0303494844
C  C728  1  0.64500000  0.39780000  0.84100000  1.0 -0.0303494844
C  C729  1  0.64500000  0.84100000  0.11620000  1.0 -0.0303494844
C  C730  1  0.11620000  0.39780000  0.64500000  1.0 -0.0303494844
C  C731  1  0.39780000  0.11620000  0.84100000  1.0 -0.0303494844
C  C732  1  0.84100000  0.64500000  0.39780000  1.0 -0.0303494844
C  C733  1  0.13380000  0.60500000  0.85220000  1.0 -0.0303494844
C  C734  1  0.60500000  0.13380000  0.40900000  1.0 -0.0303494844
C  C735  1  0.40900000  0.85220000  0.60500000  1.0 -0.0303494844
C  C736  1  0.85220000  0.40900000  0.13380000  1.0 -0.0303494844
C  C737  1  0.40900000  0.13380000  0.85220000  1.0 -0.0303494844
C  C738  1  0.85220000  0.60500000  0.40900000  1.0 -0.0303494844
C  C739  1  0.13380000  0.40900000  0.60500000  1.0 -0.0303494844
C  C740  1  0.60500000  0.85220000  0.13380000  1.0 -0.0303494844
C  C741  1  0.60500000  0.40900000  0.85220000  1.0 -0.0303494844
C  C742  1  0.13380000  0.85220000  0.40900000  1.0 -0.0303494844
C  C743  1  0.85220000  0.13380000  0.60500000  1.0 -0.0303494844
C  C744  1  0.40900000  0.60500000  0.13380000  1.0 -0.0303494844
C  C745  1  0.13380000  0.60500000  0.40900000  1.0 -0.0303494844
C  C746  1  0.60500000  0.13380000  0.85220000  1.0 -0.0303494844
C  C747  1  0.40900000  0.85220000  0.13380000  1.0 -0.0303494844
C  C748  1  0.85220000  0.40900000  0.60500000  1.0 -0.0303494844
C  C749  1  0.40900000  0.13380000  0.60500000  1.0 -0.0303494844
C  C750  1  0.85220000  0.60500000  0.13380000  1.0 -0.0303494844
C  C751  1  0.13380000  0.40900000  0.85220000  1.0 -0.0303494844
C  C752  1  0.60500000  0.85220000  0.40900000  1.0 -0.0303494844
C  C753  1  0.60500000  0.40900000  0.13380000  1.0 -0.0303494844
C  C754  1  0.13380000  0.85220000  0.60500000  1.0 -0.0303494844
C  C755  1  0.85220000  0.13380000  0.40900000  1.0 -0.0303494844
C  C756  1  0.40900000  0.60500000  0.85220000  1.0 -0.0303494844
C  C757  1  0.11620000  0.64500000  0.39780000  1.0 -0.0303494844
C  C758  1  0.64500000  0.11620000  0.84100000  1.0 -0.0303494844
C  C759  1  0.84100000  0.39780000  0.64500000  1.0 -0.0303494844
C  C760  1  0.39780000  0.84100000  0.11620000  1.0 -0.0303494844
C  C761  1  0.84100000  0.11620000  0.39780000  1.0 -0.0303494844
C  C762  1  0.39780000  0.64500000  0.84100000  1.0 -0.0303494844
C  C763  1  0.11620000  0.84100000  0.64500000  1.0 -0.0303494844
C  C764  1  0.64500000  0.39780000  0.11620000  1.0 -0.0303494844
C  C765  1  0.64500000  0.84100000  0.39780000  1.0 -0.0303494844
C  C766  1  0.11620000  0.39780000  0.84100000  1.0 -0.0303494844
C  C767  1  0.39780000  0.11620000  0.64500000  1.0 -0.0303494844
C  C768  1  0.84100000  0.64500000  0.11620000  1.0 -0.0303494844
C  C769  1  0.10860000  0.64680000  0.81020000  1.0 -0.0423888459
C  C770  1  0.64680000  0.10860000  0.43440000  1.0 -0.0423888459
C  C771  1  0.81020000  0.43440000  0.10860000  1.0 -0.0423888459
C  C772  1  0.43440000  0.81020000  0.64680000  1.0 -0.0423888459
C  C773  1  0.81020000  0.10860000  0.64680000  1.0 -0.0423888459
C  C774  1  0.43440000  0.64680000  0.10860000  1.0 -0.0423888459
C  C775  1  0.10860000  0.81020000  0.43440000  1.0 -0.0423888459
C  C776  1  0.64680000  0.43440000  0.81020000  1.0 -0.0423888459
C  C777  1  0.64680000  0.81020000  0.10860000  1.0 -0.0423888459
C  C778  1  0.10860000  0.43440000  0.64680000  1.0 -0.0423888459
C  C779  1  0.43440000  0.10860000  0.81020000  1.0 -0.0423888459
C  C780  1  0.81020000  0.64680000  0.43440000  1.0 -0.0423888459
C  C781  1  0.14140000  0.60320000  0.81560000  1.0 -0.0423888459
C  C782  1  0.60320000  0.14140000  0.43980000  1.0 -0.0423888459
C  C783  1  0.43980000  0.81560000  0.60320000  1.0 -0.0423888459
C  C784  1  0.81560000  0.43980000  0.14140000  1.0 -0.0423888459
C  C785  1  0.43980000  0.14140000  0.81560000  1.0 -0.0423888459
C  C786  1  0.81560000  0.60320000  0.43980000  1.0 -0.0423888459
C  C787  1  0.14140000  0.43980000  0.60320000  1.0 -0.0423888459
C  C788  1  0.60320000  0.81560000  0.14140000  1.0 -0.0423888459
C  C789  1  0.60320000  0.43980000  0.81560000  1.0 -0.0423888459
C  C790  1  0.14140000  0.81560000  0.43980000  1.0 -0.0423888459
C  C791  1  0.81560000  0.14140000  0.60320000  1.0 -0.0423888459
C  C792  1  0.43980000  0.60320000  0.14140000  1.0 -0.0423888459
C  C793  1  0.14140000  0.60320000  0.43980000  1.0 -0.0423888459
C  C794  1  0.60320000  0.14140000  0.81560000  1.0 -0.0423888459
C  C795  1  0.43980000  0.81560000  0.14140000  1.0 -0.0423888459
C  C796  1  0.81560000  0.43980000  0.60320000  1.0 -0.0423888459
C  C797  1  0.43980000  0.14140000  0.60320000  1.0 -0.0423888459
C  C798  1  0.81560000  0.60320000  0.14140000  1.0 -0.0423888459
C  C799  1  0.14140000  0.43980000  0.81560000  1.0 -0.0423888459
C  C800  1  0.60320000  0.81560000  0.43980000  1.0 -0.0423888459
C  C801  1  0.60320000  0.43980000  0.14140000  1.0 -0.0423888459
C  C802  1  0.14140000  0.81560000  0.60320000  1.0 -0.0423888459
C  C803  1  0.81560000  0.14140000  0.43980000  1.0 -0.0423888459
C  C804  1  0.43980000  0.60320000  0.81560000  1.0 -0.0423888459
C  C805  1  0.10860000  0.64680000  0.43440000  1.0 -0.0423888459
C  C806  1  0.64680000  0.10860000  0.81020000  1.0 -0.0423888459
C  C807  1  0.81020000  0.43440000  0.64680000  1.0 -0.0423888459
C  C808  1  0.43440000  0.81020000  0.10860000  1.0 -0.0423888459
C  C809  1  0.81020000  0.10860000  0.43440000  1.0 -0.0423888459
C  C810  1  0.43440000  0.64680000  0.81020000  1.0 -0.0423888459
C  C811  1  0.10860000  0.81020000  0.64680000  1.0 -0.0423888459
C  C812  1  0.64680000  0.43440000  0.10860000  1.0 -0.0423888459
C  C813  1  0.64680000  0.81020000  0.43440000  1.0 -0.0423888459
C  C814  1  0.10860000  0.43440000  0.81020000  1.0 -0.0423888459
C  C815  1  0.43440000  0.10860000  0.64680000  1.0 -0.0423888459
C  C816  1  0.81020000  0.64680000  0.10860000  1.0 -0.0423888459
C  C817  1  0.09739000  0.63661000  0.91319000  1.0 -0.0303494844
C  C818  1  0.63661000  0.09739000  0.35281000  1.0 -0.0303494844
C  C819  1  0.91319000  0.35281000  0.09739000  1.0 -0.0303494844
C  C820  1  0.35281000  0.91319000  0.63661000  1.0 -0.0303494844
C  C821  1  0.91319000  0.09739000  0.63661000  1.0 -0.0303494844
C  C822  1  0.35281000  0.63661000  0.09739000  1.0 -0.0303494844
C  C823  1  0.09739000  0.91319000  0.35281000  1.0 -0.0303494844
C  C824  1  0.63661000  0.35281000  0.91319000  1.0 -0.0303494844
C  C825  1  0.63661000  0.91319000  0.09739000  1.0 -0.0303494844
C  C826  1  0.09739000  0.35281000  0.63661000  1.0 -0.0303494844
C  C827  1  0.35281000  0.09739000  0.91319000  1.0 -0.0303494844
C  C828  1  0.91319000  0.63661000  0.35281000  1.0 -0.0303494844
C  C829  1  0.15261000  0.61339000  0.89719000  1.0 -0.0303494844
C  C830  1  0.61339000  0.15261000  0.33681000  1.0 -0.0303494844
C  C831  1  0.33681000  0.89719000  0.61339000  1.0 -0.0303494844
C  C832  1  0.89719000  0.33681000  0.15261000  1.0 -0.0303494844
C  C833  1  0.33681000  0.15261000  0.89719000  1.0 -0.0303494844
C  C834  1  0.89719000  0.61339000  0.33681000  1.0 -0.0303494844
C  C835  1  0.15261000  0.33681000  0.61339000  1.0 -0.0303494844
C  C836  1  0.61339000  0.89719000  0.15261000  1.0 -0.0303494844
C  C837  1  0.61339000  0.33681000  0.89719000  1.0 -0.0303494844
C  C838  1  0.15261000  0.89719000  0.33681000  1.0 -0.0303494844
C  C839  1  0.89719000  0.15261000  0.61339000  1.0 -0.0303494844
C  C840  1  0.33681000  0.61339000  0.15261000  1.0 -0.0303494844
C  C841  1  0.15261000  0.61339000  0.33681000  1.0 -0.0303494844
C  C842  1  0.61339000  0.15261000  0.89719000  1.0 -0.0303494844
C  C843  1  0.33681000  0.89719000  0.15261000  1.0 -0.0303494844
C  C844  1  0.89719000  0.33681000  0.61339000  1.0 -0.0303494844
C  C845  1  0.33681000  0.15261000  0.61339000  1.0 -0.0303494844
C  C846  1  0.89719000  0.61339000  0.15261000  1.0 -0.0303494844
C  C847  1  0.15261000  0.33681000  0.89719000  1.0 -0.0303494844
C  C848  1  0.61339000  0.89719000  0.33681000  1.0 -0.0303494844
C  C849  1  0.61339000  0.33681000  0.15261000  1.0 -0.0303494844
C  C850  1  0.15261000  0.89719000  0.61339000  1.0 -0.0303494844
C  C851  1  0.89719000  0.15261000  0.33681000  1.0 -0.0303494844
C  C852  1  0.33681000  0.61339000  0.89719000  1.0 -0.0303494844
C  C853  1  0.09739000  0.63661000  0.35281000  1.0 -0.0303494844
C  C854  1  0.63661000  0.09739000  0.91319000  1.0 -0.0303494844
C  C855  1  0.91319000  0.35281000  0.63661000  1.0 -0.0303494844
C  C856  1  0.35281000  0.91319000  0.09739000  1.0 -0.0303494844
C  C857  1  0.91319000  0.09739000  0.35281000  1.0 -0.0303494844
C  C858  1  0.35281000  0.63661000  0.91319000  1.0 -0.0303494844
C  C859  1  0.09739000  0.91319000  0.63661000  1.0 -0.0303494844
C  C860  1  0.63661000  0.35281000  0.09739000  1.0 -0.0303494844
C  C861  1  0.63661000  0.91319000  0.35281000  1.0 -0.0303494844
C  C862  1  0.09739000  0.35281000  0.91319000  1.0 -0.0303494844
C  C863  1  0.35281000  0.09739000  0.63661000  1.0 -0.0303494844
C  C864  1  0.91319000  0.63661000  0.09739000  1.0 -0.0303494844
C  C865  1  0.08760000  0.60800000  0.95100000  1.0 -0.0679811911
C  C866  1  0.60800000  0.08760000  0.35340000  1.0 -0.0679811911
C  C867  1  0.95100000  0.35340000  0.08760000  1.0 -0.0679811911
C  C868  1  0.35340000  0.95100000  0.60800000  1.0 -0.0679811911
C  C869  1  0.95100000  0.08760000  0.60800000  1.0 -0.0679811911
C  C870  1  0.35340000  0.60800000  0.08760000  1.0 -0.0679811911
C  C871  1  0.08760000  0.95100000  0.35340000  1.0 -0.0679811911
C  C872  1  0.60800000  0.35340000  0.95100000  1.0 -0.0679811911
C  C873  1  0.60800000  0.95100000  0.08760000  1.0 -0.0679811911
C  C874  1  0.08760000  0.35340000  0.60800000  1.0 -0.0679811911
C  C875  1  0.35340000  0.08760000  0.95100000  1.0 -0.0679811911
C  C876  1  0.95100000  0.60800000  0.35340000  1.0 -0.0679811911
C  C877  1  0.16240000  0.64200000  0.89660000  1.0 -0.0679811911
C  C878  1  0.64200000  0.16240000  0.29900000  1.0 -0.0679811911
C  C879  1  0.29900000  0.89660000  0.64200000  1.0 -0.0679811911
C  C880  1  0.89660000  0.29900000  0.16240000  1.0 -0.0679811911
C  C881  1  0.29900000  0.16240000  0.89660000  1.0 -0.0679811911
C  C882  1  0.89660000  0.64200000  0.29900000  1.0 -0.0679811911
C  C883  1  0.16240000  0.29900000  0.64200000  1.0 -0.0679811911
C  C884  1  0.64200000  0.89660000  0.16240000  1.0 -0.0679811911
C  C885  1  0.64200000  0.29900000  0.89660000  1.0 -0.0679811911
C  C886  1  0.16240000  0.89660000  0.29900000  1.0 -0.0679811911
C  C887  1  0.89660000  0.16240000  0.64200000  1.0 -0.0679811911
C  C888  1  0.29900000  0.64200000  0.16240000  1.0 -0.0679811911
C  C889  1  0.16240000  0.64200000  0.29900000  1.0 -0.0679811911
C  C890  1  0.64200000  0.16240000  0.89660000  1.0 -0.0679811911
C  C891  1  0.29900000  0.89660000  0.16240000  1.0 -0.0679811911
C  C892  1  0.89660000  0.29900000  0.64200000  1.0 -0.0679811911
C  C893  1  0.29900000  0.16240000  0.64200000  1.0 -0.0679811911
C  C894  1  0.89660000  0.64200000  0.16240000  1.0 -0.0679811911
C  C895  1  0.16240000  0.29900000  0.89660000  1.0 -0.0679811911
C  C896  1  0.64200000  0.89660000  0.29900000  1.0 -0.0679811911
C  C897  1  0.64200000  0.29900000  0.16240000  1.0 -0.0679811911
C  C898  1  0.16240000  0.89660000  0.64200000  1.0 -0.0679811911
C  C899  1  0.89660000  0.16240000  0.29900000  1.0 -0.0679811911
C  C900  1  0.29900000  0.64200000  0.89660000  1.0 -0.0679811911
C  C901  1  0.08760000  0.60800000  0.35340000  1.0 -0.0679811911
C  C902  1  0.60800000  0.08760000  0.95100000  1.0 -0.0679811911
C  C903  1  0.95100000  0.35340000  0.60800000  1.0 -0.0679811911
C  C904  1  0.35340000  0.95100000  0.08760000  1.0 -0.0679811911
C  C905  1  0.95100000  0.08760000  0.35340000  1.0 -0.0679811911
C  C906  1  0.35340000  0.60800000  0.95100000  1.0 -0.0679811911
C  C907  1  0.08760000  0.95100000  0.60800000  1.0 -0.0679811911
C  C908  1  0.60800000  0.35340000  0.08760000  1.0 -0.0679811911
C  C909  1  0.60800000  0.95100000  0.35340000  1.0 -0.0679811911
C  C910  1  0.08760000  0.35340000  0.95100000  1.0 -0.0679811911
C  C911  1  0.35340000  0.08760000  0.60800000  1.0 -0.0679811911
C  C912  1  0.95100000  0.60800000  0.08760000  1.0 -0.0679811911
C  C913  1  0.09560000  0.60480000  0.98220000  1.0 -0.0922709556
C  C914  1  0.60480000  0.09560000  0.31740000  1.0 -0.0922709556
C  C915  1  0.98220000  0.31740000  0.09560000  1.0 -0.0922709556
C  C916  1  0.31740000  0.98220000  0.60480000  1.0 -0.0922709556
C  C917  1  0.98220000  0.09560000  0.60480000  1.0 -0.0922709556
C  C918  1  0.31740000  0.60480000  0.09560000  1.0 -0.0922709556
C  C919  1  0.09560000  0.98220000  0.31740000  1.0 -0.0922709556
C  C920  1  0.60480000  0.31740000  0.98220000  1.0 -0.0922709556
C  C921  1  0.60480000  0.98220000  0.09560000  1.0 -0.0922709556
C  C922  1  0.09560000  0.31740000  0.60480000  1.0 -0.0922709556
C  C923  1  0.31740000  0.09560000  0.98220000  1.0 -0.0922709556
C  C924  1  0.98220000  0.60480000  0.31740000  1.0 -0.0922709556
C  C925  1  0.15440000  0.64520000  0.93260000  1.0 -0.0922709556
C  C926  1  0.64520000  0.15440000  0.26780000  1.0 -0.0922709556
C  C927  1  0.26780000  0.93260000  0.64520000  1.0 -0.0922709556
C  C928  1  0.93260000  0.26780000  0.15440000  1.0 -0.0922709556
C  C929  1  0.26780000  0.15440000  0.93260000  1.0 -0.0922709556
C  C930  1  0.93260000  0.64520000  0.26780000  1.0 -0.0922709556
C  C931  1  0.15440000  0.26780000  0.64520000  1.0 -0.0922709556
C  C932  1  0.64520000  0.93260000  0.15440000  1.0 -0.0922709556
C  C933  1  0.64520000  0.26780000  0.93260000  1.0 -0.0922709556
C  C934  1  0.15440000  0.93260000  0.26780000  1.0 -0.0922709556
C  C935  1  0.93260000  0.15440000  0.64520000  1.0 -0.0922709556
C  C936  1  0.26780000  0.64520000  0.15440000  1.0 -0.0922709556
C  C937  1  0.15440000  0.64520000  0.26780000  1.0 -0.0922709556
C  C938  1  0.64520000  0.15440000  0.93260000  1.0 -0.0922709556
C  C939  1  0.26780000  0.93260000  0.15440000  1.0 -0.0922709556
C  C940  1  0.93260000  0.26780000  0.64520000  1.0 -0.0922709556
C  C941  1  0.26780000  0.15440000  0.64520000  1.0 -0.0922709556
C  C942  1  0.93260000  0.64520000  0.15440000  1.0 -0.0922709556
C  C943  1  0.15440000  0.26780000  0.93260000  1.0 -0.0922709556
C  C944  1  0.64520000  0.93260000  0.26780000  1.0 -0.0922709556
C  C945  1  0.64520000  0.26780000  0.15440000  1.0 -0.0922709556
C  C946  1  0.15440000  0.93260000  0.64520000  1.0 -0.0922709556
C  C947  1  0.93260000  0.15440000  0.26780000  1.0 -0.0922709556
C  C948  1  0.26780000  0.64520000  0.93260000  1.0 -0.0922709556
C  C949  1  0.09560000  0.60480000  0.31740000  1.0 -0.0922709556
C  C950  1  0.60480000  0.09560000  0.98220000  1.0 -0.0922709556
C  C951  1  0.98220000  0.31740000  0.60480000  1.0 -0.0922709556
C  C952  1  0.31740000  0.98220000  0.09560000  1.0 -0.0922709556
C  C953  1  0.98220000  0.09560000  0.31740000  1.0 -0.0922709556
C  C954  1  0.31740000  0.60480000  0.98220000  1.0 -0.0922709556
C  C955  1  0.09560000  0.98220000  0.60480000  1.0 -0.0922709556
C  C956  1  0.60480000  0.31740000  0.09560000  1.0 -0.0922709556
C  C957  1  0.60480000  0.98220000  0.31740000  1.0 -0.0922709556
C  C958  1  0.09560000  0.31740000  0.98220000  1.0 -0.0922709556
C  C959  1  0.31740000  0.09560000  0.60480000  1.0 -0.0922709556
C  C960  1  0.98220000  0.60480000  0.09560000  1.0 -0.0922709556
C  C961  1  0.11336000  0.63024000  0.97556000  1.0 0.0466218015
C  C962  1  0.63024000  0.11336000  0.28084000  1.0 0.0466218015
C  C963  1  0.97556000  0.28084000  0.11336000  1.0 0.0466218015
C  C964  1  0.28084000  0.97556000  0.63024000  1.0 0.0466218015
C  C965  1  0.97556000  0.11336000  0.63024000  1.0 0.0466218015
C  C966  1  0.28084000  0.63024000  0.11336000  1.0 0.0466218015
C  C967  1  0.11336000  0.97556000  0.28084000  1.0 0.0466218015
C  C968  1  0.63024000  0.28084000  0.97556000  1.0 0.0466218015
C  C969  1  0.63024000  0.97556000  0.11336000  1.0 0.0466218015
C  C970  1  0.11336000  0.28084000  0.63024000  1.0 0.0466218015
C  C971  1  0.28084000  0.11336000  0.97556000  1.0 0.0466218015
C  C972  1  0.97556000  0.63024000  0.28084000  1.0 0.0466218015
C  C973  1  0.13664000  0.61976000  0.96916000  1.0 0.0466218015
C  C974  1  0.61976000  0.13664000  0.27444000  1.0 0.0466218015
C  C975  1  0.27444000  0.96916000  0.61976000  1.0 0.0466218015
C  C976  1  0.96916000  0.27444000  0.13664000  1.0 0.0466218015
C  C977  1  0.27444000  0.13664000  0.96916000  1.0 0.0466218015
C  C978  1  0.96916000  0.61976000  0.27444000  1.0 0.0466218015
C  C979  1  0.13664000  0.27444000  0.61976000  1.0 0.0466218015
C  C980  1  0.61976000  0.96916000  0.13664000  1.0 0.0466218015
C  C981  1  0.61976000  0.27444000  0.96916000  1.0 0.0466218015
C  C982  1  0.13664000  0.96916000  0.27444000  1.0 0.0466218015
C  C983  1  0.96916000  0.13664000  0.61976000  1.0 0.0466218015
C  C984  1  0.27444000  0.61976000  0.13664000  1.0 0.0466218015
C  C985  1  0.13664000  0.61976000  0.27444000  1.0 0.0466218015
C  C986  1  0.61976000  0.13664000  0.96916000  1.0 0.0466218015
C  C987  1  0.27444000  0.96916000  0.13664000  1.0 0.0466218015
C  C988  1  0.96916000  0.27444000  0.61976000  1.0 0.0466218015
C  C989  1  0.27444000  0.13664000  0.61976000  1.0 0.0466218015
C  C990  1  0.96916000  0.61976000  0.13664000  1.0 0.0466218015
C  C991  1  0.13664000  0.27444000  0.96916000  1.0 0.0466218015
C  C992  1  0.61976000  0.96916000  0.27444000  1.0 0.0466218015
C  C993  1  0.61976000  0.27444000  0.13664000  1.0 0.0466218015
C  C994  1  0.13664000  0.96916000  0.61976000  1.0 0.0466218015
C  C995  1  0.96916000  0.13664000  0.27444000  1.0 0.0466218015
C  C996  1  0.27444000  0.61976000  0.96916000  1.0 0.0466218015
C  C997  1  0.11336000  0.63024000  0.28084000  1.0 0.0466218015
C  C998  1  0.63024000  0.11336000  0.97556000  1.0 0.0466218015
C  C999  1  0.97556000  0.28084000  0.63024000  1.0 0.0466218015
C  C1000  1  0.28084000  0.97556000  0.11336000  1.0 0.0466218015
C  C1001  1  0.97556000  0.11336000  0.28084000  1.0 0.0466218015
C  C1002  1  0.28084000  0.63024000  0.97556000  1.0 0.0466218015
C  C1003  1  0.11336000  0.97556000  0.63024000  1.0 0.0466218015
C  C1004  1  0.63024000  0.28084000  0.11336000  1.0 0.0466218015
C  C1005  1  0.63024000  0.97556000  0.28084000  1.0 0.0466218015
C  C1006  1  0.11336000  0.28084000  0.97556000  1.0 0.0466218015
C  C1007  1  0.28084000  0.11336000  0.63024000  1.0 0.0466218015
C  C1008  1  0.97556000  0.63024000  0.11336000  1.0 0.0466218015
C  C1009  1  0.12300000  0.65900000  0.93780000  1.0 -0.0303494844
C  C1010  1  0.65900000  0.12300000  0.28020000  1.0 -0.0303494844
C  C1011  1  0.93780000  0.28020000  0.12300000  1.0 -0.0303494844
C  C1012  1  0.28020000  0.93780000  0.65900000  1.0 -0.0303494844
C  C1013  1  0.93780000  0.12300000  0.65900000  1.0 -0.0303494844
C  C1014  1  0.28020000  0.65900000  0.12300000  1.0 -0.0303494844
C  C1015  1  0.12300000  0.93780000  0.28020000  1.0 -0.0303494844
C  C1016  1  0.65900000  0.28020000  0.93780000  1.0 -0.0303494844
C  C1017  1  0.65900000  0.93780000  0.12300000  1.0 -0.0303494844
C  C1018  1  0.12300000  0.28020000  0.65900000  1.0 -0.0303494844
C  C1019  1  0.28020000  0.12300000  0.93780000  1.0 -0.0303494844
C  C1020  1  0.93780000  0.65900000  0.28020000  1.0 -0.0303494844
C  C1021  1  0.12700000  0.59100000  0.96980000  1.0 -0.0303494844
C  C1022  1  0.59100000  0.12700000  0.31220000  1.0 -0.0303494844
C  C1023  1  0.31220000  0.96980000  0.59100000  1.0 -0.0303494844
C  C1024  1  0.96980000  0.31220000  0.12700000  1.0 -0.0303494844
C  C1025  1  0.31220000  0.12700000  0.96980000  1.0 -0.0303494844
C  C1026  1  0.96980000  0.59100000  0.31220000  1.0 -0.0303494844
C  C1027  1  0.12700000  0.31220000  0.59100000  1.0 -0.0303494844
C  C1028  1  0.59100000  0.96980000  0.12700000  1.0 -0.0303494844
C  C1029  1  0.59100000  0.31220000  0.96980000  1.0 -0.0303494844
C  C1030  1  0.12700000  0.96980000  0.31220000  1.0 -0.0303494844
C  C1031  1  0.96980000  0.12700000  0.59100000  1.0 -0.0303494844
C  C1032  1  0.31220000  0.59100000  0.12700000  1.0 -0.0303494844
C  C1033  1  0.12700000  0.59100000  0.31220000  1.0 -0.0303494844
C  C1034  1  0.59100000  0.12700000  0.96980000  1.0 -0.0303494844
C  C1035  1  0.31220000  0.96980000  0.12700000  1.0 -0.0303494844
C  C1036  1  0.96980000  0.31220000  0.59100000  1.0 -0.0303494844
C  C1037  1  0.31220000  0.12700000  0.59100000  1.0 -0.0303494844
C  C1038  1  0.96980000  0.59100000  0.12700000  1.0 -0.0303494844
C  C1039  1  0.12700000  0.31220000  0.96980000  1.0 -0.0303494844
C  C1040  1  0.59100000  0.96980000  0.31220000  1.0 -0.0303494844
C  C1041  1  0.59100000  0.31220000  0.12700000  1.0 -0.0303494844
C  C1042  1  0.12700000  0.96980000  0.59100000  1.0 -0.0303494844
C  C1043  1  0.96980000  0.12700000  0.31220000  1.0 -0.0303494844
C  C1044  1  0.31220000  0.59100000  0.96980000  1.0 -0.0303494844
C  C1045  1  0.12300000  0.65900000  0.28020000  1.0 -0.0303494844
C  C1046  1  0.65900000  0.12300000  0.93780000  1.0 -0.0303494844
C  C1047  1  0.93780000  0.28020000  0.65900000  1.0 -0.0303494844
C  C1048  1  0.28020000  0.93780000  0.12300000  1.0 -0.0303494844
C  C1049  1  0.93780000  0.12300000  0.28020000  1.0 -0.0303494844
C  C1050  1  0.28020000  0.65900000  0.93780000  1.0 -0.0303494844
C  C1051  1  0.12300000  0.93780000  0.65900000  1.0 -0.0303494844
C  C1052  1  0.65900000  0.28020000  0.12300000  1.0 -0.0303494844
C  C1053  1  0.65900000  0.93780000  0.28020000  1.0 -0.0303494844
C  C1054  1  0.12300000  0.28020000  0.93780000  1.0 -0.0303494844
C  C1055  1  0.28020000  0.12300000  0.65900000  1.0 -0.0303494844
C  C1056  1  0.93780000  0.65900000  0.12300000  1.0 -0.0303494844
C  C1057  1  0.11520000  0.66200000  0.90660000  1.0 -0.0842038343
C  C1058  1  0.66200000  0.11520000  0.31620000  1.0 -0.0842038343
C  C1059  1  0.90660000  0.31620000  0.11520000  1.0 -0.0842038343
C  C1060  1  0.31620000  0.90660000  0.66200000  1.0 -0.0842038343
C  C1061  1  0.90660000  0.11520000  0.66200000  1.0 -0.0842038343
C  C1062  1  0.31620000  0.66200000  0.11520000  1.0 -0.0842038343
C  C1063  1  0.11520000  0.90660000  0.31620000  1.0 -0.0842038343
C  C1064  1  0.66200000  0.31620000  0.90660000  1.0 -0.0842038343
C  C1065  1  0.66200000  0.90660000  0.11520000  1.0 -0.0842038343
C  C1066  1  0.11520000  0.31620000  0.66200000  1.0 -0.0842038343
C  C1067  1  0.31620000  0.11520000  0.90660000  1.0 -0.0842038343
C  C1068  1  0.90660000  0.66200000  0.31620000  1.0 -0.0842038343
C  C1069  1  0.13480000  0.58800000  0.93380000  1.0 -0.0842038343
C  C1070  1  0.58800000  0.13480000  0.34340000  1.0 -0.0842038343
C  C1071  1  0.34340000  0.93380000  0.58800000  1.0 -0.0842038343
C  C1072  1  0.93380000  0.34340000  0.13480000  1.0 -0.0842038343
C  C1073  1  0.34340000  0.13480000  0.93380000  1.0 -0.0842038343
C  C1074  1  0.93380000  0.58800000  0.34340000  1.0 -0.0842038343
C  C1075  1  0.13480000  0.34340000  0.58800000  1.0 -0.0842038343
C  C1076  1  0.58800000  0.93380000  0.13480000  1.0 -0.0842038343
C  C1077  1  0.58800000  0.34340000  0.93380000  1.0 -0.0842038343
C  C1078  1  0.13480000  0.93380000  0.34340000  1.0 -0.0842038343
C  C1079  1  0.93380000  0.13480000  0.58800000  1.0 -0.0842038343
C  C1080  1  0.34340000  0.58800000  0.13480000  1.0 -0.0842038343
C  C1081  1  0.13480000  0.58800000  0.34340000  1.0 -0.0842038343
C  C1082  1  0.58800000  0.13480000  0.93380000  1.0 -0.0842038343
C  C1083  1  0.34340000  0.93380000  0.13480000  1.0 -0.0842038343
C  C1084  1  0.93380000  0.34340000  0.58800000  1.0 -0.0842038343
C  C1085  1  0.34340000  0.13480000  0.58800000  1.0 -0.0842038343
C  C1086  1  0.93380000  0.58800000  0.13480000  1.0 -0.0842038343
C  C1087  1  0.13480000  0.34340000  0.93380000  1.0 -0.0842038343
C  C1088  1  0.58800000  0.93380000  0.34340000  1.0 -0.0842038343
C  C1089  1  0.58800000  0.34340000  0.13480000  1.0 -0.0842038343
C  C1090  1  0.13480000  0.93380000  0.58800000  1.0 -0.0842038343
C  C1091  1  0.93380000  0.13480000  0.34340000  1.0 -0.0842038343
C  C1092  1  0.34340000  0.58800000  0.93380000  1.0 -0.0842038343
C  C1093  1  0.11520000  0.66200000  0.31620000  1.0 -0.0842038343
C  C1094  1  0.66200000  0.11520000  0.90660000  1.0 -0.0842038343
C  C1095  1  0.90660000  0.31620000  0.66200000  1.0 -0.0842038343
C  C1096  1  0.31620000  0.90660000  0.11520000  1.0 -0.0842038343
C  C1097  1  0.90660000  0.11520000  0.31620000  1.0 -0.0842038343
C  C1098  1  0.31620000  0.66200000  0.90660000  1.0 -0.0842038343
C  C1099  1  0.11520000  0.90660000  0.66200000  1.0 -0.0842038343
C  C1100  1  0.66200000  0.31620000  0.11520000  1.0 -0.0842038343
C  C1101  1  0.66200000  0.90660000  0.31620000  1.0 -0.0842038343
C  C1102  1  0.11520000  0.31620000  0.90660000  1.0 -0.0842038343
C  C1103  1  0.31620000  0.11520000  0.66200000  1.0 -0.0842038343
C  C1104  1  0.90660000  0.66200000  0.11520000  1.0 -0.0842038343
C  C1105  1  0.12219000  0.62663000  0.00985000  1.0 0.0689119572
C  C1106  1  0.62663000  0.12219000  0.24133000  1.0 0.0689119572
C  C1107  1  0.00985000  0.24133000  0.12219000  1.0 0.0624581155
C  C1108  1  0.24133000  0.00985000  0.62663000  1.0 0.0689119572
C  C1109  1  0.00985000  0.12219000  0.62663000  1.0 0.0624581155
C  C1110  1  0.24133000  0.62663000  0.12219000  1.0 0.0624581155
C  C1111  1  0.12219000  0.00985000  0.24133000  1.0 0.0624581155
C  C1112  1  0.62663000  0.24133000  0.00985000  1.0 0.0689119572
C  C1113  1  0.62663000  0.00985000  0.12219000  1.0 0.0624581155
C  C1114  1  0.12219000  0.24133000  0.62663000  1.0 0.0689119572
C  C1115  1  0.24133000  0.12219000  0.00985000  1.0 0.0689119572
C  C1116  1  0.00985000  0.62663000  0.24133000  1.0 0.0689119572
C  C1117  1  0.12781000  0.62337000  0.00867000  1.0 0.0689119572
C  C1118  1  0.62337000  0.12781000  0.24015000  1.0 0.0689119572
C  C1119  1  0.24015000  0.00867000  0.62337000  1.0 0.0689119572
C  C1120  1  0.00867000  0.24015000  0.12781000  1.0 0.0624581155
C  C1121  1  0.24015000  0.12781000  0.00867000  1.0 0.0689119572
C  C1122  1  0.00867000  0.62337000  0.24015000  1.0 0.0689119572
C  C1123  1  0.12781000  0.24015000  0.62337000  1.0 0.0689119572
C  C1124  1  0.62337000  0.00867000  0.12781000  1.0 0.0624581155
C  C1125  1  0.62337000  0.24015000  0.00867000  1.0 0.0689119572
C  C1126  1  0.12781000  0.00867000  0.24015000  1.0 0.0624581155
C  C1127  1  0.00867000  0.12781000  0.62337000  1.0 0.0689119572
C  C1128  1  0.24015000  0.62337000  0.12781000  1.0 0.0624581155
C  C1129  1  0.12781000  0.62337000  0.24015000  1.0 0.0624581155
C  C1130  1  0.62337000  0.12781000  0.00867000  1.0 0.0689119572
C  C1131  1  0.24015000  0.00867000  0.12781000  1.0 0.0624581155
C  C1132  1  0.00867000  0.24015000  0.62337000  1.0 0.0689119572
C  C1133  1  0.24015000  0.12781000  0.62337000  1.0 0.0689119572
C  C1134  1  0.00867000  0.62337000  0.12781000  1.0 0.0624581155
C  C1135  1  0.12781000  0.24015000  0.00867000  1.0 0.0689119572
C  C1136  1  0.62337000  0.00867000  0.24015000  1.0 0.0624581155
C  C1137  1  0.62337000  0.24015000  0.12781000  1.0 0.0624581155
C  C1138  1  0.12781000  0.00867000  0.62337000  1.0 0.0624581155
C  C1139  1  0.00867000  0.12781000  0.24015000  1.0 0.0689119572
C  C1140  1  0.24015000  0.62337000  0.00867000  1.0 0.0689119572
C  C1141  1  0.12219000  0.62663000  0.24133000  1.0 0.0624581155
C  C1142  1  0.62663000  0.12219000  0.00985000  1.0 0.0689119572
C  C1143  1  0.00985000  0.24133000  0.62663000  1.0 0.0624581155
C  C1144  1  0.24133000  0.00985000  0.12219000  1.0 0.0624581155
C  C1145  1  0.00985000  0.12219000  0.24133000  1.0 0.0689119572
C  C1146  1  0.24133000  0.62663000  0.00985000  1.0 0.0689119572
C  C1147  1  0.12219000  0.00985000  0.62663000  1.0 0.0624581155
C  C1148  1  0.62663000  0.24133000  0.12219000  1.0 0.0689119572
C  C1149  1  0.62663000  0.00985000  0.24133000  1.0 0.0624581155
C  C1150  1  0.12219000  0.24133000  0.00985000  1.0 0.0689119572
C  C1151  1  0.24133000  0.12219000  0.62663000  1.0 0.0624581155
C  C1152  1  0.00985000  0.62663000  0.12219000  1.0 0.0689119572
C  C1153  1  0.09220000  0.60760000  0.84140000  1.0 -0.0922709556
C  C1154  1  0.60760000  0.09220000  0.45880000  1.0 -0.0922709556
C  C1155  1  0.84140000  0.45880000  0.09220000  1.0 -0.0922709556
C  C1156  1  0.45880000  0.84140000  0.60760000  1.0 -0.0922709556
C  C1157  1  0.84140000  0.09220000  0.60760000  1.0 -0.0922709556
C  C1158  1  0.45880000  0.60760000  0.09220000  1.0 -0.0922709556
C  C1159  1  0.09220000  0.84140000  0.45880000  1.0 -0.0922709556
C  C1160  1  0.60760000  0.45880000  0.84140000  1.0 -0.0922709556
C  C1161  1  0.60760000  0.84140000  0.09220000  1.0 -0.0922709556
C  C1162  1  0.09220000  0.45880000  0.60760000  1.0 -0.0922709556
C  C1163  1  0.45880000  0.09220000  0.84140000  1.0 -0.0922709556
C  C1164  1  0.84140000  0.60760000  0.45880000  1.0 -0.0922709556
C  C1165  1  0.15780000  0.64240000  0.79120000  1.0 -0.0922709556
C  C1166  1  0.64240000  0.15780000  0.40860000  1.0 -0.0922709556
C  C1167  1  0.40860000  0.79120000  0.64240000  1.0 -0.0922709556
C  C1168  1  0.79120000  0.40860000  0.15780000  1.0 -0.0922709556
C  C1169  1  0.40860000  0.15780000  0.79120000  1.0 -0.0922709556
C  C1170  1  0.79120000  0.64240000  0.40860000  1.0 -0.0922709556
C  C1171  1  0.15780000  0.40860000  0.64240000  1.0 -0.0922709556
C  C1172  1  0.64240000  0.79120000  0.15780000  1.0 -0.0922709556
C  C1173  1  0.64240000  0.40860000  0.79120000  1.0 -0.0922709556
C  C1174  1  0.15780000  0.79120000  0.40860000  1.0 -0.0922709556
C  C1175  1  0.79120000  0.15780000  0.64240000  1.0 -0.0922709556
C  C1176  1  0.40860000  0.64240000  0.15780000  1.0 -0.0922709556
C  C1177  1  0.15780000  0.64240000  0.40860000  1.0 -0.0922709556
C  C1178  1  0.64240000  0.15780000  0.79120000  1.0 -0.0922709556
C  C1179  1  0.40860000  0.79120000  0.15780000  1.0 -0.0922709556
C  C1180  1  0.79120000  0.40860000  0.64240000  1.0 -0.0922709556
C  C1181  1  0.40860000  0.15780000  0.64240000  1.0 -0.0922709556
C  C1182  1  0.79120000  0.64240000  0.15780000  1.0 -0.0922709556
C  C1183  1  0.15780000  0.40860000  0.79120000  1.0 -0.0922709556
C  C1184  1  0.64240000  0.79120000  0.40860000  1.0 -0.0922709556
C  C1185  1  0.64240000  0.40860000  0.15780000  1.0 -0.0922709556
C  C1186  1  0.15780000  0.79120000  0.64240000  1.0 -0.0922709556
C  C1187  1  0.79120000  0.15780000  0.40860000  1.0 -0.0922709556
C  C1188  1  0.40860000  0.64240000  0.79120000  1.0 -0.0922709556
C  C1189  1  0.09220000  0.60760000  0.45880000  1.0 -0.0922709556
C  C1190  1  0.60760000  0.09220000  0.84140000  1.0 -0.0922709556
C  C1191  1  0.84140000  0.45880000  0.60760000  1.0 -0.0922709556
C  C1192  1  0.45880000  0.84140000  0.09220000  1.0 -0.0922709556
C  C1193  1  0.84140000  0.09220000  0.45880000  1.0 -0.0922709556
C  C1194  1  0.45880000  0.60760000  0.84140000  1.0 -0.0922709556
C  C1195  1  0.09220000  0.84140000  0.60760000  1.0 -0.0922709556
C  C1196  1  0.60760000  0.45880000  0.09220000  1.0 -0.0922709556
C  C1197  1  0.60760000  0.84140000  0.45880000  1.0 -0.0922709556
C  C1198  1  0.09220000  0.45880000  0.84140000  1.0 -0.0922709556
C  C1199  1  0.45880000  0.09220000  0.60760000  1.0 -0.0922709556
C  C1200  1  0.84140000  0.60760000  0.09220000  1.0 -0.0922709556
C  C1201  1  0.09990000  0.60590000  0.87210000  1.0 -0.0423888459
C  C1202  1  0.60590000  0.09990000  0.42210000  1.0 -0.0423888459
C  C1203  1  0.87210000  0.42210000  0.09990000  1.0 -0.0423888459
C  C1204  1  0.42210000  0.87210000  0.60590000  1.0 -0.0423888459
C  C1205  1  0.87210000  0.09990000  0.60590000  1.0 -0.0423888459
C  C1206  1  0.42210000  0.60590000  0.09990000  1.0 -0.0423888459
C  C1207  1  0.09990000  0.87210000  0.42210000  1.0 -0.0423888459
C  C1208  1  0.60590000  0.42210000  0.87210000  1.0 -0.0423888459
C  C1209  1  0.60590000  0.87210000  0.09990000  1.0 -0.0423888459
C  C1210  1  0.09990000  0.42210000  0.60590000  1.0 -0.0423888459
C  C1211  1  0.42210000  0.09990000  0.87210000  1.0 -0.0423888459
C  C1212  1  0.87210000  0.60590000  0.42210000  1.0 -0.0423888459
C  C1213  1  0.15010000  0.64410000  0.82790000  1.0 -0.0423888459
C  C1214  1  0.64410000  0.15010000  0.37790000  1.0 -0.0423888459
C  C1215  1  0.37790000  0.82790000  0.64410000  1.0 -0.0423888459
C  C1216  1  0.82790000  0.37790000  0.15010000  1.0 -0.0423888459
C  C1217  1  0.37790000  0.15010000  0.82790000  1.0 -0.0423888459
C  C1218  1  0.82790000  0.64410000  0.37790000  1.0 -0.0423888459
C  C1219  1  0.15010000  0.37790000  0.64410000  1.0 -0.0423888459
C  C1220  1  0.64410000  0.82790000  0.15010000  1.0 -0.0423888459
C  C1221  1  0.64410000  0.37790000  0.82790000  1.0 -0.0423888459
C  C1222  1  0.15010000  0.82790000  0.37790000  1.0 -0.0423888459
C  C1223  1  0.82790000  0.15010000  0.64410000  1.0 -0.0423888459
C  C1224  1  0.37790000  0.64410000  0.15010000  1.0 -0.0423888459
C  C1225  1  0.15010000  0.64410000  0.37790000  1.0 -0.0423888459
C  C1226  1  0.64410000  0.15010000  0.82790000  1.0 -0.0423888459
C  C1227  1  0.37790000  0.82790000  0.15010000  1.0 -0.0423888459
C  C1228  1  0.82790000  0.37790000  0.64410000  1.0 -0.0423888459
C  C1229  1  0.37790000  0.15010000  0.64410000  1.0 -0.0423888459
C  C1230  1  0.82790000  0.64410000  0.15010000  1.0 -0.0423888459
C  C1231  1  0.15010000  0.37790000  0.82790000  1.0 -0.0423888459
C  C1232  1  0.64410000  0.82790000  0.37790000  1.0 -0.0423888459
C  C1233  1  0.64410000  0.37790000  0.15010000  1.0 -0.0423888459
C  C1234  1  0.15010000  0.82790000  0.64410000  1.0 -0.0423888459
C  C1235  1  0.82790000  0.15010000  0.37790000  1.0 -0.0423888459
C  C1236  1  0.37790000  0.64410000  0.82790000  1.0 -0.0423888459
C  C1237  1  0.09990000  0.60590000  0.42210000  1.0 -0.0423888459
C  C1238  1  0.60590000  0.09990000  0.87210000  1.0 -0.0423888459
C  C1239  1  0.87210000  0.42210000  0.60590000  1.0 -0.0423888459
C  C1240  1  0.42210000  0.87210000  0.09990000  1.0 -0.0423888459
C  C1241  1  0.87210000  0.09990000  0.42210000  1.0 -0.0423888459
C  C1242  1  0.42210000  0.60590000  0.87210000  1.0 -0.0423888459
C  C1243  1  0.09990000  0.87210000  0.60590000  1.0 -0.0423888459
C  C1244  1  0.60590000  0.42210000  0.09990000  1.0 -0.0423888459
C  C1245  1  0.60590000  0.87210000  0.42210000  1.0 -0.0423888459
C  C1246  1  0.09990000  0.42210000  0.87210000  1.0 -0.0423888459
C  C1247  1  0.42210000  0.09990000  0.60590000  1.0 -0.0423888459
C  C1248  1  0.87210000  0.60590000  0.09990000  1.0 -0.0423888459
C  C1249  1  0.06770000  0.67830000  0.85570000  1.0 -0.1313959412
C  C1250  1  0.67830000  0.06770000  0.39830000  1.0 -0.1313959412
C  C1251  1  0.85570000  0.39830000  0.06770000  1.0 -0.1313959412
C  C1252  1  0.39830000  0.85570000  0.67830000  1.0 -0.1313959412
C  C1253  1  0.85570000  0.06770000  0.67830000  1.0 -0.1313959412
C  C1254  1  0.39830000  0.67830000  0.06770000  1.0 -0.1313959412
C  C1255  1  0.06770000  0.85570000  0.39830000  1.0 -0.1313959412
C  C1256  1  0.67830000  0.39830000  0.85570000  1.0 -0.1313959412
C  C1257  1  0.67830000  0.85570000  0.06770000  1.0 -0.1313959412
C  C1258  1  0.06770000  0.39830000  0.67830000  1.0 -0.1313959412
C  C1259  1  0.39830000  0.06770000  0.85570000  1.0 -0.1313959412
C  C1260  1  0.85570000  0.67830000  0.39830000  1.0 -0.1313959412
C  C1261  1  0.18230000  0.57170000  0.85170000  1.0 -0.1313959412
C  C1262  1  0.57170000  0.18230000  0.39430000  1.0 -0.1313959412
C  C1263  1  0.39430000  0.85170000  0.57170000  1.0 -0.1313959412
C  C1264  1  0.85170000  0.39430000  0.18230000  1.0 -0.1313959412
C  C1265  1  0.39430000  0.18230000  0.85170000  1.0 -0.1313959412
C  C1266  1  0.85170000  0.57170000  0.39430000  1.0 -0.1313959412
C  C1267  1  0.18230000  0.39430000  0.57170000  1.0 -0.1313959412
C  C1268  1  0.57170000  0.85170000  0.18230000  1.0 -0.1313959412
C  C1269  1  0.57170000  0.39430000  0.85170000  1.0 -0.1313959412
C  C1270  1  0.18230000  0.85170000  0.39430000  1.0 -0.1313959412
C  C1271  1  0.85170000  0.18230000  0.57170000  1.0 -0.1313959412
C  C1272  1  0.39430000  0.57170000  0.18230000  1.0 -0.1313959412
C  C1273  1  0.18230000  0.57170000  0.39430000  1.0 -0.1313959412
C  C1274  1  0.57170000  0.18230000  0.85170000  1.0 -0.1313959412
C  C1275  1  0.39430000  0.85170000  0.18230000  1.0 -0.1313959412
C  C1276  1  0.85170000  0.39430000  0.57170000  1.0 -0.1313959412
C  C1277  1  0.39430000  0.18230000  0.57170000  1.0 -0.1313959412
C  C1278  1  0.85170000  0.57170000  0.18230000  1.0 -0.1313959412
C  C1279  1  0.18230000  0.39430000  0.85170000  1.0 -0.1313959412
C  C1280  1  0.57170000  0.85170000  0.39430000  1.0 -0.1313959412
C  C1281  1  0.57170000  0.39430000  0.18230000  1.0 -0.1313959412
C  C1282  1  0.18230000  0.85170000  0.57170000  1.0 -0.1313959412
C  C1283  1  0.85170000  0.18230000  0.39430000  1.0 -0.1313959412
C  C1284  1  0.39430000  0.57170000  0.85170000  1.0 -0.1313959412
C  C1285  1  0.06770000  0.67830000  0.39830000  1.0 -0.1313959412
C  C1286  1  0.67830000  0.06770000  0.85570000  1.0 -0.1313959412
C  C1287  1  0.85570000  0.39830000  0.67830000  1.0 -0.1313959412
C  C1288  1  0.39830000  0.85570000  0.06770000  1.0 -0.1313959412
C  C1289  1  0.85570000  0.06770000  0.39830000  1.0 -0.1313959412
C  C1290  1  0.39830000  0.67830000  0.85570000  1.0 -0.1313959412
C  C1291  1  0.06770000  0.85570000  0.67830000  1.0 -0.1313959412
C  C1292  1  0.67830000  0.39830000  0.06770000  1.0 -0.1313959412
C  C1293  1  0.67830000  0.85570000  0.39830000  1.0 -0.1313959412
C  C1294  1  0.06770000  0.39830000  0.85570000  1.0 -0.1313959412
C  C1295  1  0.39830000  0.06770000  0.67830000  1.0 -0.1313959412
C  C1296  1  0.85570000  0.67830000  0.06770000  1.0 -0.1313959412
C  C1297  1  0.05990000  0.67970000  0.82530000  1.0 -0.1190214054
C  C1298  1  0.67970000  0.05990000  0.43510000  1.0 -0.1190214054
C  C1299  1  0.82530000  0.43510000  0.05990000  1.0 -0.1190214054
C  C1300  1  0.43510000  0.82530000  0.67970000  1.0 -0.1190214054
C  C1301  1  0.82530000  0.05990000  0.67970000  1.0 -0.1190214054
C  C1302  1  0.43510000  0.67970000  0.05990000  1.0 -0.1190214054
C  C1303  1  0.05990000  0.82530000  0.43510000  1.0 -0.1190214054
C  C1304  1  0.67970000  0.43510000  0.82530000  1.0 -0.1190214054
C  C1305  1  0.67970000  0.82530000  0.05990000  1.0 -0.1190214054
C  C1306  1  0.05990000  0.43510000  0.67970000  1.0 -0.1190214054
C  C1307  1  0.43510000  0.05990000  0.82530000  1.0 -0.1190214054
C  C1308  1  0.82530000  0.67970000  0.43510000  1.0 -0.1190214054
C  C1309  1  0.19010000  0.57030000  0.81490000  1.0 -0.1190214054
C  C1310  1  0.57030000  0.19010000  0.42470000  1.0 -0.1190214054
C  C1311  1  0.42470000  0.81490000  0.57030000  1.0 -0.1190214054
C  C1312  1  0.81490000  0.42470000  0.19010000  1.0 -0.1190214054
C  C1313  1  0.42470000  0.19010000  0.81490000  1.0 -0.1190214054
C  C1314  1  0.81490000  0.57030000  0.42470000  1.0 -0.1190214054
C  C1315  1  0.19010000  0.42470000  0.57030000  1.0 -0.1190214054
C  C1316  1  0.57030000  0.81490000  0.19010000  1.0 -0.1190214054
C  C1317  1  0.57030000  0.42470000  0.81490000  1.0 -0.1190214054
C  C1318  1  0.19010000  0.81490000  0.42470000  1.0 -0.1190214054
C  C1319  1  0.81490000  0.19010000  0.57030000  1.0 -0.1190214054
C  C1320  1  0.42470000  0.57030000  0.19010000  1.0 -0.1190214054
C  C1321  1  0.19010000  0.57030000  0.42470000  1.0 -0.1190214054
C  C1322  1  0.57030000  0.19010000  0.81490000  1.0 -0.1190214054
C  C1323  1  0.42470000  0.81490000  0.19010000  1.0 -0.1190214054
C  C1324  1  0.81490000  0.42470000  0.57030000  1.0 -0.1190214054
C  C1325  1  0.42470000  0.19010000  0.57030000  1.0 -0.1190214054
C  C1326  1  0.81490000  0.57030000  0.19010000  1.0 -0.1190214054
C  C1327  1  0.19010000  0.42470000  0.81490000  1.0 -0.1190214054
C  C1328  1  0.57030000  0.81490000  0.42470000  1.0 -0.1190214054
C  C1329  1  0.57030000  0.42470000  0.19010000  1.0 -0.1190214054
C  C1330  1  0.19010000  0.81490000  0.57030000  1.0 -0.1190214054
C  C1331  1  0.81490000  0.19010000  0.42470000  1.0 -0.1190214054
C  C1332  1  0.42470000  0.57030000  0.81490000  1.0 -0.1190214054
C  C1333  1  0.05990000  0.67970000  0.43510000  1.0 -0.1190214054
C  C1334  1  0.67970000  0.05990000  0.82530000  1.0 -0.1190214054
C  C1335  1  0.82530000  0.43510000  0.67970000  1.0 -0.1190214054
C  C1336  1  0.43510000  0.82530000  0.05990000  1.0 -0.1190214054
C  C1337  1  0.82530000  0.05990000  0.43510000  1.0 -0.1190214054
C  C1338  1  0.43510000  0.67970000  0.82530000  1.0 -0.1190214054
C  C1339  1  0.05990000  0.82530000  0.67970000  1.0 -0.1190214054
C  C1340  1  0.67970000  0.43510000  0.05990000  1.0 -0.1190214054
C  C1341  1  0.67970000  0.82530000  0.43510000  1.0 -0.1190214054
C  C1342  1  0.05990000  0.43510000  0.82530000  1.0 -0.1190214054
C  C1343  1  0.43510000  0.05990000  0.67970000  1.0 -0.1190214054
C  C1344  1  0.82530000  0.67970000  0.05990000  1.0 -0.1190214054
C  C1345  1  0.02480000  0.64620000  0.75600000  1.0 -0.0595803921
C  C1346  1  0.64620000  0.02480000  0.57300000  1.0 -0.0595803921
C  C1347  1  0.75600000  0.57300000  0.02480000  1.0 -0.0595803921
C  C1348  1  0.57300000  0.75600000  0.64620000  1.0 -0.0595803921
C  C1349  1  0.75600000  0.02480000  0.64620000  1.0 -0.0595803921
C  C1350  1  0.57300000  0.64620000  0.02480000  1.0 -0.0595803921
C  C1351  1  0.02480000  0.75600000  0.57300000  1.0 -0.0595803921
C  C1352  1  0.64620000  0.57300000  0.75600000  1.0 -0.0595803921
C  C1353  1  0.64620000  0.75600000  0.02480000  1.0 -0.0595803921
C  C1354  1  0.02480000  0.57300000  0.64620000  1.0 -0.0595803921
C  C1355  1  0.57300000  0.02480000  0.75600000  1.0 -0.0595803921
C  C1356  1  0.75600000  0.64620000  0.57300000  1.0 -0.0595803921
C  C1357  1  0.22520000  0.60380000  0.67700000  1.0 -0.0595803921
C  C1358  1  0.60380000  0.22520000  0.49400000  1.0 -0.0595803921
C  C1359  1  0.49400000  0.67700000  0.60380000  1.0 -0.0595803921
C  C1360  1  0.67700000  0.49400000  0.22520000  1.0 -0.0595803921
C  C1361  1  0.49400000  0.22520000  0.67700000  1.0 -0.0595803921
C  C1362  1  0.67700000  0.60380000  0.49400000  1.0 -0.0595803921
C  C1363  1  0.22520000  0.49400000  0.60380000  1.0 -0.0595803921
C  C1364  1  0.60380000  0.67700000  0.22520000  1.0 -0.0595803921
C  C1365  1  0.60380000  0.49400000  0.67700000  1.0 -0.0595803921
C  C1366  1  0.22520000  0.67700000  0.49400000  1.0 -0.0595803921
C  C1367  1  0.67700000  0.22520000  0.60380000  1.0 -0.0595803921
C  C1368  1  0.49400000  0.60380000  0.22520000  1.0 -0.0595803921
C  C1369  1  0.22520000  0.60380000  0.49400000  1.0 -0.0595803921
C  C1370  1  0.60380000  0.22520000  0.67700000  1.0 -0.0595803921
C  C1371  1  0.49400000  0.67700000  0.22520000  1.0 -0.0595803921
C  C1372  1  0.67700000  0.49400000  0.60380000  1.0 -0.0595803921
C  C1373  1  0.49400000  0.22520000  0.60380000  1.0 -0.0595803921
C  C1374  1  0.67700000  0.60380000  0.22520000  1.0 -0.0595803921
C  C1375  1  0.22520000  0.49400000  0.67700000  1.0 -0.0595803921
C  C1376  1  0.60380000  0.67700000  0.49400000  1.0 -0.0595803921
C  C1377  1  0.60380000  0.49400000  0.22520000  1.0 -0.0595803921
C  C1378  1  0.22520000  0.67700000  0.60380000  1.0 -0.0595803921
C  C1379  1  0.67700000  0.22520000  0.49400000  1.0 -0.0595803921
C  C1380  1  0.49400000  0.60380000  0.67700000  1.0 -0.0595803921
C  C1381  1  0.02480000  0.64620000  0.57300000  1.0 -0.0595803921
C  C1382  1  0.64620000  0.02480000  0.75600000  1.0 -0.0595803921
C  C1383  1  0.75600000  0.57300000  0.64620000  1.0 -0.0595803921
C  C1384  1  0.57300000  0.75600000  0.02480000  1.0 -0.0595803921
C  C1385  1  0.75600000  0.02480000  0.57300000  1.0 -0.0595803921
C  C1386  1  0.57300000  0.64620000  0.75600000  1.0 -0.0595803921
C  C1387  1  0.02480000  0.75600000  0.64620000  1.0 -0.0595803921
C  C1388  1  0.64620000  0.57300000  0.02480000  1.0 -0.0595803921
C  C1389  1  0.64620000  0.75600000  0.57300000  1.0 -0.0595803921
C  C1390  1  0.02480000  0.57300000  0.75600000  1.0 -0.0595803921
C  C1391  1  0.57300000  0.02480000  0.64620000  1.0 -0.0595803921
C  C1392  1  0.75600000  0.64620000  0.02480000  1.0 -0.0595803921
C  C1393  1  0.02940000  0.64540000  0.78820000  1.0 -0.0595803921
C  C1394  1  0.64540000  0.02940000  0.53700000  1.0 -0.0595803921
C  C1395  1  0.78820000  0.53700000  0.02940000  1.0 -0.0595803921
C  C1396  1  0.53700000  0.78820000  0.64540000  1.0 -0.0595803921
C  C1397  1  0.78820000  0.02940000  0.64540000  1.0 -0.0595803921
C  C1398  1  0.53700000  0.64540000  0.02940000  1.0 -0.0595803921
C  C1399  1  0.02940000  0.78820000  0.53700000  1.0 -0.0595803921
C  C1400  1  0.64540000  0.53700000  0.78820000  1.0 -0.0595803921
C  C1401  1  0.64540000  0.78820000  0.02940000  1.0 -0.0595803921
C  C1402  1  0.02940000  0.53700000  0.64540000  1.0 -0.0595803921
C  C1403  1  0.53700000  0.02940000  0.78820000  1.0 -0.0595803921
C  C1404  1  0.78820000  0.64540000  0.53700000  1.0 -0.0595803921
C  C1405  1  0.22060000  0.60460000  0.71300000  1.0 -0.0595803921
C  C1406  1  0.60460000  0.22060000  0.46180000  1.0 -0.0595803921
C  C1407  1  0.46180000  0.71300000  0.60460000  1.0 -0.0595803921
C  C1408  1  0.71300000  0.46180000  0.22060000  1.0 -0.0595803921
C  C1409  1  0.46180000  0.22060000  0.71300000  1.0 -0.0595803921
C  C1410  1  0.71300000  0.60460000  0.46180000  1.0 -0.0595803921
C  C1411  1  0.22060000  0.46180000  0.60460000  1.0 -0.0595803921
C  C1412  1  0.60460000  0.71300000  0.22060000  1.0 -0.0595803921
C  C1413  1  0.60460000  0.46180000  0.71300000  1.0 -0.0595803921
C  C1414  1  0.22060000  0.71300000  0.46180000  1.0 -0.0595803921
C  C1415  1  0.71300000  0.22060000  0.60460000  1.0 -0.0595803921
C  C1416  1  0.46180000  0.60460000  0.22060000  1.0 -0.0595803921
C  C1417  1  0.22060000  0.60460000  0.46180000  1.0 -0.0595803921
C  C1418  1  0.60460000  0.22060000  0.71300000  1.0 -0.0595803921
C  C1419  1  0.46180000  0.71300000  0.22060000  1.0 -0.0595803921
C  C1420  1  0.71300000  0.46180000  0.60460000  1.0 -0.0595803921
C  C1421  1  0.46180000  0.22060000  0.60460000  1.0 -0.0595803921
C  C1422  1  0.71300000  0.60460000  0.22060000  1.0 -0.0595803921
C  C1423  1  0.22060000  0.46180000  0.71300000  1.0 -0.0595803921
C  C1424  1  0.60460000  0.71300000  0.46180000  1.0 -0.0595803921
C  C1425  1  0.60460000  0.46180000  0.22060000  1.0 -0.0595803921
C  C1426  1  0.22060000  0.71300000  0.60460000  1.0 -0.0595803921
C  C1427  1  0.71300000  0.22060000  0.46180000  1.0 -0.0595803921
C  C1428  1  0.46180000  0.60460000  0.71300000  1.0 -0.0595803921
C  C1429  1  0.02940000  0.64540000  0.53700000  1.0 -0.0595803921
C  C1430  1  0.64540000  0.02940000  0.78820000  1.0 -0.0595803921
C  C1431  1  0.78820000  0.53700000  0.64540000  1.0 -0.0595803921
C  C1432  1  0.53700000  0.78820000  0.02940000  1.0 -0.0595803921
C  C1433  1  0.78820000  0.02940000  0.53700000  1.0 -0.0595803921
C  C1434  1  0.53700000  0.64540000  0.78820000  1.0 -0.0595803921
C  C1435  1  0.02940000  0.78820000  0.64540000  1.0 -0.0595803921
C  C1436  1  0.64540000  0.53700000  0.02940000  1.0 -0.0595803921
C  C1437  1  0.64540000  0.78820000  0.53700000  1.0 -0.0595803921
C  C1438  1  0.02940000  0.53700000  0.78820000  1.0 -0.0595803921
C  C1439  1  0.53700000  0.02940000  0.64540000  1.0 -0.0595803921
C  C1440  1  0.78820000  0.64540000  0.02940000  1.0 -0.0595803921
C  C1441  1  0.09590000  0.64930000  0.74650000  1.0 -0.0995689509
C  C1442  1  0.64930000  0.09590000  0.50830000  1.0 -0.0995689509
C  C1443  1  0.74650000  0.50830000  0.09590000  1.0 -0.0995689509
C  C1444  1  0.50830000  0.74650000  0.64930000  1.0 -0.0995689509
C  C1445  1  0.74650000  0.09590000  0.64930000  1.0 -0.0995689509
C  C1446  1  0.50830000  0.64930000  0.09590000  1.0 -0.0995689509
C  C1447  1  0.09590000  0.74650000  0.50830000  1.0 -0.0995689509
C  C1448  1  0.64930000  0.50830000  0.74650000  1.0 -0.0995689509
C  C1449  1  0.64930000  0.74650000  0.09590000  1.0 -0.0995689509
C  C1450  1  0.09590000  0.50830000  0.64930000  1.0 -0.0995689509
C  C1451  1  0.50830000  0.09590000  0.74650000  1.0 -0.0995689509
C  C1452  1  0.74650000  0.64930000  0.50830000  1.0 -0.0995689509
C  C1453  1  0.15410000  0.60070000  0.74170000  1.0 -0.0995689509
C  C1454  1  0.60070000  0.15410000  0.50350000  1.0 -0.0995689509
C  C1455  1  0.50350000  0.74170000  0.60070000  1.0 -0.0995689509
C  C1456  1  0.74170000  0.50350000  0.15410000  1.0 -0.0995689509
C  C1457  1  0.50350000  0.15410000  0.74170000  1.0 -0.0995689509
C  C1458  1  0.74170000  0.60070000  0.50350000  1.0 -0.0995689509
C  C1459  1  0.15410000  0.50350000  0.60070000  1.0 -0.0995689509
C  C1460  1  0.60070000  0.74170000  0.15410000  1.0 -0.0995689509
C  C1461  1  0.60070000  0.50350000  0.74170000  1.0 -0.0995689509
C  C1462  1  0.15410000  0.74170000  0.50350000  1.0 -0.0995689509
C  C1463  1  0.74170000  0.15410000  0.60070000  1.0 -0.0995689509
C  C1464  1  0.50350000  0.60070000  0.15410000  1.0 -0.0995689509
C  C1465  1  0.15410000  0.60070000  0.50350000  1.0 -0.0995689509
C  C1466  1  0.60070000  0.15410000  0.74170000  1.0 -0.0995689509
C  C1467  1  0.50350000  0.74170000  0.15410000  1.0 -0.0995689509
C  C1468  1  0.74170000  0.50350000  0.60070000  1.0 -0.0995689509
C  C1469  1  0.50350000  0.15410000  0.60070000  1.0 -0.0995689509
C  C1470  1  0.74170000  0.60070000  0.15410000  1.0 -0.0995689509
C  C1471  1  0.15410000  0.50350000  0.74170000  1.0 -0.0995689509
C  C1472  1  0.60070000  0.74170000  0.50350000  1.0 -0.0995689509
C  C1473  1  0.60070000  0.50350000  0.15410000  1.0 -0.0995689509
C  C1474  1  0.15410000  0.74170000  0.60070000  1.0 -0.0995689509
C  C1475  1  0.74170000  0.15410000  0.50350000  1.0 -0.0995689509
C  C1476  1  0.50350000  0.60070000  0.74170000  1.0 -0.0995689509
C  C1477  1  0.09590000  0.64930000  0.50830000  1.0 -0.0995689509
C  C1478  1  0.64930000  0.09590000  0.74650000  1.0 -0.0995689509
C  C1479  1  0.74650000  0.50830000  0.64930000  1.0 -0.0995689509
C  C1480  1  0.50830000  0.74650000  0.09590000  1.0 -0.0995689509
C  C1481  1  0.74650000  0.09590000  0.50830000  1.0 -0.0995689509
C  C1482  1  0.50830000  0.64930000  0.74650000  1.0 -0.0995689509
C  C1483  1  0.09590000  0.74650000  0.64930000  1.0 -0.0995689509
C  C1484  1  0.64930000  0.50830000  0.09590000  1.0 -0.0995689509
C  C1485  1  0.64930000  0.74650000  0.50830000  1.0 -0.0995689509
C  C1486  1  0.09590000  0.50830000  0.74650000  1.0 -0.0995689509
C  C1487  1  0.50830000  0.09590000  0.64930000  1.0 -0.0995689509
C  C1488  1  0.74650000  0.64930000  0.09590000  1.0 -0.0995689509
C  C1489  1  0.09110000  0.65110000  0.71410000  1.0 -0.1104067433
C  C1490  1  0.65110000  0.09110000  0.54370000  1.0 -0.1104067433
C  C1491  1  0.71410000  0.54370000  0.09110000  1.0 -0.1104067433
C  C1492  1  0.54370000  0.71410000  0.65110000  1.0 -0.1104067433
C  C1493  1  0.71410000  0.09110000  0.65110000  1.0 -0.1104067433
C  C1494  1  0.54370000  0.65110000  0.09110000  1.0 -0.1104067433
C  C1495  1  0.09110000  0.71410000  0.54370000  1.0 -0.1104067433
C  C1496  1  0.65110000  0.54370000  0.71410000  1.0 -0.1104067433
C  C1497  1  0.65110000  0.71410000  0.09110000  1.0 -0.1104067433
C  C1498  1  0.09110000  0.54370000  0.65110000  1.0 -0.1104067433
C  C1499  1  0.54370000  0.09110000  0.71410000  1.0 -0.1104067433
C  C1500  1  0.71410000  0.65110000  0.54370000  1.0 -0.1104067433
C  C1501  1  0.15890000  0.59890000  0.70630000  1.0 -0.1104067433
C  C1502  1  0.59890000  0.15890000  0.53590000  1.0 -0.1104067433
C  C1503  1  0.53590000  0.70630000  0.59890000  1.0 -0.1104067433
C  C1504  1  0.70630000  0.53590000  0.15890000  1.0 -0.1104067433
C  C1505  1  0.53590000  0.15890000  0.70630000  1.0 -0.1104067433
C  C1506  1  0.70630000  0.59890000  0.53590000  1.0 -0.1104067433
C  C1507  1  0.15890000  0.53590000  0.59890000  1.0 -0.1104067433
C  C1508  1  0.59890000  0.70630000  0.15890000  1.0 -0.1104067433
C  C1509  1  0.59890000  0.53590000  0.70630000  1.0 -0.1104067433
C  C1510  1  0.15890000  0.70630000  0.53590000  1.0 -0.1104067433
C  C1511  1  0.70630000  0.15890000  0.59890000  1.0 -0.1104067433
C  C1512  1  0.53590000  0.59890000  0.15890000  1.0 -0.1104067433
C  C1513  1  0.15890000  0.59890000  0.53590000  1.0 -0.1104067433
C  C1514  1  0.59890000  0.15890000  0.70630000  1.0 -0.1104067433
C  C1515  1  0.53590000  0.70630000  0.15890000  1.0 -0.1104067433
C  C1516  1  0.70630000  0.53590000  0.59890000  1.0 -0.1104067433
C  C1517  1  0.53590000  0.15890000  0.59890000  1.0 -0.1104067433
C  C1518  1  0.70630000  0.59890000  0.15890000  1.0 -0.1104067433
C  C1519  1  0.15890000  0.53590000  0.70630000  1.0 -0.1104067433
C  C1520  1  0.59890000  0.70630000  0.53590000  1.0 -0.1104067433
C  C1521  1  0.59890000  0.53590000  0.15890000  1.0 -0.1104067433
C  C1522  1  0.15890000  0.70630000  0.59890000  1.0 -0.1104067433
C  C1523  1  0.70630000  0.15890000  0.53590000  1.0 -0.1104067433
C  C1524  1  0.53590000  0.59890000  0.70630000  1.0 -0.1104067433
C  C1525  1  0.09110000  0.65110000  0.54370000  1.0 -0.1104067433
C  C1526  1  0.65110000  0.09110000  0.71410000  1.0 -0.1104067433
C  C1527  1  0.71410000  0.54370000  0.65110000  1.0 -0.1104067433
C  C1528  1  0.54370000  0.71410000  0.09110000  1.0 -0.1104067433
C  C1529  1  0.71410000  0.09110000  0.54370000  1.0 -0.1104067433
C  C1530  1  0.54370000  0.65110000  0.71410000  1.0 -0.1104067433
C  C1531  1  0.09110000  0.71410000  0.65110000  1.0 -0.1104067433
C  C1532  1  0.65110000  0.54370000  0.09110000  1.0 -0.1104067433
C  C1533  1  0.65110000  0.71410000  0.54370000  1.0 -0.1104067433
C  C1534  1  0.09110000  0.54370000  0.71410000  1.0 -0.1104067433
C  C1535  1  0.54370000  0.09110000  0.65110000  1.0 -0.1104067433
C  C1536  1  0.71410000  0.65110000  0.09110000  1.0 -0.1104067433
N  N1  1  0.08322000  0.32486000  0.26706000  1.0 -0.4224937115
N  N2  1  0.32486000  0.08322000  0.32486000  1.0 -0.4224937115
N  N3  1  0.26706000  0.32486000  0.08322000  1.0 -0.4224937115
N  N4  1  0.32486000  0.26706000  0.32486000  1.0 -0.4224937115
N  N5  1  0.26706000  0.08322000  0.32486000  1.0 -0.4224937115
N  N6  1  0.32486000  0.32486000  0.08322000  1.0 -0.4224937115
N  N7  1  0.08322000  0.26706000  0.32486000  1.0 -0.4224937115
N  N8  1  0.32486000  0.32486000  0.26706000  1.0 -0.4224937115
N  N9  1  0.32486000  0.26706000  0.08322000  1.0 -0.4224937115
N  N10  1  0.08322000  0.32486000  0.32486000  1.0 -0.4224937115
N  N11  1  0.32486000  0.08322000  0.26706000  1.0 -0.4224937115
N  N12  1  0.26706000  0.32486000  0.32486000  1.0 -0.4224937115
N  N13  1  0.16678000  0.92514000  0.92514000  1.0 -0.4224937115
N  N14  1  0.92514000  0.16678000  0.98294000  1.0 -0.4224937115
N  N15  1  0.98294000  0.92514000  0.92514000  1.0 -0.4224937115
N  N16  1  0.92514000  0.98294000  0.16678000  1.0 -0.4224937115
N  N17  1  0.98294000  0.16678000  0.92514000  1.0 -0.4224937115
N  N18  1  0.92514000  0.92514000  0.98294000  1.0 -0.4224937115
N  N19  1  0.16678000  0.98294000  0.92514000  1.0 -0.4224937115
N  N20  1  0.92514000  0.92514000  0.16678000  1.0 -0.4224937115
N  N21  1  0.92514000  0.98294000  0.92514000  1.0 -0.4224937115
N  N22  1  0.16678000  0.92514000  0.98294000  1.0 -0.4224937115
N  N23  1  0.92514000  0.16678000  0.92514000  1.0 -0.4224937115
N  N24  1  0.98294000  0.92514000  0.16678000  1.0 -0.4224937115
O  O1  1  0.14765000  0.55705000  0.14765000  1.0 -1.0973584887
O  O2  1  0.55705000  0.14765000  0.14765000  1.0 -1.0973584887
O  O3  1  0.14765000  0.14765000  0.14765000  1.0 -1.0973584887
O  O4  1  0.14765000  0.14765000  0.55705000  1.0 -1.0973584887
O  O5  1  0.10235000  0.69295000  0.10235000  1.0 -1.0973584887
O  O6  1  0.69295000  0.10235000  0.10235000  1.0 -1.0973584887
O  O7  1  0.10235000  0.10235000  0.69295000  1.0 -1.0973584887
O  O8  1  0.10235000  0.10235000  0.10235000  1.0 -1.0973584887
O  O9  1  0.16207000  0.60267000  0.07319000  1.0 -0.9972951523
O  O10  1  0.60267000  0.16207000  0.16207000  1.0 -0.9972951523
O  O11  1  0.07319000  0.16207000  0.16207000  1.0 -0.9972951523
O  O12  1  0.16207000  0.07319000  0.60267000  1.0 -0.9972951523
O  O13  1  0.07319000  0.16207000  0.60267000  1.0 -0.9972951523
O  O14  1  0.16207000  0.60267000  0.16207000  1.0 -0.9972951523
O  O15  1  0.16207000  0.07319000  0.16207000  1.0 -0.9972951523
O  O16  1  0.60267000  0.16207000  0.07319000  1.0 -0.9972951523
O  O17  1  0.60267000  0.07319000  0.16207000  1.0 -0.9972951523
O  O18  1  0.16207000  0.16207000  0.60267000  1.0 -0.9972951523
O  O19  1  0.16207000  0.16207000  0.07319000  1.0 -0.9972951523
O  O20  1  0.07319000  0.60267000  0.16207000  1.0 -0.9972951523
O  O21  1  0.08793000  0.64733000  0.08793000  1.0 -0.9972951523
O  O22  1  0.64733000  0.08793000  0.17681000  1.0 -0.9972951523
O  O23  1  0.17681000  0.08793000  0.64733000  1.0 -0.9972951523
O  O24  1  0.08793000  0.17681000  0.08793000  1.0 -0.9972951523
O  O25  1  0.17681000  0.08793000  0.08793000  1.0 -0.9972951523
O  O26  1  0.08793000  0.64733000  0.17681000  1.0 -0.9972951523
O  O27  1  0.08793000  0.17681000  0.64733000  1.0 -0.9972951523
O  O28  1  0.64733000  0.08793000  0.08793000  1.0 -0.9972951523
O  O29  1  0.64733000  0.17681000  0.08793000  1.0 -0.9972951523
O  O30  1  0.08793000  0.08793000  0.17681000  1.0 -0.9972951523
O  O31  1  0.08793000  0.08793000  0.64733000  1.0 -0.9972951523
O  O32  1  0.17681000  0.64733000  0.08793000  1.0 -0.9972951523
O  O33  1  0.09169000  0.52017000  0.16623000  1.0 -0.6458059524
O  O34  1  0.52017000  0.09169000  0.22191000  1.0 -0.6458059524
O  O35  1  0.16623000  0.22191000  0.09169000  1.0 -0.6458059524
O  O36  1  0.22191000  0.16623000  0.52017000  1.0 -0.6458059524
O  O37  1  0.16623000  0.09169000  0.52017000  1.0 -0.6458059524
O  O38  1  0.22191000  0.52017000  0.09169000  1.0 -0.6458059524
O  O39  1  0.09169000  0.16623000  0.22191000  1.0 -0.6458059524
O  O40  1  0.52017000  0.22191000  0.16623000  1.0 -0.6458059524
O  O41  1  0.52017000  0.16623000  0.09169000  1.0 -0.6458059524
O  O42  1  0.09169000  0.22191000  0.52017000  1.0 -0.6458059524
O  O43  1  0.22191000  0.09169000  0.16623000  1.0 -0.6458059524
O  O44  1  0.16623000  0.52017000  0.22191000  1.0 -0.6458059524
O  O45  1  0.15831000  0.72983000  0.02809000  1.0 -0.6458059524
O  O46  1  0.72983000  0.15831000  0.08377000  1.0 -0.6458059524
O  O47  1  0.08377000  0.02809000  0.72983000  1.0 -0.6458059524
O  O48  1  0.02809000  0.08377000  0.15831000  1.0 -0.6458059524
O  O49  1  0.08377000  0.15831000  0.02809000  1.0 -0.6458059524
O  O50  1  0.02809000  0.72983000  0.08377000  1.0 -0.6458059524
O  O51  1  0.15831000  0.08377000  0.72983000  1.0 -0.6458059524
O  O52  1  0.72983000  0.02809000  0.15831000  1.0 -0.6458059524
O  O53  1  0.72983000  0.08377000  0.02809000  1.0 -0.6458059524
O  O54  1  0.15831000  0.02809000  0.08377000  1.0 -0.6458059524
O  O55  1  0.02809000  0.15831000  0.72983000  1.0 -0.6458059524
O  O56  1  0.08377000  0.72983000  0.15831000  1.0 -0.6458059524
O  O57  1  0.15831000  0.72983000  0.08377000  1.0 -0.6458059524
O  O58  1  0.72983000  0.15831000  0.02809000  1.0 -0.6458059524
O  O59  1  0.08377000  0.02809000  0.15831000  1.0 -0.6458059524
O  O60  1  0.02809000  0.08377000  0.72983000  1.0 -0.6458059524
O  O61  1  0.08377000  0.15831000  0.72983000  1.0 -0.6458059524
O  O62  1  0.02809000  0.72983000  0.15831000  1.0 -0.6458059524
O  O63  1  0.15831000  0.08377000  0.02809000  1.0 -0.6458059524
O  O64  1  0.72983000  0.02809000  0.08377000  1.0 -0.6458059524
O  O65  1  0.72983000  0.08377000  0.15831000  1.0 -0.6458059524
O  O66  1  0.15831000  0.02809000  0.72983000  1.0 -0.6458059524
O  O67  1  0.02809000  0.15831000  0.08377000  1.0 -0.6458059524
O  O68  1  0.08377000  0.72983000  0.02809000  1.0 -0.6458059524
O  O69  1  0.09169000  0.52017000  0.22191000  1.0 -0.6458059524
O  O70  1  0.52017000  0.09169000  0.16623000  1.0 -0.6458059524
O  O71  1  0.16623000  0.22191000  0.52017000  1.0 -0.6458059524
O  O72  1  0.22191000  0.16623000  0.09169000  1.0 -0.6458059524
O  O73  1  0.16623000  0.09169000  0.22191000  1.0 -0.6458059524
O  O74  1  0.22191000  0.52017000  0.16623000  1.0 -0.6458059524
O  O75  1  0.09169000  0.16623000  0.52017000  1.0 -0.6458059524
O  O76  1  0.52017000  0.22191000  0.09169000  1.0 -0.6458059524
O  O77  1  0.52017000  0.16623000  0.22191000  1.0 -0.6458059524
O  O78  1  0.09169000  0.22191000  0.16623000  1.0 -0.6458059524
O  O79  1  0.22191000  0.09169000  0.52017000  1.0 -0.6458059524
O  O80  1  0.16623000  0.52017000  0.09169000  1.0 -0.6458059524
O  O81  1  0.11612000  0.59628000  0.04062000  1.0 -0.4224937115
O  O82  1  0.59628000  0.11612000  0.24698000  1.0 -0.4224937115
O  O83  1  0.04062000  0.24698000  0.11612000  1.0 -0.4224937115
O  O84  1  0.24698000  0.04062000  0.59628000  1.0 -0.4224937115
O  O85  1  0.04062000  0.11612000  0.59628000  1.0 -0.4224937115
O  O86  1  0.24698000  0.59628000  0.11612000  1.0 -0.4224937115
O  O87  1  0.11612000  0.04062000  0.24698000  1.0 -0.4224937115
O  O88  1  0.59628000  0.24698000  0.04062000  1.0 -0.4224937115
O  O89  1  0.59628000  0.04062000  0.11612000  1.0 -0.4224937115
O  O90  1  0.11612000  0.24698000  0.59628000  1.0 -0.4224937115
O  O91  1  0.24698000  0.11612000  0.04062000  1.0 -0.4224937115
O  O92  1  0.04062000  0.59628000  0.24698000  1.0 -0.4224937115
O  O93  1  0.13388000  0.65372000  0.00302000  1.0 -0.4224937115
O  O94  1  0.65372000  0.13388000  0.20938000  1.0 -0.4224937115
O  O95  1  0.20938000  0.00302000  0.65372000  1.0 -0.4224937115
O  O96  1  0.00302000  0.20938000  0.13388000  1.0 -0.4224937115
O  O97  1  0.20938000  0.13388000  0.00302000  1.0 -0.4224937115
O  O98  1  0.00302000  0.65372000  0.20938000  1.0 -0.4224937115
O  O99  1  0.13388000  0.20938000  0.65372000  1.0 -0.4224937115
O  O100  1  0.65372000  0.00302000  0.13388000  1.0 -0.4224937115
O  O101  1  0.65372000  0.20938000  0.00302000  1.0 -0.4224937115
O  O102  1  0.13388000  0.00302000  0.20938000  1.0 -0.4224937115
O  O103  1  0.00302000  0.13388000  0.65372000  1.0 -0.4224937115
O  O104  1  0.20938000  0.65372000  0.13388000  1.0 -0.4224937115
O  O105  1  0.13388000  0.65372000  0.20938000  1.0 -0.4224937115
O  O106  1  0.65372000  0.13388000  0.00302000  1.0 -0.4224937115
O  O107  1  0.20938000  0.00302000  0.13388000  1.0 -0.4224937115
O  O108  1  0.00302000  0.20938000  0.65372000  1.0 -0.4224937115
O  O109  1  0.20938000  0.13388000  0.65372000  1.0 -0.4224937115
O  O110  1  0.00302000  0.65372000  0.13388000  1.0 -0.4224937115
O  O111  1  0.13388000  0.20938000  0.00302000  1.0 -0.4224937115
O  O112  1  0.65372000  0.00302000  0.20938000  1.0 -0.4224937115
O  O113  1  0.65372000  0.20938000  0.13388000  1.0 -0.4224937115
O  O114  1  0.13388000  0.00302000  0.65372000  1.0 -0.4224937115
O  O115  1  0.00302000  0.13388000  0.20938000  1.0 -0.4224937115
O  O116  1  0.20938000  0.65372000  0.00302000  1.0 -0.4224937115
O  O117  1  0.11612000  0.59628000  0.24698000  1.0 -0.4224937115
O  O118  1  0.59628000  0.11612000  0.04062000  1.0 -0.4224937115
O  O119  1  0.04062000  0.24698000  0.59628000  1.0 -0.4224937115
O  O120  1  0.24698000  0.04062000  0.11612000  1.0 -0.4224937115
O  O121  1  0.04062000  0.11612000  0.24698000  1.0 -0.4224937115
O  O122  1  0.24698000  0.59628000  0.04062000  1.0 -0.4224937115
O  O123  1  0.11612000  0.04062000  0.59628000  1.0 -0.4224937115
O  O124  1  0.59628000  0.24698000  0.11612000  1.0 -0.4224937115
O  O125  1  0.59628000  0.04062000  0.24698000  1.0 -0.4224937115
O  O126  1  0.11612000  0.24698000  0.04062000  1.0 -0.4224937115
O  O127  1  0.24698000  0.11612000  0.59628000  1.0 -0.4224937115
O  O128  1  0.04062000  0.59628000  0.11612000  1.0 -0.4224937115
