# DDEC6 charges by PACMAN v1.1 (https://github.com/mtap-research/PACMAN-charge/)
data_DERDUC_FSR_pacman
_symmetry_space_group_name_H-M   'P 1'
_cell_length_a   11.82200000
_cell_length_b   12.91400000
_cell_length_c   18.99010000
_cell_angle_alpha   90.00000000
_cell_angle_beta   111.22100000
_cell_angle_gamma   90.00000000
_symmetry_Int_Tables_number   1
_chemical_formula_structural   Cu2P3H15C17(NO6)2
_chemical_formula_sum   'Cu8 P12 H60 C68 N8 O48'
_cell_volume   2702.61377415
_cell_formula_units_Z   4
loop_
 _symmetry_equiv_pos_site_id
 _symmetry_equiv_pos_as_xyz
  1  'x, y, z'
loop_
 _atom_site_type_symbol
 _atom_site_label
 _atom_site_symmetry_multiplicity
 _atom_site_fract_x
 _atom_site_fract_y
 _atom_site_fract_z
 _atom_site_occupancy
 _atom_site_charge
Cu  Cu1  1  0.55777000  0.60146000  0.05267000  1.0 0.9267304036
Cu  Cu2  1  0.40304000  0.82062000  0.98380000  1.0 0.9915139469
Cu  Cu3  1  0.44223000  0.10146000  0.44733000  1.0 0.9267304036
Cu  Cu4  1  0.59696000  0.32062000  0.51620000  1.0 0.9915139469
Cu  Cu5  1  0.44223000  0.39854000  0.94733000  1.0 0.9267304036
Cu  Cu6  1  0.59696000  0.17938000  0.01620000  1.0 0.9915139469
Cu  Cu7  1  0.55777000  0.89854000  0.55267000  1.0 0.9267304036
Cu  Cu8  1  0.40304000  0.67938000  0.48380000  1.0 0.9915139469
P  P1  1  0.36075000  0.69176000  0.11107000  1.0 1.2460339162
P  P2  1  0.77462000  0.88438000  0.29857000  1.0 1.2320468518
P  P3  1  0.35444000  0.88289000  0.36915000  1.0 1.2417641672
P  P4  1  0.63925000  0.19176000  0.38893000  1.0 1.2460339162
P  P5  1  0.22538000  0.38438000  0.20143000  1.0 1.2320468518
P  P6  1  0.64556000  0.38289000  0.13085000  1.0 1.2417641672
P  P7  1  0.63925000  0.30824000  0.88893000  1.0 1.2460339162
P  P8  1  0.22538000  0.11562000  0.70143000  1.0 1.2320468518
P  P9  1  0.64556000  0.11711000  0.63085000  1.0 1.2417641672
P  P10  1  0.36075000  0.80824000  0.61107000  1.0 1.2460339162
P  P11  1  0.77462000  0.61562000  0.79857000  1.0 1.2320468518
P  P12  1  0.35444000  0.61711000  0.86915000  1.0 1.2417641672
H  H1  1  0.72013000  0.85737000  0.13469000  1.0 0.3773801941
H  H2  1  0.25945000  0.60703000  0.15213000  1.0 0.3875212762
H  H3  1  0.20980000  0.91850000  0.27850000  1.0 0.3875212762
H  H4  1  0.92134000  0.85612000  0.38898000  1.0 0.3773801941
H  H5  1  0.76860000  0.47469000  0.03489000  1.0 0.1292211804
H  H6  1  0.96906000  0.50955000  0.06019000  1.0 0.1292211804
H  H7  1  0.03956000  0.67652000  0.08559000  1.0 0.1372719823
H  H8  1  0.90338000  0.80963000  0.07734000  1.0 0.145521501
H  H9  1  0.78684000  0.85787000  0.95047000  1.0 0.1292211804
H  H10  1  0.71647000  0.94396000  0.83396000  1.0 0.1200655369
H  H11  1  0.51315000  0.98517000  0.78024000  1.0 0.1292211804
H  H12  1  0.38551000  0.94043000  0.84119000  1.0 0.1292211804
H  H13  1  0.29866000  0.77050000  0.23383000  1.0 0.1200655369
H  H14  1  0.60121000  0.90875000  0.37287000  1.0 0.1372719823
H  H15  1  0.60240000  0.76205000  0.18736000  1.0 0.1200655369
H  H16  1  0.27987000  0.35737000  0.36531000  1.0 0.3773801941
H  H17  1  0.74055000  0.10703000  0.34787000  1.0 0.3875212762
H  H18  1  0.79020000  0.41850000  0.22150000  1.0 0.3875212762
H  H19  1  0.07866000  0.35612000  0.11102000  1.0 0.3773801941
H  H20  1  0.23140000  0.97469000  0.46511000  1.0 0.1292211804
H  H21  1  0.03094000  0.00955000  0.43981000  1.0 0.1292211804
H  H22  1  0.96044000  0.17652000  0.41441000  1.0 0.1372719823
H  H23  1  0.09662000  0.30963000  0.42266000  1.0 0.145521501
H  H24  1  0.21316000  0.35787000  0.54953000  1.0 0.1292211804
H  H25  1  0.28353000  0.44396000  0.66604000  1.0 0.1200655369
H  H26  1  0.48685000  0.48517000  0.71976000  1.0 0.1292211804
H  H27  1  0.61449000  0.44043000  0.65881000  1.0 0.1292211804
H  H28  1  0.70134000  0.27050000  0.26617000  1.0 0.1200655369
H  H29  1  0.39879000  0.40875000  0.12713000  1.0 0.1372719823
H  H30  1  0.39760000  0.26205000  0.31264000  1.0 0.1200655369
H  H31  1  0.27987000  0.14263000  0.86531000  1.0 0.3773801941
H  H32  1  0.74055000  0.39297000  0.84787000  1.0 0.3875212762
H  H33  1  0.79020000  0.08150000  0.72150000  1.0 0.3875212762
H  H34  1  0.07866000  0.14388000  0.61102000  1.0 0.3773801941
H  H35  1  0.23140000  0.52531000  0.96511000  1.0 0.1292211804
H  H36  1  0.03094000  0.49045000  0.93981000  1.0 0.1292211804
H  H37  1  0.96044000  0.32348000  0.91441000  1.0 0.1372719823
H  H38  1  0.09662000  0.19037000  0.92266000  1.0 0.145521501
H  H39  1  0.21316000  0.14213000  0.04953000  1.0 0.1292211804
H  H40  1  0.28353000  0.05604000  0.16604000  1.0 0.1200655369
H  H41  1  0.48685000  0.01483000  0.21976000  1.0 0.1292211804
H  H42  1  0.61449000  0.05957000  0.15881000  1.0 0.1292211804
H  H43  1  0.70134000  0.22950000  0.76617000  1.0 0.1200655369
H  H44  1  0.39879000  0.09125000  0.62713000  1.0 0.1372719823
H  H45  1  0.39760000  0.23795000  0.81264000  1.0 0.1200655369
H  H46  1  0.72013000  0.64263000  0.63469000  1.0 0.3773801941
H  H47  1  0.25945000  0.89297000  0.65213000  1.0 0.3875212762
H  H48  1  0.20980000  0.58150000  0.77850000  1.0 0.3875212762
H  H49  1  0.92134000  0.64388000  0.88898000  1.0 0.3773801941
H  H50  1  0.76860000  0.02531000  0.53489000  1.0 0.1292211804
H  H51  1  0.96906000  0.99045000  0.56019000  1.0 0.1292211804
H  H52  1  0.03956000  0.82348000  0.58559000  1.0 0.1372719823
H  H53  1  0.90338000  0.69037000  0.57734000  1.0 0.145521501
H  H54  1  0.78684000  0.64213000  0.45047000  1.0 0.1292211804
H  H55  1  0.71647000  0.55604000  0.33396000  1.0 0.1200655369
H  H56  1  0.51315000  0.51483000  0.28024000  1.0 0.1292211804
H  H57  1  0.38551000  0.55957000  0.34119000  1.0 0.1292211804
H  H58  1  0.29866000  0.72950000  0.73383000  1.0 0.1200655369
H  H59  1  0.60121000  0.59125000  0.87287000  1.0 0.1372719823
H  H60  1  0.60240000  0.73795000  0.68736000  1.0 0.1200655369
C  C1  1  0.79590000  0.54280000  0.04360000  1.0 0.1109317634
C  C2  1  0.91590000  0.56310000  0.05910000  1.0 -0.1390285996
C  C3  1  0.95750000  0.66230000  0.07310000  1.0 -0.0239527077
C  C4  1  0.87700000  0.74140000  0.06860000  1.0 -0.1390285996
C  C5  1  0.75620000  0.71700000  0.05080000  1.0 0.1292211804
C  C6  1  0.65790000  0.79900000  0.03900000  1.0 0.3533656988
C  C7  1  0.62450000  0.85290000  0.96180000  1.0 0.1372719823
C  C8  1  0.70550000  0.87580000  0.92780000  1.0 -0.1325440799
C  C9  1  0.66340000  0.92680000  0.85820000  1.0 -0.0114183029
C  C10  1  0.54320000  0.95110000  0.82650000  1.0 -0.1204833985
C  C11  1  0.46760000  0.92470000  0.86350000  1.0 0.0971013251
C  C12  1  0.43930000  0.75620000  0.19940000  1.0 -0.1714106594
C  C13  1  0.38010000  0.78720000  0.24620000  1.0 -0.0847750363
C  C14  1  0.44080000  0.84370000  0.31260000  1.0 -0.1868195143
C  C15  1  0.56090000  0.87030000  0.32960000  1.0 -0.049757361
C  C16  1  0.62260000  0.84020000  0.28270000  1.0 -0.1714106594
C  C17  1  0.56140000  0.78300000  0.21850000  1.0 -0.049757361
C  C18  1  0.20410000  0.04280000  0.45640000  1.0 0.1109317634
C  C19  1  0.08410000  0.06310000  0.44090000  1.0 -0.1390285996
C  C20  1  0.04250000  0.16230000  0.42690000  1.0 -0.0239527077
C  C21  1  0.12300000  0.24140000  0.43140000  1.0 -0.1390285996
C  C22  1  0.24380000  0.21700000  0.44920000  1.0 0.1292211804
C  C23  1  0.34210000  0.29900000  0.46100000  1.0 0.3533656988
C  C24  1  0.37550000  0.35290000  0.53820000  1.0 0.1372719823
C  C25  1  0.29450000  0.37580000  0.57220000  1.0 -0.1325440799
C  C26  1  0.33660000  0.42680000  0.64180000  1.0 -0.0114183029
C  C27  1  0.45680000  0.45110000  0.67350000  1.0 -0.1204833985
C  C28  1  0.53240000  0.42470000  0.63650000  1.0 0.0971013251
C  C29  1  0.56070000  0.25620000  0.30060000  1.0 -0.1714106594
C  C30  1  0.61990000  0.28720000  0.25380000  1.0 -0.0847750363
C  C31  1  0.55920000  0.34370000  0.18740000  1.0 -0.1868195143
C  C32  1  0.43910000  0.37030000  0.17040000  1.0 -0.049757361
C  C33  1  0.37740000  0.34020000  0.21730000  1.0 -0.1714106594
C  C34  1  0.43860000  0.28300000  0.28150000  1.0 -0.049757361
C  C35  1  0.20410000  0.45720000  0.95640000  1.0 0.1109317634
C  C36  1  0.08410000  0.43690000  0.94090000  1.0 -0.1390285996
C  C37  1  0.04250000  0.33770000  0.92690000  1.0 -0.0239527077
C  C38  1  0.12300000  0.25860000  0.93140000  1.0 -0.1390285996
C  C39  1  0.24380000  0.28300000  0.94920000  1.0 0.1292211804
C  C40  1  0.34210000  0.20100000  0.96100000  1.0 0.3533656988
C  C41  1  0.37550000  0.14710000  0.03820000  1.0 0.1372719823
C  C42  1  0.29450000  0.12420000  0.07220000  1.0 -0.1325440799
C  C43  1  0.33660000  0.07320000  0.14180000  1.0 -0.0114183029
C  C44  1  0.45680000  0.04890000  0.17350000  1.0 -0.1204833985
C  C45  1  0.53240000  0.07530000  0.13650000  1.0 0.0971013251
C  C46  1  0.56070000  0.24380000  0.80060000  1.0 -0.1714106594
C  C47  1  0.61990000  0.21280000  0.75380000  1.0 -0.0847750363
C  C48  1  0.55920000  0.15630000  0.68740000  1.0 -0.1868195143
C  C49  1  0.43910000  0.12970000  0.67040000  1.0 -0.049757361
C  C50  1  0.37740000  0.15980000  0.71730000  1.0 -0.1714106594
C  C51  1  0.43860000  0.21700000  0.78150000  1.0 -0.049757361
C  C52  1  0.79590000  0.95720000  0.54360000  1.0 0.1109317634
C  C53  1  0.91590000  0.93690000  0.55910000  1.0 -0.1390285996
C  C54  1  0.95750000  0.83770000  0.57310000  1.0 -0.0239527077
C  C55  1  0.87700000  0.75860000  0.56860000  1.0 -0.1390285996
C  C56  1  0.75620000  0.78300000  0.55080000  1.0 0.1292211804
C  C57  1  0.65790000  0.70100000  0.53900000  1.0 0.3533656988
C  C58  1  0.62450000  0.64710000  0.46180000  1.0 0.1372719823
C  C59  1  0.70550000  0.62420000  0.42780000  1.0 -0.1325440799
C  C60  1  0.66340000  0.57320000  0.35820000  1.0 -0.0114183029
C  C61  1  0.54320000  0.54890000  0.32650000  1.0 -0.1204833985
C  C62  1  0.46760000  0.57530000  0.36350000  1.0 0.0971013251
C  C63  1  0.43930000  0.74380000  0.69940000  1.0 -0.1714106594
C  C64  1  0.38010000  0.71280000  0.74620000  1.0 -0.0847750363
C  C65  1  0.44080000  0.65630000  0.81260000  1.0 -0.1868195143
C  C66  1  0.56090000  0.62970000  0.82960000  1.0 -0.049757361
C  C67  1  0.62260000  0.65980000  0.78270000  1.0 -0.1714106594
C  C68  1  0.56140000  0.71700000  0.71850000  1.0 -0.049757361
N  N1  1  0.71600000  0.61820000  0.04040000  1.0 -0.2608891484
N  N2  1  0.50710000  0.87670000  0.93100000  1.0 -0.2608891484
N  N3  1  0.28400000  0.11820000  0.45960000  1.0 -0.2608891484
N  N4  1  0.49290000  0.37670000  0.56900000  1.0 -0.2608891484
N  N5  1  0.28400000  0.38180000  0.95960000  1.0 -0.2608891484
N  N6  1  0.49290000  0.12330000  0.06900000  1.0 -0.2608891484
N  N7  1  0.71600000  0.88180000  0.54040000  1.0 -0.2608891484
N  N8  1  0.50710000  0.62330000  0.43100000  1.0 -0.2608891484
O  O1  1  0.55524000  0.75170000  0.04384000  1.0 -0.6201997903
O  O2  1  0.70091000  0.88040000  0.09171000  1.0 -0.4294154722
O  O3  1  0.43904000  0.60630000  0.09974000  1.0 -0.7276077519
O  O4  1  0.32144000  0.77350000  0.04954000  1.0 -0.6864638534
O  O5  1  0.24257000  0.64710000  0.11627000  1.0 -0.5936227647
O  O6  1  0.24935000  0.95170000  0.31615000  1.0 -0.5961742756
O  O7  1  0.30336000  0.78940000  0.39336000  1.0 -0.7217684494
O  O8  1  0.43244000  0.95070000  0.43324000  1.0 -0.7606172469
O  O9  1  0.84950000  0.84160000  0.37830000  1.0 -0.6081606951
O  O10  1  0.81645000  0.83770000  0.23945000  1.0 -0.7276077519
O  O11  1  0.77330000  0.00060000  0.29890000  1.0 -0.7217684494
O  O12  1  0.26480000  0.91750000  0.93460000  1.0 -0.4294154722
O  O13  1  0.44476000  0.25170000  0.45616000  1.0 -0.6201997903
O  O14  1  0.29909000  0.38040000  0.40829000  1.0 -0.4294154722
O  O15  1  0.56096000  0.10630000  0.40026000  1.0 -0.7276077519
O  O16  1  0.67856000  0.27350000  0.45046000  1.0 -0.6864638534
O  O17  1  0.75743000  0.14710000  0.38373000  1.0 -0.5936227647
O  O18  1  0.75065000  0.45170000  0.18385000  1.0 -0.5961742756
O  O19  1  0.69664000  0.28940000  0.10664000  1.0 -0.7217684494
O  O20  1  0.56756000  0.45070000  0.06676000  1.0 -0.7606172469
O  O21  1  0.15050000  0.34160000  0.12170000  1.0 -0.6081606951
O  O22  1  0.18355000  0.33770000  0.26055000  1.0 -0.7276077519
O  O23  1  0.22670000  0.50060000  0.20110000  1.0 -0.7217684494
O  O24  1  0.73520000  0.41750000  0.56540000  1.0 -0.4239171949
O  O25  1  0.44476000  0.24830000  0.95616000  1.0 -0.6201997903
O  O26  1  0.29909000  0.11960000  0.90829000  1.0 -0.4294154722
O  O27  1  0.56096000  0.39370000  0.90026000  1.0 -0.7276077519
O  O28  1  0.67856000  0.22650000  0.95046000  1.0 -0.6864638534
O  O29  1  0.75743000  0.35290000  0.88373000  1.0 -0.5936227647
O  O30  1  0.75065000  0.04830000  0.68385000  1.0 -0.5961742756
O  O31  1  0.69664000  0.21060000  0.60664000  1.0 -0.7217684494
O  O32  1  0.56756000  0.04930000  0.56676000  1.0 -0.7606172469
O  O33  1  0.15050000  0.15840000  0.62170000  1.0 -0.6081606951
O  O34  1  0.18355000  0.16230000  0.76055000  1.0 -0.7217684494
O  O35  1  0.22670000  0.99940000  0.70110000  1.0 -0.7217684494
O  O36  1  0.73520000  0.08250000  0.06540000  1.0 -0.4294154722
O  O37  1  0.55524000  0.74830000  0.54384000  1.0 -0.6201997903
O  O38  1  0.70091000  0.61960000  0.59171000  1.0 -0.4294154722
O  O39  1  0.43904000  0.89370000  0.59974000  1.0 -0.7276077519
O  O40  1  0.32144000  0.72650000  0.54954000  1.0 -0.6864638534
O  O41  1  0.24257000  0.85290000  0.61627000  1.0 -0.5936227647
O  O42  1  0.24935000  0.54830000  0.81615000  1.0 -0.5961742756
O  O43  1  0.30336000  0.71060000  0.89336000  1.0 -0.7217684494
O  O44  1  0.43244000  0.54930000  0.93324000  1.0 -0.7606172469
O  O45  1  0.84950000  0.65840000  0.87830000  1.0 -0.6081606951
O  O46  1  0.81645000  0.66230000  0.73945000  1.0 -0.7276077519
O  O47  1  0.77330000  0.49940000  0.79890000  1.0 -0.7217684494
O  O48  1  0.26480000  0.58250000  0.43460000  1.0 -0.4294154722
