# DDEC6 charges by PACMAN v1.1 (https://github.com/mtap-research/PACMAN-charge/)
data_DERWIK_FSR_pacman
_symmetry_space_group_name_H-M   'P 1'
_cell_length_a   18.23300000
_cell_length_b   23.86400000
_cell_length_c   29.88800000
_cell_angle_alpha   90.00000000
_cell_angle_beta   90.00000000
_cell_angle_gamma   90.00000000
_symmetry_Int_Tables_number   1
_chemical_formula_structural   Eu4H118C117(N4O15)2
_chemical_formula_sum   'Eu16 H472 C468 N32 O120'
_cell_volume   13004.63678106
_cell_formula_units_Z   4
loop_
 _symmetry_equiv_pos_site_id
 _symmetry_equiv_pos_as_xyz
  1  'x, y, z'
loop_
 _atom_site_type_symbol
 _atom_site_label
 _atom_site_symmetry_multiplicity
 _atom_site_fract_x
 _atom_site_fract_y
 _atom_site_fract_z
 _atom_site_occupancy
 _atom_site_charge
Eu  Eu1  1  0.42948000  0.00943000  0.44053000  1.0 2.1105145022
Eu  Eu2  1  0.52977000  0.50348000  0.21514000  1.0 1.8810923204
Eu  Eu3  1  0.07052000  0.00943000  0.05947000  1.0 2.1105145022
Eu  Eu4  1  0.97023000  0.50348000  0.28486000  1.0 1.8810923204
Eu  Eu5  1  0.92948000  0.49057000  0.55947000  1.0 2.1105145022
Eu  Eu6  1  0.02977000  0.99652000  0.78486000  1.0 1.8810923204
Eu  Eu7  1  0.57052000  0.49057000  0.94053000  1.0 2.1105145022
Eu  Eu8  1  0.47023000  0.99652000  0.71514000  1.0 1.8810923204
Eu  Eu9  1  0.57052000  0.99057000  0.55947000  1.0 2.1105145022
Eu  Eu10  1  0.47023000  0.49652000  0.78486000  1.0 1.8810923204
Eu  Eu11  1  0.92948000  0.99057000  0.94053000  1.0 2.1105145022
Eu  Eu12  1  0.02977000  0.49652000  0.71514000  1.0 1.8810923204
Eu  Eu13  1  0.07052000  0.50943000  0.44053000  1.0 2.1105145022
Eu  Eu14  1  0.97023000  0.00348000  0.21514000  1.0 1.8810923204
Eu  Eu15  1  0.42948000  0.50943000  0.05947000  1.0 2.1105145022
Eu  Eu16  1  0.52977000  0.00348000  0.28486000  1.0 1.8810923204
H  H1  1  0.59708000  0.21964000  0.37509000  1.0 0.1196422073
H  H2  1  0.53928000  0.14714000  0.41357000  1.0 0.1311298588
H  H3  1  0.72005000  0.12801000  0.49067000  1.0 0.1196422073
H  H4  1  0.78010000  0.19584000  0.44856000  1.0 0.1196422073
H  H5  1  0.72534000  0.26007000  0.28356000  1.0 0.1092306915
H  H6  1  0.66153000  0.32570000  0.24112000  1.0 0.1196422073
H  H7  1  0.57109000  0.38897000  0.35351000  1.0 0.1196422073
H  H8  1  0.63682000  0.32525000  0.39600000  1.0 0.1196422073
H  H9  1  0.69457000  0.16501000  0.32524000  1.0 0.1196422073
H  H10  1  0.75603000  0.09377000  0.28806000  1.0 0.1196422073
H  H11  1  0.94989000  0.16235000  0.32348000  1.0 0.1196422073
H  H12  1  0.88809000  0.23149000  0.36343000  1.0 0.1092306915
H  H13  1  0.84126000  0.31904000  0.34033000  1.0 0.1196422073
H  H14  1  0.91595000  0.38733000  0.37195000  1.0 0.1311298588
H  H15  1  0.81707000  0.36235000  0.49139000  1.0 0.1196422073
H  H16  1  0.74768000  0.29035000  0.46091000  1.0 0.1092306915
H  H17  1  0.23008000  0.20636000  0.33085000  1.0 0.1196422073
H  H18  1  0.30262000  0.14281000  0.37014000  1.0 0.1311298588
H  H19  1  0.45245000  0.14500000  0.27043000  1.0 0.1196422073
H  H20  1  0.38112000  0.20930000  0.23152000  1.0 0.1196422073
H  H21  1  0.22310000  0.30402000  0.16882000  1.0 0.1196422073
H  H22  1  0.28429000  0.37388000  0.12963000  1.0 0.1196422073
H  H23  1  0.44224000  0.37561000  0.22475000  1.0 0.1196422073
H  H24  1  0.38061000  0.30652000  0.26391000  1.0 0.1196422073
H  H25  1  0.25345000  0.96047000  0.45627000  1.0 0.1092306915
H  H26  1  0.21070000  0.09899000  0.44628000  1.0 0.1311298588
H  H27  1  0.12466000  0.08697000  0.44189000  1.0 0.1196422073
H  H28  1  0.16049000  0.09666000  0.49016000  1.0 0.1311298588
H  H29  1  0.10300000  0.00120000  0.50936000  1.0 0.1311298588
H  H30  1  0.08158000  0.98489000  0.45909000  1.0 0.1196422073
H  H31  1  0.13949000  0.94759000  0.48615000  1.0 0.1196422073
H  H32  1  0.63997000  0.52337000  0.10025000  1.0 0.0967479946
H  H33  1  0.76330000  0.42520000  0.16241000  1.0 0.0897094109
H  H34  1  0.79994000  0.48198000  0.18007000  1.0 0.0897094109
H  H35  1  0.71665000  0.46767000  0.19252000  1.0 0.0711722182
H  H36  1  0.81981000  0.50451000  0.09095000  1.0 0.0523800848
H  H37  1  0.77305000  0.45026000  0.07763000  1.0 0.0711722182
H  H38  1  0.74463000  0.51132000  0.06385000  1.0 0.0711722182
H  H39  1  0.39397000  0.56494000  0.28281000  1.0 0.1092306915
H  H40  1  0.32674000  0.56532000  0.34840000  1.0 0.0809070142
H  H41  1  0.24730000  0.54431000  0.33299000  1.0 0.0967479946
H  H42  1  0.29796000  0.50475000  0.36322000  1.0 0.0897094109
H  H43  1  0.32004000  0.42584000  0.30879000  1.0 0.0254036507
H  H44  1  0.24474000  0.45532000  0.29455000  1.0 0.0809070142
H  H45  1  0.30759000  0.44511000  0.25807000  1.0 0.0809070142
H  H46  1  0.71113000  0.48845000  0.19290000  1.0 0.0897094109
H  H47  1  0.75642000  0.54911000  0.08270000  1.0 0.0809070142
H  H48  1  0.72055000  0.49300000  0.06320000  1.0 0.0809070142
H  H49  1  0.67002000  0.53879000  0.08729000  1.0 0.0711722182
H  H50  1  0.82172000  0.48456000  0.16953000  1.0 0.0809070142
H  H51  1  0.83097000  0.45481000  0.12188000  1.0 0.0809070142
H  H52  1  0.83748000  0.52150000  0.12589000  1.0 0.0711722182
H  H53  1  0.38131000  0.45634000  0.28608000  1.0 0.0967479946
H  H54  1  0.30203000  0.47342000  0.34779000  1.0 0.1092306915
H  H55  1  0.26778000  0.53501000  0.35131000  1.0 0.0809070142
H  H56  1  0.22628000  0.48755000  0.32320000  1.0 0.0897094109
H  H57  1  0.23653000  0.57653000  0.27802000  1.0 0.0809070142
H  H58  1  0.31557000  0.60257000  0.28849000  1.0 0.0897094109
H  H59  1  0.30091000  0.57162000  0.24184000  1.0 0.0711722182
H  H60  1  0.90292000  0.21964000  0.12491000  1.0 0.1196422073
H  H61  1  0.96072000  0.14714000  0.08643000  1.0 0.1311298588
H  H62  1  0.77995000  0.12801000  0.00933000  1.0 0.1196422073
H  H63  1  0.71990000  0.19584000  0.05144000  1.0 0.1196422073
H  H64  1  0.77466000  0.26007000  0.21644000  1.0 0.1092306915
H  H65  1  0.83847000  0.32570000  0.25888000  1.0 0.1196422073
H  H66  1  0.92891000  0.38897000  0.14649000  1.0 0.1196422073
H  H67  1  0.86318000  0.32525000  0.10400000  1.0 0.1196422073
H  H68  1  0.80543000  0.16501000  0.17476000  1.0 0.1196422073
H  H69  1  0.74397000  0.09377000  0.21194000  1.0 0.1196422073
H  H70  1  0.55011000  0.16235000  0.17652000  1.0 0.1196422073
H  H71  1  0.61191000  0.23149000  0.13657000  1.0 0.1092306915
H  H72  1  0.65874000  0.31904000  0.15967000  1.0 0.1196422073
H  H73  1  0.58405000  0.38733000  0.12805000  1.0 0.1311298588
H  H74  1  0.68293000  0.36235000  0.00861000  1.0 0.1196422073
H  H75  1  0.75232000  0.29035000  0.03909000  1.0 0.1092306915
H  H76  1  0.26992000  0.20636000  0.16915000  1.0 0.1196422073
H  H77  1  0.19738000  0.14281000  0.12986000  1.0 0.1311298588
H  H78  1  0.04755000  0.14500000  0.22957000  1.0 0.1196422073
H  H79  1  0.11888000  0.20930000  0.26848000  1.0 0.1196422073
H  H80  1  0.27690000  0.30402000  0.33118000  1.0 0.1196422073
H  H81  1  0.21571000  0.37388000  0.37037000  1.0 0.1196422073
H  H82  1  0.05776000  0.37561000  0.27525000  1.0 0.1196422073
H  H83  1  0.11939000  0.30652000  0.23609000  1.0 0.1196422073
H  H84  1  0.24655000  0.96047000  0.04373000  1.0 0.1092306915
H  H85  1  0.28930000  0.09899000  0.05372000  1.0 0.1311298588
H  H86  1  0.37534000  0.08697000  0.05811000  1.0 0.1196422073
H  H87  1  0.33951000  0.09666000  0.00984000  1.0 0.1311298588
H  H88  1  0.39700000  0.00120000  0.99064000  1.0 0.1311298588
H  H89  1  0.41842000  0.98489000  0.04091000  1.0 0.1196422073
H  H90  1  0.36051000  0.94759000  0.01385000  1.0 0.1196422073
H  H91  1  0.86003000  0.52337000  0.39975000  1.0 0.0967479946
H  H92  1  0.73670000  0.42520000  0.33759000  1.0 0.0897094109
H  H93  1  0.70006000  0.48198000  0.31993000  1.0 0.0897094109
H  H94  1  0.78335000  0.46767000  0.30748000  1.0 0.0711722182
H  H95  1  0.68019000  0.50451000  0.40905000  1.0 0.0523800848
H  H96  1  0.72695000  0.45026000  0.42237000  1.0 0.0711722182
H  H97  1  0.75537000  0.51132000  0.43615000  1.0 0.0711722182
H  H98  1  0.10603000  0.56494000  0.21719000  1.0 0.1092306915
H  H99  1  0.17326000  0.56532000  0.15160000  1.0 0.0809070142
H  H100  1  0.25270000  0.54431000  0.16701000  1.0 0.0967479946
H  H101  1  0.20204000  0.50475000  0.13678000  1.0 0.0897094109
H  H102  1  0.17996000  0.42584000  0.19121000  1.0 0.0254036507
H  H103  1  0.25526000  0.45532000  0.20545000  1.0 0.0809070142
H  H104  1  0.19241000  0.44511000  0.24193000  1.0 0.0809070142
H  H105  1  0.78887000  0.48845000  0.30710000  1.0 0.0897094109
H  H106  1  0.74358000  0.54911000  0.41730000  1.0 0.0809070142
H  H107  1  0.77945000  0.49300000  0.43680000  1.0 0.0809070142
H  H108  1  0.82998000  0.53879000  0.41271000  1.0 0.0711722182
H  H109  1  0.67828000  0.48456000  0.33047000  1.0 0.0809070142
H  H110  1  0.66903000  0.45481000  0.37812000  1.0 0.0809070142
H  H111  1  0.66252000  0.52150000  0.37411000  1.0 0.0711722182
H  H112  1  0.11869000  0.45634000  0.21392000  1.0 0.0967479946
H  H113  1  0.19797000  0.47342000  0.15221000  1.0 0.1092306915
H  H114  1  0.23222000  0.53501000  0.14869000  1.0 0.0809070142
H  H115  1  0.27372000  0.48755000  0.17680000  1.0 0.0897094109
H  H116  1  0.26347000  0.57653000  0.22198000  1.0 0.0809070142
H  H117  1  0.18443000  0.60257000  0.21151000  1.0 0.0897094109
H  H118  1  0.19909000  0.57162000  0.25816000  1.0 0.0711722182
H  H119  1  0.09708000  0.28036000  0.62491000  1.0 0.1196422073
H  H120  1  0.03928000  0.35286000  0.58643000  1.0 0.1311298588
H  H121  1  0.22005000  0.37199000  0.50933000  1.0 0.1196422073
H  H122  1  0.28010000  0.30416000  0.55144000  1.0 0.1196422073
H  H123  1  0.22534000  0.23993000  0.71644000  1.0 0.1092306915
H  H124  1  0.16153000  0.17430000  0.75888000  1.0 0.1196422073
H  H125  1  0.07109000  0.11103000  0.64649000  1.0 0.1196422073
H  H126  1  0.13682000  0.17475000  0.60400000  1.0 0.1196422073
H  H127  1  0.19457000  0.33499000  0.67476000  1.0 0.1196422073
H  H128  1  0.25603000  0.40623000  0.71194000  1.0 0.1196422073
H  H129  1  0.44989000  0.33765000  0.67652000  1.0 0.1196422073
H  H130  1  0.38809000  0.26851000  0.63657000  1.0 0.1092306915
H  H131  1  0.34126000  0.18096000  0.65967000  1.0 0.1196422073
H  H132  1  0.41595000  0.11267000  0.62805000  1.0 0.1311298588
H  H133  1  0.31707000  0.13765000  0.50861000  1.0 0.1196422073
H  H134  1  0.24768000  0.20965000  0.53909000  1.0 0.1092306915
H  H135  1  0.73008000  0.29364000  0.66915000  1.0 0.1196422073
H  H136  1  0.80262000  0.35719000  0.62986000  1.0 0.1311298588
H  H137  1  0.95245000  0.35500000  0.72957000  1.0 0.1196422073
H  H138  1  0.88112000  0.29070000  0.76848000  1.0 0.1196422073
H  H139  1  0.72310000  0.19598000  0.83118000  1.0 0.1196422073
H  H140  1  0.78429000  0.12612000  0.87037000  1.0 0.1196422073
H  H141  1  0.94224000  0.12439000  0.77525000  1.0 0.1196422073
H  H142  1  0.88061000  0.19348000  0.73609000  1.0 0.1196422073
H  H143  1  0.75345000  0.53953000  0.54373000  1.0 0.1092306915
H  H144  1  0.71070000  0.40101000  0.55372000  1.0 0.1311298588
H  H145  1  0.62466000  0.41303000  0.55811000  1.0 0.1196422073
H  H146  1  0.66049000  0.40334000  0.50984000  1.0 0.1311298588
H  H147  1  0.60300000  0.49880000  0.49064000  1.0 0.1311298588
H  H148  1  0.58158000  0.51511000  0.54091000  1.0 0.1196422073
H  H149  1  0.63949000  0.55241000  0.51385000  1.0 0.1196422073
H  H150  1  0.13997000  0.97663000  0.89975000  1.0 0.0967479946
H  H151  1  0.26330000  0.07480000  0.83759000  1.0 0.0897094109
H  H152  1  0.29994000  0.01802000  0.81993000  1.0 0.0897094109
H  H153  1  0.21665000  0.03233000  0.80748000  1.0 0.0711722182
H  H154  1  0.31981000  0.99549000  0.90905000  1.0 0.0523800848
H  H155  1  0.27305000  0.04974000  0.92237000  1.0 0.0711722182
H  H156  1  0.24463000  0.98868000  0.93615000  1.0 0.0711722182
H  H157  1  0.89397000  0.93506000  0.71719000  1.0 0.1092306915
H  H158  1  0.82674000  0.93468000  0.65160000  1.0 0.0809070142
H  H159  1  0.74730000  0.95569000  0.66701000  1.0 0.0967479946
H  H160  1  0.79796000  0.99525000  0.63678000  1.0 0.0897094109
H  H161  1  0.82004000  0.07416000  0.69121000  1.0 0.0254036507
H  H162  1  0.74474000  0.04468000  0.70545000  1.0 0.0809070142
H  H163  1  0.80759000  0.05489000  0.74193000  1.0 0.0809070142
H  H164  1  0.21113000  0.01155000  0.80710000  1.0 0.0897094109
H  H165  1  0.25642000  0.95089000  0.91730000  1.0 0.0809070142
H  H166  1  0.22055000  0.00700000  0.93680000  1.0 0.0809070142
H  H167  1  0.17002000  0.96121000  0.91271000  1.0 0.0711722182
H  H168  1  0.32172000  0.01544000  0.83047000  1.0 0.0809070142
H  H169  1  0.33097000  0.04519000  0.87812000  1.0 0.0809070142
H  H170  1  0.33748000  0.97850000  0.87411000  1.0 0.0711722182
H  H171  1  0.88131000  0.04366000  0.71392000  1.0 0.0967479946
H  H172  1  0.80203000  0.02658000  0.65221000  1.0 0.1092306915
H  H173  1  0.76778000  0.96499000  0.64869000  1.0 0.0809070142
H  H174  1  0.72628000  0.01245000  0.67680000  1.0 0.0897094109
H  H175  1  0.73653000  0.92347000  0.72198000  1.0 0.0809070142
H  H176  1  0.81557000  0.89743000  0.71151000  1.0 0.0897094109
H  H177  1  0.80091000  0.92838000  0.75816000  1.0 0.0711722182
H  H178  1  0.40292000  0.28036000  0.87509000  1.0 0.1196422073
H  H179  1  0.46072000  0.35286000  0.91357000  1.0 0.1311298588
H  H180  1  0.27995000  0.37199000  0.99067000  1.0 0.1196422073
H  H181  1  0.21990000  0.30416000  0.94856000  1.0 0.1196422073
H  H182  1  0.27466000  0.23993000  0.78356000  1.0 0.1092306915
H  H183  1  0.33847000  0.17430000  0.74112000  1.0 0.1196422073
H  H184  1  0.42891000  0.11103000  0.85351000  1.0 0.1196422073
H  H185  1  0.36318000  0.17475000  0.89600000  1.0 0.1196422073
H  H186  1  0.30543000  0.33499000  0.82524000  1.0 0.1196422073
H  H187  1  0.24397000  0.40623000  0.78806000  1.0 0.1196422073
H  H188  1  0.05011000  0.33765000  0.82348000  1.0 0.1196422073
H  H189  1  0.11191000  0.26851000  0.86343000  1.0 0.1092306915
H  H190  1  0.15874000  0.18096000  0.84033000  1.0 0.1196422073
H  H191  1  0.08405000  0.11267000  0.87195000  1.0 0.1311298588
H  H192  1  0.18293000  0.13765000  0.99139000  1.0 0.1196422073
H  H193  1  0.25232000  0.20965000  0.96091000  1.0 0.1092306915
H  H194  1  0.76992000  0.29364000  0.83085000  1.0 0.1196422073
H  H195  1  0.69738000  0.35719000  0.87014000  1.0 0.1311298588
H  H196  1  0.54755000  0.35500000  0.77043000  1.0 0.1196422073
H  H197  1  0.61888000  0.29070000  0.73152000  1.0 0.1196422073
H  H198  1  0.77690000  0.19598000  0.66882000  1.0 0.1196422073
H  H199  1  0.71571000  0.12612000  0.62963000  1.0 0.1196422073
H  H200  1  0.55776000  0.12439000  0.72475000  1.0 0.1196422073
H  H201  1  0.61939000  0.19348000  0.76391000  1.0 0.1196422073
H  H202  1  0.74655000  0.53953000  0.95627000  1.0 0.1092306915
H  H203  1  0.78930000  0.40101000  0.94628000  1.0 0.1311298588
H  H204  1  0.87534000  0.41303000  0.94189000  1.0 0.1196422073
H  H205  1  0.83951000  0.40334000  0.99016000  1.0 0.1311298588
H  H206  1  0.89700000  0.49880000  0.00936000  1.0 0.1311298588
H  H207  1  0.91842000  0.51511000  0.95909000  1.0 0.1196422073
H  H208  1  0.86051000  0.55241000  0.98615000  1.0 0.1196422073
H  H209  1  0.36003000  0.97663000  0.60025000  1.0 0.0967479946
H  H210  1  0.23670000  0.07480000  0.66241000  1.0 0.0897094109
H  H211  1  0.20006000  0.01802000  0.68007000  1.0 0.0897094109
H  H212  1  0.28335000  0.03233000  0.69252000  1.0 0.0711722182
H  H213  1  0.18019000  0.99549000  0.59095000  1.0 0.0523800848
H  H214  1  0.22695000  0.04974000  0.57763000  1.0 0.0711722182
H  H215  1  0.25537000  0.98868000  0.56385000  1.0 0.0711722182
H  H216  1  0.60603000  0.93506000  0.78281000  1.0 0.1092306915
H  H217  1  0.67326000  0.93468000  0.84840000  1.0 0.0809070142
H  H218  1  0.75270000  0.95569000  0.83299000  1.0 0.0967479946
H  H219  1  0.70204000  0.99525000  0.86322000  1.0 0.0897094109
H  H220  1  0.67996000  0.07416000  0.80879000  1.0 0.0254036507
H  H221  1  0.75526000  0.04468000  0.79455000  1.0 0.0809070142
H  H222  1  0.69241000  0.05489000  0.75807000  1.0 0.0809070142
H  H223  1  0.28887000  0.01155000  0.69290000  1.0 0.0897094109
H  H224  1  0.24358000  0.95089000  0.58270000  1.0 0.0809070142
H  H225  1  0.27945000  0.00700000  0.56320000  1.0 0.0809070142
H  H226  1  0.32998000  0.96121000  0.58729000  1.0 0.0711722182
H  H227  1  0.17828000  0.01544000  0.66953000  1.0 0.0809070142
H  H228  1  0.16903000  0.04519000  0.62188000  1.0 0.0809070142
H  H229  1  0.16252000  0.97850000  0.62589000  1.0 0.0711722182
H  H230  1  0.61869000  0.04366000  0.78608000  1.0 0.0967479946
H  H231  1  0.69797000  0.02658000  0.84779000  1.0 0.1092306915
H  H232  1  0.73222000  0.96499000  0.85131000  1.0 0.0809070142
H  H233  1  0.77372000  0.01245000  0.82320000  1.0 0.0897094109
H  H234  1  0.76347000  0.92347000  0.77802000  1.0 0.0809070142
H  H235  1  0.68443000  0.89743000  0.78849000  1.0 0.0897094109
H  H236  1  0.69909000  0.92838000  0.74184000  1.0 0.0711722182
H  H237  1  0.40292000  0.78036000  0.62491000  1.0 0.1196422073
H  H238  1  0.46072000  0.85286000  0.58643000  1.0 0.1311298588
H  H239  1  0.27995000  0.87199000  0.50933000  1.0 0.1196422073
H  H240  1  0.21990000  0.80416000  0.55144000  1.0 0.1196422073
H  H241  1  0.27466000  0.73993000  0.71644000  1.0 0.1092306915
H  H242  1  0.33847000  0.67430000  0.75888000  1.0 0.1196422073
H  H243  1  0.42891000  0.61103000  0.64649000  1.0 0.1196422073
H  H244  1  0.36318000  0.67475000  0.60400000  1.0 0.1196422073
H  H245  1  0.30543000  0.83499000  0.67476000  1.0 0.1196422073
H  H246  1  0.24397000  0.90623000  0.71194000  1.0 0.1196422073
H  H247  1  0.05011000  0.83765000  0.67652000  1.0 0.1196422073
H  H248  1  0.11191000  0.76851000  0.63657000  1.0 0.1092306915
H  H249  1  0.15874000  0.68096000  0.65967000  1.0 0.1196422073
H  H250  1  0.08405000  0.61267000  0.62805000  1.0 0.1311298588
H  H251  1  0.18293000  0.63765000  0.50861000  1.0 0.1196422073
H  H252  1  0.25232000  0.70965000  0.53909000  1.0 0.1092306915
H  H253  1  0.76992000  0.79364000  0.66915000  1.0 0.1196422073
H  H254  1  0.69738000  0.85719000  0.62986000  1.0 0.1311298588
H  H255  1  0.54755000  0.85500000  0.72957000  1.0 0.1196422073
H  H256  1  0.61888000  0.79070000  0.76848000  1.0 0.1196422073
H  H257  1  0.77690000  0.69598000  0.83118000  1.0 0.1196422073
H  H258  1  0.71571000  0.62612000  0.87037000  1.0 0.1196422073
H  H259  1  0.55776000  0.62439000  0.77525000  1.0 0.1196422073
H  H260  1  0.61939000  0.69348000  0.73609000  1.0 0.1196422073
H  H261  1  0.74655000  0.03953000  0.54373000  1.0 0.1092306915
H  H262  1  0.78930000  0.90101000  0.55372000  1.0 0.1311298588
H  H263  1  0.87534000  0.91303000  0.55811000  1.0 0.1196422073
H  H264  1  0.83951000  0.90334000  0.50984000  1.0 0.1311298588
H  H265  1  0.89700000  0.99880000  0.49064000  1.0 0.1311298588
H  H266  1  0.91842000  0.01511000  0.54091000  1.0 0.1196422073
H  H267  1  0.86051000  0.05241000  0.51385000  1.0 0.1196422073
H  H268  1  0.36003000  0.47663000  0.89975000  1.0 0.0967479946
H  H269  1  0.23670000  0.57480000  0.83759000  1.0 0.0897094109
H  H270  1  0.20006000  0.51802000  0.81993000  1.0 0.0897094109
H  H271  1  0.28335000  0.53233000  0.80748000  1.0 0.0711722182
H  H272  1  0.18019000  0.49549000  0.90905000  1.0 0.0523800848
H  H273  1  0.22695000  0.54974000  0.92237000  1.0 0.0711722182
H  H274  1  0.25537000  0.48868000  0.93615000  1.0 0.0711722182
H  H275  1  0.60603000  0.43506000  0.71719000  1.0 0.1092306915
H  H276  1  0.67326000  0.43468000  0.65160000  1.0 0.0809070142
H  H277  1  0.75270000  0.45569000  0.66701000  1.0 0.0967479946
H  H278  1  0.70204000  0.49525000  0.63678000  1.0 0.0897094109
H  H279  1  0.67996000  0.57416000  0.69121000  1.0 0.0254036507
H  H280  1  0.75526000  0.54468000  0.70545000  1.0 0.0809070142
H  H281  1  0.69241000  0.55489000  0.74193000  1.0 0.0809070142
H  H282  1  0.28887000  0.51155000  0.80710000  1.0 0.0897094109
H  H283  1  0.24358000  0.45089000  0.91730000  1.0 0.0809070142
H  H284  1  0.27945000  0.50700000  0.93680000  1.0 0.0809070142
H  H285  1  0.32998000  0.46121000  0.91271000  1.0 0.0711722182
H  H286  1  0.17828000  0.51544000  0.83047000  1.0 0.0809070142
H  H287  1  0.16903000  0.54519000  0.87812000  1.0 0.0809070142
H  H288  1  0.16252000  0.47850000  0.87411000  1.0 0.0711722182
H  H289  1  0.61869000  0.54366000  0.71392000  1.0 0.0967479946
H  H290  1  0.69797000  0.52658000  0.65221000  1.0 0.1092306915
H  H291  1  0.73222000  0.46499000  0.64869000  1.0 0.0809070142
H  H292  1  0.77372000  0.51245000  0.67680000  1.0 0.0897094109
H  H293  1  0.76347000  0.42347000  0.72198000  1.0 0.0809070142
H  H294  1  0.68443000  0.39743000  0.71151000  1.0 0.0897094109
H  H295  1  0.69909000  0.42838000  0.75816000  1.0 0.0711722182
H  H296  1  0.09708000  0.78036000  0.87509000  1.0 0.1196422073
H  H297  1  0.03928000  0.85286000  0.91357000  1.0 0.1311298588
H  H298  1  0.22005000  0.87199000  0.99067000  1.0 0.1196422073
H  H299  1  0.28010000  0.80416000  0.94856000  1.0 0.1196422073
H  H300  1  0.22534000  0.73993000  0.78356000  1.0 0.1092306915
H  H301  1  0.16153000  0.67430000  0.74112000  1.0 0.1196422073
H  H302  1  0.07109000  0.61103000  0.85351000  1.0 0.1196422073
H  H303  1  0.13682000  0.67475000  0.89600000  1.0 0.1196422073
H  H304  1  0.19457000  0.83499000  0.82524000  1.0 0.1196422073
H  H305  1  0.25603000  0.90623000  0.78806000  1.0 0.1196422073
H  H306  1  0.44989000  0.83765000  0.82348000  1.0 0.1196422073
H  H307  1  0.38809000  0.76851000  0.86343000  1.0 0.1092306915
H  H308  1  0.34126000  0.68096000  0.84033000  1.0 0.1196422073
H  H309  1  0.41595000  0.61267000  0.87195000  1.0 0.1311298588
H  H310  1  0.31707000  0.63765000  0.99139000  1.0 0.1196422073
H  H311  1  0.24768000  0.70965000  0.96091000  1.0 0.1092306915
H  H312  1  0.73008000  0.79364000  0.83085000  1.0 0.1196422073
H  H313  1  0.80262000  0.85719000  0.87014000  1.0 0.1311298588
H  H314  1  0.95245000  0.85500000  0.77043000  1.0 0.1196422073
H  H315  1  0.88112000  0.79070000  0.73152000  1.0 0.1196422073
H  H316  1  0.72310000  0.69598000  0.66882000  1.0 0.1196422073
H  H317  1  0.78429000  0.62612000  0.62963000  1.0 0.1196422073
H  H318  1  0.94224000  0.62439000  0.72475000  1.0 0.1196422073
H  H319  1  0.88061000  0.69348000  0.76391000  1.0 0.1196422073
H  H320  1  0.75345000  0.03953000  0.95627000  1.0 0.1092306915
H  H321  1  0.71070000  0.90101000  0.94628000  1.0 0.1311298588
H  H322  1  0.62466000  0.91303000  0.94189000  1.0 0.1196422073
H  H323  1  0.66049000  0.90334000  0.99016000  1.0 0.1311298588
H  H324  1  0.60300000  0.99880000  0.00936000  1.0 0.1311298588
H  H325  1  0.58158000  0.01511000  0.95909000  1.0 0.1196422073
H  H326  1  0.63949000  0.05241000  0.98615000  1.0 0.1196422073
H  H327  1  0.13997000  0.47663000  0.60025000  1.0 0.0967479946
H  H328  1  0.26330000  0.57480000  0.66241000  1.0 0.0897094109
H  H329  1  0.29994000  0.51802000  0.68007000  1.0 0.0897094109
H  H330  1  0.21665000  0.53233000  0.69252000  1.0 0.0711722182
H  H331  1  0.31981000  0.49549000  0.59095000  1.0 0.0523800848
H  H332  1  0.27305000  0.54974000  0.57763000  1.0 0.0711722182
H  H333  1  0.24463000  0.48868000  0.56385000  1.0 0.0711722182
H  H334  1  0.89397000  0.43506000  0.78281000  1.0 0.1092306915
H  H335  1  0.82674000  0.43468000  0.84840000  1.0 0.0809070142
H  H336  1  0.74730000  0.45569000  0.83299000  1.0 0.0967479946
H  H337  1  0.79796000  0.49525000  0.86322000  1.0 0.0897094109
H  H338  1  0.82004000  0.57416000  0.80879000  1.0 0.0254036507
H  H339  1  0.74474000  0.54468000  0.79455000  1.0 0.0809070142
H  H340  1  0.80759000  0.55489000  0.75807000  1.0 0.0809070142
H  H341  1  0.21113000  0.51155000  0.69290000  1.0 0.0897094109
H  H342  1  0.25642000  0.45089000  0.58270000  1.0 0.0809070142
H  H343  1  0.22055000  0.50700000  0.56320000  1.0 0.0809070142
H  H344  1  0.17002000  0.46121000  0.58729000  1.0 0.0711722182
H  H345  1  0.32172000  0.51544000  0.66953000  1.0 0.0809070142
H  H346  1  0.33097000  0.54519000  0.62188000  1.0 0.0809070142
H  H347  1  0.33748000  0.47850000  0.62589000  1.0 0.0711722182
H  H348  1  0.88131000  0.54366000  0.78608000  1.0 0.0967479946
H  H349  1  0.80203000  0.52658000  0.84779000  1.0 0.1092306915
H  H350  1  0.76778000  0.46499000  0.85131000  1.0 0.0809070142
H  H351  1  0.72628000  0.51245000  0.82320000  1.0 0.0897094109
H  H352  1  0.73653000  0.42347000  0.77802000  1.0 0.0809070142
H  H353  1  0.81557000  0.39743000  0.78849000  1.0 0.0897094109
H  H354  1  0.80091000  0.42838000  0.74184000  1.0 0.0711722182
H  H355  1  0.90292000  0.71964000  0.37509000  1.0 0.1196422073
H  H356  1  0.96072000  0.64714000  0.41357000  1.0 0.1311298588
H  H357  1  0.77995000  0.62801000  0.49067000  1.0 0.1196422073
H  H358  1  0.71990000  0.69584000  0.44856000  1.0 0.1196422073
H  H359  1  0.77466000  0.76007000  0.28356000  1.0 0.1092306915
H  H360  1  0.83847000  0.82570000  0.24112000  1.0 0.1196422073
H  H361  1  0.92891000  0.88897000  0.35351000  1.0 0.1196422073
H  H362  1  0.86318000  0.82525000  0.39600000  1.0 0.1196422073
H  H363  1  0.80543000  0.66501000  0.32524000  1.0 0.1196422073
H  H364  1  0.74397000  0.59377000  0.28806000  1.0 0.1196422073
H  H365  1  0.55011000  0.66235000  0.32348000  1.0 0.1196422073
H  H366  1  0.61191000  0.73149000  0.36343000  1.0 0.1092306915
H  H367  1  0.65874000  0.81904000  0.34033000  1.0 0.1196422073
H  H368  1  0.58405000  0.88733000  0.37195000  1.0 0.1311298588
H  H369  1  0.68293000  0.86235000  0.49139000  1.0 0.1196422073
H  H370  1  0.75232000  0.79035000  0.46091000  1.0 0.1092306915
H  H371  1  0.26992000  0.70636000  0.33085000  1.0 0.1196422073
H  H372  1  0.19738000  0.64281000  0.37014000  1.0 0.1311298588
H  H373  1  0.04755000  0.64500000  0.27043000  1.0 0.1196422073
H  H374  1  0.11888000  0.70930000  0.23152000  1.0 0.1196422073
H  H375  1  0.27690000  0.80402000  0.16882000  1.0 0.1196422073
H  H376  1  0.21571000  0.87388000  0.12963000  1.0 0.1196422073
H  H377  1  0.05776000  0.87561000  0.22475000  1.0 0.1196422073
H  H378  1  0.11939000  0.80652000  0.26391000  1.0 0.1196422073
H  H379  1  0.24655000  0.46047000  0.45627000  1.0 0.1092306915
H  H380  1  0.28930000  0.59899000  0.44628000  1.0 0.1311298588
H  H381  1  0.37534000  0.58697000  0.44189000  1.0 0.1196422073
H  H382  1  0.33951000  0.59666000  0.49016000  1.0 0.1311298588
H  H383  1  0.39700000  0.50120000  0.50936000  1.0 0.1311298588
H  H384  1  0.41842000  0.48489000  0.45909000  1.0 0.1196422073
H  H385  1  0.36051000  0.44759000  0.48615000  1.0 0.1196422073
H  H386  1  0.86003000  0.02337000  0.10025000  1.0 0.0967479946
H  H387  1  0.73670000  0.92520000  0.16241000  1.0 0.0897094109
H  H388  1  0.70006000  0.98198000  0.18007000  1.0 0.0897094109
H  H389  1  0.78335000  0.96767000  0.19252000  1.0 0.0711722182
H  H390  1  0.68019000  0.00451000  0.09095000  1.0 0.0523800848
H  H391  1  0.72695000  0.95026000  0.07763000  1.0 0.0711722182
H  H392  1  0.75537000  0.01132000  0.06385000  1.0 0.0711722182
H  H393  1  0.10603000  0.06494000  0.28281000  1.0 0.1092306915
H  H394  1  0.17326000  0.06532000  0.34840000  1.0 0.0809070142
H  H395  1  0.25270000  0.04431000  0.33299000  1.0 0.0967479946
H  H396  1  0.20204000  0.00475000  0.36322000  1.0 0.0897094109
H  H397  1  0.17996000  0.92584000  0.30879000  1.0 0.0254036507
H  H398  1  0.25526000  0.95532000  0.29455000  1.0 0.0809070142
H  H399  1  0.19241000  0.94511000  0.25807000  1.0 0.0809070142
H  H400  1  0.78887000  0.98845000  0.19290000  1.0 0.0897094109
H  H401  1  0.74358000  0.04911000  0.08270000  1.0 0.0809070142
H  H402  1  0.77945000  0.99300000  0.06320000  1.0 0.0809070142
H  H403  1  0.82998000  0.03879000  0.08729000  1.0 0.0711722182
H  H404  1  0.67828000  0.98456000  0.16953000  1.0 0.0809070142
H  H405  1  0.66903000  0.95481000  0.12188000  1.0 0.0809070142
H  H406  1  0.66252000  0.02150000  0.12589000  1.0 0.0711722182
H  H407  1  0.11869000  0.95634000  0.28608000  1.0 0.0967479946
H  H408  1  0.19797000  0.97342000  0.34779000  1.0 0.1092306915
H  H409  1  0.23222000  0.03501000  0.35131000  1.0 0.0809070142
H  H410  1  0.27372000  0.98755000  0.32320000  1.0 0.0897094109
H  H411  1  0.26347000  0.07653000  0.27802000  1.0 0.0809070142
H  H412  1  0.18443000  0.10257000  0.28849000  1.0 0.0897094109
H  H413  1  0.19909000  0.07162000  0.24184000  1.0 0.0711722182
H  H414  1  0.59708000  0.71964000  0.12491000  1.0 0.1196422073
H  H415  1  0.53928000  0.64714000  0.08643000  1.0 0.1311298588
H  H416  1  0.72005000  0.62801000  0.00933000  1.0 0.1196422073
H  H417  1  0.78010000  0.69584000  0.05144000  1.0 0.1196422073
H  H418  1  0.72534000  0.76007000  0.21644000  1.0 0.1092306915
H  H419  1  0.66153000  0.82570000  0.25888000  1.0 0.1196422073
H  H420  1  0.57109000  0.88897000  0.14649000  1.0 0.1196422073
H  H421  1  0.63682000  0.82525000  0.10400000  1.0 0.1196422073
H  H422  1  0.69457000  0.66501000  0.17476000  1.0 0.1196422073
H  H423  1  0.75603000  0.59377000  0.21194000  1.0 0.1196422073
H  H424  1  0.94989000  0.66235000  0.17652000  1.0 0.1196422073
H  H425  1  0.88809000  0.73149000  0.13657000  1.0 0.1092306915
H  H426  1  0.84126000  0.81904000  0.15967000  1.0 0.1196422073
H  H427  1  0.91595000  0.88733000  0.12805000  1.0 0.1311298588
H  H428  1  0.81707000  0.86235000  0.00861000  1.0 0.1196422073
H  H429  1  0.74768000  0.79035000  0.03909000  1.0 0.1092306915
H  H430  1  0.23008000  0.70636000  0.16915000  1.0 0.1196422073
H  H431  1  0.30262000  0.64281000  0.12986000  1.0 0.1311298588
H  H432  1  0.45245000  0.64500000  0.22957000  1.0 0.1196422073
H  H433  1  0.38112000  0.70930000  0.26848000  1.0 0.1196422073
H  H434  1  0.22310000  0.80402000  0.33118000  1.0 0.1196422073
H  H435  1  0.28429000  0.87388000  0.37037000  1.0 0.1196422073
H  H436  1  0.44224000  0.87561000  0.27525000  1.0 0.1196422073
H  H437  1  0.38061000  0.80652000  0.23609000  1.0 0.1196422073
H  H438  1  0.25345000  0.46047000  0.04373000  1.0 0.1092306915
H  H439  1  0.21070000  0.59899000  0.05372000  1.0 0.1311298588
H  H440  1  0.12466000  0.58697000  0.05811000  1.0 0.1196422073
H  H441  1  0.16049000  0.59666000  0.00984000  1.0 0.1311298588
H  H442  1  0.10300000  0.50120000  0.99064000  1.0 0.1311298588
H  H443  1  0.08158000  0.48489000  0.04091000  1.0 0.1196422073
H  H444  1  0.13949000  0.44759000  0.01385000  1.0 0.1196422073
H  H445  1  0.63997000  0.02337000  0.39975000  1.0 0.0967479946
H  H446  1  0.76330000  0.92520000  0.33759000  1.0 0.0897094109
H  H447  1  0.79994000  0.98198000  0.31993000  1.0 0.0897094109
H  H448  1  0.71665000  0.96767000  0.30748000  1.0 0.0711722182
H  H449  1  0.81981000  0.00451000  0.40905000  1.0 0.0523800848
H  H450  1  0.77305000  0.95026000  0.42237000  1.0 0.0711722182
H  H451  1  0.74463000  0.01132000  0.43615000  1.0 0.0711722182
H  H452  1  0.39397000  0.06494000  0.21719000  1.0 0.1092306915
H  H453  1  0.32674000  0.06532000  0.15160000  1.0 0.0809070142
H  H454  1  0.24730000  0.04431000  0.16701000  1.0 0.0967479946
H  H455  1  0.29796000  0.00475000  0.13678000  1.0 0.0897094109
H  H456  1  0.32004000  0.92584000  0.19121000  1.0 0.0254036507
H  H457  1  0.24474000  0.95532000  0.20545000  1.0 0.0809070142
H  H458  1  0.30759000  0.94511000  0.24193000  1.0 0.0809070142
H  H459  1  0.71113000  0.98845000  0.30710000  1.0 0.0897094109
H  H460  1  0.75642000  0.04911000  0.41730000  1.0 0.0809070142
H  H461  1  0.72055000  0.99300000  0.43680000  1.0 0.0809070142
H  H462  1  0.67002000  0.03879000  0.41271000  1.0 0.0711722182
H  H463  1  0.82172000  0.98456000  0.33047000  1.0 0.0809070142
H  H464  1  0.83097000  0.95481000  0.37812000  1.0 0.0809070142
H  H465  1  0.83748000  0.02150000  0.37411000  1.0 0.0711722182
H  H466  1  0.38131000  0.95634000  0.21392000  1.0 0.0967479946
H  H467  1  0.30203000  0.97342000  0.15221000  1.0 0.1092306915
H  H468  1  0.26778000  0.03501000  0.14869000  1.0 0.0809070142
H  H469  1  0.22628000  0.98755000  0.17680000  1.0 0.0897094109
H  H470  1  0.23653000  0.07653000  0.22198000  1.0 0.0809070142
H  H471  1  0.31557000  0.10257000  0.21151000  1.0 0.0897094109
H  H472  1  0.30091000  0.07162000  0.25816000  1.0 0.0711722182
C  C1  1  0.74023000  0.25109000  0.37433000  1.0 -0.0208348054
C  C2  1  0.69540000  0.21431000  0.40677000  1.0 0.0619453132
C  C3  1  0.62310000  0.19994000  0.39769000  1.0 -0.1605238769
C  C4  1  0.58810000  0.15727000  0.42108000  1.0 -0.0836776893
C  C5  1  0.62420000  0.12950000  0.45524000  1.0 -0.0383703277
C  C6  1  0.69560000  0.14538000  0.46627000  1.0 -0.1072529062
C  C7  1  0.73080000  0.18644000  0.44159000  1.0 -0.1605238769
C  C8  1  0.58910000  0.08073000  0.47867000  1.0 0.6193975315
C  C9  1  0.69000000  0.28681000  0.34444000  1.0 0.0619453132
C  C10  1  0.69510000  0.28691000  0.29811000  1.0 -0.1605238769
C  C11  1  0.65660000  0.32579000  0.27276000  1.0 -0.092088524
C  C12  1  0.61110000  0.36458000  0.29291000  1.0 -0.0334013349
C  C13  1  0.60340000  0.36340000  0.33920000  1.0 -0.092088524
C  C14  1  0.64240000  0.32533000  0.36439000  1.0 -0.1605238769
C  C15  1  0.57610000  0.40950000  0.26532000  1.0 0.5404281721
C  C16  1  0.78500000  0.20700000  0.34767000  1.0 0.0619453132
C  C17  1  0.74670000  0.16468000  0.32508000  1.0 -0.1605238769
C  C18  1  0.78320000  0.12246000  0.30255000  1.0 -0.1072529062
C  C19  1  0.85940000  0.12162000  0.30090000  1.0 -0.0208348054
C  C20  1  0.89780000  0.16263000  0.32380000  1.0 -0.092088524
C  C21  1  0.86070000  0.20431000  0.34730000  1.0 -0.1605238769
C  C22  1  0.89820000  0.07801000  0.27403000  1.0 0.5404281721
C  C23  1  0.78880000  0.29521000  0.39761000  1.0 0.0619453132
C  C24  1  0.83790000  0.32644000  0.37150000  1.0 -0.1605238769
C  C25  1  0.88160000  0.36783000  0.39007000  1.0 -0.0836776893
C  C26  1  0.87520000  0.38082000  0.43526000  1.0 -0.0383703277
C  C27  1  0.82360000  0.35242000  0.46087000  1.0 -0.1011906248
C  C28  1  0.78170000  0.30987000  0.44258000  1.0 -0.1683951843
C  C29  1  0.92170000  0.42590000  0.45658000  1.0 0.6310894892
C  C30  1  0.29900000  0.21632000  0.27743000  1.0 0.0711722182
C  C31  1  0.27580000  0.19475000  0.31868000  1.0 -0.1683951843
C  C32  1  0.31890000  0.15650000  0.34199000  1.0 -0.1186676303
C  C33  1  0.38540000  0.13803000  0.32475000  1.0 -0.0383703277
C  C34  1  0.40770000  0.15788000  0.28307000  1.0 -0.1011906248
C  C35  1  0.36510000  0.19630000  0.25992000  1.0 -0.1605238769
C  C36  1  0.43100000  0.09550000  0.34925000  1.0 0.6310894892
C  C37  1  0.29533000  0.29741000  0.22057000  1.0 0.0619453132
C  C38  1  0.26780000  0.31856000  0.18036000  1.0 -0.1683951843
C  C39  1  0.30410000  0.36026000  0.15695000  1.0 -0.1186676303
C  C40  1  0.36960000  0.38231000  0.17342000  1.0 -0.0383703277
C  C41  1  0.39740000  0.36128000  0.21331000  1.0 -0.1186676303
C  C42  1  0.36080000  0.31991000  0.23653000  1.0 -0.1605238769
C  C43  1  0.40800000  0.42931000  0.14930000  1.0 0.6310894892
C  C44  1  0.24700000  0.99980000  0.45336000  1.0 0.0619453132
C  C45  1  0.16840000  0.08080000  0.46030000  1.0 -0.3135970019
C  C46  1  0.12140000  0.98570000  0.48110000  1.0 -0.3406517997
C  C47  1  0.65890000  0.50950000  0.12770000  1.0 0.144056394
C  C48  1  0.75440000  0.46480000  0.16930000  1.0 -0.1977713152
C  C49  1  0.77020000  0.48960000  0.08690000  1.0 -0.1519146351
C  C50  1  0.37700000  0.52860000  0.27510000  1.0 0.1736140691
C  C51  1  0.29780000  0.53270000  0.33920000  1.0 -0.1605238769
C  C52  1  0.29780000  0.45430000  0.28950000  1.0 -0.1519146351
C  C53  1  0.69090000  0.49520000  0.16410000  1.0 0.0359916568
C  C54  1  0.71830000  0.52070000  0.08730000  1.0 -0.1605238769
C  C55  1  0.81240000  0.48810000  0.13740000  1.0 -0.1519146351
C  C56  1  0.36860000  0.49180000  0.27400000  1.0 0.2098072127
C  C57  1  0.27440000  0.50240000  0.33180000  1.0 -0.1072529062
C  C58  1  0.28950000  0.57170000  0.27390000  1.0 -0.3788582578
C  C59  1  0.75977000  0.25109000  0.12567000  1.0 -0.0208348054
C  C60  1  0.80460000  0.21431000  0.09323000  1.0 0.0619453132
C  C61  1  0.87690000  0.19994000  0.10231000  1.0 -0.1605238769
C  C62  1  0.91190000  0.15727000  0.07892000  1.0 -0.0836776893
C  C63  1  0.87580000  0.12950000  0.04476000  1.0 -0.0383703277
C  C64  1  0.80440000  0.14538000  0.03373000  1.0 -0.1072529062
C  C65  1  0.76920000  0.18644000  0.05841000  1.0 -0.1605238769
C  C66  1  0.91090000  0.08073000  0.02133000  1.0 0.6193975315
C  C67  1  0.81000000  0.28681000  0.15556000  1.0 0.0619453132
C  C68  1  0.80490000  0.28691000  0.20189000  1.0 -0.1605238769
C  C69  1  0.84340000  0.32579000  0.22724000  1.0 -0.092088524
C  C70  1  0.88890000  0.36458000  0.20709000  1.0 -0.0334013349
C  C71  1  0.89660000  0.36340000  0.16080000  1.0 -0.092088524
C  C72  1  0.85760000  0.32533000  0.13561000  1.0 -0.1605238769
C  C73  1  0.92390000  0.40950000  0.23468000  1.0 0.5404281721
C  C74  1  0.71500000  0.20700000  0.15233000  1.0 0.0619453132
C  C75  1  0.75330000  0.16468000  0.17492000  1.0 -0.1605238769
C  C76  1  0.71680000  0.12246000  0.19745000  1.0 -0.1072529062
C  C77  1  0.64060000  0.12162000  0.19910000  1.0 -0.0208348054
C  C78  1  0.60220000  0.16263000  0.17620000  1.0 -0.092088524
C  C79  1  0.63930000  0.20431000  0.15270000  1.0 -0.1605238769
C  C80  1  0.60180000  0.07801000  0.22597000  1.0 0.5404281721
C  C81  1  0.71120000  0.29521000  0.10239000  1.0 0.0619453132
C  C82  1  0.66210000  0.32644000  0.12850000  1.0 -0.1605238769
C  C83  1  0.61840000  0.36783000  0.10993000  1.0 -0.0836776893
C  C84  1  0.62480000  0.38082000  0.06474000  1.0 -0.0383703277
C  C85  1  0.67640000  0.35242000  0.03913000  1.0 -0.1011906248
C  C86  1  0.71830000  0.30987000  0.05742000  1.0 -0.1683951843
C  C87  1  0.57830000  0.42590000  0.04342000  1.0 0.6310894892
C  C88  1  0.20100000  0.21632000  0.22257000  1.0 0.0711722182
C  C89  1  0.22420000  0.19475000  0.18132000  1.0 -0.1683951843
C  C90  1  0.18110000  0.15650000  0.15801000  1.0 -0.1186676303
C  C91  1  0.11460000  0.13803000  0.17525000  1.0 -0.0383703277
C  C92  1  0.09230000  0.15788000  0.21693000  1.0 -0.1011906248
C  C93  1  0.13490000  0.19630000  0.24008000  1.0 -0.1605238769
C  C94  1  0.06900000  0.09550000  0.15075000  1.0 0.6310894892
C  C95  1  0.20467000  0.29741000  0.27943000  1.0 0.0619453132
C  C96  1  0.23220000  0.31856000  0.31964000  1.0 -0.1683951843
C  C97  1  0.19590000  0.36026000  0.34305000  1.0 -0.1186676303
C  C98  1  0.13040000  0.38231000  0.32658000  1.0 -0.0383703277
C  C99  1  0.10260000  0.36128000  0.28669000  1.0 -0.1186676303
C  C100  1  0.13920000  0.31991000  0.26347000  1.0 -0.1605238769
C  C101  1  0.09200000  0.42931000  0.35070000  1.0 0.6310894892
C  C102  1  0.25300000  0.99980000  0.04664000  1.0 0.0619453132
C  C103  1  0.33160000  0.08080000  0.03970000  1.0 -0.3135970019
C  C104  1  0.37860000  0.98570000  0.01890000  1.0 -0.3406517997
C  C105  1  0.84110000  0.50950000  0.37230000  1.0 0.144056394
C  C106  1  0.74560000  0.46480000  0.33070000  1.0 -0.1977713152
C  C107  1  0.72980000  0.48960000  0.41310000  1.0 -0.1519146351
C  C108  1  0.12300000  0.52860000  0.22490000  1.0 0.1736140691
C  C109  1  0.20220000  0.53270000  0.16080000  1.0 -0.1605238769
C  C110  1  0.20220000  0.45430000  0.21050000  1.0 -0.1519146351
C  C111  1  0.80910000  0.49520000  0.33590000  1.0 0.0359916568
C  C112  1  0.78170000  0.52070000  0.41270000  1.0 -0.1605238769
C  C113  1  0.68760000  0.48810000  0.36260000  1.0 -0.1519146351
C  C114  1  0.13140000  0.49180000  0.22600000  1.0 0.2098072127
C  C115  1  0.22560000  0.50240000  0.16820000  1.0 -0.1072529062
C  C116  1  0.21050000  0.57170000  0.22610000  1.0 -0.3788582578
C  C117  1  0.24023000  0.24891000  0.62567000  1.0 -0.0208348054
C  C118  1  0.19540000  0.28569000  0.59323000  1.0 0.0619453132
C  C119  1  0.12310000  0.30006000  0.60231000  1.0 -0.1605238769
C  C120  1  0.08810000  0.34273000  0.57892000  1.0 -0.0836776893
C  C121  1  0.12420000  0.37050000  0.54476000  1.0 -0.0383703277
C  C122  1  0.19560000  0.35462000  0.53373000  1.0 -0.1072529062
C  C123  1  0.23080000  0.31356000  0.55841000  1.0 -0.1605238769
C  C124  1  0.08910000  0.41927000  0.52133000  1.0 0.6193975315
C  C125  1  0.19000000  0.21319000  0.65556000  1.0 0.0619453132
C  C126  1  0.19510000  0.21309000  0.70189000  1.0 -0.1683951843
C  C127  1  0.15660000  0.17421000  0.72724000  1.0 -0.092088524
C  C128  1  0.11110000  0.13542000  0.70709000  1.0 -0.0334013349
C  C129  1  0.10340000  0.13660000  0.66080000  1.0 -0.092088524
C  C130  1  0.14240000  0.17467000  0.63561000  1.0 -0.1605238769
C  C131  1  0.07610000  0.09050000  0.73468000  1.0 0.5404281721
C  C132  1  0.28500000  0.29300000  0.65233000  1.0 0.0619453132
C  C133  1  0.24670000  0.33532000  0.67492000  1.0 -0.1605238769
C  C134  1  0.28320000  0.37754000  0.69745000  1.0 -0.1072529062
C  C135  1  0.35940000  0.37838000  0.69910000  1.0 -0.0208348054
C  C136  1  0.39780000  0.33737000  0.67620000  1.0 -0.092088524
C  C137  1  0.36070000  0.29569000  0.65270000  1.0 -0.1605238769
C  C138  1  0.39820000  0.42199000  0.72597000  1.0 0.5404281721
C  C139  1  0.28880000  0.20479000  0.60239000  1.0 0.0619453132
C  C140  1  0.33790000  0.17356000  0.62850000  1.0 -0.1605238769
C  C141  1  0.38160000  0.13217000  0.60993000  1.0 -0.0836776893
C  C142  1  0.37520000  0.11918000  0.56474000  1.0 -0.0383703277
C  C143  1  0.32360000  0.14758000  0.53913000  1.0 -0.1011906248
C  C144  1  0.28170000  0.19013000  0.55742000  1.0 -0.1683951843
C  C145  1  0.42170000  0.07410000  0.54342000  1.0 0.6310894892
C  C146  1  0.79900000  0.28368000  0.72257000  1.0 0.0711722182
C  C147  1  0.77580000  0.30525000  0.68132000  1.0 -0.1683951843
C  C148  1  0.81890000  0.34350000  0.65801000  1.0 -0.1186676303
C  C149  1  0.88540000  0.36197000  0.67525000  1.0 -0.0383703277
C  C150  1  0.90770000  0.34212000  0.71693000  1.0 -0.1011906248
C  C151  1  0.86510000  0.30370000  0.74008000  1.0 -0.1605238769
C  C152  1  0.93100000  0.40450000  0.65075000  1.0 0.6310894892
C  C153  1  0.79533000  0.20259000  0.77943000  1.0 0.0619453132
C  C154  1  0.76780000  0.18144000  0.81964000  1.0 -0.1683951843
C  C155  1  0.80410000  0.13974000  0.84305000  1.0 -0.1186676303
C  C156  1  0.86960000  0.11769000  0.82658000  1.0 -0.0383703277
C  C157  1  0.89740000  0.13872000  0.78669000  1.0 -0.1186676303
C  C158  1  0.86080000  0.18009000  0.76347000  1.0 -0.1605238769
C  C159  1  0.90800000  0.07069000  0.85070000  1.0 0.6310894892
C  C160  1  0.74700000  0.50020000  0.54664000  1.0 0.0619453132
C  C161  1  0.66840000  0.41920000  0.53970000  1.0 -0.3135970019
C  C162  1  0.62140000  0.51430000  0.51890000  1.0 -0.3406517997
C  C163  1  0.15890000  0.99050000  0.87230000  1.0 0.144056394
C  C164  1  0.25440000  0.03520000  0.83070000  1.0 -0.1977713152
C  C165  1  0.27020000  0.01040000  0.91310000  1.0 -0.1519146351
C  C166  1  0.87700000  0.97140000  0.72490000  1.0 0.1736140691
C  C167  1  0.79780000  0.96730000  0.66080000  1.0 -0.1605238769
C  C168  1  0.79780000  0.04570000  0.71050000  1.0 -0.1519146351
C  C169  1  0.19090000  0.00480000  0.83590000  1.0 0.0359916568
C  C170  1  0.21830000  0.97930000  0.91270000  1.0 -0.1605238769
C  C171  1  0.31240000  0.01190000  0.86260000  1.0 -0.1519146351
C  C172  1  0.86860000  0.00820000  0.72600000  1.0 0.2098072127
C  C173  1  0.77440000  0.99760000  0.66820000  1.0 -0.1072529062
C  C174  1  0.78950000  0.92830000  0.72610000  1.0 -0.3788582578
C  C175  1  0.25977000  0.24891000  0.87433000  1.0 -0.0208348054
C  C176  1  0.30460000  0.28569000  0.90677000  1.0 0.0619453132
C  C177  1  0.37690000  0.30006000  0.89769000  1.0 -0.1605238769
C  C178  1  0.41190000  0.34273000  0.92108000  1.0 -0.0836776893
C  C179  1  0.37580000  0.37050000  0.95524000  1.0 -0.0383703277
C  C180  1  0.30440000  0.35462000  0.96627000  1.0 -0.1072529062
C  C181  1  0.26920000  0.31356000  0.94159000  1.0 -0.1605238769
C  C182  1  0.41090000  0.41927000  0.97867000  1.0 0.6193975315
C  C183  1  0.31000000  0.21319000  0.84444000  1.0 0.0619453132
C  C184  1  0.30490000  0.21309000  0.79811000  1.0 -0.1605238769
C  C185  1  0.34340000  0.17421000  0.77276000  1.0 -0.092088524
C  C186  1  0.38890000  0.13542000  0.79291000  1.0 -0.0334013349
C  C187  1  0.39660000  0.13660000  0.83920000  1.0 -0.092088524
C  C188  1  0.35760000  0.17467000  0.86439000  1.0 -0.1605238769
C  C189  1  0.42390000  0.09050000  0.76532000  1.0 0.5404281721
C  C190  1  0.21500000  0.29300000  0.84767000  1.0 0.0619453132
C  C191  1  0.25330000  0.33532000  0.82508000  1.0 -0.1605238769
C  C192  1  0.21680000  0.37754000  0.80255000  1.0 -0.1072529062
C  C193  1  0.14060000  0.37838000  0.80090000  1.0 -0.0208348054
C  C194  1  0.10220000  0.33737000  0.82380000  1.0 -0.092088524
C  C195  1  0.13930000  0.29569000  0.84730000  1.0 -0.1605238769
C  C196  1  0.10180000  0.42199000  0.77403000  1.0 0.5404281721
C  C197  1  0.21120000  0.20479000  0.89761000  1.0 0.0619453132
C  C198  1  0.16210000  0.17356000  0.87150000  1.0 -0.1605238769
C  C199  1  0.11840000  0.13217000  0.89007000  1.0 -0.0836776893
C  C200  1  0.12480000  0.11918000  0.93526000  1.0 -0.0383703277
C  C201  1  0.17640000  0.14758000  0.96087000  1.0 -0.1011906248
C  C202  1  0.21830000  0.19013000  0.94258000  1.0 -0.1683951843
C  C203  1  0.07830000  0.07410000  0.95658000  1.0 0.6310894892
C  C204  1  0.70100000  0.28368000  0.77743000  1.0 0.0711722182
C  C205  1  0.72420000  0.30525000  0.81868000  1.0 -0.1683951843
C  C206  1  0.68110000  0.34350000  0.84199000  1.0 -0.1186676303
C  C207  1  0.61460000  0.36197000  0.82475000  1.0 -0.0383703277
C  C208  1  0.59230000  0.34212000  0.78307000  1.0 -0.1011906248
C  C209  1  0.63490000  0.30370000  0.75992000  1.0 -0.1605238769
C  C210  1  0.56900000  0.40450000  0.84925000  1.0 0.6310894892
C  C211  1  0.70467000  0.20259000  0.72057000  1.0 0.0619453132
C  C212  1  0.73220000  0.18144000  0.68036000  1.0 -0.1683951843
C  C213  1  0.69590000  0.13974000  0.65695000  1.0 -0.1186676303
C  C214  1  0.63040000  0.11769000  0.67342000  1.0 -0.0383703277
C  C215  1  0.60260000  0.13872000  0.71331000  1.0 -0.1186676303
C  C216  1  0.63920000  0.18009000  0.73653000  1.0 -0.1605238769
C  C217  1  0.59200000  0.07069000  0.64930000  1.0 0.6310894892
C  C218  1  0.75300000  0.50020000  0.95336000  1.0 0.0619453132
C  C219  1  0.83160000  0.41920000  0.96030000  1.0 -0.3135970019
C  C220  1  0.87860000  0.51430000  0.98110000  1.0 -0.3406517997
C  C221  1  0.34110000  0.99050000  0.62770000  1.0 0.144056394
C  C222  1  0.24560000  0.03520000  0.66930000  1.0 -0.1977713152
C  C223  1  0.22980000  0.01040000  0.58690000  1.0 -0.1519146351
C  C224  1  0.62300000  0.97140000  0.77510000  1.0 0.1736140691
C  C225  1  0.70220000  0.96730000  0.83920000  1.0 -0.1605238769
C  C226  1  0.70220000  0.04570000  0.78950000  1.0 -0.1519146351
C  C227  1  0.30910000  0.00480000  0.66410000  1.0 0.0359916568
C  C228  1  0.28170000  0.97930000  0.58730000  1.0 -0.1605238769
C  C229  1  0.18760000  0.01190000  0.63740000  1.0 -0.1519146351
C  C230  1  0.63140000  0.00820000  0.77400000  1.0 0.2098072127
C  C231  1  0.72560000  0.99760000  0.83180000  1.0 -0.1072529062
C  C232  1  0.71050000  0.92830000  0.77390000  1.0 -0.3788582578
C  C233  1  0.25977000  0.74891000  0.62567000  1.0 -0.0208348054
C  C234  1  0.30460000  0.78569000  0.59323000  1.0 0.0619453132
C  C235  1  0.37690000  0.80006000  0.60231000  1.0 -0.1605238769
C  C236  1  0.41190000  0.84273000  0.57892000  1.0 -0.0836776893
C  C237  1  0.37580000  0.87050000  0.54476000  1.0 -0.0383703277
C  C238  1  0.30440000  0.85462000  0.53373000  1.0 -0.1072529062
C  C239  1  0.26920000  0.81356000  0.55841000  1.0 -0.1605238769
C  C240  1  0.41090000  0.91927000  0.52133000  1.0 0.6193975315
C  C241  1  0.31000000  0.71319000  0.65556000  1.0 0.0619453132
C  C242  1  0.30490000  0.71309000  0.70189000  1.0 -0.1683951843
C  C243  1  0.34340000  0.67421000  0.72724000  1.0 -0.092088524
C  C244  1  0.38890000  0.63542000  0.70709000  1.0 -0.0334013349
C  C245  1  0.39660000  0.63660000  0.66080000  1.0 -0.092088524
C  C246  1  0.35760000  0.67467000  0.63561000  1.0 -0.1605238769
C  C247  1  0.42390000  0.59050000  0.73468000  1.0 0.5404281721
C  C248  1  0.21500000  0.79300000  0.65233000  1.0 0.0619453132
C  C249  1  0.25330000  0.83532000  0.67492000  1.0 -0.1605238769
C  C250  1  0.21680000  0.87754000  0.69745000  1.0 -0.1072529062
C  C251  1  0.14060000  0.87838000  0.69910000  1.0 -0.0208348054
C  C252  1  0.10220000  0.83737000  0.67620000  1.0 -0.092088524
C  C253  1  0.13930000  0.79569000  0.65270000  1.0 -0.1605238769
C  C254  1  0.10180000  0.92199000  0.72597000  1.0 0.5404281721
C  C255  1  0.21120000  0.70479000  0.60239000  1.0 0.0619453132
C  C256  1  0.16210000  0.67356000  0.62850000  1.0 -0.1605238769
C  C257  1  0.11840000  0.63217000  0.60993000  1.0 -0.0836776893
C  C258  1  0.12480000  0.61918000  0.56474000  1.0 -0.0383703277
C  C259  1  0.17640000  0.64758000  0.53913000  1.0 -0.1011906248
C  C260  1  0.21830000  0.69013000  0.55742000  1.0 -0.1683951843
C  C261  1  0.07830000  0.57410000  0.54342000  1.0 0.6310894892
C  C262  1  0.70100000  0.78368000  0.72257000  1.0 0.0711722182
C  C263  1  0.72420000  0.80525000  0.68132000  1.0 -0.1683951843
C  C264  1  0.68110000  0.84350000  0.65801000  1.0 -0.1186676303
C  C265  1  0.61460000  0.86197000  0.67525000  1.0 -0.0383703277
C  C266  1  0.59230000  0.84212000  0.71693000  1.0 -0.1011906248
C  C267  1  0.63490000  0.80370000  0.74008000  1.0 -0.1605238769
C  C268  1  0.56900000  0.90450000  0.65075000  1.0 0.6310894892
C  C269  1  0.70467000  0.70259000  0.77943000  1.0 0.0619453132
C  C270  1  0.73220000  0.68144000  0.81964000  1.0 -0.1683951843
C  C271  1  0.69590000  0.63974000  0.84305000  1.0 -0.1186676303
C  C272  1  0.63040000  0.61769000  0.82658000  1.0 -0.0383703277
C  C273  1  0.60260000  0.63872000  0.78669000  1.0 -0.1186676303
C  C274  1  0.63920000  0.68009000  0.76347000  1.0 -0.1605238769
C  C275  1  0.59200000  0.57069000  0.85070000  1.0 0.6310894892
C  C276  1  0.75300000  0.00020000  0.54664000  1.0 0.0619453132
C  C277  1  0.83160000  0.91920000  0.53970000  1.0 -0.3135970019
C  C278  1  0.87860000  0.01430000  0.51890000  1.0 -0.3406517997
C  C279  1  0.34110000  0.49050000  0.87230000  1.0 0.144056394
C  C280  1  0.24560000  0.53520000  0.83070000  1.0 -0.1977713152
C  C281  1  0.22980000  0.51040000  0.91310000  1.0 -0.1519146351
C  C282  1  0.62300000  0.47140000  0.72490000  1.0 0.1736140691
C  C283  1  0.70220000  0.46730000  0.66080000  1.0 -0.1605238769
C  C284  1  0.70220000  0.54570000  0.71050000  1.0 -0.1519146351
C  C285  1  0.30910000  0.50480000  0.83590000  1.0 0.0359916568
C  C286  1  0.28170000  0.47930000  0.91270000  1.0 -0.1605238769
C  C287  1  0.18760000  0.51190000  0.86260000  1.0 -0.1519146351
C  C288  1  0.63140000  0.50820000  0.72600000  1.0 0.2098072127
C  C289  1  0.72560000  0.49760000  0.66820000  1.0 -0.1072529062
C  C290  1  0.71050000  0.42830000  0.72610000  1.0 -0.3788582578
C  C291  1  0.24023000  0.74891000  0.87433000  1.0 -0.0208348054
C  C292  1  0.19540000  0.78569000  0.90677000  1.0 0.0619453132
C  C293  1  0.12310000  0.80006000  0.89769000  1.0 -0.1605238769
C  C294  1  0.08810000  0.84273000  0.92108000  1.0 -0.0836776893
C  C295  1  0.12420000  0.87050000  0.95524000  1.0 -0.0383703277
C  C296  1  0.19560000  0.85462000  0.96627000  1.0 -0.1072529062
C  C297  1  0.23080000  0.81356000  0.94159000  1.0 -0.1605238769
C  C298  1  0.08910000  0.91927000  0.97867000  1.0 0.6193975315
C  C299  1  0.19000000  0.71319000  0.84444000  1.0 0.0619453132
C  C300  1  0.19510000  0.71309000  0.79811000  1.0 -0.1683951843
C  C301  1  0.15660000  0.67421000  0.77276000  1.0 -0.092088524
C  C302  1  0.11110000  0.63542000  0.79291000  1.0 -0.0334013349
C  C303  1  0.10340000  0.63660000  0.83920000  1.0 -0.092088524
C  C304  1  0.14240000  0.67467000  0.86439000  1.0 -0.1605238769
C  C305  1  0.07610000  0.59050000  0.76532000  1.0 0.5404281721
C  C306  1  0.28500000  0.79300000  0.84767000  1.0 0.0619453132
C  C307  1  0.24670000  0.83532000  0.82508000  1.0 -0.1605238769
C  C308  1  0.28320000  0.87754000  0.80255000  1.0 -0.1072529062
C  C309  1  0.35940000  0.87838000  0.80090000  1.0 -0.0208348054
C  C310  1  0.39780000  0.83737000  0.82380000  1.0 -0.092088524
C  C311  1  0.36070000  0.79569000  0.84730000  1.0 -0.1605238769
C  C312  1  0.39820000  0.92199000  0.77403000  1.0 0.5404281721
C  C313  1  0.28880000  0.70479000  0.89761000  1.0 0.0619453132
C  C314  1  0.33790000  0.67356000  0.87150000  1.0 -0.1605238769
C  C315  1  0.38160000  0.63217000  0.89007000  1.0 -0.0836776893
C  C316  1  0.37520000  0.61918000  0.93526000  1.0 -0.0383703277
C  C317  1  0.32360000  0.64758000  0.96087000  1.0 -0.1011906248
C  C318  1  0.28170000  0.69013000  0.94258000  1.0 -0.1683951843
C  C319  1  0.42170000  0.57410000  0.95658000  1.0 0.6310894892
C  C320  1  0.79900000  0.78368000  0.77743000  1.0 0.0711722182
C  C321  1  0.77580000  0.80525000  0.81868000  1.0 -0.1683951843
C  C322  1  0.81890000  0.84350000  0.84199000  1.0 -0.1186676303
C  C323  1  0.88540000  0.86197000  0.82475000  1.0 -0.0383703277
C  C324  1  0.90770000  0.84212000  0.78307000  1.0 -0.1011906248
C  C325  1  0.86510000  0.80370000  0.75992000  1.0 -0.1605238769
C  C326  1  0.93100000  0.90450000  0.84925000  1.0 0.6310894892
C  C327  1  0.79533000  0.70259000  0.72057000  1.0 0.0619453132
C  C328  1  0.76780000  0.68144000  0.68036000  1.0 -0.1683951843
C  C329  1  0.80410000  0.63974000  0.65695000  1.0 -0.1186676303
C  C330  1  0.86960000  0.61769000  0.67342000  1.0 -0.0383703277
C  C331  1  0.89740000  0.63872000  0.71331000  1.0 -0.1186676303
C  C332  1  0.86080000  0.68009000  0.73653000  1.0 -0.1605238769
C  C333  1  0.90800000  0.57069000  0.64930000  1.0 0.6310894892
C  C334  1  0.74700000  0.00020000  0.95336000  1.0 0.0619453132
C  C335  1  0.66840000  0.91920000  0.96030000  1.0 -0.3135970019
C  C336  1  0.62140000  0.01430000  0.98110000  1.0 -0.3406517997
C  C337  1  0.15890000  0.49050000  0.62770000  1.0 0.144056394
C  C338  1  0.25440000  0.53520000  0.66930000  1.0 -0.1977713152
C  C339  1  0.27020000  0.51040000  0.58690000  1.0 -0.1519146351
C  C340  1  0.87700000  0.47140000  0.77510000  1.0 0.1736140691
C  C341  1  0.79780000  0.46730000  0.83920000  1.0 -0.1605238769
C  C342  1  0.79780000  0.54570000  0.78950000  1.0 -0.1519146351
C  C343  1  0.19090000  0.50480000  0.66410000  1.0 0.0359916568
C  C344  1  0.21830000  0.47930000  0.58730000  1.0 -0.1605238769
C  C345  1  0.31240000  0.51190000  0.63740000  1.0 -0.1519146351
C  C346  1  0.86860000  0.50820000  0.77400000  1.0 0.2098072127
C  C347  1  0.77440000  0.49760000  0.83180000  1.0 -0.1072529062
C  C348  1  0.78950000  0.42830000  0.77390000  1.0 -0.3788582578
C  C349  1  0.75977000  0.75109000  0.37433000  1.0 -0.0208348054
C  C350  1  0.80460000  0.71431000  0.40677000  1.0 0.0619453132
C  C351  1  0.87690000  0.69994000  0.39769000  1.0 -0.1605238769
C  C352  1  0.91190000  0.65727000  0.42108000  1.0 -0.0836776893
C  C353  1  0.87580000  0.62950000  0.45524000  1.0 -0.0383703277
C  C354  1  0.80440000  0.64538000  0.46627000  1.0 -0.1072529062
C  C355  1  0.76920000  0.68644000  0.44159000  1.0 -0.1605238769
C  C356  1  0.91090000  0.58073000  0.47867000  1.0 0.6193975315
C  C357  1  0.81000000  0.78681000  0.34444000  1.0 0.0619453132
C  C358  1  0.80490000  0.78691000  0.29811000  1.0 -0.1605238769
C  C359  1  0.84340000  0.82579000  0.27276000  1.0 -0.092088524
C  C360  1  0.88890000  0.86458000  0.29291000  1.0 -0.0334013349
C  C361  1  0.89660000  0.86340000  0.33920000  1.0 -0.092088524
C  C362  1  0.85760000  0.82533000  0.36439000  1.0 -0.1605238769
C  C363  1  0.92390000  0.90950000  0.26532000  1.0 0.5404281721
C  C364  1  0.71500000  0.70700000  0.34767000  1.0 0.0619453132
C  C365  1  0.75330000  0.66468000  0.32508000  1.0 -0.1605238769
C  C366  1  0.71680000  0.62246000  0.30255000  1.0 -0.1072529062
C  C367  1  0.64060000  0.62162000  0.30090000  1.0 -0.0208348054
C  C368  1  0.60220000  0.66263000  0.32380000  1.0 -0.092088524
C  C369  1  0.63930000  0.70431000  0.34730000  1.0 -0.1605238769
C  C370  1  0.60180000  0.57801000  0.27403000  1.0 0.5404281721
C  C371  1  0.71120000  0.79521000  0.39761000  1.0 0.0619453132
C  C372  1  0.66210000  0.82644000  0.37150000  1.0 -0.1605238769
C  C373  1  0.61840000  0.86783000  0.39007000  1.0 -0.0836776893
C  C374  1  0.62480000  0.88082000  0.43526000  1.0 -0.0383703277
C  C375  1  0.67640000  0.85242000  0.46087000  1.0 -0.1011906248
C  C376  1  0.71830000  0.80987000  0.44258000  1.0 -0.1683951843
C  C377  1  0.57830000  0.92590000  0.45658000  1.0 0.6310894892
C  C378  1  0.20100000  0.71632000  0.27743000  1.0 0.0711722182
C  C379  1  0.22420000  0.69475000  0.31868000  1.0 -0.1683951843
C  C380  1  0.18110000  0.65650000  0.34199000  1.0 -0.1186676303
C  C381  1  0.11460000  0.63803000  0.32475000  1.0 -0.0383703277
C  C382  1  0.09230000  0.65788000  0.28307000  1.0 -0.1011906248
C  C383  1  0.13490000  0.69630000  0.25992000  1.0 -0.1605238769
C  C384  1  0.06900000  0.59550000  0.34925000  1.0 0.6310894892
C  C385  1  0.20467000  0.79741000  0.22057000  1.0 0.0619453132
C  C386  1  0.23220000  0.81856000  0.18036000  1.0 -0.1683951843
C  C387  1  0.19590000  0.86026000  0.15695000  1.0 -0.1186676303
C  C388  1  0.13040000  0.88231000  0.17342000  1.0 -0.0383703277
C  C389  1  0.10260000  0.86128000  0.21331000  1.0 -0.1186676303
C  C390  1  0.13920000  0.81991000  0.23653000  1.0 -0.1605238769
C  C391  1  0.09200000  0.92931000  0.14930000  1.0 0.6310894892
C  C392  1  0.25300000  0.49980000  0.45336000  1.0 0.0619453132
C  C393  1  0.33160000  0.58080000  0.46030000  1.0 -0.3135970019
C  C394  1  0.37860000  0.48570000  0.48110000  1.0 -0.3406517997
C  C395  1  0.84110000  0.00950000  0.12770000  1.0 0.144056394
C  C396  1  0.74560000  0.96480000  0.16930000  1.0 -0.1977713152
C  C397  1  0.72980000  0.98960000  0.08690000  1.0 -0.1519146351
C  C398  1  0.12300000  0.02860000  0.27510000  1.0 0.1736140691
C  C399  1  0.20220000  0.03270000  0.33920000  1.0 -0.1605238769
C  C400  1  0.20220000  0.95430000  0.28950000  1.0 -0.1519146351
C  C401  1  0.80910000  0.99520000  0.16410000  1.0 0.0359916568
C  C402  1  0.78170000  0.02070000  0.08730000  1.0 -0.1605238769
C  C403  1  0.68760000  0.98810000  0.13740000  1.0 -0.1519146351
C  C404  1  0.13140000  0.99180000  0.27400000  1.0 0.2098072127
C  C405  1  0.22560000  0.00240000  0.33180000  1.0 -0.1072529062
C  C406  1  0.21050000  0.07170000  0.27390000  1.0 -0.3788582578
C  C407  1  0.74023000  0.75109000  0.12567000  1.0 -0.0208348054
C  C408  1  0.69540000  0.71431000  0.09323000  1.0 0.0619453132
C  C409  1  0.62310000  0.69994000  0.10231000  1.0 -0.1605238769
C  C410  1  0.58810000  0.65727000  0.07892000  1.0 -0.0836776893
C  C411  1  0.62420000  0.62950000  0.04476000  1.0 -0.0383703277
C  C412  1  0.69560000  0.64538000  0.03373000  1.0 -0.1072529062
C  C413  1  0.73080000  0.68644000  0.05841000  1.0 -0.1605238769
C  C414  1  0.58910000  0.58073000  0.02133000  1.0 0.6193975315
C  C415  1  0.69000000  0.78681000  0.15556000  1.0 0.0619453132
C  C416  1  0.69510000  0.78691000  0.20189000  1.0 -0.1605238769
C  C417  1  0.65660000  0.82579000  0.22724000  1.0 -0.092088524
C  C418  1  0.61110000  0.86458000  0.20709000  1.0 -0.0334013349
C  C419  1  0.60340000  0.86340000  0.16080000  1.0 -0.092088524
C  C420  1  0.64240000  0.82533000  0.13561000  1.0 -0.1605238769
C  C421  1  0.57610000  0.90950000  0.23468000  1.0 0.5404281721
C  C422  1  0.78500000  0.70700000  0.15233000  1.0 0.0619453132
C  C423  1  0.74670000  0.66468000  0.17492000  1.0 -0.1605238769
C  C424  1  0.78320000  0.62246000  0.19745000  1.0 -0.1072529062
C  C425  1  0.85940000  0.62162000  0.19910000  1.0 -0.0208348054
C  C426  1  0.89780000  0.66263000  0.17620000  1.0 -0.092088524
C  C427  1  0.86070000  0.70431000  0.15270000  1.0 -0.1605238769
C  C428  1  0.89820000  0.57801000  0.22597000  1.0 0.5404281721
C  C429  1  0.78880000  0.79521000  0.10239000  1.0 0.0619453132
C  C430  1  0.83790000  0.82644000  0.12850000  1.0 -0.1605238769
C  C431  1  0.88160000  0.86783000  0.10993000  1.0 -0.0836776893
C  C432  1  0.87520000  0.88082000  0.06474000  1.0 -0.0383703277
C  C433  1  0.82360000  0.85242000  0.03913000  1.0 -0.1011906248
C  C434  1  0.78170000  0.80987000  0.05742000  1.0 -0.1683951843
C  C435  1  0.92170000  0.92590000  0.04342000  1.0 0.6310894892
C  C436  1  0.29900000  0.71632000  0.22257000  1.0 0.0711722182
C  C437  1  0.27580000  0.69475000  0.18132000  1.0 -0.1683951843
C  C438  1  0.31890000  0.65650000  0.15801000  1.0 -0.1186676303
C  C439  1  0.38540000  0.63803000  0.17525000  1.0 -0.0383703277
C  C440  1  0.40770000  0.65788000  0.21693000  1.0 -0.1011906248
C  C441  1  0.36510000  0.69630000  0.24008000  1.0 -0.1605238769
C  C442  1  0.43100000  0.59550000  0.15075000  1.0 0.6310894892
C  C443  1  0.29533000  0.79741000  0.27943000  1.0 0.0619453132
C  C444  1  0.26780000  0.81856000  0.31964000  1.0 -0.1683951843
C  C445  1  0.30410000  0.86026000  0.34305000  1.0 -0.1186676303
C  C446  1  0.36960000  0.88231000  0.32658000  1.0 -0.0383703277
C  C447  1  0.39740000  0.86128000  0.28669000  1.0 -0.1186676303
C  C448  1  0.36080000  0.81991000  0.26347000  1.0 -0.1605238769
C  C449  1  0.40800000  0.92931000  0.35070000  1.0 0.6310894892
C  C450  1  0.24700000  0.49980000  0.04664000  1.0 0.0619453132
C  C451  1  0.16840000  0.58080000  0.03970000  1.0 -0.3135970019
C  C452  1  0.12140000  0.48570000  0.01890000  1.0 -0.3406517997
C  C453  1  0.65890000  0.00950000  0.37230000  1.0 0.144056394
C  C454  1  0.75440000  0.96480000  0.33070000  1.0 -0.1977713152
C  C455  1  0.77020000  0.98960000  0.41310000  1.0 -0.1519146351
C  C456  1  0.37700000  0.02860000  0.22490000  1.0 0.1736140691
C  C457  1  0.29780000  0.03270000  0.16080000  1.0 -0.1605238769
C  C458  1  0.29780000  0.95430000  0.21050000  1.0 -0.1519146351
C  C459  1  0.69090000  0.99520000  0.33590000  1.0 0.0359916568
C  C460  1  0.71830000  0.02070000  0.41270000  1.0 -0.1605238769
C  C461  1  0.81240000  0.98810000  0.36260000  1.0 -0.1519146351
C  C462  1  0.36860000  0.99180000  0.22600000  1.0 0.2098072127
C  C463  1  0.27440000  0.00240000  0.16820000  1.0 -0.1072529062
C  C464  1  0.28950000  0.07170000  0.22610000  1.0 -0.3788582578
C  C465  1  0.25000000  0.25657000  0.25000000  1.0 -0.0383703277
C  C466  1  0.75000000  0.24343000  0.75000000  1.0 -0.0334013349
C  C467  1  0.75000000  0.74343000  0.75000000  1.0 -0.0334013349
C  C468  1  0.25000000  0.75657000  0.25000000  1.0 -0.0334013349
N  N1  1  0.18210000  0.02140000  0.46413000  1.0 -0.1011906248
N  N2  1  0.72980000  0.49360000  0.12921000  1.0 0.0897094109
N  N3  1  0.32910000  0.50890000  0.29980000  1.0 0.1196422073
N  N4  1  0.31260000  0.51820000  0.29380000  1.0 0.1196422073
N  N5  1  0.31790000  0.02140000  0.03587000  1.0 -0.1011906248
N  N6  1  0.77020000  0.49360000  0.37079000  1.0 0.0897094109
N  N7  1  0.17090000  0.50890000  0.20020000  1.0 0.1196422073
N  N8  1  0.18740000  0.51820000  0.20620000  1.0 0.1196422073
N  N9  1  0.68210000  0.47860000  0.53587000  1.0 -0.1011906248
N  N10  1  0.22980000  0.00640000  0.87079000  1.0 0.0967479946
N  N11  1  0.82910000  0.99110000  0.70020000  1.0 0.1196422073
N  N12  1  0.81260000  0.98180000  0.70620000  1.0 0.1311298588
N  N13  1  0.81790000  0.47860000  0.96413000  1.0 -0.1011906248
N  N14  1  0.27020000  0.00640000  0.62921000  1.0 0.0897094109
N  N15  1  0.67090000  0.99110000  0.79980000  1.0 0.1196422073
N  N16  1  0.68740000  0.98180000  0.79380000  1.0 0.1196422073
N  N17  1  0.81790000  0.97860000  0.53587000  1.0 -0.1011906248
N  N18  1  0.27020000  0.50640000  0.87079000  1.0 0.0967479946
N  N19  1  0.67090000  0.49110000  0.70020000  1.0 0.1196422073
N  N20  1  0.68740000  0.48180000  0.70620000  1.0 0.1311298588
N  N21  1  0.68210000  0.97860000  0.96413000  1.0 -0.1011906248
N  N22  1  0.22980000  0.50640000  0.62921000  1.0 0.0897094109
N  N23  1  0.82910000  0.49110000  0.79980000  1.0 0.1196422073
N  N24  1  0.81260000  0.48180000  0.79380000  1.0 0.1196422073
N  N25  1  0.31790000  0.52140000  0.46413000  1.0 -0.1011906248
N  N26  1  0.77020000  0.99360000  0.12921000  1.0 0.0897094109
N  N27  1  0.17090000  0.00890000  0.29980000  1.0 0.1196422073
N  N28  1  0.18740000  0.01820000  0.29380000  1.0 0.1196422073
N  N29  1  0.18210000  0.52140000  0.03587000  1.0 -0.1011906248
N  N30  1  0.72980000  0.99360000  0.37079000  1.0 0.0897094109
N  N31  1  0.32910000  0.00890000  0.20020000  1.0 0.1196422073
N  N32  1  0.31260000  0.01820000  0.20620000  1.0 0.1196422073
O  O1  1  0.53323000  0.05925000  0.46031000  1.0 -0.7208455994
O  O2  1  0.61767000  0.06348000  0.51401000  1.0 -0.6415084762
O  O3  1  0.53103000  0.44347000  0.28293000  1.0 -0.6796125019
O  O4  1  0.59363000  0.41420000  0.22447000  1.0 -0.6415084762
O  O5  1  0.86161000  0.04279000  0.25182000  1.0 -0.6415084762
O  O6  1  0.96782000  0.07741000  0.27291000  1.0 -0.658850719
O  O7  1  0.97637000  0.44281000  0.43513000  1.0 -0.6716909974
O  O8  1  0.90074000  0.44300000  0.49396000  1.0 -0.6796125019
O  O9  1  0.41183000  0.08202000  0.38822000  1.0 -0.6796125019
O  O10  1  0.48638000  0.07591000  0.32936000  1.0 -0.6947506561
O  O11  1  0.46742000  0.44723000  0.16546000  1.0 -0.7100255906
O  O12  1  0.37896000  0.44815000  0.11403000  1.0 -0.6716909974
O  O13  1  0.29828000  0.02730000  0.44008000  1.0 -0.4924150489
O  O14  1  0.61951000  0.50700000  0.15864000  1.0 -0.3324496306
O  O15  1  0.40537000  0.50763000  0.24234000  1.0 -0.3914610639
O  O16  1  0.96677000  0.05925000  0.03969000  1.0 -0.7208455994
O  O17  1  0.88233000  0.06348000  0.98599000  1.0 -0.6415084762
O  O18  1  0.96897000  0.44347000  0.21707000  1.0 -0.6796125019
O  O19  1  0.90637000  0.41420000  0.27553000  1.0 -0.6415084762
O  O20  1  0.63839000  0.04279000  0.24818000  1.0 -0.6415084762
O  O21  1  0.53218000  0.07741000  0.22709000  1.0 -0.658850719
O  O22  1  0.52363000  0.44281000  0.06487000  1.0 -0.6716909974
O  O23  1  0.59926000  0.44300000  0.00604000  1.0 -0.6796125019
O  O24  1  0.08817000  0.08202000  0.11178000  1.0 -0.6796125019
O  O25  1  0.01362000  0.07591000  0.17064000  1.0 -0.6947506561
O  O26  1  0.03258000  0.44723000  0.33454000  1.0 -0.7100255906
O  O27  1  0.12104000  0.44815000  0.38597000  1.0 -0.6716909974
O  O28  1  0.20172000  0.02730000  0.05992000  1.0 -0.4924150489
O  O29  1  0.88049000  0.50700000  0.34136000  1.0 -0.3324496306
O  O30  1  0.09463000  0.50763000  0.25766000  1.0 -0.3914610639
O  O31  1  0.03323000  0.44075000  0.53969000  1.0 -0.7208455994
O  O32  1  0.11767000  0.43652000  0.48599000  1.0 -0.6451953843
O  O33  1  0.03103000  0.05653000  0.71707000  1.0 -0.6796125019
O  O34  1  0.09363000  0.08580000  0.77553000  1.0 -0.6415084762
O  O35  1  0.36161000  0.45721000  0.74818000  1.0 -0.6415084762
O  O36  1  0.46782000  0.42259000  0.72709000  1.0 -0.658850719
O  O37  1  0.47637000  0.05719000  0.56487000  1.0 -0.6716909974
O  O38  1  0.40074000  0.05700000  0.50604000  1.0 -0.6796125019
O  O39  1  0.91183000  0.41798000  0.61178000  1.0 -0.6796125019
O  O40  1  0.98638000  0.42409000  0.67064000  1.0 -0.6947506561
O  O41  1  0.96742000  0.05277000  0.83454000  1.0 -0.7100255906
O  O42  1  0.87896000  0.05185000  0.88597000  1.0 -0.6716909974
O  O43  1  0.79828000  0.47270000  0.55992000  1.0 -0.4924150489
O  O44  1  0.11951000  0.99300000  0.84136000  1.0 -0.3324496306
O  O45  1  0.90537000  0.99237000  0.75766000  1.0 -0.3914610639
O  O46  1  0.46677000  0.44075000  0.96031000  1.0 -0.7208455994
O  O47  1  0.38233000  0.43652000  0.01401000  1.0 -0.6451953843
O  O48  1  0.46897000  0.05653000  0.78293000  1.0 -0.6796125019
O  O49  1  0.40637000  0.08580000  0.72447000  1.0 -0.6415084762
O  O50  1  0.13839000  0.45721000  0.75182000  1.0 -0.6415084762
O  O51  1  0.03218000  0.42259000  0.77291000  1.0 -0.658850719
O  O52  1  0.02363000  0.05719000  0.93513000  1.0 -0.6716909974
O  O53  1  0.09926000  0.05700000  0.99396000  1.0 -0.6796125019
O  O54  1  0.58817000  0.41798000  0.88822000  1.0 -0.6796125019
O  O55  1  0.51362000  0.42409000  0.82936000  1.0 -0.6947506561
O  O56  1  0.53258000  0.05277000  0.66546000  1.0 -0.7100255906
O  O57  1  0.62104000  0.05185000  0.61403000  1.0 -0.6716909974
O  O58  1  0.70172000  0.47270000  0.94008000  1.0 -0.4924150489
O  O59  1  0.38049000  0.99300000  0.65864000  1.0 -0.3324496306
O  O60  1  0.59463000  0.99237000  0.74234000  1.0 -0.3914610639
O  O61  1  0.46677000  0.94075000  0.53969000  1.0 -0.7208455994
O  O62  1  0.38233000  0.93652000  0.48599000  1.0 -0.6451953843
O  O63  1  0.46897000  0.55653000  0.71707000  1.0 -0.6796125019
O  O64  1  0.40637000  0.58580000  0.77553000  1.0 -0.6415084762
O  O65  1  0.13839000  0.95721000  0.74818000  1.0 -0.6415084762
O  O66  1  0.03218000  0.92259000  0.72709000  1.0 -0.658850719
O  O67  1  0.02363000  0.55719000  0.56487000  1.0 -0.6716909974
O  O68  1  0.09926000  0.55700000  0.50604000  1.0 -0.6796125019
O  O69  1  0.58817000  0.91798000  0.61178000  1.0 -0.6796125019
O  O70  1  0.51362000  0.92409000  0.67064000  1.0 -0.6947506561
O  O71  1  0.53258000  0.55277000  0.83454000  1.0 -0.7100255906
O  O72  1  0.62104000  0.55185000  0.88597000  1.0 -0.6716909974
O  O73  1  0.70172000  0.97270000  0.55992000  1.0 -0.4924150489
O  O74  1  0.38049000  0.49300000  0.84136000  1.0 -0.3324496306
O  O75  1  0.59463000  0.49237000  0.75766000  1.0 -0.3914610639
O  O76  1  0.03323000  0.94075000  0.96031000  1.0 -0.7208455994
O  O77  1  0.11767000  0.93652000  0.01401000  1.0 -0.6451953843
O  O78  1  0.03103000  0.55653000  0.78293000  1.0 -0.6796125019
O  O79  1  0.09363000  0.58580000  0.72447000  1.0 -0.6415084762
O  O80  1  0.36161000  0.95721000  0.75182000  1.0 -0.6415084762
O  O81  1  0.46782000  0.92259000  0.77291000  1.0 -0.658850719
O  O82  1  0.47637000  0.55719000  0.93513000  1.0 -0.6716909974
O  O83  1  0.40074000  0.55700000  0.99396000  1.0 -0.6796125019
O  O84  1  0.91183000  0.91798000  0.88822000  1.0 -0.6796125019
O  O85  1  0.98638000  0.92409000  0.82936000  1.0 -0.6947506561
O  O86  1  0.96742000  0.55277000  0.66546000  1.0 -0.7100255906
O  O87  1  0.87896000  0.55185000  0.61403000  1.0 -0.6716909974
O  O88  1  0.79828000  0.97270000  0.94008000  1.0 -0.4924150489
O  O89  1  0.11951000  0.49300000  0.65864000  1.0 -0.3324496306
O  O90  1  0.90537000  0.49237000  0.74234000  1.0 -0.3914610639
O  O91  1  0.96677000  0.55925000  0.46031000  1.0 -0.7208455994
O  O92  1  0.88233000  0.56348000  0.51401000  1.0 -0.6451953843
O  O93  1  0.96897000  0.94347000  0.28293000  1.0 -0.6796125019
O  O94  1  0.90637000  0.91420000  0.22447000  1.0 -0.6415084762
O  O95  1  0.63839000  0.54279000  0.25182000  1.0 -0.6415084762
O  O96  1  0.53218000  0.57741000  0.27291000  1.0 -0.658850719
O  O97  1  0.52363000  0.94281000  0.43513000  1.0 -0.6716909974
O  O98  1  0.59926000  0.94300000  0.49396000  1.0 -0.6796125019
O  O99  1  0.08817000  0.58202000  0.38822000  1.0 -0.6796125019
O  O100  1  0.01362000  0.57591000  0.32936000  1.0 -0.6947506561
O  O101  1  0.03258000  0.94723000  0.16546000  1.0 -0.7100255906
O  O102  1  0.12104000  0.94815000  0.11403000  1.0 -0.6716909974
O  O103  1  0.20172000  0.52730000  0.44008000  1.0 -0.4924150489
O  O104  1  0.88049000  0.00700000  0.15864000  1.0 -0.3324496306
O  O105  1  0.09463000  0.00763000  0.24234000  1.0 -0.3914610639
O  O106  1  0.53323000  0.55925000  0.03969000  1.0 -0.7208455994
O  O107  1  0.61767000  0.56348000  0.98599000  1.0 -0.6415084762
O  O108  1  0.53103000  0.94347000  0.21707000  1.0 -0.6796125019
O  O109  1  0.59363000  0.91420000  0.27553000  1.0 -0.6415084762
O  O110  1  0.86161000  0.54279000  0.24818000  1.0 -0.6415084762
O  O111  1  0.96782000  0.57741000  0.22709000  1.0 -0.658850719
O  O112  1  0.97637000  0.94281000  0.06487000  1.0 -0.6716909974
O  O113  1  0.90074000  0.94300000  0.00604000  1.0 -0.6796125019
O  O114  1  0.41183000  0.58202000  0.11178000  1.0 -0.6796125019
O  O115  1  0.48638000  0.57591000  0.17064000  1.0 -0.6947506561
O  O116  1  0.46742000  0.94723000  0.33454000  1.0 -0.7100255906
O  O117  1  0.37896000  0.94815000  0.38597000  1.0 -0.6716909974
O  O118  1  0.29828000  0.52730000  0.05992000  1.0 -0.4924150489
O  O119  1  0.61951000  0.00700000  0.34136000  1.0 -0.3324496306
O  O120  1  0.40537000  0.00763000  0.25766000  1.0 -0.3914610639
