# DDEC6 charges by PACMAN v1.1 (https://github.com/mtap-research/PACMAN-charge/)
data_DETRAZ_ion_pacman
_symmetry_space_group_name_H-M   'P 1'
_cell_length_a   21.56000000
_cell_length_b   21.56000000
_cell_length_c   21.56000000
_cell_angle_alpha   109.47100000
_cell_angle_beta   109.47100000
_cell_angle_gamma   109.47100000
_symmetry_Int_Tables_number   1
_chemical_formula_structural   Cu4H72C108N12Cl2O27
_chemical_formula_sum   'Cu16 H288 C432 N48 Cl8 O108'
_cell_volume   7714.85781465
_cell_formula_units_Z   4
loop_
 _symmetry_equiv_pos_site_id
 _symmetry_equiv_pos_as_xyz
  1  'x, y, z'
loop_
 _atom_site_type_symbol
 _atom_site_label
 _atom_site_symmetry_multiplicity
 _atom_site_fract_x
 _atom_site_fract_y
 _atom_site_fract_z
 _atom_site_occupancy
 _atom_site_charge
Cu  Cu1  1  0.69763000  0.69763000  0.00000000  1.0 0.7606439318
Cu  Cu2  1  0.80306000  0.80306000  0.00000000  1.0 0.579242242
Cu  Cu3  1  0.30237000  0.30237000  0.00000000  1.0 0.7606439318
Cu  Cu4  1  0.19694000  0.19694000  0.00000000  1.0 0.579242242
Cu  Cu5  1  0.00000000  0.30237000  0.30237000  1.0 0.7606439318
Cu  Cu6  1  0.00000000  0.19694000  0.19694000  1.0 0.579242242
Cu  Cu7  1  0.00000000  0.69763000  0.69763000  1.0 0.7606439318
Cu  Cu8  1  0.00000000  0.80306000  0.80306000  1.0 0.579242242
Cu  Cu9  1  0.69763000  0.00000000  0.69763000  1.0 0.7606439318
Cu  Cu10  1  0.80306000  0.00000000  0.80306000  1.0 0.579242242
Cu  Cu11  1  0.30237000  0.00000000  0.30237000  1.0 0.7606439318
Cu  Cu12  1  0.19694000  0.00000000  0.19694000  1.0 0.579242242
Cu  Cu13  1  0.00000000  0.50000000  0.00000000  1.0 0.1007907847
Cu  Cu14  1  0.50000000  0.50000000  0.50000000  1.0 0.0929979089
Cu  Cu15  1  0.00000000  0.00000000  0.50000000  1.0 0.1007907847
Cu  Cu16  1  0.50000000  0.00000000  0.00000000  1.0 0.0929979089
H  H1  1  0.00012000  0.80245000  0.11675000  1.0 0.1083922816
H  H2  1  0.84083000  0.60239000  0.07136000  1.0 0.1007907847
H  H3  1  0.09298000  0.76848000  0.15328000  1.0 0.1007907847
H  H4  1  0.93369000  0.56842000  0.10789000  1.0 0.1007907847
H  H5  1  0.23760000  0.66798000  0.25398000  1.0 0.1197461965
H  H6  1  0.21345000  0.77987000  0.32758000  1.0 0.1197461965
H  H7  1  0.12950000  0.76634000  0.28548000  1.0 0.1007907847
H  H8  1  0.19147000  0.80511000  0.26526000  1.0 0.1083922816
H  H9  1  0.03528000  0.66156000  0.09612000  1.0 0.1007907847
H  H10  1  0.96480000  0.71761000  0.05875000  1.0 0.1007907847
H  H11  1  0.81868000  0.61733000  0.11961000  1.0 0.1007907847
H  H12  1  0.88916000  0.56128000  0.15698000  1.0 0.1007907847
H  H13  1  0.31430000  0.19755000  0.19767000  1.0 0.1083922816
H  H14  1  0.46897000  0.39761000  0.23844000  1.0 0.1007907847
H  H15  1  0.38480000  0.23152000  0.32450000  1.0 0.1007907847
H  H16  1  0.53947000  0.43158000  0.36527000  1.0 0.1007907847
H  H17  1  0.58600000  0.33202000  0.56962000  1.0 0.1197461965
H  H18  1  0.54771000  0.22013000  0.43358000  1.0 0.1197461965
H  H19  1  0.51914000  0.23366000  0.36316000  1.0 0.1007907847
H  H20  1  0.46015000  0.19489000  0.38636000  1.0 0.1083922816
H  H21  1  0.43456000  0.33844000  0.37372000  1.0 0.1007907847
H  H22  1  0.34114000  0.28239000  0.24719000  1.0 0.1007907847
H  H23  1  0.50228000  0.38267000  0.20135000  1.0 0.1007907847
H  H24  1  0.59570000  0.43872000  0.32788000  1.0 0.1007907847
H  H25  1  0.99988000  0.11663000  0.80233000  1.0 0.1083922816
H  H26  1  0.15917000  0.23053000  0.76156000  1.0 0.1007907847
H  H27  1  0.90702000  0.06030000  0.67550000  1.0 0.1007907847
H  H28  1  0.06631000  0.17420000  0.63473000  1.0 0.1007907847
H  H29  1  0.76240000  0.01638000  0.43038000  1.0 0.1197461965
H  H30  1  0.78655000  0.11413000  0.56642000  1.0 0.1197461965
H  H31  1  0.87050000  0.15598000  0.63684000  1.0 0.1007907847
H  H32  1  0.80853000  0.07379000  0.61364000  1.0 0.1083922816
H  H33  1  0.96472000  0.06084000  0.62628000  1.0 0.1007907847
H  H34  1  0.03520000  0.09395000  0.75281000  1.0 0.1007907847
H  H35  1  0.18132000  0.30093000  0.79865000  1.0 0.1007907847
H  H36  1  0.11084000  0.26782000  0.67212000  1.0 0.1007907847
H  H37  1  0.68570000  0.88337000  0.88325000  1.0 0.1083922816
H  H38  1  0.53103000  0.76947000  0.92864000  1.0 0.1007907847
H  H39  1  0.61520000  0.93970000  0.84672000  1.0 0.1007907847
H  H40  1  0.46053000  0.82580000  0.89211000  1.0 0.1007907847
H  H41  1  0.41400000  0.98362000  0.74602000  1.0 0.1197461965
H  H42  1  0.45229000  0.88587000  0.67242000  1.0 0.1197461965
H  H43  1  0.48086000  0.84402000  0.71452000  1.0 0.1007907847
H  H44  1  0.53985000  0.92621000  0.73474000  1.0 0.1083922816
H  H45  1  0.56544000  0.93916000  0.90388000  1.0 0.1007907847
H  H46  1  0.65886000  0.90605000  0.94125000  1.0 0.1007907847
H  H47  1  0.49772000  0.69907000  0.88039000  1.0 0.1007907847
H  H48  1  0.40430000  0.73218000  0.84302000  1.0 0.1007907847
H  H49  1  0.19767000  0.31430000  0.19755000  1.0 0.1083922816
H  H50  1  0.23844000  0.46897000  0.39761000  1.0 0.1007907847
H  H51  1  0.32450000  0.38480000  0.23152000  1.0 0.1007907847
H  H52  1  0.36527000  0.53947000  0.43158000  1.0 0.1007907847
H  H53  1  0.56962000  0.58600000  0.33202000  1.0 0.1197461965
H  H54  1  0.43358000  0.54771000  0.22013000  1.0 0.1197461965
H  H55  1  0.36316000  0.51914000  0.23366000  1.0 0.1007907847
H  H56  1  0.38636000  0.46015000  0.19489000  1.0 0.1083922816
H  H57  1  0.37372000  0.43456000  0.33844000  1.0 0.1007907847
H  H58  1  0.24719000  0.34114000  0.28239000  1.0 0.1007907847
H  H59  1  0.20135000  0.50228000  0.38267000  1.0 0.1007907847
H  H60  1  0.32788000  0.59570000  0.43872000  1.0 0.1007907847
H  H61  1  0.11675000  0.00012000  0.80245000  1.0 0.1083922816
H  H62  1  0.07136000  0.84083000  0.60239000  1.0 0.1007907847
H  H63  1  0.15328000  0.09298000  0.76848000  1.0 0.1007907847
H  H64  1  0.10789000  0.93369000  0.56842000  1.0 0.1007907847
H  H65  1  0.25398000  0.23760000  0.66798000  1.0 0.1197461965
H  H66  1  0.32758000  0.21345000  0.77987000  1.0 0.1197461965
H  H67  1  0.28548000  0.12950000  0.76634000  1.0 0.1007907847
H  H68  1  0.26526000  0.19147000  0.80511000  1.0 0.1083922816
H  H69  1  0.09612000  0.03528000  0.66156000  1.0 0.1007907847
H  H70  1  0.05875000  0.96480000  0.71761000  1.0 0.1007907847
H  H71  1  0.11961000  0.81868000  0.61733000  1.0 0.1007907847
H  H72  1  0.15698000  0.88916000  0.56128000  1.0 0.1007907847
H  H73  1  0.88325000  0.68570000  0.88337000  1.0 0.1083922816
H  H74  1  0.92864000  0.53103000  0.76947000  1.0 0.1007907847
H  H75  1  0.84672000  0.61520000  0.93970000  1.0 0.1007907847
H  H76  1  0.89211000  0.46053000  0.82580000  1.0 0.1007907847
H  H77  1  0.74602000  0.41400000  0.98362000  1.0 0.1197461965
H  H78  1  0.67242000  0.45229000  0.88587000  1.0 0.1197461965
H  H79  1  0.71452000  0.48086000  0.84402000  1.0 0.1007907847
H  H80  1  0.73474000  0.53985000  0.92621000  1.0 0.1083922816
H  H81  1  0.90388000  0.56544000  0.93916000  1.0 0.1007907847
H  H82  1  0.94125000  0.65886000  0.90605000  1.0 0.1007907847
H  H83  1  0.88039000  0.49772000  0.69907000  1.0 0.1007907847
H  H84  1  0.84302000  0.40430000  0.73218000  1.0 0.1007907847
H  H85  1  0.80233000  0.99988000  0.11663000  1.0 0.1083922816
H  H86  1  0.76156000  0.15917000  0.23053000  1.0 0.1007907847
H  H87  1  0.67550000  0.90702000  0.06030000  1.0 0.1007907847
H  H88  1  0.63473000  0.06631000  0.17420000  1.0 0.1007907847
H  H89  1  0.43038000  0.76240000  0.01638000  1.0 0.1197461965
H  H90  1  0.56642000  0.78655000  0.11413000  1.0 0.1197461965
H  H91  1  0.63684000  0.87050000  0.15598000  1.0 0.1007907847
H  H92  1  0.61364000  0.80853000  0.07379000  1.0 0.1083922816
H  H93  1  0.62628000  0.96472000  0.06084000  1.0 0.1007907847
H  H94  1  0.75281000  0.03520000  0.09395000  1.0 0.1007907847
H  H95  1  0.79865000  0.18132000  0.30093000  1.0 0.1007907847
H  H96  1  0.67212000  0.11084000  0.26782000  1.0 0.1007907847
H  H97  1  0.88337000  0.88325000  0.68570000  1.0 0.1083922816
H  H98  1  0.76947000  0.92864000  0.53103000  1.0 0.1007907847
H  H99  1  0.93970000  0.84672000  0.61520000  1.0 0.1007907847
H  H100  1  0.82580000  0.89211000  0.46053000  1.0 0.1007907847
H  H101  1  0.98362000  0.74602000  0.41400000  1.0 0.1197461965
H  H102  1  0.88587000  0.67242000  0.45229000  1.0 0.1197461965
H  H103  1  0.84402000  0.71452000  0.48086000  1.0 0.1007907847
H  H104  1  0.92621000  0.73474000  0.53985000  1.0 0.1083922816
H  H105  1  0.93916000  0.90388000  0.56544000  1.0 0.1007907847
H  H106  1  0.90605000  0.94125000  0.65886000  1.0 0.1007907847
H  H107  1  0.69907000  0.88039000  0.49772000  1.0 0.1007907847
H  H108  1  0.73218000  0.84302000  0.40430000  1.0 0.1007907847
H  H109  1  0.11663000  0.80233000  0.99988000  1.0 0.1083922816
H  H110  1  0.23053000  0.76156000  0.15917000  1.0 0.1007907847
H  H111  1  0.06030000  0.67550000  0.90702000  1.0 0.1007907847
H  H112  1  0.17420000  0.63473000  0.06631000  1.0 0.1007907847
H  H113  1  0.01638000  0.43038000  0.76240000  1.0 0.1197461965
H  H114  1  0.11413000  0.56642000  0.78655000  1.0 0.1197461965
H  H115  1  0.15598000  0.63684000  0.87050000  1.0 0.1007907847
H  H116  1  0.07379000  0.61364000  0.80853000  1.0 0.1083922816
H  H117  1  0.06084000  0.62628000  0.96472000  1.0 0.1007907847
H  H118  1  0.09395000  0.75281000  0.03520000  1.0 0.1007907847
H  H119  1  0.30093000  0.79865000  0.18132000  1.0 0.1007907847
H  H120  1  0.26782000  0.67212000  0.11084000  1.0 0.1007907847
H  H121  1  0.19755000  0.19767000  0.31430000  1.0 0.1083922816
H  H122  1  0.39761000  0.23844000  0.46897000  1.0 0.1007907847
H  H123  1  0.23152000  0.32450000  0.38480000  1.0 0.1007907847
H  H124  1  0.43158000  0.36527000  0.53947000  1.0 0.1007907847
H  H125  1  0.33202000  0.56962000  0.58600000  1.0 0.1197461965
H  H126  1  0.22013000  0.43358000  0.54771000  1.0 0.1197461965
H  H127  1  0.23366000  0.36316000  0.51914000  1.0 0.1007907847
H  H128  1  0.19489000  0.38636000  0.46015000  1.0 0.1083922816
H  H129  1  0.33844000  0.37372000  0.43456000  1.0 0.1007907847
H  H130  1  0.28239000  0.24719000  0.34114000  1.0 0.1007907847
H  H131  1  0.38267000  0.20135000  0.50228000  1.0 0.1007907847
H  H132  1  0.43872000  0.32788000  0.59570000  1.0 0.1007907847
H  H133  1  0.80245000  0.11675000  0.00012000  1.0 0.1083922816
H  H134  1  0.60239000  0.07136000  0.84083000  1.0 0.1007907847
H  H135  1  0.76848000  0.15328000  0.09298000  1.0 0.1007907847
H  H136  1  0.56842000  0.10789000  0.93369000  1.0 0.1007907847
H  H137  1  0.66798000  0.25398000  0.23760000  1.0 0.1197461965
H  H138  1  0.77987000  0.32758000  0.21345000  1.0 0.1197461965
H  H139  1  0.76634000  0.28548000  0.12950000  1.0 0.1007907847
H  H140  1  0.80511000  0.26526000  0.19147000  1.0 0.1083922816
H  H141  1  0.66156000  0.09612000  0.03528000  1.0 0.1007907847
H  H142  1  0.71761000  0.05875000  0.96480000  1.0 0.1007907847
H  H143  1  0.61733000  0.11961000  0.81868000  1.0 0.1007907847
H  H144  1  0.56128000  0.15698000  0.88916000  1.0 0.1007907847
H  H145  1  0.88325000  0.19755000  0.99988000  1.0 0.1083922816
H  H146  1  0.92864000  0.39761000  0.15917000  1.0 0.1007907847
H  H147  1  0.84672000  0.23152000  0.90702000  1.0 0.1007907847
H  H148  1  0.89211000  0.43158000  0.06631000  1.0 0.1007907847
H  H149  1  0.74602000  0.33202000  0.76240000  1.0 0.1197461965
H  H150  1  0.67242000  0.22013000  0.78655000  1.0 0.1197461965
H  H151  1  0.71452000  0.23366000  0.87050000  1.0 0.1007907847
H  H152  1  0.73474000  0.19489000  0.80853000  1.0 0.1083922816
H  H153  1  0.90388000  0.33844000  0.96472000  1.0 0.1007907847
H  H154  1  0.94125000  0.28239000  0.03520000  1.0 0.1007907847
H  H155  1  0.88039000  0.38267000  0.18132000  1.0 0.1007907847
H  H156  1  0.84302000  0.43872000  0.11084000  1.0 0.1007907847
H  H157  1  0.80233000  0.80245000  0.68570000  1.0 0.1083922816
H  H158  1  0.76156000  0.60239000  0.53103000  1.0 0.1007907847
H  H159  1  0.67550000  0.76848000  0.61520000  1.0 0.1007907847
H  H160  1  0.63473000  0.56842000  0.46053000  1.0 0.1007907847
H  H161  1  0.43038000  0.66798000  0.41400000  1.0 0.1197461965
H  H162  1  0.56642000  0.77987000  0.45229000  1.0 0.1197461965
H  H163  1  0.63684000  0.76634000  0.48086000  1.0 0.1007907847
H  H164  1  0.61364000  0.80511000  0.53985000  1.0 0.1083922816
H  H165  1  0.62628000  0.66156000  0.56544000  1.0 0.1007907847
H  H166  1  0.75281000  0.71761000  0.65886000  1.0 0.1007907847
H  H167  1  0.79865000  0.61733000  0.49772000  1.0 0.1007907847
H  H168  1  0.67212000  0.56128000  0.40430000  1.0 0.1007907847
H  H169  1  0.19767000  0.88337000  0.00012000  1.0 0.1083922816
H  H170  1  0.23844000  0.76947000  0.84083000  1.0 0.1007907847
H  H171  1  0.32450000  0.93970000  0.09298000  1.0 0.1007907847
H  H172  1  0.36527000  0.82580000  0.93369000  1.0 0.1007907847
H  H173  1  0.56962000  0.98362000  0.23760000  1.0 0.1197461965
H  H174  1  0.43358000  0.88587000  0.21345000  1.0 0.1197461965
H  H175  1  0.36316000  0.84402000  0.12950000  1.0 0.1007907847
H  H176  1  0.38636000  0.92621000  0.19147000  1.0 0.1083922816
H  H177  1  0.37372000  0.93916000  0.03528000  1.0 0.1007907847
H  H178  1  0.24719000  0.90605000  0.96480000  1.0 0.1007907847
H  H179  1  0.20135000  0.69907000  0.81868000  1.0 0.1007907847
H  H180  1  0.32788000  0.73218000  0.88916000  1.0 0.1007907847
H  H181  1  0.11675000  0.11663000  0.31430000  1.0 0.1083922816
H  H182  1  0.07136000  0.23053000  0.46897000  1.0 0.1007907847
H  H183  1  0.15328000  0.06030000  0.38480000  1.0 0.1007907847
H  H184  1  0.10789000  0.17420000  0.53947000  1.0 0.1007907847
H  H185  1  0.25398000  0.01638000  0.58600000  1.0 0.1197461965
H  H186  1  0.32758000  0.11413000  0.54771000  1.0 0.1197461965
H  H187  1  0.28548000  0.15598000  0.51914000  1.0 0.1007907847
H  H188  1  0.26526000  0.07379000  0.46015000  1.0 0.1083922816
H  H189  1  0.09612000  0.06084000  0.43456000  1.0 0.1007907847
H  H190  1  0.05875000  0.09395000  0.34114000  1.0 0.1007907847
H  H191  1  0.11961000  0.30093000  0.50228000  1.0 0.1007907847
H  H192  1  0.15698000  0.26782000  0.59570000  1.0 0.1007907847
H  H193  1  0.80245000  0.68570000  0.80233000  1.0 0.1083922816
H  H194  1  0.60239000  0.53103000  0.76156000  1.0 0.1007907847
H  H195  1  0.76848000  0.61520000  0.67550000  1.0 0.1007907847
H  H196  1  0.56842000  0.46053000  0.63473000  1.0 0.1007907847
H  H197  1  0.66798000  0.41400000  0.43038000  1.0 0.1197461965
H  H198  1  0.77987000  0.45229000  0.56642000  1.0 0.1197461965
H  H199  1  0.76634000  0.48086000  0.63684000  1.0 0.1007907847
H  H200  1  0.80511000  0.53985000  0.61364000  1.0 0.1083922816
H  H201  1  0.66156000  0.56544000  0.62628000  1.0 0.1007907847
H  H202  1  0.71761000  0.65886000  0.75281000  1.0 0.1007907847
H  H203  1  0.61733000  0.49772000  0.79865000  1.0 0.1007907847
H  H204  1  0.56128000  0.40430000  0.67212000  1.0 0.1007907847
H  H205  1  0.19755000  0.99988000  0.88325000  1.0 0.1083922816
H  H206  1  0.39761000  0.15917000  0.92864000  1.0 0.1007907847
H  H207  1  0.23152000  0.90702000  0.84672000  1.0 0.1007907847
H  H208  1  0.43158000  0.06631000  0.89211000  1.0 0.1007907847
H  H209  1  0.33202000  0.76240000  0.74602000  1.0 0.1197461965
H  H210  1  0.22013000  0.78655000  0.67242000  1.0 0.1197461965
H  H211  1  0.23366000  0.87050000  0.71452000  1.0 0.1007907847
H  H212  1  0.19489000  0.80853000  0.73474000  1.0 0.1083922816
H  H213  1  0.33844000  0.96472000  0.90388000  1.0 0.1007907847
H  H214  1  0.28239000  0.03520000  0.94125000  1.0 0.1007907847
H  H215  1  0.38267000  0.18132000  0.88039000  1.0 0.1007907847
H  H216  1  0.43872000  0.11084000  0.84302000  1.0 0.1007907847
H  H217  1  0.11663000  0.31430000  0.11675000  1.0 0.1083922816
H  H218  1  0.23053000  0.46897000  0.07136000  1.0 0.1007907847
H  H219  1  0.06030000  0.38480000  0.15328000  1.0 0.1007907847
H  H220  1  0.17420000  0.53947000  0.10789000  1.0 0.1007907847
H  H221  1  0.01638000  0.58600000  0.25398000  1.0 0.1197461965
H  H222  1  0.11413000  0.54771000  0.32758000  1.0 0.1197461965
H  H223  1  0.15598000  0.51914000  0.28548000  1.0 0.1007907847
H  H224  1  0.07379000  0.46015000  0.26526000  1.0 0.1083922816
H  H225  1  0.06084000  0.43456000  0.09612000  1.0 0.1007907847
H  H226  1  0.09395000  0.34114000  0.05875000  1.0 0.1007907847
H  H227  1  0.30093000  0.50228000  0.11961000  1.0 0.1007907847
H  H228  1  0.26782000  0.59570000  0.15698000  1.0 0.1007907847
H  H229  1  0.88337000  0.00012000  0.19767000  1.0 0.1083922816
H  H230  1  0.76947000  0.84083000  0.23844000  1.0 0.1007907847
H  H231  1  0.93970000  0.09298000  0.32450000  1.0 0.1007907847
H  H232  1  0.82580000  0.93369000  0.36527000  1.0 0.1007907847
H  H233  1  0.98362000  0.23760000  0.56962000  1.0 0.1197461965
H  H234  1  0.88587000  0.21345000  0.43358000  1.0 0.1197461965
H  H235  1  0.84402000  0.12950000  0.36316000  1.0 0.1007907847
H  H236  1  0.92621000  0.19147000  0.38636000  1.0 0.1083922816
H  H237  1  0.93916000  0.03528000  0.37372000  1.0 0.1007907847
H  H238  1  0.90605000  0.96480000  0.24719000  1.0 0.1007907847
H  H239  1  0.69907000  0.81868000  0.20135000  1.0 0.1007907847
H  H240  1  0.73218000  0.88916000  0.32788000  1.0 0.1007907847
H  H241  1  0.31430000  0.11675000  0.11663000  1.0 0.1083922816
H  H242  1  0.46897000  0.07136000  0.23053000  1.0 0.1007907847
H  H243  1  0.38480000  0.15328000  0.06030000  1.0 0.1007907847
H  H244  1  0.53947000  0.10789000  0.17420000  1.0 0.1007907847
H  H245  1  0.58600000  0.25398000  0.01638000  1.0 0.1197461965
H  H246  1  0.54771000  0.32758000  0.11413000  1.0 0.1197461965
H  H247  1  0.51914000  0.28548000  0.15598000  1.0 0.1007907847
H  H248  1  0.46015000  0.26526000  0.07379000  1.0 0.1083922816
H  H249  1  0.43456000  0.09612000  0.06084000  1.0 0.1007907847
H  H250  1  0.34114000  0.05875000  0.09395000  1.0 0.1007907847
H  H251  1  0.50228000  0.11961000  0.30093000  1.0 0.1007907847
H  H252  1  0.59570000  0.15698000  0.26782000  1.0 0.1007907847
H  H253  1  0.00012000  0.19767000  0.88337000  1.0 0.1083922816
H  H254  1  0.84083000  0.23844000  0.76947000  1.0 0.1007907847
H  H255  1  0.09298000  0.32450000  0.93970000  1.0 0.1007907847
H  H256  1  0.93369000  0.36527000  0.82580000  1.0 0.1007907847
H  H257  1  0.23760000  0.56962000  0.98362000  1.0 0.1197461965
H  H258  1  0.21345000  0.43358000  0.88587000  1.0 0.1197461965
H  H259  1  0.12950000  0.36316000  0.84402000  1.0 0.1007907847
H  H260  1  0.19147000  0.38636000  0.92621000  1.0 0.1083922816
H  H261  1  0.03528000  0.37372000  0.93916000  1.0 0.1007907847
H  H262  1  0.96480000  0.24719000  0.90605000  1.0 0.1007907847
H  H263  1  0.81868000  0.20135000  0.69907000  1.0 0.1007907847
H  H264  1  0.88916000  0.32788000  0.73218000  1.0 0.1007907847
H  H265  1  0.68570000  0.80233000  0.80245000  1.0 0.1083922816
H  H266  1  0.53103000  0.76156000  0.60239000  1.0 0.1007907847
H  H267  1  0.61520000  0.67550000  0.76848000  1.0 0.1007907847
H  H268  1  0.46053000  0.63473000  0.56842000  1.0 0.1007907847
H  H269  1  0.41400000  0.43038000  0.66798000  1.0 0.1197461965
H  H270  1  0.45229000  0.56642000  0.77987000  1.0 0.1197461965
H  H271  1  0.48086000  0.63684000  0.76634000  1.0 0.1007907847
H  H272  1  0.53985000  0.61364000  0.80511000  1.0 0.1083922816
H  H273  1  0.56544000  0.62628000  0.66156000  1.0 0.1007907847
H  H274  1  0.65886000  0.75281000  0.71761000  1.0 0.1007907847
H  H275  1  0.49772000  0.79865000  0.61733000  1.0 0.1007907847
H  H276  1  0.40430000  0.67212000  0.56128000  1.0 0.1007907847
H  H277  1  0.99988000  0.88325000  0.19755000  1.0 0.1083922816
H  H278  1  0.15917000  0.92864000  0.39761000  1.0 0.1007907847
H  H279  1  0.90702000  0.84672000  0.23152000  1.0 0.1007907847
H  H280  1  0.06631000  0.89211000  0.43158000  1.0 0.1007907847
H  H281  1  0.76240000  0.74602000  0.33202000  1.0 0.1197461965
H  H282  1  0.78655000  0.67242000  0.22013000  1.0 0.1197461965
H  H283  1  0.87050000  0.71452000  0.23366000  1.0 0.1007907847
H  H284  1  0.80853000  0.73474000  0.19489000  1.0 0.1083922816
H  H285  1  0.96472000  0.90388000  0.33844000  1.0 0.1007907847
H  H286  1  0.03520000  0.94125000  0.28239000  1.0 0.1007907847
H  H287  1  0.18132000  0.88039000  0.38267000  1.0 0.1007907847
H  H288  1  0.11084000  0.84302000  0.43872000  1.0 0.1007907847
C  C1  1  0.85350000  0.72720000  0.05590000  1.0 0.3131167877
C  C2  1  0.91180000  0.70560000  0.09060000  1.0 0.0450114746
C  C3  1  0.98660000  0.75490000  0.11490000  1.0 -0.1741301584
C  C4  1  0.89210000  0.63610000  0.08800000  1.0 0.0356103959
C  C5  1  0.04180000  0.73480000  0.13660000  1.0 -0.0577939869
C  C6  1  0.94720000  0.61590000  0.10970000  1.0 -0.0105220501
C  C7  1  0.02210000  0.66530000  0.13400000  1.0 -0.0105220501
C  C8  1  0.08110000  0.64460000  0.15510000  1.0 0.0929979089
C  C9  1  0.01150000  0.57010000  0.15340000  1.0 -0.0105220501
C  C10  1  0.18750000  0.65050000  0.21680000  1.0 -0.1784645179
C  C11  1  0.17280000  0.76710000  0.27950000  1.0 -0.3309980431
C  C12  1  0.99130000  0.65260000  0.10090000  1.0 -0.0344936797
C  C13  1  0.94940000  0.68590000  0.07870000  1.0 0.0231413243
C  C14  1  0.88510000  0.67270000  0.08560000  1.0 0.0231413243
C  C15  1  0.86270000  0.62640000  0.11490000  1.0 -0.0870549429
C  C16  1  0.90450000  0.59300000  0.13710000  1.0 -0.0870549429
C  C17  1  0.96890000  0.60620000  0.13010000  1.0 -0.0034261289
C  C18  1  0.83680000  0.70510000  0.05770000  1.0 0.3131167877
C  C19  1  0.32870000  0.27280000  0.12630000  1.0 0.3131167877
C  C20  1  0.38500000  0.29440000  0.20620000  1.0 0.0450114746
C  C21  1  0.36000000  0.24510000  0.23170000  1.0 -0.1741301584
C  C22  1  0.45190000  0.36390000  0.25600000  1.0 0.0356103959
C  C23  1  0.40180000  0.26520000  0.30700000  1.0 -0.0577939869
C  C24  1  0.49380000  0.38410000  0.33130000  1.0 -0.0105220501
C  C25  1  0.46870000  0.33470000  0.35680000  1.0 -0.0105220501
C  C26  1  0.51050000  0.35540000  0.43650000  1.0 0.0929979089
C  C27  1  0.58330000  0.42990000  0.44140000  1.0 -0.0105220501
C  C28  1  0.56630000  0.34950000  0.53700000  1.0 -0.1784645179
C  C29  1  0.51240000  0.23290000  0.40570000  1.0 -0.3309980431
C  C30  1  0.44830000  0.34740000  0.33870000  1.0 -0.0344936797
C  C31  1  0.39280000  0.31410000  0.26350000  1.0 0.0231413243
C  C32  1  0.41290000  0.32730000  0.21240000  1.0 0.0231413243
C  C33  1  0.48850000  0.37360000  0.23630000  1.0 -0.0870549429
C  C34  1  0.54410000  0.40700000  0.31150000  1.0 -0.0870549429
C  C35  1  0.52390000  0.39380000  0.36270000  1.0 -0.0034261289
C  C36  1  0.35260000  0.29490000  0.13170000  1.0 0.3131167877
C  C37  1  0.14650000  0.20240000  0.87370000  1.0 0.3131167877
C  C38  1  0.08820000  0.17880000  0.79380000  1.0 0.0450114746
C  C39  1  0.01340000  0.12830000  0.76830000  1.0 -0.1741301584
C  C40  1  0.10790000  0.19590000  0.74400000  1.0 0.0356103959
C  C41  1  0.95820000  0.09480000  0.69300000  1.0 -0.0577939869
C  C42  1  0.05280000  0.16250000  0.66870000  1.0 -0.0105220501
C  C43  1  0.97790000  0.11190000  0.64320000  1.0 -0.0105220501
C  C44  1  0.91890000  0.07400000  0.56350000  1.0 0.0929979089
C  C45  1  0.98850000  0.14190000  0.55860000  1.0 -0.0105220501
C  C46  1  0.81250000  0.02930000  0.46300000  1.0 -0.1784645179
C  C47  1  0.82720000  0.10670000  0.59430000  1.0 -0.3309980431
C  C48  1  0.00870000  0.10960000  0.66130000  1.0 -0.0344936797
C  C49  1  0.05060000  0.12930000  0.73650000  1.0 0.0231413243
C  C50  1  0.11490000  0.20050000  0.78760000  1.0 0.0231413243
C  C51  1  0.13730000  0.25220000  0.76370000  1.0 -0.0870549429
C  C52  1  0.09550000  0.23260000  0.68850000  1.0 -0.0870549429
C  C53  1  0.03110000  0.16120000  0.63730000  1.0 -0.0034261289
C  C54  1  0.16320000  0.22090000  0.86830000  1.0 0.3131167877
C  C55  1  0.67130000  0.79760000  0.94410000  1.0 0.3131167877
C  C56  1  0.61500000  0.82120000  0.90940000  1.0 0.0450114746
C  C57  1  0.64000000  0.87170000  0.88510000  1.0 -0.1741301584
C  C58  1  0.54810000  0.80410000  0.91200000  1.0 0.0356103959
C  C59  1  0.59820000  0.90520000  0.86340000  1.0 -0.0577939869
C  C60  1  0.50620000  0.83750000  0.89030000  1.0 -0.0105220501
C  C61  1  0.53130000  0.88810000  0.86600000  1.0 -0.0105220501
C  C62  1  0.48950000  0.92600000  0.84490000  1.0 0.0929979089
C  C63  1  0.41670000  0.85810000  0.84660000  1.0 -0.0105220501
C  C64  1  0.43370000  0.97070000  0.78320000  1.0 -0.1784645179
C  C65  1  0.48760000  0.89330000  0.72050000  1.0 -0.3309980431
C  C66  1  0.55170000  0.89040000  0.89910000  1.0 -0.0344936797
C  C67  1  0.60720000  0.87070000  0.92130000  1.0 0.0231413243
C  C68  1  0.58710000  0.79950000  0.91440000  1.0 0.0231413243
C  C69  1  0.51150000  0.74780000  0.88510000  1.0 -0.0870549429
C  C70  1  0.45590000  0.76740000  0.86290000  1.0 -0.0870549429
C  C71  1  0.47610000  0.83880000  0.86990000  1.0 -0.0034261289
C  C72  1  0.64740000  0.77910000  0.94230000  1.0 0.3131167877
C  C73  1  0.12630000  0.32870000  0.27280000  1.0 0.3131167877
C  C74  1  0.20620000  0.38500000  0.29440000  1.0 0.0450114746
C  C75  1  0.23170000  0.36000000  0.24510000  1.0 -0.1741301584
C  C76  1  0.25600000  0.45190000  0.36390000  1.0 0.0356103959
C  C77  1  0.30700000  0.40180000  0.26520000  1.0 -0.0577939869
C  C78  1  0.33130000  0.49380000  0.38410000  1.0 -0.0105220501
C  C79  1  0.35680000  0.46870000  0.33470000  1.0 -0.0105220501
C  C80  1  0.43650000  0.51050000  0.35540000  1.0 0.0929979089
C  C81  1  0.44140000  0.58330000  0.42990000  1.0 -0.0105220501
C  C82  1  0.53700000  0.56630000  0.34950000  1.0 -0.1784645179
C  C83  1  0.40570000  0.51240000  0.23290000  1.0 -0.3309980431
C  C84  1  0.33870000  0.44830000  0.34740000  1.0 -0.0344936797
C  C85  1  0.26350000  0.39280000  0.31410000  1.0 0.0231413243
C  C86  1  0.21240000  0.41290000  0.32730000  1.0 0.0231413243
C  C87  1  0.23630000  0.48850000  0.37360000  1.0 -0.0870549429
C  C88  1  0.31150000  0.54410000  0.40700000  1.0 -0.0870549429
C  C89  1  0.36270000  0.52390000  0.39380000  1.0 -0.0034261289
C  C90  1  0.13170000  0.35260000  0.29490000  1.0 0.3131167877
C  C91  1  0.05590000  0.85350000  0.72720000  1.0 0.3131167877
C  C92  1  0.09060000  0.91180000  0.70560000  1.0 0.0450114746
C  C93  1  0.11490000  0.98660000  0.75490000  1.0 -0.1741301584
C  C94  1  0.08800000  0.89210000  0.63610000  1.0 0.0356103959
C  C95  1  0.13660000  0.04180000  0.73480000  1.0 -0.0577939869
C  C96  1  0.10970000  0.94720000  0.61590000  1.0 -0.0105220501
C  C97  1  0.13400000  0.02210000  0.66530000  1.0 -0.0105220501
C  C98  1  0.15510000  0.08110000  0.64460000  1.0 0.0929979089
C  C99  1  0.15340000  0.01150000  0.57010000  1.0 -0.0105220501
C  C100  1  0.21680000  0.18750000  0.65050000  1.0 -0.1784645179
C  C101  1  0.27950000  0.17280000  0.76710000  1.0 -0.3309980431
C  C102  1  0.10090000  0.99130000  0.65260000  1.0 -0.0344936797
C  C103  1  0.07870000  0.94940000  0.68590000  1.0 0.0231413243
C  C104  1  0.08560000  0.88510000  0.67270000  1.0 0.0231413243
C  C105  1  0.11490000  0.86270000  0.62640000  1.0 -0.0870549429
C  C106  1  0.13710000  0.90450000  0.59300000  1.0 -0.0870549429
C  C107  1  0.13010000  0.96890000  0.60620000  1.0 -0.0034261289
C  C108  1  0.05770000  0.83680000  0.70510000  1.0 0.3131167877
C  C109  1  0.94410000  0.67130000  0.79760000  1.0 0.3131167877
C  C110  1  0.90940000  0.61500000  0.82120000  1.0 0.0450114746
C  C111  1  0.88510000  0.64000000  0.87170000  1.0 -0.1741301584
C  C112  1  0.91200000  0.54810000  0.80410000  1.0 0.0356103959
C  C113  1  0.86340000  0.59820000  0.90520000  1.0 -0.0577939869
C  C114  1  0.89030000  0.50620000  0.83750000  1.0 -0.0105220501
C  C115  1  0.86600000  0.53130000  0.88810000  1.0 -0.0105220501
C  C116  1  0.84490000  0.48950000  0.92600000  1.0 0.0929979089
C  C117  1  0.84660000  0.41670000  0.85810000  1.0 -0.0105220501
C  C118  1  0.78320000  0.43370000  0.97070000  1.0 -0.1784645179
C  C119  1  0.72050000  0.48760000  0.89330000  1.0 -0.3309980431
C  C120  1  0.89910000  0.55170000  0.89040000  1.0 -0.0344936797
C  C121  1  0.92130000  0.60720000  0.87070000  1.0 0.0231413243
C  C122  1  0.91440000  0.58710000  0.79950000  1.0 0.0231413243
C  C123  1  0.88510000  0.51150000  0.74780000  1.0 -0.0870549429
C  C124  1  0.86290000  0.45590000  0.76740000  1.0 -0.0870549429
C  C125  1  0.86990000  0.47610000  0.83880000  1.0 -0.0034261289
C  C126  1  0.94230000  0.64740000  0.77910000  1.0 0.3131167877
C  C127  1  0.87370000  0.14650000  0.20240000  1.0 0.3131167877
C  C128  1  0.79380000  0.08820000  0.17880000  1.0 0.0450114746
C  C129  1  0.76830000  0.01340000  0.12830000  1.0 -0.1741301584
C  C130  1  0.74400000  0.10790000  0.19590000  1.0 0.0356103959
C  C131  1  0.69300000  0.95820000  0.09480000  1.0 -0.0577939869
C  C132  1  0.66870000  0.05280000  0.16250000  1.0 -0.0105220501
C  C133  1  0.64320000  0.97790000  0.11190000  1.0 -0.0105220501
C  C134  1  0.56350000  0.91890000  0.07400000  1.0 0.0929979089
C  C135  1  0.55860000  0.98850000  0.14190000  1.0 -0.0105220501
C  C136  1  0.46300000  0.81250000  0.02930000  1.0 -0.1784645179
C  C137  1  0.59430000  0.82720000  0.10670000  1.0 -0.3309980431
C  C138  1  0.66130000  0.00870000  0.10960000  1.0 -0.0344936797
C  C139  1  0.73650000  0.05060000  0.12930000  1.0 0.0231413243
C  C140  1  0.78760000  0.11490000  0.20050000  1.0 0.0231413243
C  C141  1  0.76370000  0.13730000  0.25220000  1.0 -0.0870549429
C  C142  1  0.68850000  0.09550000  0.23260000  1.0 -0.0870549429
C  C143  1  0.63730000  0.03110000  0.16120000  1.0 -0.0034261289
C  C144  1  0.86830000  0.16320000  0.22090000  1.0 0.3131167877
C  C145  1  0.79760000  0.94410000  0.67130000  1.0 0.3131167877
C  C146  1  0.82120000  0.90940000  0.61500000  1.0 0.0450114746
C  C147  1  0.87170000  0.88510000  0.64000000  1.0 -0.1741301584
C  C148  1  0.80410000  0.91200000  0.54810000  1.0 0.0356103959
C  C149  1  0.90520000  0.86340000  0.59820000  1.0 -0.0577939869
C  C150  1  0.83750000  0.89030000  0.50620000  1.0 -0.0105220501
C  C151  1  0.88810000  0.86600000  0.53130000  1.0 -0.0105220501
C  C152  1  0.92600000  0.84490000  0.48950000  1.0 0.0929979089
C  C153  1  0.85810000  0.84660000  0.41670000  1.0 -0.0105220501
C  C154  1  0.97070000  0.78320000  0.43370000  1.0 -0.1784645179
C  C155  1  0.89330000  0.72050000  0.48760000  1.0 -0.3309980431
C  C156  1  0.89040000  0.89910000  0.55170000  1.0 -0.0344936797
C  C157  1  0.87070000  0.92130000  0.60720000  1.0 0.0231413243
C  C158  1  0.79950000  0.91440000  0.58710000  1.0 0.0231413243
C  C159  1  0.74780000  0.88510000  0.51150000  1.0 -0.0870549429
C  C160  1  0.76740000  0.86290000  0.45590000  1.0 -0.0870549429
C  C161  1  0.83880000  0.86990000  0.47610000  1.0 -0.0034261289
C  C162  1  0.77910000  0.94230000  0.64740000  1.0 0.3131167877
C  C163  1  0.20240000  0.87370000  0.14650000  1.0 0.3131167877
C  C164  1  0.17880000  0.79380000  0.08820000  1.0 0.0450114746
C  C165  1  0.12830000  0.76830000  0.01340000  1.0 -0.1741301584
C  C166  1  0.19590000  0.74400000  0.10790000  1.0 0.0356103959
C  C167  1  0.09480000  0.69300000  0.95820000  1.0 -0.0577939869
C  C168  1  0.16250000  0.66870000  0.05280000  1.0 -0.0105220501
C  C169  1  0.11190000  0.64320000  0.97790000  1.0 -0.0105220501
C  C170  1  0.07400000  0.56350000  0.91890000  1.0 0.0929979089
C  C171  1  0.14190000  0.55860000  0.98850000  1.0 -0.0105220501
C  C172  1  0.02930000  0.46300000  0.81250000  1.0 -0.1784645179
C  C173  1  0.10670000  0.59430000  0.82720000  1.0 -0.3309980431
C  C174  1  0.10960000  0.66130000  0.00870000  1.0 -0.0344936797
C  C175  1  0.12930000  0.73650000  0.05060000  1.0 0.0231413243
C  C176  1  0.20050000  0.78760000  0.11490000  1.0 0.0231413243
C  C177  1  0.25220000  0.76370000  0.13730000  1.0 -0.0870549429
C  C178  1  0.23260000  0.68850000  0.09550000  1.0 -0.0870549429
C  C179  1  0.16120000  0.63730000  0.03110000  1.0 -0.0034261289
C  C180  1  0.22090000  0.86830000  0.16320000  1.0 0.3131167877
C  C181  1  0.27280000  0.12630000  0.32870000  1.0 0.3131167877
C  C182  1  0.29440000  0.20620000  0.38500000  1.0 0.0450114746
C  C183  1  0.24510000  0.23170000  0.36000000  1.0 -0.1741301584
C  C184  1  0.36390000  0.25600000  0.45190000  1.0 0.0356103959
C  C185  1  0.26520000  0.30700000  0.40180000  1.0 -0.0577939869
C  C186  1  0.38410000  0.33130000  0.49380000  1.0 -0.0105220501
C  C187  1  0.33470000  0.35680000  0.46870000  1.0 -0.0105220501
C  C188  1  0.35540000  0.43650000  0.51050000  1.0 0.0929979089
C  C189  1  0.42990000  0.44140000  0.58330000  1.0 -0.0105220501
C  C190  1  0.34950000  0.53700000  0.56630000  1.0 -0.1784645179
C  C191  1  0.23290000  0.40570000  0.51240000  1.0 -0.3309980431
C  C192  1  0.34740000  0.33870000  0.44830000  1.0 -0.0344936797
C  C193  1  0.31410000  0.26350000  0.39280000  1.0 0.0231413243
C  C194  1  0.32730000  0.21240000  0.41290000  1.0 0.0231413243
C  C195  1  0.37360000  0.23630000  0.48850000  1.0 -0.0870549429
C  C196  1  0.40700000  0.31150000  0.54410000  1.0 -0.0870549429
C  C197  1  0.39380000  0.36270000  0.52390000  1.0 -0.0034261289
C  C198  1  0.29490000  0.13170000  0.35260000  1.0 0.3131167877
C  C199  1  0.72720000  0.05590000  0.85350000  1.0 0.3131167877
C  C200  1  0.70560000  0.09060000  0.91180000  1.0 0.0450114746
C  C201  1  0.75490000  0.11490000  0.98660000  1.0 -0.1741301584
C  C202  1  0.63610000  0.08800000  0.89210000  1.0 0.0356103959
C  C203  1  0.73480000  0.13660000  0.04180000  1.0 -0.0577939869
C  C204  1  0.61590000  0.10970000  0.94720000  1.0 -0.0105220501
C  C205  1  0.66530000  0.13400000  0.02210000  1.0 -0.0105220501
C  C206  1  0.64460000  0.15510000  0.08110000  1.0 0.0929979089
C  C207  1  0.57010000  0.15340000  0.01150000  1.0 -0.0105220501
C  C208  1  0.65050000  0.21680000  0.18750000  1.0 -0.1784645179
C  C209  1  0.76710000  0.27950000  0.17280000  1.0 -0.3309980431
C  C210  1  0.65260000  0.10090000  0.99130000  1.0 -0.0344936797
C  C211  1  0.68590000  0.07870000  0.94940000  1.0 0.0231413243
C  C212  1  0.67270000  0.08560000  0.88510000  1.0 0.0231413243
C  C213  1  0.62640000  0.11490000  0.86270000  1.0 -0.0870549429
C  C214  1  0.59300000  0.13710000  0.90450000  1.0 -0.0870549429
C  C215  1  0.60620000  0.13010000  0.96890000  1.0 -0.0034261289
C  C216  1  0.70510000  0.05770000  0.83680000  1.0 0.3131167877
C  C217  1  0.94410000  0.27280000  0.14650000  1.0 0.3131167877
C  C218  1  0.90940000  0.29440000  0.08820000  1.0 0.0450114746
C  C219  1  0.88510000  0.24510000  0.01340000  1.0 -0.1741301584
C  C220  1  0.91200000  0.36390000  0.10790000  1.0 0.0356103959
C  C221  1  0.86340000  0.26520000  0.95820000  1.0 -0.0577939869
C  C222  1  0.89030000  0.38410000  0.05280000  1.0 -0.0105220501
C  C223  1  0.86600000  0.33470000  0.97790000  1.0 -0.0105220501
C  C224  1  0.84490000  0.35540000  0.91890000  1.0 0.0929979089
C  C225  1  0.84660000  0.42990000  0.98850000  1.0 -0.0105220501
C  C226  1  0.78320000  0.34950000  0.81250000  1.0 -0.1784645179
C  C227  1  0.72050000  0.23290000  0.82720000  1.0 -0.3309980431
C  C228  1  0.89910000  0.34740000  0.00870000  1.0 -0.0344936797
C  C229  1  0.92130000  0.31410000  0.05060000  1.0 0.0231413243
C  C230  1  0.91440000  0.32730000  0.11490000  1.0 0.0231413243
C  C231  1  0.88510000  0.37360000  0.13730000  1.0 -0.0870549429
C  C232  1  0.86290000  0.40700000  0.09550000  1.0 -0.0870549429
C  C233  1  0.86990000  0.39380000  0.03110000  1.0 -0.0034261289
C  C234  1  0.94230000  0.29490000  0.16320000  1.0 0.3131167877
C  C235  1  0.87370000  0.72720000  0.67130000  1.0 0.3131167877
C  C236  1  0.79380000  0.70560000  0.61500000  1.0 0.0450114746
C  C237  1  0.76830000  0.75490000  0.64000000  1.0 -0.1741301584
C  C238  1  0.74400000  0.63610000  0.54810000  1.0 0.0356103959
C  C239  1  0.69300000  0.73480000  0.59820000  1.0 -0.0577939869
C  C240  1  0.66870000  0.61590000  0.50620000  1.0 -0.0105220501
C  C241  1  0.64320000  0.66530000  0.53130000  1.0 -0.0105220501
C  C242  1  0.56350000  0.64460000  0.48950000  1.0 0.0929979089
C  C243  1  0.55860000  0.57010000  0.41670000  1.0 -0.0105220501
C  C244  1  0.46300000  0.65050000  0.43370000  1.0 -0.1784645179
C  C245  1  0.59430000  0.76710000  0.48760000  1.0 -0.3309980431
C  C246  1  0.66130000  0.65260000  0.55170000  1.0 -0.0344936797
C  C247  1  0.73650000  0.68590000  0.60720000  1.0 0.0231413243
C  C248  1  0.78760000  0.67270000  0.58710000  1.0 0.0231413243
C  C249  1  0.76370000  0.62640000  0.51150000  1.0 -0.0870549429
C  C250  1  0.68850000  0.59300000  0.45590000  1.0 -0.0870549429
C  C251  1  0.63730000  0.60620000  0.47610000  1.0 -0.0034261289
C  C252  1  0.86830000  0.70510000  0.64740000  1.0 0.3131167877
C  C253  1  0.12630000  0.79760000  0.85350000  1.0 0.3131167877
C  C254  1  0.20620000  0.82120000  0.91180000  1.0 0.0450114746
C  C255  1  0.23170000  0.87170000  0.98660000  1.0 -0.1741301584
C  C256  1  0.25600000  0.80410000  0.89210000  1.0 0.0356103959
C  C257  1  0.30700000  0.90520000  0.04180000  1.0 -0.0577939869
C  C258  1  0.33130000  0.83750000  0.94720000  1.0 -0.0105220501
C  C259  1  0.35680000  0.88810000  0.02210000  1.0 -0.0105220501
C  C260  1  0.43650000  0.92600000  0.08110000  1.0 0.0929979089
C  C261  1  0.44140000  0.85810000  0.01150000  1.0 -0.0105220501
C  C262  1  0.53700000  0.97070000  0.18750000  1.0 -0.1784645179
C  C263  1  0.40570000  0.89330000  0.17280000  1.0 -0.3309980431
C  C264  1  0.33870000  0.89040000  0.99130000  1.0 -0.0344936797
C  C265  1  0.26350000  0.87070000  0.94940000  1.0 0.0231413243
C  C266  1  0.21240000  0.79950000  0.88510000  1.0 0.0231413243
C  C267  1  0.23630000  0.74780000  0.86270000  1.0 -0.0870549429
C  C268  1  0.31150000  0.76740000  0.90450000  1.0 -0.0870549429
C  C269  1  0.36270000  0.83880000  0.96890000  1.0 -0.0034261289
C  C270  1  0.13170000  0.77910000  0.83680000  1.0 0.3131167877
C  C271  1  0.05590000  0.20240000  0.32870000  1.0 0.3131167877
C  C272  1  0.09060000  0.17880000  0.38500000  1.0 0.0450114746
C  C273  1  0.11490000  0.12830000  0.36000000  1.0 -0.1741301584
C  C274  1  0.08800000  0.19590000  0.45190000  1.0 0.0356103959
C  C275  1  0.13660000  0.09480000  0.40180000  1.0 -0.0577939869
C  C276  1  0.10970000  0.16250000  0.49380000  1.0 -0.0105220501
C  C277  1  0.13400000  0.11190000  0.46870000  1.0 -0.0105220501
C  C278  1  0.15510000  0.07400000  0.51050000  1.0 0.0929979089
C  C279  1  0.15340000  0.14190000  0.58330000  1.0 -0.0105220501
C  C280  1  0.21680000  0.02930000  0.56630000  1.0 -0.1784645179
C  C281  1  0.27950000  0.10670000  0.51240000  1.0 -0.3309980431
C  C282  1  0.10090000  0.10960000  0.44830000  1.0 -0.0344936797
C  C283  1  0.07870000  0.12930000  0.39280000  1.0 0.0231413243
C  C284  1  0.08560000  0.20050000  0.41290000  1.0 0.0231413243
C  C285  1  0.11490000  0.25220000  0.48850000  1.0 -0.0870549429
C  C286  1  0.13710000  0.23260000  0.54410000  1.0 -0.0870549429
C  C287  1  0.13010000  0.16120000  0.52390000  1.0 -0.0034261289
C  C288  1  0.05770000  0.22090000  0.35260000  1.0 0.3131167877
C  C289  1  0.72720000  0.67130000  0.87370000  1.0 0.3131167877
C  C290  1  0.70560000  0.61500000  0.79380000  1.0 0.0450114746
C  C291  1  0.75490000  0.64000000  0.76830000  1.0 -0.1741301584
C  C292  1  0.63610000  0.54810000  0.74400000  1.0 0.0356103959
C  C293  1  0.73480000  0.59820000  0.69300000  1.0 -0.0577939869
C  C294  1  0.61590000  0.50620000  0.66870000  1.0 -0.0105220501
C  C295  1  0.66530000  0.53130000  0.64320000  1.0 -0.0105220501
C  C296  1  0.64460000  0.48950000  0.56350000  1.0 0.0929979089
C  C297  1  0.57010000  0.41670000  0.55860000  1.0 -0.0105220501
C  C298  1  0.65050000  0.43370000  0.46300000  1.0 -0.1784645179
C  C299  1  0.76710000  0.48760000  0.59430000  1.0 -0.3309980431
C  C300  1  0.65260000  0.55170000  0.66130000  1.0 -0.0344936797
C  C301  1  0.68590000  0.60720000  0.73650000  1.0 0.0231413243
C  C302  1  0.67270000  0.58710000  0.78760000  1.0 0.0231413243
C  C303  1  0.62640000  0.51150000  0.76370000  1.0 -0.0870549429
C  C304  1  0.59300000  0.45590000  0.68850000  1.0 -0.0870549429
C  C305  1  0.60620000  0.47610000  0.63730000  1.0 -0.0034261289
C  C306  1  0.70510000  0.64740000  0.86830000  1.0 0.3131167877
C  C307  1  0.27280000  0.14650000  0.94410000  1.0 0.3131167877
C  C308  1  0.29440000  0.08820000  0.90940000  1.0 0.0450114746
C  C309  1  0.24510000  0.01340000  0.88510000  1.0 -0.1741301584
C  C310  1  0.36390000  0.10790000  0.91200000  1.0 0.0356103959
C  C311  1  0.26520000  0.95820000  0.86340000  1.0 -0.0577939869
C  C312  1  0.38410000  0.05280000  0.89030000  1.0 -0.0105220501
C  C313  1  0.33470000  0.97790000  0.86600000  1.0 -0.0105220501
C  C314  1  0.35540000  0.91890000  0.84490000  1.0 0.0929979089
C  C315  1  0.42990000  0.98850000  0.84660000  1.0 -0.0105220501
C  C316  1  0.34950000  0.81250000  0.78320000  1.0 -0.1784645179
C  C317  1  0.23290000  0.82720000  0.72050000  1.0 -0.3309980431
C  C318  1  0.34740000  0.00870000  0.89910000  1.0 -0.0344936797
C  C319  1  0.31410000  0.05060000  0.92130000  1.0 0.0231413243
C  C320  1  0.32730000  0.11490000  0.91440000  1.0 0.0231413243
C  C321  1  0.37360000  0.13730000  0.88510000  1.0 -0.0870549429
C  C322  1  0.40700000  0.09550000  0.86290000  1.0 -0.0870549429
C  C323  1  0.39380000  0.03110000  0.86990000  1.0 -0.0034261289
C  C324  1  0.29490000  0.16320000  0.94230000  1.0 0.3131167877
C  C325  1  0.20240000  0.32870000  0.05590000  1.0 0.3131167877
C  C326  1  0.17880000  0.38500000  0.09060000  1.0 0.0450114746
C  C327  1  0.12830000  0.36000000  0.11490000  1.0 -0.1741301584
C  C328  1  0.19590000  0.45190000  0.08800000  1.0 0.0356103959
C  C329  1  0.09480000  0.40180000  0.13660000  1.0 -0.0577939869
C  C330  1  0.16250000  0.49380000  0.10970000  1.0 -0.0105220501
C  C331  1  0.11190000  0.46870000  0.13400000  1.0 -0.0105220501
C  C332  1  0.07400000  0.51050000  0.15510000  1.0 0.0929979089
C  C333  1  0.14190000  0.58330000  0.15340000  1.0 -0.0105220501
C  C334  1  0.02930000  0.56630000  0.21680000  1.0 -0.1784645179
C  C335  1  0.10670000  0.51240000  0.27950000  1.0 -0.3309980431
C  C336  1  0.10960000  0.44830000  0.10090000  1.0 -0.0344936797
C  C337  1  0.12930000  0.39280000  0.07870000  1.0 0.0231413243
C  C338  1  0.20050000  0.41290000  0.08560000  1.0 0.0231413243
C  C339  1  0.25220000  0.48850000  0.11490000  1.0 -0.0870549429
C  C340  1  0.23260000  0.54410000  0.13710000  1.0 -0.0870549429
C  C341  1  0.16120000  0.52390000  0.13010000  1.0 -0.0034261289
C  C342  1  0.22090000  0.35260000  0.05770000  1.0 0.3131167877
C  C343  1  0.79760000  0.85350000  0.12630000  1.0 0.3131167877
C  C344  1  0.82120000  0.91180000  0.20620000  1.0 0.0450114746
C  C345  1  0.87170000  0.98660000  0.23170000  1.0 -0.1741301584
C  C346  1  0.80410000  0.89210000  0.25600000  1.0 0.0356103959
C  C347  1  0.90520000  0.04180000  0.30700000  1.0 -0.0577939869
C  C348  1  0.83750000  0.94720000  0.33130000  1.0 -0.0105220501
C  C349  1  0.88810000  0.02210000  0.35680000  1.0 -0.0105220501
C  C350  1  0.92600000  0.08110000  0.43650000  1.0 0.0929979089
C  C351  1  0.85810000  0.01150000  0.44140000  1.0 -0.0105220501
C  C352  1  0.97070000  0.18750000  0.53700000  1.0 -0.1784645179
C  C353  1  0.89330000  0.17280000  0.40570000  1.0 -0.3309980431
C  C354  1  0.89040000  0.99130000  0.33870000  1.0 -0.0344936797
C  C355  1  0.87070000  0.94940000  0.26350000  1.0 0.0231413243
C  C356  1  0.79950000  0.88510000  0.21240000  1.0 0.0231413243
C  C357  1  0.74780000  0.86270000  0.23630000  1.0 -0.0870549429
C  C358  1  0.76740000  0.90450000  0.31150000  1.0 -0.0870549429
C  C359  1  0.83880000  0.96890000  0.36270000  1.0 -0.0034261289
C  C360  1  0.77910000  0.83680000  0.13170000  1.0 0.3131167877
C  C361  1  0.32870000  0.05590000  0.20240000  1.0 0.3131167877
C  C362  1  0.38500000  0.09060000  0.17880000  1.0 0.0450114746
C  C363  1  0.36000000  0.11490000  0.12830000  1.0 -0.1741301584
C  C364  1  0.45190000  0.08800000  0.19590000  1.0 0.0356103959
C  C365  1  0.40180000  0.13660000  0.09480000  1.0 -0.0577939869
C  C366  1  0.49380000  0.10970000  0.16250000  1.0 -0.0105220501
C  C367  1  0.46870000  0.13400000  0.11190000  1.0 -0.0105220501
C  C368  1  0.51050000  0.15510000  0.07400000  1.0 0.0929979089
C  C369  1  0.58330000  0.15340000  0.14190000  1.0 -0.0105220501
C  C370  1  0.56630000  0.21680000  0.02930000  1.0 -0.1784645179
C  C371  1  0.51240000  0.27950000  0.10670000  1.0 -0.3309980431
C  C372  1  0.44830000  0.10090000  0.10960000  1.0 -0.0344936797
C  C373  1  0.39280000  0.07870000  0.12930000  1.0 0.0231413243
C  C374  1  0.41290000  0.08560000  0.20050000  1.0 0.0231413243
C  C375  1  0.48850000  0.11490000  0.25220000  1.0 -0.0870549429
C  C376  1  0.54410000  0.13710000  0.23260000  1.0 -0.0870549429
C  C377  1  0.52390000  0.13010000  0.16120000  1.0 -0.0034261289
C  C378  1  0.35260000  0.05770000  0.22090000  1.0 0.3131167877
C  C379  1  0.85350000  0.12630000  0.79760000  1.0 0.3131167877
C  C380  1  0.91180000  0.20620000  0.82120000  1.0 0.0450114746
C  C381  1  0.98660000  0.23170000  0.87170000  1.0 -0.1741301584
C  C382  1  0.89210000  0.25600000  0.80410000  1.0 0.0356103959
C  C383  1  0.04180000  0.30700000  0.90520000  1.0 -0.0577939869
C  C384  1  0.94720000  0.33130000  0.83750000  1.0 -0.0105220501
C  C385  1  0.02210000  0.35680000  0.88810000  1.0 -0.0105220501
C  C386  1  0.08110000  0.43650000  0.92600000  1.0 0.0929979089
C  C387  1  0.01150000  0.44140000  0.85810000  1.0 -0.0105220501
C  C388  1  0.18750000  0.53700000  0.97070000  1.0 -0.1784645179
C  C389  1  0.17280000  0.40570000  0.89330000  1.0 -0.3309980431
C  C390  1  0.99130000  0.33870000  0.89040000  1.0 -0.0344936797
C  C391  1  0.94940000  0.26350000  0.87070000  1.0 0.0231413243
C  C392  1  0.88510000  0.21240000  0.79950000  1.0 0.0231413243
C  C393  1  0.86270000  0.23630000  0.74780000  1.0 -0.0870549429
C  C394  1  0.90450000  0.31150000  0.76740000  1.0 -0.0870549429
C  C395  1  0.96890000  0.36270000  0.83880000  1.0 -0.0034261289
C  C396  1  0.83680000  0.13170000  0.77910000  1.0 0.3131167877
C  C397  1  0.67130000  0.87370000  0.72720000  1.0 0.3131167877
C  C398  1  0.61500000  0.79380000  0.70560000  1.0 0.0450114746
C  C399  1  0.64000000  0.76830000  0.75490000  1.0 -0.1741301584
C  C400  1  0.54810000  0.74400000  0.63610000  1.0 0.0356103959
C  C401  1  0.59820000  0.69300000  0.73480000  1.0 -0.0577939869
C  C402  1  0.50620000  0.66870000  0.61590000  1.0 -0.0105220501
C  C403  1  0.53130000  0.64320000  0.66530000  1.0 -0.0105220501
C  C404  1  0.48950000  0.56350000  0.64460000  1.0 0.0929979089
C  C405  1  0.41670000  0.55860000  0.57010000  1.0 -0.0105220501
C  C406  1  0.43370000  0.46300000  0.65050000  1.0 -0.1784645179
C  C407  1  0.48760000  0.59430000  0.76710000  1.0 -0.3309980431
C  C408  1  0.55170000  0.66130000  0.65260000  1.0 -0.0344936797
C  C409  1  0.60720000  0.73650000  0.68590000  1.0 0.0231413243
C  C410  1  0.58710000  0.78760000  0.67270000  1.0 0.0231413243
C  C411  1  0.51150000  0.76370000  0.62640000  1.0 -0.0870549429
C  C412  1  0.45590000  0.68850000  0.59300000  1.0 -0.0870549429
C  C413  1  0.47610000  0.63730000  0.60620000  1.0 -0.0034261289
C  C414  1  0.64740000  0.86830000  0.70510000  1.0 0.3131167877
C  C415  1  0.14650000  0.94410000  0.27280000  1.0 0.3131167877
C  C416  1  0.08820000  0.90940000  0.29440000  1.0 0.0450114746
C  C417  1  0.01340000  0.88510000  0.24510000  1.0 -0.1741301584
C  C418  1  0.10790000  0.91200000  0.36390000  1.0 0.0356103959
C  C419  1  0.95820000  0.86340000  0.26520000  1.0 -0.0577939869
C  C420  1  0.05280000  0.89030000  0.38410000  1.0 -0.0105220501
C  C421  1  0.97790000  0.86600000  0.33470000  1.0 -0.0105220501
C  C422  1  0.91890000  0.84490000  0.35540000  1.0 0.0929979089
C  C423  1  0.98850000  0.84660000  0.42990000  1.0 -0.0105220501
C  C424  1  0.81250000  0.78320000  0.34950000  1.0 -0.1784645179
C  C425  1  0.82720000  0.72050000  0.23290000  1.0 -0.3309980431
C  C426  1  0.00870000  0.89910000  0.34740000  1.0 -0.0344936797
C  C427  1  0.05060000  0.92130000  0.31410000  1.0 0.0231413243
C  C428  1  0.11490000  0.91440000  0.32730000  1.0 0.0231413243
C  C429  1  0.13730000  0.88510000  0.37360000  1.0 -0.0870549429
C  C430  1  0.09550000  0.86290000  0.40700000  1.0 -0.0870549429
C  C431  1  0.03110000  0.86990000  0.39380000  1.0 -0.0034261289
C  C432  1  0.16320000  0.94230000  0.29490000  1.0 0.3131167877
N  N1  1  0.14830000  0.69030000  0.21860000  1.0 -0.1469518572
N  N2  1  0.07560000  0.57830000  0.11470000  1.0 -0.130302404
N  N3  1  0.52830000  0.30970000  0.45800000  1.0 -0.1469518572
N  N4  1  0.53640000  0.42170000  0.49730000  1.0 -0.130302404
N  N5  1  0.85170000  0.07030000  0.54200000  1.0 -0.1469518572
N  N6  1  0.92440000  0.03910000  0.50270000  1.0 -0.130302404
N  N7  1  0.47170000  0.92970000  0.78140000  1.0 -0.1469518572
N  N8  1  0.46360000  0.96090000  0.88530000  1.0 -0.130302404
N  N9  1  0.45800000  0.52830000  0.30970000  1.0 -0.1469518572
N  N10  1  0.49730000  0.53640000  0.42170000  1.0 -0.130302404
N  N11  1  0.21860000  0.14830000  0.69030000  1.0 -0.1469518572
N  N12  1  0.11470000  0.07560000  0.57830000  1.0 -0.130302404
N  N13  1  0.78140000  0.47170000  0.92970000  1.0 -0.1469518572
N  N14  1  0.88530000  0.46360000  0.96090000  1.0 -0.130302404
N  N15  1  0.54200000  0.85170000  0.07030000  1.0 -0.1469518572
N  N16  1  0.50270000  0.92440000  0.03910000  1.0 -0.130302404
N  N17  1  0.92970000  0.78140000  0.47170000  1.0 -0.1469518572
N  N18  1  0.96090000  0.88530000  0.46360000  1.0 -0.130302404
N  N19  1  0.07030000  0.54200000  0.85170000  1.0 -0.1469518572
N  N20  1  0.03910000  0.50270000  0.92440000  1.0 -0.130302404
N  N21  1  0.30970000  0.45800000  0.52830000  1.0 -0.1469518572
N  N22  1  0.42170000  0.49730000  0.53640000  1.0 -0.130302404
N  N23  1  0.69030000  0.21860000  0.14830000  1.0 -0.1469518572
N  N24  1  0.57830000  0.11470000  0.07560000  1.0 -0.130302404
N  N25  1  0.78140000  0.30970000  0.85170000  1.0 -0.1469518572
N  N26  1  0.88530000  0.42170000  0.92440000  1.0 -0.130302404
N  N27  1  0.54200000  0.69030000  0.47170000  1.0 -0.1469518572
N  N28  1  0.50270000  0.57830000  0.46360000  1.0 -0.130302404
N  N29  1  0.45800000  0.92970000  0.14830000  1.0 -0.1469518572
N  N30  1  0.49730000  0.96090000  0.07560000  1.0 -0.130302404
N  N31  1  0.21860000  0.07030000  0.52830000  1.0 -0.1469518572
N  N32  1  0.11470000  0.03910000  0.53640000  1.0 -0.130302404
N  N33  1  0.69030000  0.47170000  0.54200000  1.0 -0.1469518572
N  N34  1  0.57830000  0.46360000  0.50270000  1.0 -0.130302404
N  N35  1  0.30970000  0.85170000  0.78140000  1.0 -0.1469518572
N  N36  1  0.42170000  0.92440000  0.88530000  1.0 -0.130302404
N  N37  1  0.07030000  0.52830000  0.21860000  1.0 -0.1469518572
N  N38  1  0.03910000  0.53640000  0.11470000  1.0 -0.130302404
N  N39  1  0.92970000  0.14830000  0.45800000  1.0 -0.1469518572
N  N40  1  0.96090000  0.07560000  0.49730000  1.0 -0.130302404
N  N41  1  0.52830000  0.21860000  0.07030000  1.0 -0.1469518572
N  N42  1  0.53640000  0.11470000  0.03910000  1.0 -0.130302404
N  N43  1  0.14830000  0.45800000  0.92970000  1.0 -0.1469518572
N  N44  1  0.07560000  0.49730000  0.96090000  1.0 -0.130302404
N  N45  1  0.47170000  0.54200000  0.69030000  1.0 -0.1469518572
N  N46  1  0.46360000  0.50270000  0.57830000  1.0 -0.130302404
N  N47  1  0.85170000  0.78140000  0.30970000  1.0 -0.1469518572
N  N48  1  0.92440000  0.88530000  0.42170000  1.0 -0.130302404
Cl  Cl1  1  0.00000000  0.17500000  0.00000000  1.0 -0.401959629
Cl  Cl2  1  0.82500000  0.82500000  0.82500000  1.0 -0.401959629
Cl  Cl3  1  0.17500000  0.00000000  0.00000000  1.0 -0.401959629
Cl  Cl4  1  0.00000000  0.00000000  0.17500000  1.0 -0.401959629
Cl  Cl5  1  0.00000000  0.82500000  0.00000000  1.0 -0.401959629
Cl  Cl6  1  0.17500000  0.17500000  0.17500000  1.0 -0.401959629
Cl  Cl7  1  0.00000000  0.00000000  0.82500000  1.0 -0.401959629
Cl  Cl8  1  0.82500000  0.00000000  0.00000000  1.0 -0.401959629
O  O1  1  0.87040000  0.76040000  0.04360000  1.0 -0.1784645179
O  O2  1  0.78730000  0.67990000  0.04760000  1.0 -0.3235864763
O  O3  1  0.86550000  0.77710000  0.04280000  1.0 -0.2211818688
O  O4  1  0.77350000  0.68140000  0.04750000  1.0 -0.3774883423
O  O5  1  0.28320000  0.23960000  0.11000000  1.0 -0.1741301584
O  O6  1  0.36770000  0.32010000  0.10740000  1.0 -0.3235864763
O  O7  1  0.26570000  0.22290000  0.08840000  1.0 -0.2211818688
O  O8  1  0.36610000  0.31860000  0.09210000  1.0 -0.3774883423
O  O9  1  0.12960000  0.17320000  0.89000000  1.0 -0.1741301584
O  O10  1  0.21270000  0.26030000  0.89260000  1.0 -0.3235864763
O  O11  1  0.13450000  0.17730000  0.91160000  1.0 -0.2211818688
O  O12  1  0.22650000  0.27400000  0.90790000  1.0 -0.3774883423
O  O13  1  0.71680000  0.82680000  0.95640000  1.0 -0.1784645179
O  O14  1  0.63230000  0.73970000  0.95240000  1.0 -0.3235864763
O  O15  1  0.73430000  0.82270000  0.95720000  1.0 -0.2211818688
O  O16  1  0.63390000  0.72600000  0.95250000  1.0 -0.3774883423
O  O17  1  0.11000000  0.28320000  0.23960000  1.0 -0.1741301584
O  O18  1  0.10740000  0.36770000  0.32010000  1.0 -0.3235864763
O  O19  1  0.08840000  0.26570000  0.22290000  1.0 -0.2211818688
O  O20  1  0.09210000  0.36610000  0.31860000  1.0 -0.3774883423
O  O21  1  0.04360000  0.87040000  0.76040000  1.0 -0.1741301584
O  O22  1  0.04760000  0.78730000  0.67990000  1.0 -0.3235864763
O  O23  1  0.04280000  0.86550000  0.77710000  1.0 -0.2211818688
O  O24  1  0.04750000  0.77350000  0.68140000  1.0 -0.3774883423
O  O25  1  0.95640000  0.71680000  0.82680000  1.0 -0.1784645179
O  O26  1  0.95240000  0.63230000  0.73970000  1.0 -0.3235864763
O  O27  1  0.95720000  0.73430000  0.82270000  1.0 -0.2211818688
O  O28  1  0.95250000  0.63390000  0.72600000  1.0 -0.3774883423
O  O29  1  0.89000000  0.12960000  0.17320000  1.0 -0.1741301584
O  O30  1  0.89260000  0.21270000  0.26030000  1.0 -0.3235864763
O  O31  1  0.91160000  0.13450000  0.17730000  1.0 -0.2211818688
O  O32  1  0.90790000  0.22650000  0.27400000  1.0 -0.3774883423
O  O33  1  0.82680000  0.95640000  0.71680000  1.0 -0.1784645179
O  O34  1  0.73970000  0.95240000  0.63230000  1.0 -0.3235864763
O  O35  1  0.82270000  0.95720000  0.73430000  1.0 -0.2211818688
O  O36  1  0.72600000  0.95250000  0.63390000  1.0 -0.3774883423
O  O37  1  0.17320000  0.89000000  0.12960000  1.0 -0.1784645179
O  O38  1  0.26030000  0.89260000  0.21270000  1.0 -0.3235864763
O  O39  1  0.17730000  0.91160000  0.13450000  1.0 -0.2211818688
O  O40  1  0.27400000  0.90790000  0.22650000  1.0 -0.3774883423
O  O41  1  0.23960000  0.11000000  0.28320000  1.0 -0.1741301584
O  O42  1  0.32010000  0.10740000  0.36770000  1.0 -0.3235864763
O  O43  1  0.22290000  0.08840000  0.26570000  1.0 -0.2211818688
O  O44  1  0.31860000  0.09210000  0.36610000  1.0 -0.3774883423
O  O45  1  0.76040000  0.04360000  0.87040000  1.0 -0.1741301584
O  O46  1  0.67990000  0.04760000  0.78730000  1.0 -0.3235864763
O  O47  1  0.77710000  0.04280000  0.86550000  1.0 -0.2211818688
O  O48  1  0.68140000  0.04750000  0.77350000  1.0 -0.3774883423
O  O49  1  0.95640000  0.23960000  0.12960000  1.0 -0.1741301584
O  O50  1  0.95240000  0.32010000  0.21270000  1.0 -0.3235864763
O  O51  1  0.95720000  0.22290000  0.13450000  1.0 -0.2211818688
O  O52  1  0.95250000  0.31860000  0.22650000  1.0 -0.3774883423
O  O53  1  0.89000000  0.76040000  0.71680000  1.0 -0.1784645179
O  O54  1  0.89260000  0.67990000  0.63230000  1.0 -0.3235864763
O  O55  1  0.91160000  0.77710000  0.73430000  1.0 -0.2211818688
O  O56  1  0.90790000  0.68140000  0.63390000  1.0 -0.3774883423
O  O57  1  0.11000000  0.82680000  0.87040000  1.0 -0.1741301584
O  O58  1  0.10740000  0.73970000  0.78730000  1.0 -0.3235864763
O  O59  1  0.08840000  0.82270000  0.86550000  1.0 -0.2211818688
O  O60  1  0.09210000  0.72600000  0.77350000  1.0 -0.3774883423
O  O61  1  0.04360000  0.17320000  0.28320000  1.0 -0.1741301584
O  O62  1  0.04760000  0.26030000  0.36770000  1.0 -0.3235864763
O  O63  1  0.04280000  0.17730000  0.26570000  1.0 -0.2211818688
O  O64  1  0.04750000  0.27400000  0.36610000  1.0 -0.3774883423
O  O65  1  0.76040000  0.71680000  0.89000000  1.0 -0.1784645179
O  O66  1  0.67990000  0.63230000  0.89260000  1.0 -0.3235864763
O  O67  1  0.77710000  0.73430000  0.91160000  1.0 -0.2211818688
O  O68  1  0.68140000  0.63390000  0.90790000  1.0 -0.3774883423
O  O69  1  0.23960000  0.12960000  0.95640000  1.0 -0.1741301584
O  O70  1  0.32010000  0.21270000  0.95240000  1.0 -0.3235864763
O  O71  1  0.22290000  0.13450000  0.95720000  1.0 -0.2211818688
O  O72  1  0.31860000  0.22650000  0.95250000  1.0 -0.3774883423
O  O73  1  0.17320000  0.28320000  0.04360000  1.0 -0.1741301584
O  O74  1  0.26030000  0.36770000  0.04760000  1.0 -0.3235864763
O  O75  1  0.17730000  0.26570000  0.04280000  1.0 -0.2211818688
O  O76  1  0.27400000  0.36610000  0.04750000  1.0 -0.3774883423
O  O77  1  0.82680000  0.87040000  0.11000000  1.0 -0.1784645179
O  O78  1  0.73970000  0.78730000  0.10740000  1.0 -0.3235864763
O  O79  1  0.82270000  0.86550000  0.08840000  1.0 -0.2211818688
O  O80  1  0.72600000  0.77350000  0.09210000  1.0 -0.3774883423
O  O81  1  0.28320000  0.04360000  0.17320000  1.0 -0.1741301584
O  O82  1  0.36770000  0.04760000  0.26030000  1.0 -0.3235864763
O  O83  1  0.26570000  0.04280000  0.17730000  1.0 -0.2211818688
O  O84  1  0.36610000  0.04750000  0.27400000  1.0 -0.3774883423
O  O85  1  0.87040000  0.11000000  0.82680000  1.0 -0.1741301584
O  O86  1  0.78730000  0.10740000  0.73970000  1.0 -0.3235864763
O  O87  1  0.86550000  0.08840000  0.82270000  1.0 -0.2211818688
O  O88  1  0.77350000  0.09210000  0.72600000  1.0 -0.3774883423
O  O89  1  0.71680000  0.89000000  0.76040000  1.0 -0.1784645179
O  O90  1  0.63230000  0.89260000  0.67990000  1.0 -0.3235864763
O  O91  1  0.73430000  0.91160000  0.77710000  1.0 -0.2211818688
O  O92  1  0.63390000  0.90790000  0.68140000  1.0 -0.3774883423
O  O93  1  0.12960000  0.95640000  0.23960000  1.0 -0.1784645179
O  O94  1  0.21270000  0.95240000  0.32010000  1.0 -0.3235864763
O  O95  1  0.13450000  0.95720000  0.22290000  1.0 -0.2211818688
O  O96  1  0.22650000  0.95250000  0.31860000  1.0 -0.3774883423
O  O97  1  0.89120000  0.89120000  0.00000000  1.0 0.1407488983
O  O98  1  0.61400000  0.61400000  0.00000000  1.0 -0.0034261289
O  O99  1  0.10880000  0.10880000  0.00000000  1.0 0.1407488983
O  O100  1  0.38600000  0.38600000  0.00000000  1.0 -0.0034261289
O  O101  1  0.00000000  0.10880000  0.10880000  1.0 0.1407488983
O  O102  1  0.00000000  0.38600000  0.38600000  1.0 -0.0034261289
O  O103  1  0.00000000  0.89120000  0.89120000  1.0 0.1407488983
O  O104  1  0.00000000  0.61400000  0.61400000  1.0 -0.0034261289
O  O105  1  0.89120000  0.00000000  0.89120000  1.0 0.1407488983
O  O106  1  0.61400000  0.00000000  0.61400000  1.0 -0.0034261289
O  O107  1  0.10880000  0.00000000  0.10880000  1.0 0.1407488983
O  O108  1  0.38600000  0.00000000  0.38600000  1.0 0.0019895535
