# DDEC6 charges by PACMAN v1.1 (https://github.com/mtap-research/PACMAN-charge/)
data_DEWQUS_ASR_pacman
_symmetry_space_group_name_H-M   'P 1'
_cell_length_a   16.01700000
_cell_length_b   22.90200000
_cell_length_c   27.64400000
_cell_angle_alpha   90.00000000
_cell_angle_beta   90.00000000
_cell_angle_gamma   90.00000000
_symmetry_Int_Tables_number   1
_chemical_formula_structural   Co3Mo12P8H16C20(N2O25)2
_chemical_formula_sum   'Co12 Mo48 P32 H64 C80 N16 O200'
_cell_volume   10140.40895710
_cell_formula_units_Z   4
loop_
 _symmetry_equiv_pos_site_id
 _symmetry_equiv_pos_as_xyz
  1  'x, y, z'
loop_
 _atom_site_type_symbol
 _atom_site_label
 _atom_site_symmetry_multiplicity
 _atom_site_fract_x
 _atom_site_fract_y
 _atom_site_fract_z
 _atom_site_occupancy
 _atom_site_charge
Co  Co1  1  0.00000000  0.50000000  0.00000000  1.0 1.3430378236
Co  Co2  1  0.50000000  0.50000000  0.50000000  1.0 1.3430378236
Co  Co3  1  0.50000000  0.00000000  0.00000000  1.0 1.3454628187
Co  Co4  1  0.00000000  0.00000000  0.50000000  1.0 1.3430378236
Co  Co5  1  0.75000000  0.65730000  0.75000000  1.0 0.8517014133
Co  Co6  1  0.25000000  0.84270000  0.25000000  1.0 0.8517014133
Co  Co7  1  0.25000000  0.34270000  0.25000000  1.0 0.8517014133
Co  Co8  1  0.75000000  0.15730000  0.75000000  1.0 0.8517014133
Co  Co9  1  0.75000000  0.66653000  0.25000000  1.0 0.8691195743
Co  Co10  1  0.25000000  0.83347000  0.75000000  1.0 0.8691195743
Co  Co11  1  0.25000000  0.33347000  0.75000000  1.0 0.8691195743
Co  Co12  1  0.75000000  0.16653000  0.25000000  1.0 0.8691195743
Mo  Mo1  1  0.79852000  0.56185000  0.04938000  1.0 1.9503916698
Mo  Mo2  1  0.70148000  0.56185000  0.45062000  1.0 1.9503916698
Mo  Mo3  1  0.29852000  0.93815000  0.95062000  1.0 1.9430441158
Mo  Mo4  1  0.20148000  0.93815000  0.54938000  1.0 1.9430441158
Mo  Mo5  1  0.20148000  0.43815000  0.95062000  1.0 1.9430441158
Mo  Mo6  1  0.29852000  0.43815000  0.54938000  1.0 1.9430441158
Mo  Mo7  1  0.70148000  0.06185000  0.04938000  1.0 1.9503916698
Mo  Mo8  1  0.79852000  0.06185000  0.45062000  1.0 1.9503916698
Mo  Mo9  1  0.98202000  0.60343000  0.10986000  1.0 1.8278264003
Mo  Mo10  1  0.51798000  0.60343000  0.39014000  1.0 1.8278264003
Mo  Mo11  1  0.48202000  0.89657000  0.89014000  1.0 1.8278264003
Mo  Mo12  1  0.01798000  0.89657000  0.60986000  1.0 1.8221426206
Mo  Mo13  1  0.01798000  0.39657000  0.89014000  1.0 1.8221426206
Mo  Mo14  1  0.48202000  0.39657000  0.60986000  1.0 1.8278264003
Mo  Mo15  1  0.51798000  0.10343000  0.10986000  1.0 1.8278264003
Mo  Mo16  1  0.98202000  0.10343000  0.39014000  1.0 1.8278264003
Mo  Mo17  1  0.11389000  0.62986000  0.06009000  1.0 1.8870692581
Mo  Mo18  1  0.38611000  0.62986000  0.43991000  1.0 1.8870692581
Mo  Mo19  1  0.61389000  0.87014000  0.93991000  1.0 1.8870692581
Mo  Mo20  1  0.88611000  0.87014000  0.56009000  1.0 1.8870692581
Mo  Mo21  1  0.88611000  0.37014000  0.93991000  1.0 1.8870692581
Mo  Mo22  1  0.61389000  0.37014000  0.56009000  1.0 1.8870692581
Mo  Mo23  1  0.38611000  0.12986000  0.06009000  1.0 1.8870692581
Mo  Mo24  1  0.11389000  0.12986000  0.43991000  1.0 1.8870692581
Mo  Mo25  1  0.10497000  0.62563000  0.93293000  1.0 1.8829618207
Mo  Mo26  1  0.39503000  0.62563000  0.56707000  1.0 1.8829618207
Mo  Mo27  1  0.60497000  0.87437000  0.06707000  1.0 1.8829618207
Mo  Mo28  1  0.89503000  0.87437000  0.43293000  1.0 1.8829618207
Mo  Mo29  1  0.89503000  0.37437000  0.06707000  1.0 1.8870692581
Mo  Mo30  1  0.60497000  0.37437000  0.43293000  1.0 1.8829618207
Mo  Mo31  1  0.39503000  0.12563000  0.93293000  1.0 1.8829618207
Mo  Mo32  1  0.10497000  0.12563000  0.56707000  1.0 1.8829618207
Mo  Mo33  1  0.96858000  0.59630000  0.88906000  1.0 1.8465170659
Mo  Mo34  1  0.53142000  0.59630000  0.61094000  1.0 1.8465170659
Mo  Mo35  1  0.46858000  0.90370000  0.11094000  1.0 1.8465170659
Mo  Mo36  1  0.03142000  0.90370000  0.38906000  1.0 1.8427390652
Mo  Mo37  1  0.03142000  0.40370000  0.11094000  1.0 1.8427390652
Mo  Mo38  1  0.46858000  0.40370000  0.38906000  1.0 1.8465170659
Mo  Mo39  1  0.53142000  0.09630000  0.88906000  1.0 1.8465170659
Mo  Mo40  1  0.96858000  0.09630000  0.61094000  1.0 1.8465170659
Mo  Mo41  1  0.79220000  0.55730000  0.95568000  1.0 1.9556393819
Mo  Mo42  1  0.70780000  0.55730000  0.54432000  1.0 1.9503916698
Mo  Mo43  1  0.29220000  0.94270000  0.04432000  1.0 1.9503916698
Mo  Mo44  1  0.20780000  0.94270000  0.45568000  1.0 1.9503916698
Mo  Mo45  1  0.20780000  0.44270000  0.04432000  1.0 1.9503916698
Mo  Mo46  1  0.29220000  0.44270000  0.45568000  1.0 1.9503916698
Mo  Mo47  1  0.70780000  0.05730000  0.95568000  1.0 1.9556393819
Mo  Mo48  1  0.79220000  0.05730000  0.54432000  1.0 1.9556393819
P  P1  1  0.18806000  0.73753000  0.99126000  1.0 1.4516513543
P  P2  1  0.31194000  0.73753000  0.50874000  1.0 1.4516513543
P  P3  1  0.68806000  0.76247000  0.00874000  1.0 1.4516513543
P  P4  1  0.81194000  0.76247000  0.49126000  1.0 1.4516513543
P  P5  1  0.81194000  0.26247000  0.00874000  1.0 1.4516513543
P  P6  1  0.68806000  0.26247000  0.49126000  1.0 1.4516513543
P  P7  1  0.31194000  0.23753000  0.99126000  1.0 1.4516513543
P  P8  1  0.18806000  0.23753000  0.50874000  1.0 1.4516513543
P  P9  1  0.78090000  0.65649000  0.86867000  1.0 1.4995396532
P  P10  1  0.71910000  0.65649000  0.63133000  1.0 1.4995396532
P  P11  1  0.28090000  0.84351000  0.13133000  1.0 1.4995396532
P  P12  1  0.21910000  0.84351000  0.36867000  1.0 1.4995396532
P  P13  1  0.21910000  0.34351000  0.13133000  1.0 1.4995396532
P  P14  1  0.28090000  0.34351000  0.36867000  1.0 1.4995396532
P  P15  1  0.71910000  0.15649000  0.86867000  1.0 1.4995396532
P  P16  1  0.78090000  0.15649000  0.63133000  1.0 1.4995396532
P  P17  1  0.79691000  0.66524000  0.13316000  1.0 1.4995396532
P  P18  1  0.70309000  0.66524000  0.36684000  1.0 1.4995396532
P  P19  1  0.29691000  0.83476000  0.86684000  1.0 1.5069989162
P  P20  1  0.20309000  0.83476000  0.63316000  1.0 1.5069989162
P  P21  1  0.20309000  0.33476000  0.86684000  1.0 1.5069989162
P  P22  1  0.29691000  0.33476000  0.63316000  1.0 1.5069989162
P  P23  1  0.70309000  0.16524000  0.13316000  1.0 1.4995396532
P  P24  1  0.79691000  0.16524000  0.36684000  1.0 1.4995396532
P  P25  1  0.93374000  0.65993000  0.99790000  1.0 1.5473441422
P  P26  1  0.56626000  0.65993000  0.50210000  1.0 1.5473441422
P  P27  1  0.43374000  0.84007000  0.00210000  1.0 1.5441504913
P  P28  1  0.06626000  0.84007000  0.49790000  1.0 1.5473441422
P  P29  1  0.06626000  0.34007000  0.00210000  1.0 1.5473441422
P  P30  1  0.43374000  0.34007000  0.49790000  1.0 1.5473441422
P  P31  1  0.56626000  0.15993000  0.99790000  1.0 1.5473441422
P  P32  1  0.93374000  0.15993000  0.50210000  1.0 1.5473441422
H  H1  1  0.66060000  0.76140000  0.79700000  1.0 0.1556546288
H  H2  1  0.83940000  0.76140000  0.70300000  1.0 0.1556546288
H  H3  1  0.16060000  0.73860000  0.20300000  1.0 0.1556546288
H  H4  1  0.33940000  0.73860000  0.29700000  1.0 0.1556546288
H  H5  1  0.33940000  0.23860000  0.20300000  1.0 0.1556546288
H  H6  1  0.16060000  0.23860000  0.29700000  1.0 0.1556546288
H  H7  1  0.83940000  0.26140000  0.79700000  1.0 0.1556546288
H  H8  1  0.66060000  0.26140000  0.70300000  1.0 0.1556546288
H  H9  1  0.65800000  0.86180000  0.79790000  1.0 0.1404134133
H  H10  1  0.84200000  0.86180000  0.70210000  1.0 0.1404134133
H  H11  1  0.15800000  0.63820000  0.20210000  1.0 0.1404134133
H  H12  1  0.34200000  0.63820000  0.29790000  1.0 0.1404134133
H  H13  1  0.34200000  0.13820000  0.20210000  1.0 0.1404134133
H  H14  1  0.15800000  0.13820000  0.29790000  1.0 0.1404134133
H  H15  1  0.84200000  0.36180000  0.79790000  1.0 0.1404134133
H  H16  1  0.65800000  0.36180000  0.70210000  1.0 0.1404134133
H  H17  1  0.68430000  0.05100000  0.80890000  1.0 0.1404134133
H  H18  1  0.81570000  0.05100000  0.69110000  1.0 0.1404134133
H  H19  1  0.18430000  0.44900000  0.19110000  1.0 0.1404134133
H  H20  1  0.31570000  0.44900000  0.30890000  1.0 0.1404134133
H  H21  1  0.31570000  0.94900000  0.19110000  1.0 0.1404134133
H  H22  1  0.18430000  0.94900000  0.30890000  1.0 0.1404134133
H  H23  1  0.81570000  0.55100000  0.80890000  1.0 0.1404134133
H  H24  1  0.68430000  0.55100000  0.69110000  1.0 0.1404134133
H  H25  1  0.68260000  0.95180000  0.81090000  1.0 0.1526345276
H  H26  1  0.81740000  0.95180000  0.68910000  1.0 0.1526345276
H  H27  1  0.18260000  0.54820000  0.18910000  1.0 0.1526345276
H  H28  1  0.31740000  0.54820000  0.31090000  1.0 0.1526345276
H  H29  1  0.31740000  0.04820000  0.18910000  1.0 0.1526345276
H  H30  1  0.18260000  0.04820000  0.31090000  1.0 0.1526345276
H  H31  1  0.81740000  0.45180000  0.81090000  1.0 0.1526345276
H  H32  1  0.68260000  0.45180000  0.68910000  1.0 0.1526345276
H  H33  1  0.67810000  0.77080000  0.19380000  1.0 0.1556546288
H  H34  1  0.82190000  0.77080000  0.30620000  1.0 0.1556546288
H  H35  1  0.17810000  0.72920000  0.80620000  1.0 0.1556546288
H  H36  1  0.32190000  0.72920000  0.69380000  1.0 0.1556546288
H  H37  1  0.32190000  0.22920000  0.80620000  1.0 0.1556546288
H  H38  1  0.17810000  0.22920000  0.69380000  1.0 0.1556546288
H  H39  1  0.82190000  0.27080000  0.19380000  1.0 0.1556546288
H  H40  1  0.67810000  0.27080000  0.30620000  1.0 0.1556546288
H  H41  1  0.67410000  0.87120000  0.19330000  1.0 0.1404134133
H  H42  1  0.82590000  0.87120000  0.30670000  1.0 0.1404134133
H  H43  1  0.17410000  0.62880000  0.80670000  1.0 0.1404134133
H  H44  1  0.32590000  0.62880000  0.69330000  1.0 0.1404134133
H  H45  1  0.32590000  0.12880000  0.80670000  1.0 0.1404134133
H  H46  1  0.17410000  0.12880000  0.69330000  1.0 0.1404134133
H  H47  1  0.82590000  0.37120000  0.19330000  1.0 0.1404134133
H  H48  1  0.67410000  0.37120000  0.30670000  1.0 0.1404134133
H  H49  1  0.70650000  0.06090000  0.18510000  1.0 0.1404134133
H  H50  1  0.79350000  0.06090000  0.31490000  1.0 0.1404134133
H  H51  1  0.20650000  0.43910000  0.81490000  1.0 0.1404134133
H  H52  1  0.29350000  0.43910000  0.68510000  1.0 0.1404134133
H  H53  1  0.29350000  0.93910000  0.81490000  1.0 0.1404134133
H  H54  1  0.20650000  0.93910000  0.68510000  1.0 0.1404134133
H  H55  1  0.79350000  0.56090000  0.18510000  1.0 0.1404134133
H  H56  1  0.70650000  0.56090000  0.31490000  1.0 0.1404134133
H  H57  1  0.69930000  0.96100000  0.18390000  1.0 0.1526345276
H  H58  1  0.80070000  0.96100000  0.31610000  1.0 0.1526345276
H  H59  1  0.19930000  0.53900000  0.81610000  1.0 0.1526345276
H  H60  1  0.30070000  0.53900000  0.68390000  1.0 0.1526345276
H  H61  1  0.30070000  0.03900000  0.81610000  1.0 0.1526345276
H  H62  1  0.19930000  0.03900000  0.68390000  1.0 0.1526345276
H  H63  1  0.80070000  0.46100000  0.18390000  1.0 0.1526345276
H  H64  1  0.69930000  0.46100000  0.31610000  1.0 0.1526345276
C  C1  1  0.69770000  0.78170000  0.77740000  1.0 0.129449959
C  C2  1  0.80230000  0.78170000  0.72260000  1.0 0.129449959
C  C3  1  0.19770000  0.71830000  0.22260000  1.0 0.129449959
C  C4  1  0.30230000  0.71830000  0.27740000  1.0 0.129449959
C  C5  1  0.30230000  0.21830000  0.22260000  1.0 0.129449959
C  C6  1  0.19770000  0.21830000  0.27740000  1.0 0.129449959
C  C7  1  0.80230000  0.28170000  0.77740000  1.0 0.129449959
C  C8  1  0.69770000  0.28170000  0.72260000  1.0 0.129449959
C  C9  1  0.69600000  0.84250000  0.77820000  1.0 -0.1621993584
C  C10  1  0.80400000  0.84250000  0.72180000  1.0 -0.1621993584
C  C11  1  0.19600000  0.65750000  0.22180000  1.0 -0.1621993584
C  C12  1  0.30400000  0.65750000  0.27820000  1.0 -0.1621993584
C  C13  1  0.30400000  0.15750000  0.22180000  1.0 -0.1621993584
C  C14  1  0.19600000  0.15750000  0.27820000  1.0 -0.1621993584
C  C15  1  0.80400000  0.34250000  0.77820000  1.0 -0.1621993584
C  C16  1  0.69600000  0.34250000  0.72180000  1.0 -0.1621993584
C  C17  1  0.75000000  0.87390000  0.75000000  1.0 0.1084418995
C  C18  1  0.25000000  0.62610000  0.25000000  1.0 0.1084418995
C  C19  1  0.25000000  0.12610000  0.25000000  1.0 0.1084418995
C  C20  1  0.75000000  0.37390000  0.75000000  1.0 0.1084418995
C  C21  1  0.71170000  0.03070000  0.78440000  1.0 0.1196021118
C  C22  1  0.78830000  0.03070000  0.71560000  1.0 0.1196021118
C  C23  1  0.21170000  0.46930000  0.21560000  1.0 0.1196021118
C  C24  1  0.28830000  0.46930000  0.28440000  1.0 0.1196021118
C  C25  1  0.28830000  0.96930000  0.21560000  1.0 0.1196021118
C  C26  1  0.21170000  0.96930000  0.28440000  1.0 0.1196021118
C  C27  1  0.78830000  0.53070000  0.78440000  1.0 0.1196021118
C  C28  1  0.71170000  0.53070000  0.71560000  1.0 0.1196021118
C  C29  1  0.71020000  0.97100000  0.78590000  1.0 -0.179880009
C  C30  1  0.78980000  0.97100000  0.71410000  1.0 -0.179880009
C  C31  1  0.21020000  0.52900000  0.21410000  1.0 -0.179880009
C  C32  1  0.28980000  0.52900000  0.28590000  1.0 -0.179880009
C  C33  1  0.28980000  0.02900000  0.21410000  1.0 -0.179880009
C  C34  1  0.21020000  0.02900000  0.28590000  1.0 -0.179880009
C  C35  1  0.78980000  0.47100000  0.78590000  1.0 -0.179880009
C  C36  1  0.71020000  0.47100000  0.71410000  1.0 -0.179880009
C  C37  1  0.75000000  0.93920000  0.75000000  1.0 0.1196021118
C  C38  1  0.25000000  0.56080000  0.25000000  1.0 0.1196021118
C  C39  1  0.25000000  0.06080000  0.25000000  1.0 0.1196021118
C  C40  1  0.75000000  0.43920000  0.75000000  1.0 0.1196021118
C  C41  1  0.70770000  0.79120000  0.21730000  1.0 0.129449959
C  C42  1  0.79230000  0.79120000  0.28270000  1.0 0.129449959
C  C43  1  0.20770000  0.70880000  0.78270000  1.0 0.129449959
C  C44  1  0.29230000  0.70880000  0.71730000  1.0 0.129449959
C  C45  1  0.29230000  0.20880000  0.78270000  1.0 0.129449959
C  C46  1  0.20770000  0.20880000  0.71730000  1.0 0.129449959
C  C47  1  0.79230000  0.29120000  0.21730000  1.0 0.129449959
C  C48  1  0.70770000  0.29120000  0.28270000  1.0 0.129449959
C  C49  1  0.70570000  0.85190000  0.21650000  1.0 -0.1706553651
C  C50  1  0.79430000  0.85190000  0.28350000  1.0 -0.1706553651
C  C51  1  0.20570000  0.64810000  0.78350000  1.0 -0.1706553651
C  C52  1  0.29430000  0.64810000  0.71650000  1.0 -0.1706553651
C  C53  1  0.29430000  0.14810000  0.78350000  1.0 -0.1706553651
C  C54  1  0.20570000  0.14810000  0.71650000  1.0 -0.1706553651
C  C55  1  0.79430000  0.35190000  0.21650000  1.0 -0.1706553651
C  C56  1  0.70570000  0.35190000  0.28350000  1.0 -0.1706553651
C  C57  1  0.75000000  0.88350000  0.25000000  1.0 0.1084418995
C  C58  1  0.25000000  0.61650000  0.75000000  1.0 0.1084418995
C  C59  1  0.25000000  0.11650000  0.75000000  1.0 0.1084418995
C  C60  1  0.75000000  0.38350000  0.25000000  1.0 0.1084418995
C  C61  1  0.72390000  0.04030000  0.21240000  1.0 0.1196021118
C  C62  1  0.77610000  0.04030000  0.28760000  1.0 0.1196021118
C  C63  1  0.22390000  0.45970000  0.78760000  1.0 0.1196021118
C  C64  1  0.27610000  0.45970000  0.71240000  1.0 0.1196021118
C  C65  1  0.27610000  0.95970000  0.78760000  1.0 0.1196021118
C  C66  1  0.22390000  0.95970000  0.71240000  1.0 0.1196021118
C  C67  1  0.77610000  0.54030000  0.21240000  1.0 0.1196021118
C  C68  1  0.72390000  0.54030000  0.28760000  1.0 0.1196021118
C  C69  1  0.72080000  0.98000000  0.21090000  1.0 -0.179880009
C  C70  1  0.77920000  0.98000000  0.28910000  1.0 -0.179880009
C  C71  1  0.22080000  0.52000000  0.78910000  1.0 -0.179880009
C  C72  1  0.27920000  0.52000000  0.71090000  1.0 -0.179880009
C  C73  1  0.27920000  0.02000000  0.78910000  1.0 -0.179880009
C  C74  1  0.22080000  0.02000000  0.71090000  1.0 -0.179880009
C  C75  1  0.77920000  0.48000000  0.21090000  1.0 -0.179880009
C  C76  1  0.72080000  0.48000000  0.28910000  1.0 -0.179880009
C  C77  1  0.75000000  0.94810000  0.25000000  1.0 0.1196021118
C  C78  1  0.25000000  0.55190000  0.75000000  1.0 0.1196021118
C  C79  1  0.25000000  0.05190000  0.75000000  1.0 0.1196021118
C  C80  1  0.75000000  0.44810000  0.25000000  1.0 0.1196021118
N  N1  1  0.75000000  0.75160000  0.75000000  1.0 -0.2307763798
N  N2  1  0.25000000  0.74840000  0.25000000  1.0 -0.2307763798
N  N3  1  0.25000000  0.24840000  0.25000000  1.0 -0.2307763798
N  N4  1  0.75000000  0.25160000  0.75000000  1.0 -0.2307763798
N  N5  1  0.75000000  0.06180000  0.75000000  1.0 -0.2307763798
N  N6  1  0.25000000  0.43820000  0.25000000  1.0 -0.2307763798
N  N7  1  0.25000000  0.93820000  0.25000000  1.0 -0.2307763798
N  N8  1  0.75000000  0.56180000  0.75000000  1.0 -0.2307763798
N  N9  1  0.75000000  0.76140000  0.25000000  1.0 -0.2198256505
N  N10  1  0.25000000  0.73860000  0.75000000  1.0 -0.2198256505
N  N11  1  0.25000000  0.23860000  0.75000000  1.0 -0.2198256505
N  N12  1  0.75000000  0.26140000  0.25000000  1.0 -0.2198256505
N  N13  1  0.75000000  0.07050000  0.25000000  1.0 -0.2307763798
N  N14  1  0.25000000  0.42950000  0.75000000  1.0 -0.2307763798
N  N15  1  0.25000000  0.92950000  0.75000000  1.0 -0.2307763798
N  N16  1  0.75000000  0.57050000  0.25000000  1.0 -0.2307763798
O  O1  1  0.02450000  0.67022000  0.89618000  1.0 -0.7494603889
O  O2  1  0.47550000  0.67022000  0.60382000  1.0 -0.7494603889
O  O3  1  0.52450000  0.82978000  0.10382000  1.0 -0.7494603889
O  O4  1  0.97550000  0.82978000  0.39618000  1.0 -0.7494603889
O  O5  1  0.97550000  0.32978000  0.10382000  1.0 -0.7494603889
O  O6  1  0.52450000  0.32978000  0.39618000  1.0 -0.7494603889
O  O7  1  0.47550000  0.17022000  0.89618000  1.0 -0.7494603889
O  O8  1  0.02450000  0.17022000  0.60382000  1.0 -0.7494603889
O  O9  1  0.03270000  0.55564000  0.93999000  1.0 -0.88127081
O  O10  1  0.46730000  0.55564000  0.56001000  1.0 -0.88127081
O  O11  1  0.53270000  0.94436000  0.06001000  1.0 -0.88127081
O  O12  1  0.96730000  0.94436000  0.43999000  1.0 -0.88127081
O  O13  1  0.96730000  0.44436000  0.06001000  1.0 -0.88127081
O  O14  1  0.53270000  0.44436000  0.43999000  1.0 -0.88127081
O  O15  1  0.46730000  0.05564000  0.93999000  1.0 -0.88127081
O  O16  1  0.03270000  0.05564000  0.56001000  1.0 -0.88127081
O  O17  1  0.73970000  0.60900000  0.00193000  1.0 -0.7580717681
O  O18  1  0.76030000  0.60900000  0.49807000  1.0 -0.7580717681
O  O19  1  0.23970000  0.89100000  0.99807000  1.0 -0.7580717681
O  O20  1  0.26030000  0.89100000  0.50193000  1.0 -0.7580717681
O  O21  1  0.26030000  0.39100000  0.99807000  1.0 -0.7580717681
O  O22  1  0.23970000  0.39100000  0.50193000  1.0 -0.7580717681
O  O23  1  0.76030000  0.10900000  0.00193000  1.0 -0.7580717681
O  O24  1  0.73970000  0.10900000  0.49807000  1.0 -0.7580717681
O  O25  1  0.03690000  0.67692000  0.09734000  1.0 -0.7580717681
O  O26  1  0.46310000  0.67692000  0.40266000  1.0 -0.7580717681
O  O27  1  0.53690000  0.82308000  0.90266000  1.0 -0.7580717681
O  O28  1  0.96310000  0.82308000  0.59734000  1.0 -0.7580717681
O  O29  1  0.96310000  0.32308000  0.90266000  1.0 -0.7580717681
O  O30  1  0.53690000  0.32308000  0.59734000  1.0 -0.7580717681
O  O31  1  0.46310000  0.17692000  0.09734000  1.0 -0.7580717681
O  O32  1  0.03690000  0.17692000  0.40266000  1.0 -0.7580717681
O  O33  1  0.04010000  0.56003000  0.05796000  1.0 -0.8899111512
O  O34  1  0.45990000  0.56003000  0.44204000  1.0 -0.88127081
O  O35  1  0.54010000  0.93997000  0.94204000  1.0 -0.8899111512
O  O36  1  0.95990000  0.93997000  0.55796000  1.0 -0.88127081
O  O37  1  0.95990000  0.43997000  0.94204000  1.0 -0.8899111512
O  O38  1  0.54010000  0.43997000  0.55796000  1.0 -0.88127081
O  O39  1  0.45990000  0.06003000  0.05796000  1.0 -0.8899111512
O  O40  1  0.04010000  0.06003000  0.44204000  1.0 -0.8899111512
O  O41  1  0.87590000  0.53410000  0.90150000  1.0 -0.9266451997
O  O42  1  0.62410000  0.53410000  0.59850000  1.0 -0.9266451997
O  O43  1  0.37590000  0.96590000  0.09850000  1.0 -0.9266451997
O  O44  1  0.12410000  0.96590000  0.40150000  1.0 -0.9266451997
O  O45  1  0.12410000  0.46590000  0.09850000  1.0 -0.9266451997
O  O46  1  0.37590000  0.46590000  0.40150000  1.0 -0.9266451997
O  O47  1  0.62410000  0.03410000  0.90150000  1.0 -0.9266451997
O  O48  1  0.87590000  0.03410000  0.59850000  1.0 -0.9266451997
O  O49  1  0.02870000  0.65312000  0.99738000  1.0 -0.8899111512
O  O50  1  0.47130000  0.65312000  0.50262000  1.0 -0.88127081
O  O51  1  0.52870000  0.84688000  0.00262000  1.0 -0.88127081
O  O52  1  0.97130000  0.84688000  0.49738000  1.0 -0.88127081
O  O53  1  0.97130000  0.34688000  0.00262000  1.0 -0.88127081
O  O54  1  0.52870000  0.34688000  0.49738000  1.0 -0.88127081
O  O55  1  0.47130000  0.15312000  0.99738000  1.0 -0.8899111512
O  O56  1  0.02870000  0.15312000  0.50262000  1.0 -0.8899111512
O  O57  1  0.87270000  0.52391000  0.00206000  1.0 -0.8899111512
O  O58  1  0.62730000  0.52391000  0.49794000  1.0 -0.8899111512
O  O59  1  0.37270000  0.97609000  0.99794000  1.0 -0.8899111512
O  O60  1  0.12730000  0.97609000  0.50206000  1.0 -0.8899111512
O  O61  1  0.12730000  0.47609000  0.99794000  1.0 -0.8899111512
O  O62  1  0.37270000  0.47609000  0.50206000  1.0 -0.8899111512
O  O63  1  0.62730000  0.02391000  0.00206000  1.0 -0.8959485693
O  O64  1  0.87270000  0.02391000  0.49794000  1.0 -0.8899111512
O  O65  1  0.74510000  0.61198000  0.90399000  1.0 -0.7494603889
O  O66  1  0.75490000  0.61198000  0.59601000  1.0 -0.7494603889
O  O67  1  0.24510000  0.88802000  0.09601000  1.0 -0.7494603889
O  O68  1  0.25490000  0.88802000  0.40399000  1.0 -0.7494603889
O  O69  1  0.25490000  0.38802000  0.09601000  1.0 -0.7494603889
O  O70  1  0.24510000  0.38802000  0.40399000  1.0 -0.7494603889
O  O71  1  0.75490000  0.11198000  0.90399000  1.0 -0.7494603889
O  O72  1  0.74510000  0.11198000  0.59601000  1.0 -0.7494603889
O  O73  1  0.88770000  0.54161000  0.10107000  1.0 -0.9200242424
O  O74  1  0.61230000  0.54161000  0.39893000  1.0 -0.9200242424
O  O75  1  0.38770000  0.95839000  0.89893000  1.0 -0.9200242424
O  O76  1  0.11230000  0.95839000  0.60107000  1.0 -0.9200242424
O  O77  1  0.11230000  0.45839000  0.89893000  1.0 -0.9200242424
O  O78  1  0.38770000  0.45839000  0.60107000  1.0 -0.9200242424
O  O79  1  0.61230000  0.04161000  0.10107000  1.0 -0.9200242424
O  O80  1  0.88770000  0.04161000  0.39893000  1.0 -0.9266451997
O  O81  1  0.78020000  0.71843000  0.89384000  1.0 -0.6835956825
O  O82  1  0.71980000  0.71843000  0.60616000  1.0 -0.6835956825
O  O83  1  0.28020000  0.78157000  0.10616000  1.0 -0.6835956825
O  O84  1  0.21980000  0.78157000  0.39384000  1.0 -0.6835956825
O  O85  1  0.21980000  0.28157000  0.10616000  1.0 -0.6835956825
O  O86  1  0.28020000  0.28157000  0.39384000  1.0 -0.6835956825
O  O87  1  0.71980000  0.21843000  0.89384000  1.0 -0.6835956825
O  O88  1  0.78020000  0.21843000  0.60616000  1.0 -0.6835956825
O  O89  1  0.91740000  0.72614000  0.99370000  1.0 -0.5830195798
O  O90  1  0.58260000  0.72614000  0.50630000  1.0 -0.5830195798
O  O91  1  0.41740000  0.77386000  0.00630000  1.0 -0.5830195798
O  O92  1  0.08260000  0.77386000  0.49370000  1.0 -0.5830195798
O  O93  1  0.08260000  0.27386000  0.00630000  1.0 -0.5830195798
O  O94  1  0.41740000  0.27386000  0.49370000  1.0 -0.5830195798
O  O95  1  0.58260000  0.22614000  0.99370000  1.0 -0.5830195798
O  O96  1  0.91740000  0.22614000  0.50630000  1.0 -0.5830195798
O  O97  1  0.75740000  0.62222000  0.09760000  1.0 -0.7494603889
O  O98  1  0.74260000  0.62222000  0.40240000  1.0 -0.7494603889
O  O99  1  0.25740000  0.87778000  0.90240000  1.0 -0.7494603889
O  O100  1  0.24260000  0.87778000  0.59760000  1.0 -0.7494603889
O  O101  1  0.24260000  0.37778000  0.90240000  1.0 -0.7494603889
O  O102  1  0.25740000  0.37778000  0.59760000  1.0 -0.7494603889
O  O103  1  0.74260000  0.12222000  0.09760000  1.0 -0.7494603889
O  O104  1  0.75740000  0.12222000  0.40240000  1.0 -0.7494603889
O  O105  1  0.79760000  0.72770000  0.10994000  1.0 -0.6579382075
O  O106  1  0.70240000  0.72770000  0.39006000  1.0 -0.6579382075
O  O107  1  0.29760000  0.77230000  0.89006000  1.0 -0.6579382075
O  O108  1  0.20240000  0.77230000  0.60994000  1.0 -0.6579382075
O  O109  1  0.20240000  0.27230000  0.89006000  1.0 -0.6579382075
O  O110  1  0.29760000  0.27230000  0.60994000  1.0 -0.6579382075
O  O111  1  0.70240000  0.22770000  0.10994000  1.0 -0.6579382075
O  O112  1  0.79760000  0.22770000  0.39006000  1.0 -0.6579382075
O  O113  1  0.87310000  0.64461000  0.85739000  1.0 -0.7885541124
O  O114  1  0.62690000  0.64461000  0.64261000  1.0 -0.7885541124
O  O115  1  0.37310000  0.85539000  0.14261000  1.0 -0.7885541124
O  O116  1  0.12690000  0.85539000  0.35739000  1.0 -0.7885541124
O  O117  1  0.12690000  0.35539000  0.14261000  1.0 -0.7885541124
O  O118  1  0.37310000  0.35539000  0.35739000  1.0 -0.7885541124
O  O119  1  0.62690000  0.14461000  0.85739000  1.0 -0.7885541124
O  O120  1  0.87310000  0.14461000  0.64261000  1.0 -0.7885541124
O  O121  1  0.88810000  0.64929000  0.14463000  1.0 -0.7962126238
O  O122  1  0.61190000  0.64929000  0.35537000  1.0 -0.7962126238
O  O123  1  0.38810000  0.85071000  0.85537000  1.0 -0.7962126238
O  O124  1  0.11190000  0.85071000  0.64463000  1.0 -0.7962126238
O  O125  1  0.11190000  0.35071000  0.85537000  1.0 -0.7962126238
O  O126  1  0.38810000  0.35071000  0.64463000  1.0 -0.7962126238
O  O127  1  0.61190000  0.14929000  0.14463000  1.0 -0.7962126238
O  O128  1  0.88810000  0.14929000  0.35537000  1.0 -0.7962126238
O  O129  1  0.16780000  0.59899000  0.99562000  1.0 -0.9146175189
O  O130  1  0.33220000  0.59899000  0.50438000  1.0 -0.9200242424
O  O131  1  0.66780000  0.90101000  0.00438000  1.0 -0.9146175189
O  O132  1  0.83220000  0.90101000  0.49562000  1.0 -0.9200242424
O  O133  1  0.83220000  0.40101000  0.00438000  1.0 -0.9200242424
O  O134  1  0.66780000  0.40101000  0.49562000  1.0 -0.9200242424
O  O135  1  0.33220000  0.09899000  0.99562000  1.0 -0.9200242424
O  O136  1  0.16780000  0.09899000  0.50438000  1.0 -0.9200242424
O  O137  1  0.89920000  0.63406000  0.04458000  1.0 -0.8332929192
O  O138  1  0.60080000  0.63406000  0.45542000  1.0 -0.8332929192
O  O139  1  0.39920000  0.86594000  0.95542000  1.0 -0.8332929192
O  O140  1  0.10080000  0.86594000  0.54458000  1.0 -0.8332929192
O  O141  1  0.10080000  0.36594000  0.95542000  1.0 -0.8332929192
O  O142  1  0.39920000  0.36594000  0.54458000  1.0 -0.8332929192
O  O143  1  0.60080000  0.13406000  0.04458000  1.0 -0.8332929192
O  O144  1  0.89920000  0.13406000  0.45542000  1.0 -0.8332929192
O  O145  1  0.27970000  0.74380000  0.98103000  1.0 -0.6158782167
O  O146  1  0.22030000  0.74380000  0.51897000  1.0 -0.6158782167
O  O147  1  0.77970000  0.75620000  0.01897000  1.0 -0.6145280602
O  O148  1  0.72030000  0.75620000  0.48103000  1.0 -0.6145280602
O  O149  1  0.72030000  0.25620000  0.01897000  1.0 -0.6145280602
O  O150  1  0.77970000  0.25620000  0.48103000  1.0 -0.6158782167
O  O151  1  0.22030000  0.24380000  0.98103000  1.0 -0.6158782167
O  O152  1  0.27970000  0.24380000  0.51897000  1.0 -0.6158782167
O  O153  1  0.14910000  0.70677000  0.94800000  1.0 -0.7418488664
O  O154  1  0.35090000  0.70677000  0.55200000  1.0 -0.7418488664
O  O155  1  0.64910000  0.79323000  0.05200000  1.0 -0.7418488664
O  O156  1  0.85090000  0.79323000  0.44800000  1.0 -0.7418488664
O  O157  1  0.85090000  0.29323000  0.05200000  1.0 -0.7418488664
O  O158  1  0.64910000  0.29323000  0.44800000  1.0 -0.7418488664
O  O159  1  0.35090000  0.20677000  0.94800000  1.0 -0.7418488664
O  O160  1  0.14910000  0.20677000  0.55200000  1.0 -0.7418488664
O  O161  1  0.74480000  0.66868000  0.17781000  1.0 -0.8170354022
O  O162  1  0.75520000  0.66868000  0.32219000  1.0 -0.8170354022
O  O163  1  0.24480000  0.83132000  0.82219000  1.0 -0.8170354022
O  O164  1  0.25520000  0.83132000  0.67781000  1.0 -0.8170354022
O  O165  1  0.25520000  0.33132000  0.82219000  1.0 -0.8170354022
O  O166  1  0.24480000  0.33132000  0.67781000  1.0 -0.8170354022
O  O167  1  0.75520000  0.16868000  0.17781000  1.0 -0.8170354022
O  O168  1  0.74480000  0.16868000  0.32219000  1.0 -0.8170354022
O  O169  1  0.72930000  0.65887000  0.82329000  1.0 -0.8143246873
O  O170  1  0.77070000  0.65887000  0.67671000  1.0 -0.8143246873
O  O171  1  0.22930000  0.84113000  0.17671000  1.0 -0.8143246873
O  O172  1  0.27070000  0.84113000  0.32329000  1.0 -0.8143246873
O  O173  1  0.27070000  0.34113000  0.17671000  1.0 -0.8143246873
O  O174  1  0.22930000  0.34113000  0.32329000  1.0 -0.8143246873
O  O175  1  0.77070000  0.15887000  0.82329000  1.0 -0.8143246873
O  O176  1  0.72930000  0.15887000  0.67671000  1.0 -0.8143246873
O  O177  1  0.16890000  0.70816000  0.03942000  1.0 -0.7494603889
O  O178  1  0.33110000  0.70816000  0.46058000  1.0 -0.7494603889
O  O179  1  0.66890000  0.79184000  0.96058000  1.0 -0.7494603889
O  O180  1  0.83110000  0.79184000  0.53942000  1.0 -0.7494603889
O  O181  1  0.83110000  0.29184000  0.96058000  1.0 -0.7494603889
O  O182  1  0.66890000  0.29184000  0.53942000  1.0 -0.7494603889
O  O183  1  0.33110000  0.20816000  0.03942000  1.0 -0.7494603889
O  O184  1  0.16890000  0.20816000  0.46058000  1.0 -0.7494603889
O  O185  1  0.89530000  0.62784000  0.95471000  1.0 -0.8495620964
O  O186  1  0.60470000  0.62784000  0.54529000  1.0 -0.8495620964
O  O187  1  0.39530000  0.87216000  0.04529000  1.0 -0.8495620964
O  O188  1  0.10470000  0.87216000  0.45471000  1.0 -0.8495620964
O  O189  1  0.10470000  0.37216000  0.04529000  1.0 -0.8495620964
O  O190  1  0.39530000  0.37216000  0.45471000  1.0 -0.8495620964
O  O191  1  0.60470000  0.12784000  0.95471000  1.0 -0.8495620964
O  O192  1  0.89530000  0.12784000  0.54529000  1.0 -0.8495620964
O  O193  1  0.14680000  0.79980000  0.99287000  1.0 -0.6268963246
O  O194  1  0.35320000  0.79980000  0.50713000  1.0 -0.6268963246
O  O195  1  0.64680000  0.70020000  0.00713000  1.0 -0.6268963246
O  O196  1  0.85320000  0.70020000  0.49287000  1.0 -0.6268963246
O  O197  1  0.85320000  0.20020000  0.00713000  1.0 -0.6268963246
O  O198  1  0.64680000  0.20020000  0.49287000  1.0 -0.6268963246
O  O199  1  0.35320000  0.29980000  0.99287000  1.0 -0.6268963246
O  O200  1  0.14680000  0.29980000  0.50713000  1.0 -0.6268963246
