# DDEC6 charges by PACMAN v1.1 (https://github.com/mtap-research/PACMAN-charge/)
data_DEWRIH_FSR_pacman
_symmetry_space_group_name_H-M   'P 1'
_cell_length_a   12.80600000
_cell_length_b   13.80900000
_cell_length_c   14.50800000
_cell_angle_alpha   113.57000000
_cell_angle_beta   96.71000000
_cell_angle_gamma   106.21000000
_symmetry_Int_Tables_number   1
_chemical_formula_structural   Cd5Mo12P8H16C20(NO17)4
_chemical_formula_sum   'Cd5 Mo12 P8 H16 C20 N4 O68'
_cell_volume   2180.63587282
_cell_formula_units_Z   1
loop_
 _symmetry_equiv_pos_site_id
 _symmetry_equiv_pos_as_xyz
  1  'x, y, z'
loop_
 _atom_site_type_symbol
 _atom_site_label
 _atom_site_symmetry_multiplicity
 _atom_site_fract_x
 _atom_site_fract_y
 _atom_site_fract_z
 _atom_site_occupancy
 _atom_site_charge
Cd  Cd1  1  0.00000000  0.50000000  0.50000000  1.0 1.4419558885
Cd  Cd2  1  0.91520000  0.75344000  0.18480000  1.0 1.1327732446
Cd  Cd3  1  0.08480000  0.24656000  0.81520000  1.0 1.1327732446
Cd  Cd4  1  0.51195000  0.63929000  0.08284000  1.0 1.1327732446
Cd  Cd5  1  0.48805000  0.36071000  0.91716000  1.0 1.1327732446
Mo  Mo1  1  0.05688000  0.42496000  0.22506000  1.0 2.0410314442
Mo  Mo2  1  0.94312000  0.57504000  0.77494000  1.0 2.0410314442
Mo  Mo3  1  0.84710000  0.40609000  0.21016000  1.0 2.0496856016
Mo  Mo4  1  0.15290000  0.59391000  0.78984000  1.0 2.0496856016
Mo  Mo5  1  0.73082000  0.34951000  0.55473000  1.0 2.0496856016
Mo  Mo6  1  0.26918000  0.65049000  0.44527000  1.0 2.0496856016
Mo  Mo7  1  0.78567000  0.20238000  0.40624000  1.0 2.0731626393
Mo  Mo8  1  0.21433000  0.79762000  0.59376000  1.0 2.0731626393
Mo  Mo9  1  0.07093000  0.23276000  0.42877000  1.0 2.0496856016
Mo  Mo10  1  0.92907000  0.76724000  0.57123000  1.0 2.0496856016
Mo  Mo11  1  0.22675000  0.39764000  0.59198000  1.0 2.0410314442
Mo  Mo12  1  0.77325000  0.60236000  0.40802000  1.0 2.0410314442
P  P1  1  0.02902000  0.68339000  0.35205000  1.0 1.5843571069
P  P2  1  0.97098000  0.31661000  0.64795000  1.0 1.5843571069
P  P3  1  0.87117000  0.98745000  0.36648000  1.0 1.5482938728
P  P4  1  0.12883000  0.01255000  0.63352000  1.0 1.5482938728
P  P5  1  0.28039000  0.59716000  0.20117000  1.0 1.5482938728
P  P6  1  0.71961000  0.40284000  0.79883000  1.0 1.5440224053
P  P7  1  0.68275000  0.53818000  0.15644000  1.0 1.5593015196
P  P8  1  0.31725000  0.46182000  0.84356000  1.0 1.5593015196
H  H1  1  0.31390000  0.35050000  0.06310000  1.0 0.150766203
H  H2  1  0.68610000  0.64950000  0.93690000  1.0 0.150766203
H  H3  1  0.20370000  0.23490000  0.11970000  1.0 0.1585814399
H  H4  1  0.79630000  0.76510000  0.88030000  1.0 0.1585814399
H  H5  1  0.26970000  0.97570000  0.91490000  1.0 0.1585814399
H  H6  1  0.73030000  0.02430000  0.08510000  1.0 0.1585814399
H  H7  1  0.37970000  0.10010000  0.86700000  1.0 0.132342791
H  H8  1  0.62030000  0.89990000  0.13300000  1.0 0.132342791
H  H9  1  0.11380000  0.77620000  0.07070000  1.0 0.150766203
H  H10  1  0.88620000  0.22380000  0.92930000  1.0 0.150766203
H  H11  1  0.22890000  0.89520000  0.02050000  1.0 0.150766203
H  H12  1  0.77110000  0.10480000  0.97950000  1.0 0.150766203
H  H13  1  0.06350000  0.10770000  0.12410000  1.0 0.1585814399
H  H14  1  0.93650000  0.89230000  0.87590000  1.0 0.1585814399
H  H15  1  0.95850000  0.98610000  0.17940000  1.0 0.132342791
H  H16  1  0.04150000  0.01390000  0.82060000  1.0 0.132342791
C  C1  1  0.30680000  0.27480000  0.03490000  1.0 0.1016772723
C  C2  1  0.69320000  0.72520000  0.96510000  1.0 0.1016772723
C  C3  1  0.24020000  0.20580000  0.06920000  1.0 -0.1506751148
C  C4  1  0.75980000  0.79420000  0.93080000  1.0 -0.1506751148
C  C5  1  0.22830000  0.09170000  0.02720000  1.0 0.1177307086
C  C6  1  0.77170000  0.90830000  0.97280000  1.0 0.1177307086
C  C7  1  0.27940000  0.05200000  0.94820000  1.0 -0.1704004465
C  C8  1  0.72060000  0.94800000  0.05180000  1.0 -0.1704004465
C  C9  1  0.34530000  0.12810000  0.91960000  1.0 0.1354103031
C  C10  1  0.65470000  0.87190000  0.08040000  1.0 0.1354103031
C  C11  1  0.10390000  0.84390000  0.08180000  1.0 0.1177307086
C  C12  1  0.89610000  0.15610000  0.91820000  1.0 0.1177307086
C  C13  1  0.17290000  0.91460000  0.05070000  1.0 -0.1506751148
C  C14  1  0.82710000  0.08540000  0.94930000  1.0 -0.1506751148
C  C15  1  0.15800000  0.01520000  0.06490000  1.0 0.1089047284
C  C16  1  0.84200000  0.98480000  0.93510000  1.0 0.1089047284
C  C17  1  0.07590000  0.04110000  0.11300000  1.0 -0.1378778327
C  C18  1  0.92410000  0.95890000  0.88700000  1.0 -0.1378778327
C  C19  1  0.01170000  0.96650000  0.14460000  1.0 0.132342791
C  C20  1  0.98830000  0.03350000  0.85540000  1.0 0.132342791
N  N1  1  0.36260000  0.23670000  0.96150000  1.0 -0.2591385899
N  N2  1  0.63740000  0.76330000  0.03850000  1.0 -0.2591385899
N  N3  1  0.02330000  0.86830000  0.12720000  1.0 -0.2591385899
N  N4  1  0.97670000  0.13170000  0.87280000  1.0 -0.2591385899
O  O1  1  0.23530000  0.68550000  0.18050000  1.0 -0.6605896113
O  O2  1  0.76470000  0.31450000  0.81950000  1.0 -0.6605896113
O  O3  1  0.56050000  0.48710000  0.08940000  1.0 -0.7833769081
O  O4  1  0.43950000  0.51290000  0.91060000  1.0 -0.7833769081
O  O5  1  0.83780000  0.87740000  0.26790000  1.0 -0.7425194962
O  O6  1  0.16220000  0.12260000  0.73210000  1.0 -0.7425194962
O  O7  1  0.05600000  0.75460000  0.47130000  1.0 -0.8405584334
O  O8  1  0.94400000  0.24540000  0.52870000  1.0 -0.8405584334
O  O9  1  0.04710000  0.75460000  0.29550000  1.0 -0.6999038516
O  O10  1  0.95290000  0.24540000  0.70450000  1.0 -0.6999038516
O  O11  1  0.61270000  0.34880000  0.48970000  1.0 -0.4839076458
O  O12  1  0.38730000  0.65120000  0.51030000  1.0 -0.4857403992
O  O13  1  0.78480000  0.04440000  0.36570000  1.0 -0.7191972194
O  O14  1  0.21520000  0.95560000  0.63430000  1.0 -0.7191972194
O  O15  1  0.36700000  0.58090000  0.14280000  1.0 -0.7336259244
O  O16  1  0.63300000  0.41910000  0.85720000  1.0 -0.7336259244
O  O17  1  0.86970000  0.96480000  0.46340000  1.0 -0.6032269357
O  O18  1  0.13030000  0.03520000  0.53660000  1.0 -0.6032269357
O  O19  1  0.32980000  0.65010000  0.31870000  1.0 -0.7603725998
O  O20  1  0.67020000  0.34990000  0.68130000  1.0 -0.7603725998
O  O21  1  0.71000000  0.19150000  0.51330000  1.0 -0.800677052
O  O22  1  0.29000000  0.80850000  0.48670000  1.0 -0.800677052
O  O23  1  0.74740000  0.63360000  0.13630000  1.0 -0.7678156851
O  O24  1  0.25260000  0.36640000  0.86370000  1.0 -0.7678156851
O  O25  1  0.90530000  0.59810000  0.31350000  1.0 -0.8769703864
O  O26  1  0.09470000  0.40190000  0.68650000  1.0 -0.8769703864
O  O27  1  0.68480000  0.16470000  0.30020000  1.0 -0.5202563165
O  O28  1  0.31520000  0.83530000  0.69980000  1.0 -0.5202563165
O  O29  1  0.33760000  0.41690000  0.54100000  1.0 -0.4597377537
O  O30  1  0.66240000  0.58310000  0.45900000  1.0 -0.4597377537
O  O31  1  0.14370000  0.21790000  0.33800000  1.0 -0.5202563165
O  O32  1  0.85630000  0.78210000  0.66200000  1.0 -0.5202563165
O  O33  1  0.77910000  0.26520000  0.14010000  1.0 -0.535928434
O  O34  1  0.22090000  0.73480000  0.85990000  1.0 -0.535928434
O  O35  1  0.67700000  0.57840000  0.27130000  1.0 -0.7191972194
O  O36  1  0.32300000  0.42160000  0.72870000  1.0 -0.7191972194
O  O37  1  0.99020000  0.06550000  0.38180000  1.0 -0.7425194962
O  O38  1  0.00980000  0.93450000  0.61820000  1.0 -0.7425194962
O  O39  1  0.95300000  0.45190000  0.13770000  1.0 -0.7425194962
O  O40  1  0.04700000  0.54810000  0.86230000  1.0 -0.7425194962
O  O41  1  0.73260000  0.44350000  0.12900000  1.0 -0.7191972194
O  O42  1  0.26740000  0.55650000  0.87100000  1.0 -0.7191972194
O  O43  1  0.17840000  0.48780000  0.16100000  1.0 -0.7425194962
O  O44  1  0.82160000  0.51220000  0.83900000  1.0 -0.7425194962
O  O45  1  0.10800000  0.61410000  0.33110000  1.0 -0.8461099226
O  O46  1  0.89200000  0.38590000  0.66890000  1.0 -0.8405584334
O  O47  1  0.19460000  0.47430000  0.34930000  1.0 -0.8218018172
O  O48  1  0.80540000  0.52570000  0.65070000  1.0 -0.8218018172
O  O49  1  0.04220000  0.28900000  0.15820000  1.0 -0.5512954353
O  O50  1  0.95780000  0.71100000  0.84180000  1.0 -0.5512954353
O  O51  1  0.75130000  0.43210000  0.31990000  1.0 -0.800677052
O  O52  1  0.24870000  0.56790000  0.68010000  1.0 -0.800677052
O  O53  1  0.10860000  0.39660000  0.49280000  1.0 -0.8405584334
O  O54  1  0.89140000  0.60340000  0.50720000  1.0 -0.8405584334
O  O55  1  0.92100000  0.21770000  0.33910000  1.0 -0.7932318805
O  O56  1  0.07900000  0.78230000  0.66090000  1.0 -0.7932318805
O  O57  1  0.96200000  0.41720000  0.32100000  1.0 -0.8461099226
O  O58  1  0.03800000  0.58280000  0.67900000  1.0 -0.8461099226
O  O59  1  0.16470000  0.23580000  0.54650000  1.0 -0.7603725998
O  O60  1  0.83530000  0.76420000  0.45350000  1.0 -0.7603725998
O  O61  1  0.83430000  0.36820000  0.46890000  1.0 -0.8571176885
O  O62  1  0.16570000  0.63180000  0.53110000  1.0 -0.8571176885
O  O63  1  0.95470000  0.60470000  0.05900000  1.0 0.028649872
O  O64  1  0.04530000  0.39530000  0.94100000  1.0 0.0220528159
O  O65  1  0.60420000  0.78260000  0.24400000  1.0 -0.1378778327
O  O66  1  0.39580000  0.21740000  0.75600000  1.0 -0.1506751148
O  O67  1  0.39080000  0.74580000  0.05710000  1.0 0.1016772723
O  O68  1  0.60920000  0.25420000  0.94290000  1.0 0.1016772723
