# DDEC6 charges by PACMAN v1.1 (https://github.com/mtap-research/PACMAN-charge/)
data_DEXDER_ASR_pacman
_symmetry_space_group_name_H-M   'P 1'
_cell_length_a   9.36110000
_cell_length_b   9.92100000
_cell_length_c   10.01500000
_cell_angle_alpha   85.03000000
_cell_angle_beta   85.81000000
_cell_angle_gamma   65.09000000
_symmetry_Int_Tables_number   1
_chemical_formula_structural   KCdRu2(CO3)4
_chemical_formula_sum   'K2 Cd2 Ru4 C8 O24'
_cell_volume   839.71988252
_cell_formula_units_Z   2
loop_
 _symmetry_equiv_pos_site_id
 _symmetry_equiv_pos_as_xyz
  1  'x, y, z'
loop_
 _atom_site_type_symbol
 _atom_site_label
 _atom_site_symmetry_multiplicity
 _atom_site_fract_x
 _atom_site_fract_y
 _atom_site_fract_z
 _atom_site_occupancy
 _atom_site_charge
K  K1  1  0.50000000  0.50000000  0.00000000  1.0 0.918074815
K  K2  1  0.00000000  0.50000000  0.50000000  1.0 0.918074815
Cd  Cd1  1  0.55866000  0.04693000  0.82003000  1.0 1.0841775223
Cd  Cd2  1  0.44134000  0.95307000  0.17997000  1.0 1.0841775223
Ru  Ru1  1  0.57987000  0.48119000  0.58416000  1.0 0.8482918426
Ru  Ru2  1  0.94875000  0.45546000  0.08847000  1.0 0.8397394702
Ru  Ru3  1  0.42013000  0.51881000  0.41584000  1.0 0.8482918426
Ru  Ru4  1  0.05125000  0.54454000  0.91153000  1.0 0.8397394702
C  C1  1  0.48199000  0.23891000  0.57902000  1.0 0.8094251737
C  C2  1  0.75168000  0.38249000  0.32910000  1.0 0.8094251737
C  C3  1  0.23803000  0.22813000  0.97920000  1.0 0.8233146951
C  C4  1  0.82275000  0.44366000  0.83106000  1.0 0.8094251737
C  C5  1  0.51801000  0.76109000  0.42098000  1.0 0.8094251737
C  C6  1  0.24832000  0.61751000  0.67090000  1.0 0.8094251737
C  C7  1  0.76197000  0.77187000  0.02080000  1.0 0.8233146951
C  C8  1  0.17725000  0.55634000  0.16894000  1.0 0.8094251737
O  O1  1  0.87321000  0.33519000  0.24951000  1.0 -0.4839878991
O  O2  1  0.46143000  0.12103000  0.62316000  1.0 -0.540785046
O  O3  1  0.57419000  0.27950000  0.64332000  1.0 -0.6017475375
O  O4  1  0.41063000  0.31689000  0.47212000  1.0 -0.5660851315
O  O5  1  0.77030000  0.39067000  0.45705000  1.0 -0.6017475375
O  O6  1  0.60839000  0.42311000  0.28542000  1.0 -0.5943560317
O  O7  1  0.73297000  0.41823000  0.75648000  1.0 -0.5525278166
O  O8  1  0.12900000  0.24815000  0.07134000  1.0 -0.5218969599
O  O9  1  0.23484000  0.33176000  0.88830000  1.0 -0.6017475375
O  O10  1  0.81320000  0.41384000  0.96130000  1.0 -0.6017475375
O  O11  1  0.92241000  0.49880000  0.78123000  1.0 -0.606183739
O  O12  1  0.35900000  0.09564000  0.97959000  1.0 -0.6712791935
O  O13  1  0.12679000  0.66481000  0.75049000  1.0 -0.4839878991
O  O14  1  0.53857000  0.87897000  0.37684000  1.0 -0.540785046
O  O15  1  0.42581000  0.72050000  0.35668000  1.0 -0.6017475375
O  O16  1  0.58937000  0.68311000  0.52788000  1.0 -0.5660851315
O  O17  1  0.22970000  0.60933000  0.54295000  1.0 -0.6017475375
O  O18  1  0.39161000  0.57689000  0.71458000  1.0 -0.5943560317
O  O19  1  0.26703000  0.58177000  0.24352000  1.0 -0.5525278166
O  O20  1  0.87100000  0.75185000  0.92866000  1.0 -0.5218969599
O  O21  1  0.76516000  0.66824000  0.11170000  1.0 -0.6017475375
O  O22  1  0.18680000  0.58616000  0.03870000  1.0 -0.6017475375
O  O23  1  0.07759000  0.50120000  0.21877000  1.0 -0.6017475375
O  O24  1  0.64100000  0.90436000  0.02041000  1.0 -0.6712791935
