# DDEC6 charges by PACMAN v1.1 (https://github.com/mtap-research/PACMAN-charge/)
data_DEZQEI_ASR_pacman
_symmetry_space_group_name_H-M   'P 1'
_cell_length_a   16.00190000
_cell_length_b   30.82400000
_cell_length_c   18.46070000
_cell_angle_alpha   90.00000000
_cell_angle_beta   115.19800000
_cell_angle_gamma   90.00000000
_symmetry_Int_Tables_number   1
_chemical_formula_structural   TbPC16NO10
_chemical_formula_sum   'Tb12 P12 C192 N12 O120'
_cell_volume   8239.13127827
_cell_formula_units_Z   12
loop_
 _symmetry_equiv_pos_site_id
 _symmetry_equiv_pos_as_xyz
  1  'x, y, z'
loop_
 _atom_site_type_symbol
 _atom_site_label
 _atom_site_symmetry_multiplicity
 _atom_site_fract_x
 _atom_site_fract_y
 _atom_site_fract_z
 _atom_site_occupancy
 _atom_site_charge
Tb  Tb1  1  0.86148000  0.19491000  0.15644000  1.0 2.0510467388
Tb  Tb2  1  0.86148000  0.30509000  0.65644000  1.0 2.0510467388
Tb  Tb3  1  0.55300000  0.17406000  0.87817000  1.0 2.067189862
Tb  Tb4  1  0.55300000  0.32594000  0.37817000  1.0 2.067189862
Tb  Tb5  1  0.70342000  0.35439000  0.01482000  1.0 2.0817025997
Tb  Tb6  1  0.70342000  0.14561000  0.51482000  1.0 2.0817025997
Tb  Tb7  1  0.13852000  0.69491000  0.34356000  1.0 2.0510467388
Tb  Tb8  1  0.13852000  0.80509000  0.84356000  1.0 2.0510467388
Tb  Tb9  1  0.44700000  0.67406000  0.62183000  1.0 2.067189862
Tb  Tb10  1  0.44700000  0.82594000  0.12183000  1.0 2.0614614583
Tb  Tb11  1  0.29658000  0.85439000  0.48518000  1.0 2.0817025997
Tb  Tb12  1  0.29658000  0.64561000  0.98518000  1.0 2.0817025997
P  P1  1  0.21220000  0.18344000  0.02380000  1.0 1.3092782594
P  P2  1  0.21220000  0.31656000  0.52380000  1.0 1.3092782594
P  P3  1  0.28000000  0.10440000  0.09400000  1.0 1.3179482616
P  P4  1  0.28000000  0.39560000  0.59400000  1.0 1.3179482616
P  P5  1  0.12420000  0.10789000  0.95078000  1.0 1.3179482616
P  P6  1  0.12420000  0.39211000  0.45078000  1.0 1.3179482616
P  P7  1  0.78780000  0.68344000  0.47620000  1.0 1.3092782594
P  P8  1  0.78780000  0.81656000  0.97620000  1.0 1.3092782594
P  P9  1  0.72000000  0.60440000  0.40600000  1.0 1.3179482616
P  P10  1  0.72000000  0.89560000  0.90600000  1.0 1.3179482616
P  P11  1  0.87580000  0.60789000  0.54922000  1.0 1.3179482616
P  P12  1  0.87580000  0.89211000  0.04922000  1.0 1.3179482616
C  C1  1  0.17800000  0.07670000  0.84310000  1.0 0.2194383775
C  C2  1  0.17800000  0.42330000  0.34310000  1.0 0.2194383775
C  C3  1  0.16420000  0.03900000  0.79830000  1.0 0.0413427121
C  C4  1  0.16420000  0.46100000  0.29830000  1.0 0.0413427121
C  C5  1  0.22880000  0.02800000  0.76900000  1.0 -0.1091669366
C  C6  1  0.22880000  0.47200000  0.26900000  1.0 -0.1091669366
C  C7  1  0.30570000  0.05560000  0.78100000  1.0 0.1091224521
C  C8  1  0.30570000  0.44440000  0.28100000  1.0 0.1091224521
C  C9  1  0.31490000  0.09360000  0.82690000  1.0 -0.0903989934
C  C10  1  0.31490000  0.40640000  0.32690000  1.0 -0.0992323525
C  C11  1  0.25330000  0.10480000  0.85970000  1.0 0.0527305271
C  C12  1  0.25330000  0.39520000  0.35970000  1.0 0.0561912063
C  C13  1  0.21630000  0.98860000  0.72100000  1.0 0.5435902275
C  C14  1  0.21630000  0.51140000  0.22100000  1.0 0.5435902275
C  C15  1  0.39570000  0.12130000  0.84230000  1.0 0.6102859832
C  C16  1  0.39570000  0.37870000  0.34230000  1.0 0.6102859832
C  C17  1  0.94780000  0.12290000  0.90280000  1.0 0.2194383775
C  C18  1  0.94780000  0.37710000  0.40280000  1.0 0.2194383775
C  C19  1  0.91020000  0.12140000  0.81850000  1.0 0.0831515942
C  C20  1  0.91020000  0.37860000  0.31850000  1.0 0.0831515942
C  C21  1  0.82870000  0.14520000  0.77540000  1.0 -0.0678997587
C  C22  1  0.82870000  0.35480000  0.27540000  1.0 -0.0678997587
C  C23  1  0.78560000  0.16850000  0.81610000  1.0 0.1329721123
C  C24  1  0.78560000  0.33150000  0.31610000  1.0 0.1329721123
C  C25  1  0.82540000  0.16820000  0.90050000  1.0 -0.0903989934
C  C26  1  0.82540000  0.33180000  0.40050000  1.0 -0.0903989934
C  C27  1  0.90920000  0.14730000  0.94390000  1.0 0.0101114984
C  C28  1  0.90920000  0.35270000  0.44390000  1.0 0.0101114984
C  C29  1  0.78560000  0.14400000  0.68590000  1.0 0.6102859832
C  C30  1  0.78560000  0.35600000  0.18590000  1.0 0.6102859832
C  C31  1  0.77820000  0.18980000  0.94600000  1.0 0.6773949064
C  C32  1  0.77820000  0.31020000  0.44600000  1.0 0.6773949064
C  C33  1  0.06020000  0.25560000  0.94290000  1.0 0.0101114984
C  C34  1  0.06020000  0.24440000  0.44290000  1.0 0.0101114984
C  C35  1  0.97800000  0.27920000  0.90670000  1.0 -0.0484938749
C  C36  1  0.97800000  0.22080000  0.40670000  1.0 -0.0484938749
C  C37  1  0.92360000  0.28990000  0.94560000  1.0 0.1091224521
C  C38  1  0.92360000  0.21010000  0.44560000  1.0 0.1091224521
C  C39  1  0.95010000  0.27320000  0.02500000  1.0 -0.0992323525
C  C40  1  0.95010000  0.22680000  0.52500000  1.0 -0.0992323525
C  C41  1  0.03110000  0.24900000  0.06350000  1.0 0.0303848525
C  C42  1  0.03110000  0.25100000  0.56350000  1.0 0.0303848525
C  C43  1  0.08420000  0.23960000  0.02100000  1.0 0.2455768086
C  C44  1  0.08420000  0.26040000  0.52100000  1.0 0.2407481742
C  C45  1  0.94580000  0.29310000  0.82030000  1.0 0.5995615072
C  C46  1  0.94580000  0.20690000  0.32030000  1.0 0.5995615072
C  C47  1  0.88960000  0.28390000  0.06670000  1.0 0.7181525625
C  C48  1  0.88960000  0.21610000  0.56670000  1.0 0.7181525625
C  C49  1  0.34920000  0.23650000  0.02840000  1.0 0.2407481742
C  C50  1  0.34920000  0.26350000  0.52840000  1.0 0.2407481742
C  C51  1  0.40500000  0.23990000  0.98650000  1.0 0.0029345801
C  C52  1  0.40500000  0.26010000  0.48650000  1.0 0.0029345801
C  C53  1  0.48460000  0.26380000  0.01950000  1.0 -0.0992323525
C  C54  1  0.48460000  0.23620000  0.51950000  1.0 -0.0992323525
C  C55  1  0.51040000  0.28420000  0.09330000  1.0 0.1091224521
C  C56  1  0.51040000  0.21580000  0.59330000  1.0 0.1091224521
C  C57  1  0.45550000  0.27930000  0.13620000  1.0 -0.0602839835
C  C58  1  0.45550000  0.22070000  0.63620000  1.0 -0.0602839835
C  C59  1  0.37430000  0.25520000  0.10440000  1.0 0.0029345801
C  C60  1  0.37430000  0.24480000  0.60440000  1.0 0.0101114984
C  C61  1  0.48580000  0.29880000  0.21760000  1.0 0.6170673169
C  C62  1  0.48580000  0.20120000  0.71760000  1.0 0.6102859832
C  C63  1  0.54290000  0.26790000  0.97410000  1.0 0.7181525625
C  C64  1  0.54290000  0.23210000  0.47410000  1.0 0.7181525625
C  C65  1  0.45870000  0.10560000  0.13520000  1.0 0.2194383775
C  C66  1  0.45870000  0.39440000  0.63520000  1.0 0.2194383775
C  C67  1  0.49650000  0.10870000  0.21860000  1.0 0.0303848525
C  C68  1  0.49650000  0.39130000  0.71860000  1.0 0.0303848525
C  C69  1  0.58410000  0.12660000  0.25750000  1.0 -0.0678997587
C  C70  1  0.58410000  0.37340000  0.75750000  1.0 -0.0678997587
C  C71  1  0.63240000  0.13960000  0.21430000  1.0 0.1091224521
C  C72  1  0.63240000  0.36040000  0.71430000  1.0 0.1091224521
C  C73  1  0.59160000  0.13700000  0.13190000  1.0 -0.0602839835
C  C74  1  0.59160000  0.36300000  0.63190000  1.0 -0.0678997587
C  C75  1  0.50240000  0.12120000  0.09100000  1.0 -0.0086998866
C  C76  1  0.50240000  0.37880000  0.59100000  1.0 -0.0086998866
C  C77  1  0.62360000  0.13380000  0.34370000  1.0 0.6170673169
C  C78  1  0.62360000  0.36620000  0.84370000  1.0 0.6170673169
C  C79  1  0.64620000  0.15100000  0.08380000  1.0 0.6945324637
C  C80  1  0.64620000  0.34900000  0.58380000  1.0 0.6945324637
C  C81  1  0.21400000  0.07860000  0.19470000  1.0 0.2326208823
C  C82  1  0.21400000  0.42140000  0.69470000  1.0 0.2326208823
C  C83  1  0.21280000  0.03880000  0.23290000  1.0 0.0236534201
C  C84  1  0.21280000  0.46120000  0.73290000  1.0 0.0236534201
C  C85  1  0.13740000  0.03060000  0.24930000  1.0 -0.0992323525
C  C86  1  0.13740000  0.46940000  0.74930000  1.0 -0.0992323525
C  C87  1  0.06370000  0.06030000  0.22870000  1.0 0.1091224521
C  C88  1  0.06370000  0.43970000  0.72870000  1.0 0.1091224521
C  C89  1  0.06960000  0.09950000  0.19360000  1.0 -0.0764962859
C  C90  1  0.06960000  0.40050000  0.69360000  1.0 -0.0764962859
C  C91  1  0.14250000  0.10850000  0.17600000  1.0 -0.000901313
C  C92  1  0.14250000  0.39150000  0.67600000  1.0 -0.000901313
C  C93  1  0.99430000  0.13200000  0.17460000  1.0 0.5995615072
C  C94  1  0.99430000  0.36800000  0.67460000  1.0 0.5995615072
C  C95  1  0.12980000  0.98800000  0.28400000  1.0 0.5569943684
C  C96  1  0.12980000  0.51200000  0.78400000  1.0 0.5569943684
C  C97  1  0.82200000  0.57670000  0.65690000  1.0 0.2194383775
C  C98  1  0.82200000  0.92330000  0.15690000  1.0 0.2194383775
C  C99  1  0.83580000  0.53900000  0.70170000  1.0 0.0413427121
C  C100  1  0.83580000  0.96100000  0.20170000  1.0 0.0413427121
C  C101  1  0.77120000  0.52800000  0.73100000  1.0 -0.1091669366
C  C102  1  0.77120000  0.97200000  0.23100000  1.0 -0.1091669366
C  C103  1  0.69430000  0.55560000  0.71900000  1.0 0.1091224521
C  C104  1  0.69430000  0.94440000  0.21900000  1.0 0.1091224521
C  C105  1  0.68510000  0.59360000  0.67310000  1.0 -0.0992323525
C  C106  1  0.68510000  0.90640000  0.17310000  1.0 -0.0992323525
C  C107  1  0.74670000  0.60480000  0.64030000  1.0 0.0561912063
C  C108  1  0.74670000  0.89520000  0.14030000  1.0 0.0527305271
C  C109  1  0.78370000  0.48860000  0.77900000  1.0 0.5435902275
C  C110  1  0.78370000  0.01140000  0.27900000  1.0 0.5435902275
C  C111  1  0.60430000  0.62130000  0.65770000  1.0 0.6102859832
C  C112  1  0.60430000  0.87870000  0.15770000  1.0 0.6102859832
C  C113  1  0.05220000  0.62290000  0.59720000  1.0 0.2194383775
C  C114  1  0.05220000  0.87710000  0.09720000  1.0 0.2194383775
C  C115  1  0.08980000  0.62140000  0.68150000  1.0 0.0831515942
C  C116  1  0.08980000  0.87860000  0.18150000  1.0 0.0831515942
C  C117  1  0.17130000  0.64520000  0.72460000  1.0 -0.0678997587
C  C118  1  0.17130000  0.85480000  0.22460000  1.0 -0.0678997587
C  C119  1  0.21440000  0.66850000  0.68390000  1.0 0.1329721123
C  C120  1  0.21440000  0.83150000  0.18390000  1.0 0.1329721123
C  C121  1  0.17460000  0.66820000  0.59950000  1.0 -0.0903989934
C  C122  1  0.17460000  0.83180000  0.09950000  1.0 -0.0903989934
C  C123  1  0.09080000  0.64730000  0.55610000  1.0 0.0101114984
C  C124  1  0.09080000  0.85270000  0.05610000  1.0 0.0101114984
C  C125  1  0.21440000  0.64400000  0.81410000  1.0 0.6102859832
C  C126  1  0.21440000  0.85600000  0.31410000  1.0 0.6102859832
C  C127  1  0.22180000  0.68980000  0.55400000  1.0 0.6773949064
C  C128  1  0.22180000  0.81020000  0.05400000  1.0 0.6773949064
C  C129  1  0.93980000  0.75560000  0.55710000  1.0 0.0101114984
C  C130  1  0.93980000  0.74440000  0.05710000  1.0 0.0101114984
C  C131  1  0.02200000  0.77920000  0.59330000  1.0 -0.0484938749
C  C132  1  0.02200000  0.72080000  0.09330000  1.0 -0.0484938749
C  C133  1  0.07640000  0.78990000  0.55440000  1.0 0.1091224521
C  C134  1  0.07640000  0.71010000  0.05440000  1.0 0.1091224521
C  C135  1  0.04990000  0.77320000  0.47500000  1.0 -0.0992323525
C  C136  1  0.04990000  0.72680000  0.97500000  1.0 -0.0992323525
C  C137  1  0.96890000  0.74900000  0.43650000  1.0 0.0413427121
C  C138  1  0.96890000  0.75100000  0.93650000  1.0 0.0303848525
C  C139  1  0.91580000  0.73960000  0.47900000  1.0 0.2407481742
C  C140  1  0.91580000  0.76040000  0.97900000  1.0 0.2455768086
C  C141  1  0.05420000  0.79310000  0.67970000  1.0 0.5995615072
C  C142  1  0.05420000  0.70690000  0.17970000  1.0 0.5995615072
C  C143  1  0.11040000  0.78390000  0.43330000  1.0 0.7181525625
C  C144  1  0.11040000  0.71610000  0.93330000  1.0 0.7181525625
C  C145  1  0.65080000  0.73650000  0.47160000  1.0 0.2407481742
C  C146  1  0.65080000  0.76350000  0.97160000  1.0 0.2407481742
C  C147  1  0.59500000  0.73990000  0.51350000  1.0 0.0029345801
C  C148  1  0.59500000  0.76010000  0.01350000  1.0 0.0029345801
C  C149  1  0.51540000  0.76380000  0.48050000  1.0 -0.0992323525
C  C150  1  0.51540000  0.73620000  0.98050000  1.0 -0.0992323525
C  C151  1  0.48960000  0.78420000  0.40670000  1.0 0.1091224521
C  C152  1  0.48960000  0.71580000  0.90670000  1.0 0.1091224521
C  C153  1  0.54450000  0.77930000  0.36380000  1.0 -0.0602839835
C  C154  1  0.54450000  0.72070000  0.86380000  1.0 -0.0602839835
C  C155  1  0.62570000  0.75520000  0.39560000  1.0 0.0029345801
C  C156  1  0.62570000  0.74480000  0.89560000  1.0 0.0029345801
C  C157  1  0.51420000  0.79880000  0.28240000  1.0 0.6170673169
C  C158  1  0.51420000  0.70120000  0.78240000  1.0 0.6102859832
C  C159  1  0.45710000  0.76790000  0.52590000  1.0 0.7181525625
C  C160  1  0.45710000  0.73210000  0.02590000  1.0 0.7181525625
C  C161  1  0.54130000  0.60560000  0.36480000  1.0 0.2194383775
C  C162  1  0.54130000  0.89440000  0.86480000  1.0 0.2194383775
C  C163  1  0.50350000  0.60870000  0.28140000  1.0 0.0303848525
C  C164  1  0.50350000  0.89130000  0.78140000  1.0 0.0303848525
C  C165  1  0.41590000  0.62660000  0.24250000  1.0 -0.0678997587
C  C166  1  0.41590000  0.87340000  0.74250000  1.0 -0.0678997587
C  C167  1  0.36760000  0.63960000  0.28570000  1.0 0.1091224521
C  C168  1  0.36760000  0.86040000  0.78570000  1.0 0.1091224521
C  C169  1  0.40840000  0.63700000  0.36810000  1.0 -0.0678997587
C  C170  1  0.40840000  0.86300000  0.86810000  1.0 -0.0678997587
C  C171  1  0.49760000  0.62120000  0.40900000  1.0 -0.0086998866
C  C172  1  0.49760000  0.87880000  0.90900000  1.0 -0.0086998866
C  C173  1  0.37640000  0.63380000  0.15630000  1.0 0.6170673169
C  C174  1  0.37640000  0.86620000  0.65630000  1.0 0.6170673169
C  C175  1  0.35380000  0.65100000  0.41620000  1.0 0.6945324637
C  C176  1  0.35380000  0.84900000  0.91620000  1.0 0.6945324637
C  C177  1  0.78600000  0.57860000  0.30530000  1.0 0.2326208823
C  C178  1  0.78600000  0.92140000  0.80530000  1.0 0.2326208823
C  C179  1  0.78720000  0.53880000  0.26710000  1.0 0.0236534201
C  C180  1  0.78720000  0.96120000  0.76710000  1.0 0.0236534201
C  C181  1  0.86260000  0.53060000  0.25070000  1.0 -0.0992323525
C  C182  1  0.86260000  0.96940000  0.75070000  1.0 -0.0992323525
C  C183  1  0.93630000  0.56030000  0.27130000  1.0 0.1091224521
C  C184  1  0.93630000  0.93970000  0.77130000  1.0 0.1091224521
C  C185  1  0.93040000  0.59950000  0.30640000  1.0 -0.0764962859
C  C186  1  0.93040000  0.90050000  0.80640000  1.0 -0.0764962859
C  C187  1  0.85750000  0.60850000  0.32400000  1.0 0.0029345801
C  C188  1  0.85750000  0.89150000  0.82400000  1.0 -0.000901313
C  C189  1  0.00570000  0.63200000  0.32540000  1.0 0.5995615072
C  C190  1  0.00570000  0.86800000  0.82540000  1.0 0.5995615072
C  C191  1  0.87020000  0.48800000  0.21600000  1.0 0.5569943684
C  C192  1  0.87020000  0.01200000  0.71600000  1.0 0.5549660422
N  N1  1  0.19740000  0.08160000  0.02280000  1.0 -0.7596515668
N  N2  1  0.19740000  0.41840000  0.52280000  1.0 -0.7596515668
N  N3  1  0.13940000  0.15820000  0.94890000  1.0 -0.7596515668
N  N4  1  0.13940000  0.34180000  0.44890000  1.0 -0.7596515668
N  N5  1  0.28050000  0.15530000  0.09600000  1.0 -0.7596515668
N  N6  1  0.28050000  0.34470000  0.59600000  1.0 -0.7596515668
N  N7  1  0.80260000  0.58160000  0.47720000  1.0 -0.7596515668
N  N8  1  0.80260000  0.91840000  0.97720000  1.0 -0.7596515668
N  N9  1  0.86060000  0.65820000  0.55110000  1.0 -0.7596515668
N  N10  1  0.86060000  0.84180000  0.05110000  1.0 -0.7596515668
N  N11  1  0.71950000  0.65530000  0.40400000  1.0 -0.7596515668
N  N12  1  0.71950000  0.84470000  0.90400000  1.0 -0.7596515668
O  O1  1  0.10900000  0.08630000  0.86780000  1.0 -0.4124810996
O  O2  1  0.10900000  0.41370000  0.36780000  1.0 -0.4013790608
O  O3  1  0.02690000  0.09800000  0.94900000  1.0 -0.4162790877
O  O4  1  0.02690000  0.40200000  0.44900000  1.0 -0.4162790877
O  O5  1  0.37280000  0.08620000  0.09400000  1.0 -0.4124810996
O  O6  1  0.37280000  0.41380000  0.59400000  1.0 -0.4124810996
O  O7  1  0.29040000  0.08550000  0.17740000  1.0 -0.4391469747
O  O8  1  0.29040000  0.41450000  0.67740000  1.0 -0.4391469747
O  O9  1  0.53210000  0.24160000  0.91990000  1.0 -0.642633798
O  O10  1  0.53210000  0.25840000  0.41990000  1.0 -0.642633798
O  O11  1  0.26450000  0.21410000  0.98750000  1.0 -0.4124810996
O  O12  1  0.26450000  0.28590000  0.48750000  1.0 -0.4124810996
O  O13  1  0.16320000  0.21530000  0.06090000  1.0 -0.4013790608
O  O14  1  0.16320000  0.28470000  0.56090000  1.0 -0.4013790608
O  O15  1  0.14880000  0.96290000  0.71550000  1.0 -0.3947628044
O  O16  1  0.14880000  0.53710000  0.21550000  1.0 -0.3947628044
O  O17  1  0.26470000  0.97830000  0.68820000  1.0 -0.4013790608
O  O18  1  0.26470000  0.52170000  0.18820000  1.0 -0.4013790608
O  O19  1  0.45130000  0.11290000  0.81330000  1.0 -0.600585533
O  O20  1  0.45130000  0.38710000  0.31330000  1.0 -0.600585533
O  O21  1  0.40710000  0.15520000  0.88400000  1.0 -0.600585533
O  O22  1  0.40710000  0.34480000  0.38400000  1.0 -0.600585533
O  O23  1  0.60110000  0.15690000  0.01150000  1.0 -0.6790553681
O  O24  1  0.60110000  0.34310000  0.51150000  1.0 -0.6790553681
O  O25  1  0.73150000  0.15370000  0.12250000  1.0 -0.6493666184
O  O26  1  0.73150000  0.34630000  0.62250000  1.0 -0.6493666184
O  O27  1  0.69710000  0.15580000  0.38080000  1.0 -0.6126334094
O  O28  1  0.69710000  0.34420000  0.88080000  1.0 -0.6186644756
O  O29  1  0.58810000  0.11600000  0.38670000  1.0 -0.6493666184
O  O30  1  0.58810000  0.38400000  0.88670000  1.0 -0.6493666184
O  O31  1  0.59950000  0.29940000  0.99120000  1.0 -0.6892541103
O  O32  1  0.59950000  0.20060000  0.49120000  1.0 -0.6892541103
O  O33  1  0.44070000  0.28930000  0.25810000  1.0 -0.6186644756
O  O34  1  0.44070000  0.21070000  0.75810000  1.0 -0.6186644756
O  O35  1  0.55590000  0.32320000  0.24700000  1.0 -0.6323934846
O  O36  1  0.55590000  0.17680000  0.74700000  1.0 -0.6323934846
O  O37  1  0.98090000  0.27720000  0.77880000  1.0 -0.5842143399
O  O38  1  0.98090000  0.22280000  0.27880000  1.0 -0.5842143399
O  O39  1  0.88340000  0.32170000  0.79310000  1.0 -0.6126334094
O  O40  1  0.88340000  0.17830000  0.29310000  1.0 -0.6126334094
O  O41  1  0.83030000  0.31430000  0.03680000  1.0 -0.6957403325
O  O42  1  0.83030000  0.18570000  0.53680000  1.0 -0.6957403325
O  O43  1  0.90060000  0.26190000  0.12590000  1.0 -0.6493666184
O  O44  1  0.90060000  0.23810000  0.62590000  1.0 -0.6493666184
O  O45  1  0.91880000  0.12130000  0.17620000  1.0 -0.5868465407
O  O46  1  0.91880000  0.37870000  0.67620000  1.0 -0.5842143399
O  O47  1  0.00680000  0.17040000  0.15560000  1.0 -0.6186644756
O  O48  1  0.00680000  0.32960000  0.65560000  1.0 -0.6186644756
O  O49  1  0.06290000  0.97760000  0.29330000  1.0 -0.4162790877
O  O50  1  0.06290000  0.52240000  0.79330000  1.0 -0.4124810996
O  O51  1  0.20460000  0.96390000  0.30430000  1.0 -0.4391469747
O  O52  1  0.20460000  0.53610000  0.80430000  1.0 -0.4391469747
O  O53  1  0.81940000  0.19030000  0.02010000  1.0 -0.6621070184
O  O54  1  0.81940000  0.30970000  0.52010000  1.0 -0.6621070184
O  O55  1  0.69780000  0.20410000  0.90670000  1.0 -0.6621070184
O  O56  1  0.69780000  0.29590000  0.40670000  1.0 -0.6621070184
O  O57  1  0.72900000  0.17240000  0.64780000  1.0 -0.6186644756
O  O58  1  0.72900000  0.32760000  0.14780000  1.0 -0.6186644756
O  O59  1  0.80720000  0.11500000  0.64990000  1.0 -0.5868465407
O  O60  1  0.80720000  0.38500000  0.14990000  1.0 -0.5868465407
O  O61  1  0.89100000  0.58630000  0.63220000  1.0 -0.4013790608
O  O62  1  0.89100000  0.91370000  0.13220000  1.0 -0.4124810996
O  O63  1  0.97310000  0.59800000  0.55100000  1.0 -0.4124810996
O  O64  1  0.97310000  0.90200000  0.05100000  1.0 -0.4124810996
O  O65  1  0.62720000  0.58620000  0.40600000  1.0 -0.4124810996
O  O66  1  0.62720000  0.91380000  0.90600000  1.0 -0.4124810996
O  O67  1  0.70960000  0.58550000  0.32260000  1.0 -0.4391469747
O  O68  1  0.70960000  0.91450000  0.82260000  1.0 -0.4391469747
O  O69  1  0.46790000  0.74160000  0.58010000  1.0 -0.642633798
O  O70  1  0.46790000  0.75840000  0.08010000  1.0 -0.642633798
O  O71  1  0.73550000  0.71410000  0.51250000  1.0 -0.4124810996
O  O72  1  0.73550000  0.78590000  0.01250000  1.0 -0.4124810996
O  O73  1  0.83680000  0.71530000  0.43910000  1.0 -0.4013790608
O  O74  1  0.83680000  0.78470000  0.93910000  1.0 -0.4013790608
O  O75  1  0.85120000  0.46290000  0.78450000  1.0 -0.3947628044
O  O76  1  0.85120000  0.03710000  0.28450000  1.0 -0.4013790608
O  O77  1  0.73530000  0.47830000  0.81180000  1.0 -0.4013790608
O  O78  1  0.73530000  0.02170000  0.31180000  1.0 -0.4013790608
O  O79  1  0.54870000  0.61290000  0.68670000  1.0 -0.600585533
O  O80  1  0.54870000  0.88710000  0.18670000  1.0 -0.600585533
O  O81  1  0.59290000  0.65520000  0.61600000  1.0 -0.600585533
O  O82  1  0.59290000  0.84480000  0.11600000  1.0 -0.600585533
O  O83  1  0.39890000  0.65690000  0.48850000  1.0 -0.6790553681
O  O84  1  0.39890000  0.84310000  0.98850000  1.0 -0.6790553681
O  O85  1  0.26850000  0.65370000  0.37750000  1.0 -0.6493666184
O  O86  1  0.26850000  0.84630000  0.87750000  1.0 -0.6493666184
O  O87  1  0.30290000  0.65580000  0.11920000  1.0 -0.6126334094
O  O88  1  0.30290000  0.84420000  0.61920000  1.0 -0.6126334094
O  O89  1  0.41190000  0.61600000  0.11330000  1.0 -0.6493666184
O  O90  1  0.41190000  0.88400000  0.61330000  1.0 -0.6493666184
O  O91  1  0.40050000  0.79940000  0.50880000  1.0 -0.6892541103
O  O92  1  0.40050000  0.70060000  0.00880000  1.0 -0.6892541103
O  O93  1  0.55930000  0.78930000  0.24190000  1.0 -0.6126334094
O  O94  1  0.55930000  0.71070000  0.74190000  1.0 -0.6186644756
O  O95  1  0.44410000  0.82320000  0.25300000  1.0 -0.6323934846
O  O96  1  0.44410000  0.67680000  0.75300000  1.0 -0.6323934846
O  O97  1  0.01910000  0.77720000  0.72120000  1.0 -0.5842143399
O  O98  1  0.01910000  0.72280000  0.22120000  1.0 -0.5842143399
O  O99  1  0.11660000  0.82170000  0.70690000  1.0 -0.6126334094
O  O100  1  0.11660000  0.67830000  0.20690000  1.0 -0.6126334094
O  O101  1  0.16970000  0.81430000  0.46320000  1.0 -0.6957403325
O  O102  1  0.16970000  0.68570000  0.96320000  1.0 -0.6957403325
O  O103  1  0.09940000  0.76190000  0.37410000  1.0 -0.6493666184
O  O104  1  0.09940000  0.73810000  0.87410000  1.0 -0.642633798
O  O105  1  0.08120000  0.62130000  0.32380000  1.0 -0.5842143399
O  O106  1  0.08120000  0.87870000  0.82380000  1.0 -0.5842143399
O  O107  1  0.99320000  0.67040000  0.34440000  1.0 -0.6186644756
O  O108  1  0.99320000  0.82960000  0.84440000  1.0 -0.6186644756
O  O109  1  0.93710000  0.47760000  0.20670000  1.0 -0.4124810996
O  O110  1  0.93710000  0.02240000  0.70670000  1.0 -0.4124810996
O  O111  1  0.79540000  0.46390000  0.19570000  1.0 -0.4391469747
O  O112  1  0.79540000  0.03610000  0.69570000  1.0 -0.4391469747
O  O113  1  0.18060000  0.69030000  0.47990000  1.0 -0.6621070184
O  O114  1  0.18060000  0.80970000  0.97990000  1.0 -0.6621070184
O  O115  1  0.30220000  0.70410000  0.59330000  1.0 -0.6621070184
O  O116  1  0.30220000  0.79590000  0.09330000  1.0 -0.6621070184
O  O117  1  0.27100000  0.67240000  0.85220000  1.0 -0.6126334094
O  O118  1  0.27100000  0.82760000  0.35220000  1.0 -0.6126334094
O  O119  1  0.19280000  0.61500000  0.85010000  1.0 -0.5842143399
O  O120  1  0.19280000  0.88500000  0.35010000  1.0 -0.5842143399
