# DDEC6 charges by PACMAN v1.1 (https://github.com/mtap-research/PACMAN-charge/)
data_DEZSOT_FSR_pacman
_symmetry_space_group_name_H-M   'P 1'
_cell_length_a   29.77420000
_cell_length_b   30.44600000
_cell_length_c   46.58030000
_cell_angle_alpha   90.00000000
_cell_angle_beta   90.00000000
_cell_angle_gamma   90.00000000
_symmetry_Int_Tables_number   1
_chemical_formula_structural   Co6B80H166C65(N3O16)2
_chemical_formula_sum   'Co48 B640 H1328 C520 N48 O256'
_cell_volume   42225.28850884
_cell_formula_units_Z   8
loop_
 _symmetry_equiv_pos_site_id
 _symmetry_equiv_pos_as_xyz
  1  'x, y, z'
loop_
 _atom_site_type_symbol
 _atom_site_label
 _atom_site_symmetry_multiplicity
 _atom_site_fract_x
 _atom_site_fract_y
 _atom_site_fract_z
 _atom_site_occupancy
 _atom_site_charge
Co  Co1  1  0.89994000  0.66717000  0.62702000  1.0 1.1221571566
Co  Co2  1  0.84193000  0.62959000  0.56825000  1.0 1.065545261
Co  Co3  1  0.80885000  0.72153000  0.59361000  1.0 1.0769291223
Co  Co4  1  0.09469000  0.16742000  0.62614000  1.0 1.1362432043
Co  Co5  1  0.33864000  0.62689000  0.42802000  1.0 1.0611225467
Co  Co6  1  0.28423000  0.67005000  0.37695000  1.0 0.9930425436
Co  Co7  1  0.60006000  0.83283000  0.12702000  1.0 1.1221571566
Co  Co8  1  0.65807000  0.87041000  0.06825000  1.0 1.065545261
Co  Co9  1  0.69115000  0.77847000  0.09361000  1.0 1.0769291223
Co  Co10  1  0.40531000  0.33258000  0.12614000  1.0 1.1340789796
Co  Co11  1  0.16136000  0.87311000  0.92802000  1.0 1.0611225467
Co  Co12  1  0.21577000  0.82995000  0.87695000  1.0 0.9930425436
Co  Co13  1  0.89994000  0.33283000  0.87298000  1.0 1.1221571566
Co  Co14  1  0.84193000  0.37041000  0.93175000  1.0 1.065545261
Co  Co15  1  0.80885000  0.27847000  0.90639000  1.0 1.0769291223
Co  Co16  1  0.09469000  0.83258000  0.87386000  1.0 1.1362432043
Co  Co17  1  0.33864000  0.37311000  0.07198000  1.0 1.0611225467
Co  Co18  1  0.28423000  0.32995000  0.12305000  1.0 0.9930425436
Co  Co19  1  0.60006000  0.16717000  0.37298000  1.0 1.1221571566
Co  Co20  1  0.65807000  0.12959000  0.43175000  1.0 1.0611225467
Co  Co21  1  0.69115000  0.22153000  0.40639000  1.0 1.0769291223
Co  Co22  1  0.40531000  0.66742000  0.37386000  1.0 1.1340789796
Co  Co23  1  0.16136000  0.12689000  0.57198000  1.0 1.0611225467
Co  Co24  1  0.21577000  0.17005000  0.62305000  1.0 0.9930425436
Co  Co25  1  0.10006000  0.33283000  0.37298000  1.0 1.1221571566
Co  Co26  1  0.15807000  0.37041000  0.43175000  1.0 1.0611225467
Co  Co27  1  0.19115000  0.27847000  0.40639000  1.0 1.0769291223
Co  Co28  1  0.90531000  0.83258000  0.37386000  1.0 1.1362432043
Co  Co29  1  0.66136000  0.37311000  0.57198000  1.0 1.0611225467
Co  Co30  1  0.71577000  0.32995000  0.62305000  1.0 0.9930425436
Co  Co31  1  0.39994000  0.16717000  0.87298000  1.0 1.1221571566
Co  Co32  1  0.34193000  0.12959000  0.93175000  1.0 1.065545261
Co  Co33  1  0.30885000  0.22153000  0.90639000  1.0 1.0769291223
Co  Co34  1  0.59469000  0.66742000  0.87386000  1.0 1.1362432043
Co  Co35  1  0.83864000  0.12689000  0.07198000  1.0 1.0611225467
Co  Co36  1  0.78423000  0.17005000  0.12305000  1.0 0.9930425436
Co  Co37  1  0.10006000  0.66717000  0.12702000  1.0 1.1221571566
Co  Co38  1  0.15807000  0.62959000  0.06825000  1.0 1.0611225467
Co  Co39  1  0.19115000  0.72153000  0.09361000  1.0 1.0769291223
Co  Co40  1  0.90531000  0.16742000  0.12614000  1.0 1.1362432043
Co  Co41  1  0.66136000  0.62689000  0.92802000  1.0 1.0611225467
Co  Co42  1  0.71577000  0.67005000  0.87695000  1.0 0.9930425436
Co  Co43  1  0.39994000  0.83283000  0.62702000  1.0 1.1221571566
Co  Co44  1  0.34193000  0.87041000  0.56825000  1.0 1.0611225467
Co  Co45  1  0.30885000  0.77847000  0.59361000  1.0 1.0769291223
Co  Co46  1  0.59469000  0.33258000  0.62614000  1.0 1.1362432043
Co  Co47  1  0.83864000  0.87311000  0.42802000  1.0 1.0611225467
Co  Co48  1  0.78423000  0.82995000  0.37695000  1.0 0.9930425436
B  B1  1  0.90330000  0.47980000  0.61170000  1.0 -0.1606281269
B  B2  1  0.94380000  0.50820000  0.63477000  1.0 -0.1415052439
B  B3  1  0.97290000  0.52830000  0.60296000  1.0 -0.149948696
B  B4  1  0.93290000  0.50000000  0.57981000  1.0 -0.1606281269
B  B5  1  0.01050000  0.61620000  0.53910000  1.0 -0.149948696
B  B6  1  0.03220000  0.66420000  0.56130000  1.0 -0.1415052439
B  B7  1  0.00460000  0.70200000  0.53730000  1.0 -0.1606281269
B  B8  1  0.98390000  0.65580000  0.51569000  1.0 -0.149948696
B  B9  1  0.82580000  0.60500000  0.72300000  1.0 -0.1109536572
B  B10  1  0.87780000  0.58200000  0.70540000  1.0 -0.1302056303
B  B11  1  0.84310000  0.54730000  0.68250000  1.0 -0.1606281269
B  B12  1  0.79170000  0.56710000  0.69901000  1.0 -0.149948696
B  B13  1  0.94840000  0.82420000  0.64092000  1.0 -0.1302056303
B  B14  1  0.97470000  0.80760000  0.60930000  1.0 -0.1606281269
B  B15  1  0.92690000  0.83880000  0.59090000  1.0 -0.1796330371
B  B16  1  0.90340000  0.85340000  0.62210000  1.0 -0.1713476009
B  B17  1  0.94750000  0.45030000  0.62992000  1.0 -0.149948696
B  B18  1  0.93950000  0.44380000  0.59030000  1.0 -0.189707164
B  B19  1  0.99660000  0.48390000  0.62319000  1.0 -0.1415052439
B  B20  1  0.98950000  0.47790000  0.58440000  1.0 -0.1713476009
B  B21  1  0.06920000  0.63240000  0.53740000  1.0 -0.1713476009
B  B22  1  0.03590000  0.62970000  0.50560000  1.0 -0.1713476009
B  B23  1  0.06500000  0.69420000  0.53660000  1.0 -0.1606281269
B  B24  1  0.03070000  0.68930000  0.50310000  1.0 -0.1606281269
B  B25  1  0.86050000  0.56530000  0.74180000  1.0 -0.118620516
B  B26  1  0.79990000  0.55380000  0.73645000  1.0 -0.149948696
B  B27  1  0.87310000  0.52400000  0.71300000  1.0 -0.1415052439
B  B28  1  0.81210000  0.51440000  0.70838000  1.0 -0.189707164
B  B29  1  0.99660000  0.85170000  0.62970000  1.0 -0.1606281269
B  B30  1  0.94890000  0.88200000  0.63900000  1.0 -0.1109536572
B  B31  1  0.98770000  0.85760000  0.59320000  1.0 -0.1713476009
B  B32  1  0.93850000  0.88860000  0.60210000  1.0 -0.219483368
B  B33  1  0.65370000  0.63780000  0.56620000  1.0 -0.1796330371
B  B34  1  0.68140000  0.60500000  0.54170000  1.0 -0.1713476009
B  B35  1  0.70010000  0.65000000  0.52180000  1.0 -0.2091000961
B  B36  1  0.67420000  0.68520000  0.54520000  1.0 -0.1302056303
B  B37  1  0.61470000  0.66170000  0.54530000  1.0 -0.1415052439
B  B38  1  0.62220000  0.61170000  0.53880000  1.0 -0.2091000961
B  B39  1  0.65730000  0.61970000  0.50720000  1.0 -0.1796330371
B  B40  1  0.65180000  0.67520000  0.51180000  1.0 -0.1713476009
B  B41  1  0.06600000  0.39610000  0.60420000  1.0 -0.1606281269
B  B42  1  0.03470000  0.37660000  0.63510000  1.0 -0.1302056303
B  B43  1  0.99470000  0.34990000  0.61210000  1.0 -0.1415052439
B  B44  1  0.02880000  0.37020000  0.58030000  1.0 -0.189707164
B  B45  1  0.13510000  0.71200000  0.47540000  1.0 -0.1713476009
B  B46  1  0.12240000  0.66340000  0.45880000  1.0 -0.1997867752
B  B47  1  0.14870000  0.62660000  0.48120000  1.0 -0.1713476009
B  B48  1  0.16410000  0.68160000  0.50220000  1.0 -0.149948696
B  B49  1  0.99500000  0.98480000  0.61810000  1.0 -0.1415052439
B  B50  1  0.02440000  0.96390000  0.58590000  1.0 -0.1796330371
B  B51  1  0.06550000  0.93820000  0.60860000  1.0 -0.1606281269
B  B52  1  0.03750000  0.95870000  0.64050000  1.0 -0.1415052439
B  B53  1  0.08120000  0.34460000  0.58670000  1.0 -0.1713476009
B  B54  1  0.08650000  0.35040000  0.62570000  1.0 -0.1109536572
B  B55  1  0.03660000  0.31860000  0.63030000  1.0 -0.1415052439
B  B56  1  0.03030000  0.31250000  0.59030000  1.0 -0.149948696
B  B57  1  0.19570000  0.70910000  0.47730000  1.0 -0.1997867752
B  B58  1  0.16680000  0.69990000  0.44790000  1.0 -0.1713476009
B  B59  1  0.17360000  0.64230000  0.44860000  1.0 -0.1796330371
B  B60  1  0.20660000  0.65070000  0.48190000  1.0 -0.149948696
B  B61  1  0.03880000  0.01690000  0.63610000  1.0 -0.118620516
B  B62  1  0.03030000  0.02030000  0.59570000  1.0 -0.149948696
B  B63  1  0.07870000  0.98830000  0.58990000  1.0 -0.189707164
B  B64  1  0.08780000  0.98530000  0.62808000  1.0 -0.1713476009
B  B65  1  0.56430000  0.66390000  0.46580000  1.0 -0.1109536572
B  B66  1  0.55260000  0.60550000  0.47320000  1.0 -0.189707164
B  B67  1  0.52220000  0.61760000  0.50400000  1.0 -0.189707164
B  B68  1  0.52980000  0.67520000  0.50060000  1.0 -0.149948696
B  B69  1  0.50680000  0.68760000  0.46470000  1.0 -0.1109536572
B  B70  1  0.52400000  0.63300000  0.44600000  1.0 -0.149948696
B  B71  1  0.49410000  0.60480000  0.47270000  1.0 -0.1997867752
B  B72  1  0.47810000  0.65180000  0.49070000  1.0 -0.1713476009
B  B73  1  0.39400000  0.57430000  0.30007000  1.0 -0.118620516
B  B74  1  0.36240000  0.60730000  0.27357000  1.0 -0.1026675894
B  B75  1  0.30900000  0.58580000  0.28728000  1.0 -0.1606281269
B  B76  1  0.34010000  0.55200000  0.31362000  1.0 -0.1713476009
B  B77  1  0.39150000  0.55730000  0.26262000  1.0 -0.1109536572
B  B78  1  0.37600000  0.51910000  0.29205000  1.0 -0.149948696
B  B79  1  0.33220000  0.56530000  0.25395000  1.0 -0.1415052439
B  B80  1  0.31630000  0.52720000  0.28303000  1.0 -0.1796330371
B  B81  1  0.59670000  0.02020000  0.11170000  1.0 -0.1606281269
B  B82  1  0.55620000  0.99180000  0.13477000  1.0 -0.1415052439
B  B83  1  0.52710000  0.97170000  0.10296000  1.0 -0.149948696
B  B84  1  0.56710000  0.00000000  0.07981000  1.0 -0.1606281269
B  B85  1  0.48950000  0.88380000  0.03910000  1.0 -0.149948696
B  B86  1  0.46780000  0.83580000  0.06130000  1.0 -0.1415052439
B  B87  1  0.49540000  0.79800000  0.03730000  1.0 -0.1606281269
B  B88  1  0.51610000  0.84420000  0.01569000  1.0 -0.149948696
B  B89  1  0.67420000  0.89500000  0.22300000  1.0 -0.1109536572
B  B90  1  0.62220000  0.91800000  0.20540000  1.0 -0.1302056303
B  B91  1  0.65690000  0.95270000  0.18250000  1.0 -0.1606281269
B  B92  1  0.70830000  0.93290000  0.19901000  1.0 -0.1606281269
B  B93  1  0.55160000  0.67580000  0.14092000  1.0 -0.1302056303
B  B94  1  0.52530000  0.69240000  0.10930000  1.0 -0.1606281269
B  B95  1  0.57310000  0.66120000  0.09090000  1.0 -0.1796330371
B  B96  1  0.59660000  0.64660000  0.12210000  1.0 -0.1713476009
B  B97  1  0.55250000  0.04970000  0.12992000  1.0 -0.149948696
B  B98  1  0.56050000  0.05620000  0.09030000  1.0 -0.189707164
B  B99  1  0.50340000  0.01610000  0.12319000  1.0 -0.149948696
B  B100  1  0.51050000  0.02210000  0.08440000  1.0 -0.1713476009
B  B101  1  0.43080000  0.86760000  0.03740000  1.0 -0.1713476009
B  B102  1  0.46410000  0.87030000  0.00560000  1.0 -0.1796330371
B  B103  1  0.43500000  0.80580000  0.03660000  1.0 -0.1606281269
B  B104  1  0.46930000  0.81070000  0.00310000  1.0 -0.1606281269
B  B105  1  0.63950000  0.93470000  0.24180000  1.0 -0.118620516
B  B106  1  0.70010000  0.94620000  0.23645000  1.0 -0.149948696
B  B107  1  0.62690000  0.97600000  0.21300000  1.0 -0.149948696
B  B108  1  0.68790000  0.98560000  0.20838000  1.0 -0.189707164
B  B109  1  0.50340000  0.64830000  0.12970000  1.0 -0.1606281269
B  B110  1  0.55110000  0.61800000  0.13900000  1.0 -0.1109536572
B  B111  1  0.51230000  0.64240000  0.09320000  1.0 -0.1713476009
B  B112  1  0.56150000  0.61140000  0.10210000  1.0 -0.219483368
B  B113  1  0.84630000  0.86220000  0.06620000  1.0 -0.1796330371
B  B114  1  0.81860000  0.89500000  0.04170000  1.0 -0.1713476009
B  B115  1  0.79990000  0.85000000  0.02180000  1.0 -0.2091000961
B  B116  1  0.82580000  0.81480000  0.04520000  1.0 -0.1302056303
B  B117  1  0.88530000  0.83830000  0.04530000  1.0 -0.1415052439
B  B118  1  0.87780000  0.88830000  0.03880000  1.0 -0.1997867752
B  B119  1  0.84270000  0.88030000  0.00720000  1.0 -0.1796330371
B  B120  1  0.84820000  0.82480000  0.01180000  1.0 -0.1796330371
B  B121  1  0.43400000  0.10390000  0.10420000  1.0 -0.1606281269
B  B122  1  0.46530000  0.12340000  0.13510000  1.0 -0.1302056303
B  B123  1  0.50530000  0.15010000  0.11210000  1.0 -0.149948696
B  B124  1  0.47120000  0.12980000  0.08030000  1.0 -0.189707164
B  B125  1  0.36490000  0.78800000  0.97540000  1.0 -0.1713476009
B  B126  1  0.37760000  0.83660000  0.95880000  1.0 -0.189707164
B  B127  1  0.35130000  0.87340000  0.98120000  1.0 -0.1713476009
B  B128  1  0.33590000  0.81840000  0.00220000  1.0 -0.1415052439
B  B129  1  0.50500000  0.51520000  0.11810000  1.0 -0.149948696
B  B130  1  0.47560000  0.53610000  0.08590000  1.0 -0.1796330371
B  B131  1  0.43450000  0.56180000  0.10860000  1.0 -0.1606281269
B  B132  1  0.46250000  0.54130000  0.14050000  1.0 -0.1415052439
B  B133  1  0.41880000  0.15540000  0.08670000  1.0 -0.1796330371
B  B134  1  0.41350000  0.14960000  0.12570000  1.0 -0.1109536572
B  B135  1  0.46340000  0.18140000  0.13030000  1.0 -0.1415052439
B  B136  1  0.46970000  0.18750000  0.09030000  1.0 -0.149948696
B  B137  1  0.30430000  0.79090000  0.97730000  1.0 -0.1997867752
B  B138  1  0.33320000  0.80010000  0.94790000  1.0 -0.1713476009
B  B139  1  0.32640000  0.85770000  0.94860000  1.0 -0.1796330371
B  B140  1  0.29340000  0.84930000  0.98190000  1.0 -0.1415052439
B  B141  1  0.46120000  0.48310000  0.13610000  1.0 -0.1109536572
B  B142  1  0.46970000  0.47970000  0.09570000  1.0 -0.149948696
B  B143  1  0.42130000  0.51170000  0.08990000  1.0 -0.189707164
B  B144  1  0.41220000  0.51470000  0.12808000  1.0 -0.1796330371
B  B145  1  0.93570000  0.83610000  0.96580000  1.0 -0.118620516
B  B146  1  0.94740000  0.89450000  0.97320000  1.0 -0.189707164
B  B147  1  0.97780000  0.88240000  0.00400000  1.0 -0.189707164
B  B148  1  0.97020000  0.82480000  0.00060000  1.0 -0.1415052439
B  B149  1  0.99320000  0.81240000  0.96470000  1.0 -0.1109536572
B  B150  1  0.97600000  0.86700000  0.94600000  1.0 -0.1415052439
B  B151  1  0.00590000  0.89520000  0.97270000  1.0 -0.1997867752
B  B152  1  0.02190000  0.84820000  0.99070000  1.0 -0.1713476009
B  B153  1  0.10600000  0.92570000  0.80007000  1.0 -0.118620516
B  B154  1  0.13760000  0.89270000  0.77357000  1.0 -0.1026675894
B  B155  1  0.19100000  0.91420000  0.78728000  1.0 -0.1606281269
B  B156  1  0.15990000  0.94800000  0.81362000  1.0 -0.1606281269
B  B157  1  0.10850000  0.94270000  0.76262000  1.0 -0.1109536572
B  B158  1  0.12400000  0.98090000  0.79205000  1.0 -0.149948696
B  B159  1  0.16780000  0.93470000  0.75395000  1.0 -0.1415052439
B  B160  1  0.18370000  0.97280000  0.78303000  1.0 -0.1796330371
B  B161  1  0.90330000  0.52020000  0.88830000  1.0 -0.1606281269
B  B162  1  0.94380000  0.49180000  0.86523000  1.0 -0.1415052439
B  B163  1  0.97290000  0.47170000  0.89704000  1.0 -0.149948696
B  B164  1  0.93290000  0.50000000  0.92019000  1.0 -0.1606281269
B  B165  1  0.01050000  0.38380000  0.96090000  1.0 -0.149948696
B  B166  1  0.03220000  0.33580000  0.93870000  1.0 -0.1415052439
B  B167  1  0.00460000  0.29800000  0.96270000  1.0 -0.1606281269
B  B168  1  0.98390000  0.34420000  0.98431000  1.0 -0.149948696
B  B169  1  0.82580000  0.39500000  0.77700000  1.0 -0.1109536572
B  B170  1  0.87780000  0.41800000  0.79460000  1.0 -0.1302056303
B  B171  1  0.84310000  0.45270000  0.81750000  1.0 -0.1606281269
B  B172  1  0.79170000  0.43290000  0.80099000  1.0 -0.149948696
B  B173  1  0.94840000  0.17580000  0.85908000  1.0 -0.1302056303
B  B174  1  0.97470000  0.19240000  0.89070000  1.0 -0.1606281269
B  B175  1  0.92690000  0.16120000  0.90910000  1.0 -0.1796330371
B  B176  1  0.90340000  0.14660000  0.87790000  1.0 -0.1713476009
B  B177  1  0.94750000  0.54970000  0.87008000  1.0 -0.149948696
B  B178  1  0.93950000  0.55620000  0.90970000  1.0 -0.189707164
B  B179  1  0.99660000  0.51610000  0.87681000  1.0 -0.149948696
B  B180  1  0.98950000  0.52210000  0.91560000  1.0 -0.1713476009
B  B181  1  0.06920000  0.36760000  0.96260000  1.0 -0.1713476009
B  B182  1  0.03590000  0.37030000  0.99440000  1.0 -0.1713476009
B  B183  1  0.06500000  0.30580000  0.96340000  1.0 -0.1606281269
B  B184  1  0.03070000  0.31070000  0.99690000  1.0 -0.1606281269
B  B185  1  0.86050000  0.43470000  0.75820000  1.0 -0.118620516
B  B186  1  0.79990000  0.44620000  0.76355000  1.0 -0.149948696
B  B187  1  0.87310000  0.47600000  0.78700000  1.0 -0.1415052439
B  B188  1  0.81210000  0.48560000  0.79162000  1.0 -0.189707164
B  B189  1  0.99660000  0.14830000  0.87030000  1.0 -0.1606281269
B  B190  1  0.94890000  0.11800000  0.86100000  1.0 -0.1109536572
B  B191  1  0.98770000  0.14240000  0.90680000  1.0 -0.1713476009
B  B192  1  0.93850000  0.11140000  0.89790000  1.0 -0.219483368
B  B193  1  0.65370000  0.36220000  0.93380000  1.0 -0.1796330371
B  B194  1  0.68140000  0.39500000  0.95830000  1.0 -0.1713476009
B  B195  1  0.70010000  0.35000000  0.97820000  1.0 -0.2091000961
B  B196  1  0.67420000  0.31480000  0.95480000  1.0 -0.1302056303
B  B197  1  0.61470000  0.33830000  0.95470000  1.0 -0.1415052439
B  B198  1  0.62220000  0.38830000  0.96120000  1.0 -0.2091000961
B  B199  1  0.65730000  0.38030000  0.99280000  1.0 -0.1796330371
B  B200  1  0.65180000  0.32480000  0.98820000  1.0 -0.1713476009
B  B201  1  0.06600000  0.60390000  0.89580000  1.0 -0.1606281269
B  B202  1  0.03470000  0.62340000  0.86490000  1.0 -0.1302056303
B  B203  1  0.99470000  0.65010000  0.88790000  1.0 -0.1415052439
B  B204  1  0.02880000  0.62980000  0.91970000  1.0 -0.189707164
B  B205  1  0.13510000  0.28800000  0.02460000  1.0 -0.1713476009
B  B206  1  0.12240000  0.33660000  0.04120000  1.0 -0.1997867752
B  B207  1  0.14870000  0.37340000  0.01880000  1.0 -0.1713476009
B  B208  1  0.16410000  0.31840000  0.99780000  1.0 -0.149948696
B  B209  1  0.99500000  0.01520000  0.88190000  1.0 -0.1415052439
B  B210  1  0.02440000  0.03610000  0.91410000  1.0 -0.1796330371
B  B211  1  0.06550000  0.06180000  0.89140000  1.0 -0.1606281269
B  B212  1  0.03750000  0.04130000  0.85950000  1.0 -0.1415052439
B  B213  1  0.08120000  0.65540000  0.91330000  1.0 -0.1713476009
B  B214  1  0.08650000  0.64960000  0.87430000  1.0 -0.1109536572
B  B215  1  0.03660000  0.68140000  0.86970000  1.0 -0.1415052439
B  B216  1  0.03030000  0.68750000  0.90970000  1.0 -0.149948696
B  B217  1  0.19570000  0.29090000  0.02270000  1.0 -0.1997867752
B  B218  1  0.16680000  0.30010000  0.05210000  1.0 -0.1713476009
B  B219  1  0.17360000  0.35770000  0.05140000  1.0 -0.1796330371
B  B220  1  0.20660000  0.34930000  0.01810000  1.0 -0.149948696
B  B221  1  0.03880000  0.98310000  0.86390000  1.0 -0.1109536572
B  B222  1  0.03030000  0.97970000  0.90430000  1.0 -0.149948696
B  B223  1  0.07870000  0.01170000  0.91010000  1.0 -0.189707164
B  B224  1  0.08780000  0.01470000  0.87192000  1.0 -0.1796330371
B  B225  1  0.56430000  0.33610000  0.03420000  1.0 -0.1109536572
B  B226  1  0.55260000  0.39450000  0.02680000  1.0 -0.189707164
B  B227  1  0.52220000  0.38240000  0.99600000  1.0 -0.189707164
B  B228  1  0.52980000  0.32480000  0.99940000  1.0 -0.149948696
B  B229  1  0.50680000  0.31240000  0.03530000  1.0 -0.1109536572
B  B230  1  0.52400000  0.36700000  0.05400000  1.0 -0.149948696
B  B231  1  0.49410000  0.39520000  0.02730000  1.0 -0.1997867752
B  B232  1  0.47810000  0.34820000  0.00930000  1.0 -0.1713476009
B  B233  1  0.39400000  0.42570000  0.19993000  1.0 -0.118620516
B  B234  1  0.36240000  0.39270000  0.22643000  1.0 -0.1026675894
B  B235  1  0.30900000  0.41420000  0.21272000  1.0 -0.1606281269
B  B236  1  0.34010000  0.44800000  0.18638000  1.0 -0.1606281269
B  B237  1  0.39150000  0.44270000  0.23738000  1.0 -0.1109536572
B  B238  1  0.37600000  0.48090000  0.20795000  1.0 -0.149948696
B  B239  1  0.33220000  0.43470000  0.24605000  1.0 -0.1415052439
B  B240  1  0.31630000  0.47280000  0.21697000  1.0 -0.1796330371
B  B241  1  0.59670000  0.97980000  0.38830000  1.0 -0.1606281269
B  B242  1  0.55620000  0.00820000  0.36523000  1.0 -0.1415052439
B  B243  1  0.52710000  0.02830000  0.39704000  1.0 -0.149948696
B  B244  1  0.56710000  0.00000000  0.42019000  1.0 -0.1606281269
B  B245  1  0.48950000  0.11620000  0.46090000  1.0 -0.149948696
B  B246  1  0.46780000  0.16420000  0.43870000  1.0 -0.1415052439
B  B247  1  0.49540000  0.20200000  0.46270000  1.0 -0.1606281269
B  B248  1  0.51610000  0.15580000  0.48431000  1.0 -0.149948696
B  B249  1  0.67420000  0.10500000  0.27700000  1.0 -0.1109536572
B  B250  1  0.62220000  0.08200000  0.29460000  1.0 -0.1302056303
B  B251  1  0.65690000  0.04730000  0.31750000  1.0 -0.1606281269
B  B252  1  0.70830000  0.06710000  0.30099000  1.0 -0.149948696
B  B253  1  0.55160000  0.32420000  0.35908000  1.0 -0.1302056303
B  B254  1  0.52530000  0.30760000  0.39070000  1.0 -0.1606281269
B  B255  1  0.57310000  0.33880000  0.40910000  1.0 -0.1796330371
B  B256  1  0.59660000  0.35340000  0.37790000  1.0 -0.1713476009
B  B257  1  0.55250000  0.95030000  0.37008000  1.0 -0.149948696
B  B258  1  0.56050000  0.94380000  0.40970000  1.0 -0.189707164
B  B259  1  0.50340000  0.98390000  0.37681000  1.0 -0.149948696
B  B260  1  0.51050000  0.97790000  0.41560000  1.0 -0.1713476009
B  B261  1  0.43080000  0.13240000  0.46260000  1.0 -0.1713476009
B  B262  1  0.46410000  0.12970000  0.49440000  1.0 -0.1796330371
B  B263  1  0.43500000  0.19420000  0.46340000  1.0 -0.1606281269
B  B264  1  0.46930000  0.18930000  0.49690000  1.0 -0.1606281269
B  B265  1  0.63950000  0.06530000  0.25820000  1.0 -0.118620516
B  B266  1  0.70010000  0.05380000  0.26355000  1.0 -0.149948696
B  B267  1  0.62690000  0.02400000  0.28700000  1.0 -0.1415052439
B  B268  1  0.68790000  0.01440000  0.29162000  1.0 -0.189707164
B  B269  1  0.50340000  0.35170000  0.37030000  1.0 -0.1606281269
B  B270  1  0.55110000  0.38200000  0.36100000  1.0 -0.1109536572
B  B271  1  0.51230000  0.35760000  0.40680000  1.0 -0.1713476009
B  B272  1  0.56150000  0.38860000  0.39790000  1.0 -0.219483368
B  B273  1  0.84630000  0.13780000  0.43380000  1.0 -0.1796330371
B  B274  1  0.81860000  0.10500000  0.45830000  1.0 -0.1713476009
B  B275  1  0.79990000  0.15000000  0.47820000  1.0 -0.2091000961
B  B276  1  0.82580000  0.18520000  0.45480000  1.0 -0.1302056303
B  B277  1  0.88530000  0.16170000  0.45470000  1.0 -0.1415052439
B  B278  1  0.87780000  0.11170000  0.46120000  1.0 -0.1997867752
B  B279  1  0.84270000  0.11970000  0.49280000  1.0 -0.1796330371
B  B280  1  0.84820000  0.17520000  0.48820000  1.0 -0.1713476009
B  B281  1  0.43400000  0.89610000  0.39580000  1.0 -0.1606281269
B  B282  1  0.46530000  0.87660000  0.36490000  1.0 -0.1302056303
B  B283  1  0.50530000  0.84990000  0.38790000  1.0 -0.149948696
B  B284  1  0.47120000  0.87020000  0.41970000  1.0 -0.189707164
B  B285  1  0.36490000  0.21200000  0.52460000  1.0 -0.1713476009
B  B286  1  0.37760000  0.16340000  0.54120000  1.0 -0.189707164
B  B287  1  0.35130000  0.12660000  0.51880000  1.0 -0.1713476009
B  B288  1  0.33590000  0.18160000  0.49780000  1.0 -0.1415052439
B  B289  1  0.50500000  0.48480000  0.38190000  1.0 -0.1415052439
B  B290  1  0.47560000  0.46390000  0.41410000  1.0 -0.1796330371
B  B291  1  0.43450000  0.43820000  0.39140000  1.0 -0.149948696
B  B292  1  0.46250000  0.45870000  0.35950000  1.0 -0.1415052439
B  B293  1  0.41880000  0.84460000  0.41330000  1.0 -0.1713476009
B  B294  1  0.41350000  0.85040000  0.37430000  1.0 -0.1109536572
B  B295  1  0.46340000  0.81860000  0.36970000  1.0 -0.1302056303
B  B296  1  0.46970000  0.81250000  0.40970000  1.0 -0.149948696
B  B297  1  0.30430000  0.20910000  0.52270000  1.0 -0.1997867752
B  B298  1  0.33320000  0.19990000  0.55210000  1.0 -0.1713476009
B  B299  1  0.32640000  0.14230000  0.55140000  1.0 -0.1796330371
B  B300  1  0.29340000  0.15070000  0.51810000  1.0 -0.1415052439
B  B301  1  0.46120000  0.51690000  0.36390000  1.0 -0.1109536572
B  B302  1  0.46970000  0.52030000  0.40430000  1.0 -0.149948696
B  B303  1  0.42130000  0.48830000  0.41010000  1.0 -0.189707164
B  B304  1  0.41220000  0.48530000  0.37192000  1.0 -0.1796330371
B  B305  1  0.93570000  0.16390000  0.53420000  1.0 -0.118620516
B  B306  1  0.94740000  0.10550000  0.52680000  1.0 -0.189707164
B  B307  1  0.97780000  0.11760000  0.49600000  1.0 -0.189707164
B  B308  1  0.97020000  0.17520000  0.49940000  1.0 -0.1415052439
B  B309  1  0.99320000  0.18760000  0.53530000  1.0 -0.1109536572
B  B310  1  0.97600000  0.13300000  0.55400000  1.0 -0.1415052439
B  B311  1  0.00590000  0.10480000  0.52730000  1.0 -0.1997867752
B  B312  1  0.02190000  0.15180000  0.50930000  1.0 -0.1713476009
B  B313  1  0.10600000  0.07430000  0.69993000  1.0 -0.118620516
B  B314  1  0.13760000  0.10730000  0.72643000  1.0 -0.1026675894
B  B315  1  0.19100000  0.08580000  0.71272000  1.0 -0.1606281269
B  B316  1  0.15990000  0.05200000  0.68638000  1.0 -0.1606281269
B  B317  1  0.10850000  0.05730000  0.73738000  1.0 -0.1109536572
B  B318  1  0.12400000  0.01910000  0.70795000  1.0 -0.149948696
B  B319  1  0.16780000  0.06530000  0.74605000  1.0 -0.1415052439
B  B320  1  0.18370000  0.02720000  0.71697000  1.0 -0.1796330371
B  B321  1  0.09670000  0.52020000  0.38830000  1.0 -0.1606281269
B  B322  1  0.05620000  0.49180000  0.36523000  1.0 -0.1415052439
B  B323  1  0.02710000  0.47170000  0.39704000  1.0 -0.149948696
B  B324  1  0.06710000  0.50000000  0.42019000  1.0 -0.1606281269
B  B325  1  0.98950000  0.38380000  0.46090000  1.0 -0.149948696
B  B326  1  0.96780000  0.33580000  0.43870000  1.0 -0.1415052439
B  B327  1  0.99540000  0.29800000  0.46270000  1.0 -0.1606281269
B  B328  1  0.01610000  0.34420000  0.48431000  1.0 -0.149948696
B  B329  1  0.17420000  0.39500000  0.27700000  1.0 -0.1109536572
B  B330  1  0.12220000  0.41800000  0.29460000  1.0 -0.1302056303
B  B331  1  0.15690000  0.45270000  0.31750000  1.0 -0.1606281269
B  B332  1  0.20830000  0.43290000  0.30099000  1.0 -0.149948696
B  B333  1  0.05160000  0.17580000  0.35908000  1.0 -0.1302056303
B  B334  1  0.02530000  0.19240000  0.39070000  1.0 -0.1606281269
B  B335  1  0.07310000  0.16120000  0.40910000  1.0 -0.1796330371
B  B336  1  0.09660000  0.14660000  0.37790000  1.0 -0.1713476009
B  B337  1  0.05250000  0.54970000  0.37008000  1.0 -0.149948696
B  B338  1  0.06050000  0.55620000  0.40970000  1.0 -0.189707164
B  B339  1  0.00340000  0.51610000  0.37681000  1.0 -0.1415052439
B  B340  1  0.01050000  0.52210000  0.41560000  1.0 -0.1713476009
B  B341  1  0.93080000  0.36760000  0.46260000  1.0 -0.1713476009
B  B342  1  0.96410000  0.37030000  0.49440000  1.0 -0.1796330371
B  B343  1  0.93500000  0.30580000  0.46340000  1.0 -0.1606281269
B  B344  1  0.96930000  0.31070000  0.49690000  1.0 -0.1606281269
B  B345  1  0.13950000  0.43470000  0.25820000  1.0 -0.118620516
B  B346  1  0.20010000  0.44620000  0.26355000  1.0 -0.149948696
B  B347  1  0.12690000  0.47600000  0.28700000  1.0 -0.1415052439
B  B348  1  0.18790000  0.48560000  0.29162000  1.0 -0.189707164
B  B349  1  0.00340000  0.14830000  0.37030000  1.0 -0.1606281269
B  B350  1  0.05110000  0.11800000  0.36100000  1.0 -0.1109536572
B  B351  1  0.01230000  0.14240000  0.40680000  1.0 -0.1713476009
B  B352  1  0.06150000  0.11140000  0.39790000  1.0 -0.219483368
B  B353  1  0.34630000  0.36220000  0.43380000  1.0 -0.1796330371
B  B354  1  0.31860000  0.39500000  0.45830000  1.0 -0.1713476009
B  B355  1  0.29990000  0.35000000  0.47820000  1.0 -0.2091000961
B  B356  1  0.32580000  0.31480000  0.45480000  1.0 -0.1302056303
B  B357  1  0.38530000  0.33830000  0.45470000  1.0 -0.1415052439
B  B358  1  0.37780000  0.38830000  0.46120000  1.0 -0.1997867752
B  B359  1  0.34270000  0.38030000  0.49280000  1.0 -0.1796330371
B  B360  1  0.34820000  0.32480000  0.48820000  1.0 -0.1713476009
B  B361  1  0.93400000  0.60390000  0.39580000  1.0 -0.1606281269
B  B362  1  0.96530000  0.62340000  0.36490000  1.0 -0.1302056303
B  B363  1  0.00530000  0.65010000  0.38790000  1.0 -0.1415052439
B  B364  1  0.97120000  0.62980000  0.41970000  1.0 -0.189707164
B  B365  1  0.86490000  0.28800000  0.52460000  1.0 -0.1713476009
B  B366  1  0.87760000  0.33660000  0.54120000  1.0 -0.1997867752
B  B367  1  0.85130000  0.37340000  0.51880000  1.0 -0.1713476009
B  B368  1  0.83590000  0.31840000  0.49780000  1.0 -0.1415052439
B  B369  1  0.00500000  0.01520000  0.38190000  1.0 -0.1415052439
B  B370  1  0.97560000  0.03610000  0.41410000  1.0 -0.1796330371
B  B371  1  0.93450000  0.06180000  0.39140000  1.0 -0.149948696
B  B372  1  0.96250000  0.04130000  0.35950000  1.0 -0.1415052439
B  B373  1  0.91880000  0.65540000  0.41330000  1.0 -0.1796330371
B  B374  1  0.91350000  0.64960000  0.37430000  1.0 -0.1109536572
B  B375  1  0.96340000  0.68140000  0.36970000  1.0 -0.1415052439
B  B376  1  0.96970000  0.68750000  0.40970000  1.0 -0.149948696
B  B377  1  0.80430000  0.29090000  0.52270000  1.0 -0.1997867752
B  B378  1  0.83320000  0.30010000  0.55210000  1.0 -0.1713476009
B  B379  1  0.82640000  0.35770000  0.55140000  1.0 -0.1796330371
B  B380  1  0.79340000  0.34930000  0.51810000  1.0 -0.149948696
B  B381  1  0.96120000  0.98310000  0.36390000  1.0 -0.1109536572
B  B382  1  0.96970000  0.97970000  0.40430000  1.0 -0.149948696
B  B383  1  0.92130000  0.01170000  0.41010000  1.0 -0.1796330371
B  B384  1  0.91220000  0.01470000  0.37192000  1.0 -0.1796330371
B  B385  1  0.43570000  0.33610000  0.53420000  1.0 -0.118620516
B  B386  1  0.44740000  0.39450000  0.52680000  1.0 -0.189707164
B  B387  1  0.47780000  0.38240000  0.49600000  1.0 -0.189707164
B  B388  1  0.47020000  0.32480000  0.49940000  1.0 -0.149948696
B  B389  1  0.49320000  0.31240000  0.53530000  1.0 -0.1109536572
B  B390  1  0.47600000  0.36700000  0.55400000  1.0 -0.149948696
B  B391  1  0.50590000  0.39520000  0.52730000  1.0 -0.1997867752
B  B392  1  0.52190000  0.34820000  0.50930000  1.0 -0.1713476009
B  B393  1  0.60600000  0.42570000  0.69993000  1.0 -0.118620516
B  B394  1  0.63760000  0.39270000  0.72643000  1.0 -0.1026675894
B  B395  1  0.69100000  0.41420000  0.71272000  1.0 -0.1606281269
B  B396  1  0.65990000  0.44800000  0.68638000  1.0 -0.1606281269
B  B397  1  0.60850000  0.44270000  0.73738000  1.0 -0.1109536572
B  B398  1  0.62400000  0.48090000  0.70795000  1.0 -0.149948696
B  B399  1  0.66780000  0.43470000  0.74605000  1.0 -0.1415052439
B  B400  1  0.68370000  0.47280000  0.71697000  1.0 -0.1796330371
B  B401  1  0.40330000  0.97980000  0.88830000  1.0 -0.1606281269
B  B402  1  0.44380000  0.00820000  0.86523000  1.0 -0.1415052439
B  B403  1  0.47290000  0.02830000  0.89704000  1.0 -0.149948696
B  B404  1  0.43290000  0.00000000  0.92019000  1.0 -0.1606281269
B  B405  1  0.51050000  0.11620000  0.96090000  1.0 -0.149948696
B  B406  1  0.53220000  0.16420000  0.93870000  1.0 -0.1415052439
B  B407  1  0.50460000  0.20200000  0.96270000  1.0 -0.1606281269
B  B408  1  0.48390000  0.15580000  0.98431000  1.0 -0.149948696
B  B409  1  0.32580000  0.10500000  0.77700000  1.0 -0.1109536572
B  B410  1  0.37780000  0.08200000  0.79460000  1.0 -0.1302056303
B  B411  1  0.34310000  0.04730000  0.81750000  1.0 -0.1606281269
B  B412  1  0.29170000  0.06710000  0.80099000  1.0 -0.1606281269
B  B413  1  0.44840000  0.32420000  0.85908000  1.0 -0.1302056303
B  B414  1  0.47470000  0.30760000  0.89070000  1.0 -0.1606281269
B  B415  1  0.42690000  0.33880000  0.90910000  1.0 -0.1796330371
B  B416  1  0.40340000  0.35340000  0.87790000  1.0 -0.1713476009
B  B417  1  0.44750000  0.95030000  0.87008000  1.0 -0.149948696
B  B418  1  0.43950000  0.94380000  0.90970000  1.0 -0.189707164
B  B419  1  0.49660000  0.98390000  0.87681000  1.0 -0.149948696
B  B420  1  0.48950000  0.97790000  0.91560000  1.0 -0.1713476009
B  B421  1  0.56920000  0.13240000  0.96260000  1.0 -0.1713476009
B  B422  1  0.53590000  0.12970000  0.99440000  1.0 -0.1796330371
B  B423  1  0.56500000  0.19420000  0.96340000  1.0 -0.1606281269
B  B424  1  0.53070000  0.18930000  0.99690000  1.0 -0.1606281269
B  B425  1  0.36050000  0.06530000  0.75820000  1.0 -0.1109536572
B  B426  1  0.29990000  0.05380000  0.76355000  1.0 -0.149948696
B  B427  1  0.37310000  0.02400000  0.78700000  1.0 -0.1415052439
B  B428  1  0.31210000  0.01440000  0.79162000  1.0 -0.189707164
B  B429  1  0.49660000  0.35170000  0.87030000  1.0 -0.1606281269
B  B430  1  0.44890000  0.38200000  0.86100000  1.0 -0.1109536572
B  B431  1  0.48770000  0.35760000  0.90680000  1.0 -0.1713476009
B  B432  1  0.43850000  0.38860000  0.89790000  1.0 -0.219483368
B  B433  1  0.15370000  0.13780000  0.93380000  1.0 -0.1796330371
B  B434  1  0.18140000  0.10500000  0.95830000  1.0 -0.1713476009
B  B435  1  0.20010000  0.15000000  0.97820000  1.0 -0.2091000961
B  B436  1  0.17420000  0.18520000  0.95480000  1.0 -0.1302056303
B  B437  1  0.11470000  0.16170000  0.95470000  1.0 -0.1415052439
B  B438  1  0.12220000  0.11170000  0.96120000  1.0 -0.2091000961
B  B439  1  0.15730000  0.11970000  0.99280000  1.0 -0.1796330371
B  B440  1  0.15180000  0.17520000  0.98820000  1.0 -0.1713476009
B  B441  1  0.56600000  0.89610000  0.89580000  1.0 -0.1606281269
B  B442  1  0.53470000  0.87660000  0.86490000  1.0 -0.1302056303
B  B443  1  0.49470000  0.84990000  0.88790000  1.0 -0.1415052439
B  B444  1  0.52880000  0.87020000  0.91970000  1.0 -0.189707164
B  B445  1  0.63510000  0.21200000  0.02460000  1.0 -0.1713476009
B  B446  1  0.62240000  0.16340000  0.04120000  1.0 -0.1997867752
B  B447  1  0.64870000  0.12660000  0.01880000  1.0 -0.1713476009
B  B448  1  0.66410000  0.18160000  0.99780000  1.0 -0.149948696
B  B449  1  0.49500000  0.48480000  0.88190000  1.0 -0.1415052439
B  B450  1  0.52440000  0.46390000  0.91410000  1.0 -0.1796330371
B  B451  1  0.56550000  0.43820000  0.89140000  1.0 -0.149948696
B  B452  1  0.53750000  0.45870000  0.85950000  1.0 -0.1415052439
B  B453  1  0.58120000  0.84460000  0.91330000  1.0 -0.1713476009
B  B454  1  0.58650000  0.85040000  0.87430000  1.0 -0.1109536572
B  B455  1  0.53660000  0.81860000  0.86970000  1.0 -0.1302056303
B  B456  1  0.53030000  0.81250000  0.90970000  1.0 -0.149948696
B  B457  1  0.69570000  0.20910000  0.02270000  1.0 -0.1997867752
B  B458  1  0.66680000  0.19990000  0.05210000  1.0 -0.1713476009
B  B459  1  0.67360000  0.14230000  0.05140000  1.0 -0.1796330371
B  B460  1  0.70660000  0.15070000  0.01810000  1.0 -0.149948696
B  B461  1  0.53880000  0.51690000  0.86390000  1.0 -0.1109536572
B  B462  1  0.53030000  0.52030000  0.90430000  1.0 -0.149948696
B  B463  1  0.57870000  0.48830000  0.91010000  1.0 -0.1796330371
B  B464  1  0.58780000  0.48530000  0.87192000  1.0 -0.1796330371
B  B465  1  0.06430000  0.16390000  0.03420000  1.0 -0.118620516
B  B466  1  0.05260000  0.10550000  0.02680000  1.0 -0.189707164
B  B467  1  0.02220000  0.11760000  0.99600000  1.0 -0.189707164
B  B468  1  0.02980000  0.17520000  0.99940000  1.0 -0.149948696
B  B469  1  0.00680000  0.18760000  0.03530000  1.0 -0.1109536572
B  B470  1  0.02400000  0.13300000  0.05400000  1.0 -0.1415052439
B  B471  1  0.99410000  0.10480000  0.02730000  1.0 -0.1997867752
B  B472  1  0.97810000  0.15180000  0.00930000  1.0 -0.1713476009
B  B473  1  0.89400000  0.07430000  0.19993000  1.0 -0.118620516
B  B474  1  0.86240000  0.10730000  0.22643000  1.0 -0.1026675894
B  B475  1  0.80900000  0.08580000  0.21272000  1.0 -0.1606281269
B  B476  1  0.84010000  0.05200000  0.18638000  1.0 -0.1606281269
B  B477  1  0.89150000  0.05730000  0.23738000  1.0 -0.1109536572
B  B478  1  0.87600000  0.01910000  0.20795000  1.0 -0.149948696
B  B479  1  0.83220000  0.06530000  0.24605000  1.0 -0.1415052439
B  B480  1  0.81630000  0.02720000  0.21697000  1.0 -0.1713476009
B  B481  1  0.09670000  0.47980000  0.11170000  1.0 -0.1606281269
B  B482  1  0.05620000  0.50820000  0.13477000  1.0 -0.1415052439
B  B483  1  0.02710000  0.52830000  0.10296000  1.0 -0.149948696
B  B484  1  0.06710000  0.50000000  0.07981000  1.0 -0.1606281269
B  B485  1  0.98950000  0.61620000  0.03910000  1.0 -0.149948696
B  B486  1  0.96780000  0.66420000  0.06130000  1.0 -0.1415052439
B  B487  1  0.99540000  0.70200000  0.03730000  1.0 -0.1606281269
B  B488  1  0.01610000  0.65580000  0.01569000  1.0 -0.149948696
B  B489  1  0.17420000  0.60500000  0.22300000  1.0 -0.1109536572
B  B490  1  0.12220000  0.58200000  0.20540000  1.0 -0.1302056303
B  B491  1  0.15690000  0.54730000  0.18250000  1.0 -0.1606281269
B  B492  1  0.20830000  0.56710000  0.19901000  1.0 -0.149948696
B  B493  1  0.05160000  0.82420000  0.14092000  1.0 -0.1302056303
B  B494  1  0.02530000  0.80760000  0.10930000  1.0 -0.1606281269
B  B495  1  0.07310000  0.83880000  0.09090000  1.0 -0.1796330371
B  B496  1  0.09660000  0.85340000  0.12210000  1.0 -0.1713476009
B  B497  1  0.05250000  0.45030000  0.12992000  1.0 -0.149948696
B  B498  1  0.06050000  0.44380000  0.09030000  1.0 -0.189707164
B  B499  1  0.00340000  0.48390000  0.12319000  1.0 -0.1415052439
B  B500  1  0.01050000  0.47790000  0.08440000  1.0 -0.1713476009
B  B501  1  0.93080000  0.63240000  0.03740000  1.0 -0.1713476009
B  B502  1  0.96410000  0.62970000  0.00560000  1.0 -0.1796330371
B  B503  1  0.93500000  0.69420000  0.03660000  1.0 -0.1606281269
B  B504  1  0.96930000  0.68930000  0.00310000  1.0 -0.1606281269
B  B505  1  0.13950000  0.56530000  0.24180000  1.0 -0.118620516
B  B506  1  0.20010000  0.55380000  0.23645000  1.0 -0.149948696
B  B507  1  0.12690000  0.52400000  0.21300000  1.0 -0.149948696
B  B508  1  0.18790000  0.51440000  0.20838000  1.0 -0.189707164
B  B509  1  0.00340000  0.85170000  0.12970000  1.0 -0.1606281269
B  B510  1  0.05110000  0.88200000  0.13900000  1.0 -0.1109536572
B  B511  1  0.01230000  0.85760000  0.09320000  1.0 -0.1713476009
B  B512  1  0.06150000  0.88860000  0.10210000  1.0 -0.219483368
B  B513  1  0.34630000  0.63780000  0.06620000  1.0 -0.1796330371
B  B514  1  0.31860000  0.60500000  0.04170000  1.0 -0.1713476009
B  B515  1  0.29990000  0.65000000  0.02180000  1.0 -0.2091000961
B  B516  1  0.32580000  0.68520000  0.04520000  1.0 -0.1302056303
B  B517  1  0.38530000  0.66170000  0.04530000  1.0 -0.1415052439
B  B518  1  0.37780000  0.61170000  0.03880000  1.0 -0.1997867752
B  B519  1  0.34270000  0.61970000  0.00720000  1.0 -0.1796330371
B  B520  1  0.34820000  0.67520000  0.01180000  1.0 -0.1713476009
B  B521  1  0.93400000  0.39610000  0.10420000  1.0 -0.1606281269
B  B522  1  0.96530000  0.37660000  0.13510000  1.0 -0.1302056303
B  B523  1  0.00530000  0.34990000  0.11210000  1.0 -0.1415052439
B  B524  1  0.97120000  0.37020000  0.08030000  1.0 -0.189707164
B  B525  1  0.86490000  0.71200000  0.97540000  1.0 -0.1713476009
B  B526  1  0.87760000  0.66340000  0.95880000  1.0 -0.1997867752
B  B527  1  0.85130000  0.62660000  0.98120000  1.0 -0.1713476009
B  B528  1  0.83590000  0.68160000  0.00220000  1.0 -0.1415052439
B  B529  1  0.00500000  0.98480000  0.11810000  1.0 -0.1415052439
B  B530  1  0.97560000  0.96390000  0.08590000  1.0 -0.1796330371
B  B531  1  0.93450000  0.93820000  0.10860000  1.0 -0.149948696
B  B532  1  0.96250000  0.95870000  0.14050000  1.0 -0.1415052439
B  B533  1  0.91880000  0.34460000  0.08670000  1.0 -0.1796330371
B  B534  1  0.91350000  0.35040000  0.12570000  1.0 -0.1109536572
B  B535  1  0.96340000  0.31860000  0.13030000  1.0 -0.1415052439
B  B536  1  0.96970000  0.31250000  0.09030000  1.0 -0.149948696
B  B537  1  0.80430000  0.70910000  0.97730000  1.0 -0.1997867752
B  B538  1  0.83320000  0.69990000  0.94790000  1.0 -0.1713476009
B  B539  1  0.82640000  0.64230000  0.94860000  1.0 -0.1796330371
B  B540  1  0.79340000  0.65070000  0.98190000  1.0 -0.1415052439
B  B541  1  0.96120000  0.01690000  0.13610000  1.0 -0.1109536572
B  B542  1  0.96970000  0.02030000  0.09570000  1.0 -0.149948696
B  B543  1  0.92130000  0.98830000  0.08990000  1.0 -0.1796330371
B  B544  1  0.91220000  0.98530000  0.12808000  1.0 -0.1796330371
B  B545  1  0.43570000  0.66390000  0.96580000  1.0 -0.118620516
B  B546  1  0.44740000  0.60550000  0.97320000  1.0 -0.189707164
B  B547  1  0.47780000  0.61760000  0.00400000  1.0 -0.189707164
B  B548  1  0.47020000  0.67520000  0.00060000  1.0 -0.149948696
B  B549  1  0.49320000  0.68760000  0.96470000  1.0 -0.1109536572
B  B550  1  0.47600000  0.63300000  0.94600000  1.0 -0.149948696
B  B551  1  0.50590000  0.60480000  0.97270000  1.0 -0.1997867752
B  B552  1  0.52190000  0.65180000  0.99070000  1.0 -0.1713476009
B  B553  1  0.60600000  0.57430000  0.80007000  1.0 -0.118620516
B  B554  1  0.63760000  0.60730000  0.77357000  1.0 -0.1026675894
B  B555  1  0.69100000  0.58580000  0.78728000  1.0 -0.1606281269
B  B556  1  0.65990000  0.55200000  0.81362000  1.0 -0.1713476009
B  B557  1  0.60850000  0.55730000  0.76262000  1.0 -0.1109536572
B  B558  1  0.62400000  0.51910000  0.79205000  1.0 -0.149948696
B  B559  1  0.66780000  0.56530000  0.75395000  1.0 -0.1415052439
B  B560  1  0.68370000  0.52720000  0.78303000  1.0 -0.1796330371
B  B561  1  0.40330000  0.02020000  0.61170000  1.0 -0.1606281269
B  B562  1  0.44380000  0.99180000  0.63477000  1.0 -0.1415052439
B  B563  1  0.47290000  0.97170000  0.60296000  1.0 -0.149948696
B  B564  1  0.43290000  0.00000000  0.57981000  1.0 -0.1606281269
B  B565  1  0.51050000  0.88380000  0.53910000  1.0 -0.149948696
B  B566  1  0.53220000  0.83580000  0.56130000  1.0 -0.1415052439
B  B567  1  0.50460000  0.79800000  0.53730000  1.0 -0.1606281269
B  B568  1  0.48390000  0.84420000  0.51569000  1.0 -0.149948696
B  B569  1  0.32580000  0.89500000  0.72300000  1.0 -0.1109536572
B  B570  1  0.37780000  0.91800000  0.70540000  1.0 -0.1302056303
B  B571  1  0.34310000  0.95270000  0.68250000  1.0 -0.1606281269
B  B572  1  0.29170000  0.93290000  0.69901000  1.0 -0.1606281269
B  B573  1  0.44840000  0.67580000  0.64092000  1.0 -0.1302056303
B  B574  1  0.47470000  0.69240000  0.60930000  1.0 -0.1606281269
B  B575  1  0.42690000  0.66120000  0.59090000  1.0 -0.1796330371
B  B576  1  0.40340000  0.64660000  0.62210000  1.0 -0.1713476009
B  B577  1  0.44750000  0.04970000  0.62992000  1.0 -0.149948696
B  B578  1  0.43950000  0.05620000  0.59030000  1.0 -0.189707164
B  B579  1  0.49660000  0.01610000  0.62319000  1.0 -0.149948696
B  B580  1  0.48950000  0.02210000  0.58440000  1.0 -0.1713476009
B  B581  1  0.56920000  0.86760000  0.53740000  1.0 -0.1713476009
B  B582  1  0.53590000  0.87030000  0.50560000  1.0 -0.1713476009
B  B583  1  0.56500000  0.80580000  0.53660000  1.0 -0.1606281269
B  B584  1  0.53070000  0.81070000  0.50310000  1.0 -0.1606281269
B  B585  1  0.36050000  0.93470000  0.74180000  1.0 -0.1109536572
B  B586  1  0.29990000  0.94620000  0.73645000  1.0 -0.149948696
B  B587  1  0.37310000  0.97600000  0.71300000  1.0 -0.149948696
B  B588  1  0.31210000  0.98560000  0.70838000  1.0 -0.189707164
B  B589  1  0.49660000  0.64830000  0.62970000  1.0 -0.1606281269
B  B590  1  0.44890000  0.61800000  0.63900000  1.0 -0.1109536572
B  B591  1  0.48770000  0.64240000  0.59320000  1.0 -0.1713476009
B  B592  1  0.43850000  0.61140000  0.60210000  1.0 -0.219483368
B  B593  1  0.15370000  0.86220000  0.56620000  1.0 -0.1796330371
B  B594  1  0.18140000  0.89500000  0.54170000  1.0 -0.1713476009
B  B595  1  0.20010000  0.85000000  0.52180000  1.0 -0.2091000961
B  B596  1  0.17420000  0.81480000  0.54520000  1.0 -0.1302056303
B  B597  1  0.11470000  0.83830000  0.54530000  1.0 -0.1415052439
B  B598  1  0.12220000  0.88830000  0.53880000  1.0 -0.2091000961
B  B599  1  0.15730000  0.88030000  0.50720000  1.0 -0.1796330371
B  B600  1  0.15180000  0.82480000  0.51180000  1.0 -0.1713476009
B  B601  1  0.56600000  0.10390000  0.60420000  1.0 -0.1606281269
B  B602  1  0.53470000  0.12340000  0.63510000  1.0 -0.1302056303
B  B603  1  0.49470000  0.15010000  0.61210000  1.0 -0.1415052439
B  B604  1  0.52880000  0.12980000  0.58030000  1.0 -0.189707164
B  B605  1  0.63510000  0.78800000  0.47540000  1.0 -0.1713476009
B  B606  1  0.62240000  0.83660000  0.45880000  1.0 -0.1997867752
B  B607  1  0.64870000  0.87340000  0.48120000  1.0 -0.1713476009
B  B608  1  0.66410000  0.81840000  0.50220000  1.0 -0.149948696
B  B609  1  0.49500000  0.51520000  0.61810000  1.0 -0.1415052439
B  B610  1  0.52440000  0.53610000  0.58590000  1.0 -0.1796330371
B  B611  1  0.56550000  0.56180000  0.60860000  1.0 -0.149948696
B  B612  1  0.53750000  0.54130000  0.64050000  1.0 -0.1415052439
B  B613  1  0.58120000  0.15540000  0.58670000  1.0 -0.1713476009
B  B614  1  0.58650000  0.14960000  0.62570000  1.0 -0.1109536572
B  B615  1  0.53660000  0.18140000  0.63030000  1.0 -0.1415052439
B  B616  1  0.53030000  0.18750000  0.59030000  1.0 -0.149948696
B  B617  1  0.69570000  0.79090000  0.47730000  1.0 -0.1997867752
B  B618  1  0.66680000  0.80010000  0.44790000  1.0 -0.1713476009
B  B619  1  0.67360000  0.85770000  0.44860000  1.0 -0.1796330371
B  B620  1  0.70660000  0.84930000  0.48190000  1.0 -0.149948696
B  B621  1  0.53880000  0.48310000  0.63610000  1.0 -0.1109536572
B  B622  1  0.53030000  0.47970000  0.59570000  1.0 -0.149948696
B  B623  1  0.57870000  0.51170000  0.58990000  1.0 -0.1796330371
B  B624  1  0.58780000  0.51470000  0.62808000  1.0 -0.1796330371
B  B625  1  0.06430000  0.83610000  0.46580000  1.0 -0.118620516
B  B626  1  0.05260000  0.89450000  0.47320000  1.0 -0.189707164
B  B627  1  0.02220000  0.88240000  0.50400000  1.0 -0.189707164
B  B628  1  0.02980000  0.82480000  0.50060000  1.0 -0.149948696
B  B629  1  0.00680000  0.81240000  0.46470000  1.0 -0.1109536572
B  B630  1  0.02400000  0.86700000  0.44600000  1.0 -0.1415052439
B  B631  1  0.99410000  0.89520000  0.47270000  1.0 -0.1997867752
B  B632  1  0.97810000  0.84820000  0.49070000  1.0 -0.1713476009
B  B633  1  0.89400000  0.92570000  0.30007000  1.0 -0.118620516
B  B634  1  0.86240000  0.89270000  0.27357000  1.0 -0.1026675894
B  B635  1  0.80900000  0.91420000  0.28728000  1.0 -0.1606281269
B  B636  1  0.84010000  0.94800000  0.31362000  1.0 -0.1606281269
B  B637  1  0.89150000  0.94270000  0.26262000  1.0 -0.1109536572
B  B638  1  0.87600000  0.98090000  0.29205000  1.0 -0.149948696
B  B639  1  0.83220000  0.93470000  0.25395000  1.0 -0.1415052439
B  B640  1  0.81630000  0.97280000  0.28303000  1.0 -0.1796330371
H  H1  1  0.82050000  0.65130000  0.61690000  1.0 0.4224856869
H  H2  1  0.94960000  0.65470000  0.67110000  1.0 0.4067632035
H  H3  1  0.99620000  0.71230000  0.65710000  1.0 0.1304911075
H  H4  1  0.01020000  0.67900000  0.63190000  1.0 0.1693520268
H  H5  1  0.80490000  0.74880000  0.65290000  1.0 0.4664119036
H  H6  1  0.75710000  0.72980000  0.63830000  1.0 0.4400192798
H  H7  1  0.05720000  0.66640000  0.67330000  1.0 0.1489280275
H  H8  1  0.01350000  0.65670000  0.69230000  1.0 0.1693520268
H  H9  1  0.02750000  0.62350000  0.66720000  1.0 0.1799524883
H  H10  1  0.88930000  0.56870000  0.53190000  1.0 0.2208551076
H  H11  1  0.85290000  0.67910000  0.51640000  1.0 0.2208551076
H  H12  1  0.71880000  0.76240000  0.59590000  1.0 0.1489280275
H  H13  1  0.86710000  0.47160000  0.61550000  1.0 0.0399398457
H  H14  1  0.93970000  0.52270000  0.65670000  1.0 0.0621659234
H  H15  1  0.99230000  0.55940000  0.59970000  1.0 0.0669019428
H  H16  1  0.92010000  0.50820000  0.55790000  1.0 0.0296992949
H  H17  1  0.00060000  0.58170000  0.54460000  1.0 0.0481971892
H  H18  1  0.03990000  0.66750000  0.58470000  1.0 0.0030233409
H  H19  1  0.98980000  0.73530000  0.54110000  1.0 0.138278385
H  H20  1  0.95270000  0.65240000  0.50250000  1.0 0.0481971892
H  H21  1  0.81830000  0.63780000  0.73270000  1.0 -0.0880347159
H  H22  1  0.91160000  0.59670000  0.70110000  1.0 -0.0688876136
H  H23  1  0.84930000  0.53530000  0.66010000  1.0 0.0399398457
H  H24  1  0.75720000  0.57060000  0.68970000  1.0 -0.0093040271
H  H25  1  0.94760000  0.80710000  0.66220000  1.0 -0.0589139289
H  H26  1  0.99510000  0.77780000  0.60380000  1.0 0.0621659234
H  H27  1  0.90820000  0.83490000  0.57020000  1.0 0.0296992949
H  H28  1  0.86750000  0.86030000  0.62770000  1.0 -0.028097412
H  H29  1  0.93970000  0.42790000  0.64830000  1.0 0.0110824362
H  H30  1  0.92490000  0.41670000  0.57700000  1.0 0.1693520268
H  H31  1  0.02790000  0.48850000  0.63610000  1.0 -0.028097412
H  H32  1  0.01490000  0.47810000  0.56670000  1.0 0.0481971892
H  H33  1  0.09580000  0.60970000  0.54570000  1.0 0.0030233409
H  H34  1  0.03660000  0.60460000  0.48800000  1.0 0.1203151055
H  H35  1  0.08860000  0.72030000  0.54430000  1.0 0.1304911075
H  H36  1  0.02710000  0.71170000  0.48410000  1.0 0.1588964289
H  H37  1  0.87980000  0.57580000  0.76130000  1.0 -0.0787643672
H  H38  1  0.77100000  0.55510000  0.75180000  1.0 0.0884848449
H  H39  1  0.90230000  0.50140000  0.70990000  1.0 -0.0192884071
H  H40  1  0.79340000  0.48420000  0.70160000  1.0 0.1106978627
H  H41  1  0.02880000  0.84830000  0.64200000  1.0 -0.0787643672
H  H42  1  0.94190000  0.90290000  0.65830000  1.0 -0.1109536572
H  H43  1  0.01200000  0.85750000  0.57490000  1.0 0.138278385
H  H44  1  0.92290000  0.91650000  0.58990000  1.0 -0.0093040271
H  H45  1  0.64670000  0.63370000  0.58970000  1.0 0.0296992949
H  H46  1  0.69630000  0.57170000  0.54520000  1.0 0.0296992949
H  H47  1  0.73150000  0.65460000  0.50890000  1.0 0.0296992949
H  H48  1  0.68250000  0.72000000  0.55100000  1.0 0.0481971892
H  H49  1  0.82380000  0.52040000  0.47100000  1.0 0.1304911075
H  H50  1  0.80070000  0.55040000  0.49470000  1.0 0.1489280275
H  H51  1  0.91240000  0.54370000  0.46020000  1.0 0.1799524883
H  H52  1  0.93860000  0.55120000  0.49010000  1.0 0.1899187838
H  H53  1  0.84710000  0.77350000  0.54700000  1.0 0.1693520268
H  H54  1  0.88910000  0.78090000  0.52650000  1.0 0.1693520268
H  H55  1  0.83750000  0.76440000  0.47110000  1.0 0.1693520268
H  H56  1  0.84500000  0.71240000  0.47050000  1.0 0.1693520268
H  H57  1  0.72280000  0.88740000  0.56990000  1.0 0.138278385
H  H58  1  0.76030000  0.85390000  0.55810000  1.0 0.1489280275
H  H59  1  0.65420000  0.79670000  0.60390000  1.0 0.1588964289
H  H60  1  0.64680000  0.84100000  0.58500000  1.0 0.2284014226
H  H61  1  0.58530000  0.67700000  0.55650000  1.0 0.1489280275
H  H62  1  0.59850000  0.58410000  0.54390000  1.0 0.1106978627
H  H63  1  0.66260000  0.59990000  0.48720000  1.0 0.0030233409
H  H64  1  0.65180000  0.70240000  0.49560000  1.0 0.1021478729
H  H65  1  0.78380000  0.57130000  0.45200000  1.0 0.1693520268
H  H66  1  0.81240000  0.60830000  0.46810000  1.0 0.1799524883
H  H67  1  0.83570000  0.57810000  0.44430000  1.0 0.1799524883
H  H68  1  0.93760000  0.47840000  0.47830000  1.0 0.237324955
H  H69  1  0.90980000  0.48730000  0.50710000  1.0 0.1899187838
H  H70  1  0.88390000  0.47970000  0.47750000  1.0 0.1693520268
H  H71  1  0.85130000  0.84100000  0.53250000  1.0 0.1899187838
H  H72  1  0.84900000  0.82570000  0.49970000  1.0 0.1899187838
H  H73  1  0.80680000  0.81820000  0.52030000  1.0 0.1899187838
H  H74  1  0.90820000  0.74810000  0.45340000  1.0 0.2096296819
H  H75  1  0.91280000  0.77450000  0.48300000  1.0 0.1693520268
H  H76  1  0.92030000  0.72240000  0.48240000  1.0 0.1899187838
H  H77  1  0.79530000  0.90710000  0.58970000  1.0 0.1588964289
H  H78  1  0.76250000  0.89240000  0.61510000  1.0 0.138278385
H  H79  1  0.79980000  0.85910000  0.60340000  1.0 0.1799524883
H  H80  1  0.64590000  0.86310000  0.63950000  1.0 0.1799524883
H  H81  1  0.69520000  0.84270000  0.64290000  1.0 0.138278385
H  H82  1  0.68780000  0.88630000  0.62430000  1.0 0.1489280275
H  H83  1  0.08660000  0.42650000  0.60130000  1.0 -0.0688876136
H  H84  1  0.03000000  0.39130000  0.65690000  1.0 -0.0880347159
H  H85  1  0.95810000  0.34290000  0.61540000  1.0 0.0296992949
H  H86  1  0.01920000  0.37980000  0.55790000  1.0 0.1203151055
H  H87  1  0.11530000  0.74330000  0.47560000  1.0 0.1489280275
H  H88  1  0.09180000  0.65680000  0.44550000  1.0 0.1899187838
H  H89  1  0.14200000  0.59120000  0.48620000  1.0 0.0669019428
H  H90  1  0.16910000  0.69050000  0.52530000  1.0 0.0669019428
H  H91  1  0.95860000  0.99250000  0.62180000  1.0 -0.0503924216
H  H92  1  0.01170000  0.95390000  0.56420000  1.0 0.1106978627
H  H93  1  0.08560000  0.90760000  0.60500000  1.0 0.0669019428
H  H94  1  0.03570000  0.94430000  0.66260000  1.0 -0.0589139289
H  H95  1  0.10770000  0.34320000  0.56970000  1.0 0.0110824362
H  H96  1  0.11700000  0.35390000  0.63960000  1.0 -0.0589139289
H  H97  1  0.02680000  0.29620000  0.64840000  1.0 -0.0359951015
H  H98  1  0.01540000  0.28660000  0.57620000  1.0 0.0621659234
H  H99  1  0.21630000  0.73810000  0.48380000  1.0 0.0884848449
H  H100  1  0.16400000  0.72260000  0.42900000  1.0 0.0399398457
H  H101  1  0.17570000  0.61800000  0.43060000  1.0 0.0669019428
H  H102  1  0.23450000  0.63220000  0.49260000  1.0 0.0296992949
H  H103  1  0.03080000  0.03930000  0.65450000  1.0 0.0180205194
H  H104  1  0.01520000  0.04630000  0.58180000  1.0 0.0481971892
H  H105  1  0.10330000  0.98820000  0.57170000  1.0 0.0819370881
H  H106  1  0.12010000  0.98280000  0.64030000  1.0 0.0621659234
H  H107  1  0.59270000  0.68080000  0.45450000  1.0 0.0481971892
H  H108  1  0.57270000  0.57530000  0.46850000  1.0 0.0296992949
H  H109  1  0.51850000  0.59690000  0.52370000  1.0 0.1799524883
H  H110  1  0.53090000  0.70090000  0.51780000  1.0 0.1588964289
H  H111  1  0.50060000  0.72220000  0.45750000  1.0 0.0669019428
H  H112  1  0.53070000  0.62340000  0.42320000  1.0 0.0110824362
H  H113  1  0.47520000  0.57310000  0.47130000  1.0 0.0399398457
H  H114  1  0.44720000  0.65770000  0.50380000  1.0 0.0481971892
H  H115  1  0.34620000  0.70050000  0.40560000  1.0 0.4224856869
H  H116  1  0.21070000  0.63060000  0.36110000  1.0 0.3653669358
H  H117  1  0.26930000  0.75330000  0.36620000  1.0 0.4025321269
H  H118  1  0.38270000  0.58300000  0.47450000  1.0 0.2096296819
H  H119  1  0.26020000  0.57780000  0.36570000  1.0 0.1799524883
H  H120  1  0.20010000  0.70910000  0.36490000  1.0 0.1021478729
H  H121  1  0.21710000  0.70160000  0.33760000  1.0 0.1021478729
H  H122  1  0.34220000  0.73230000  0.34360000  1.0 0.1899187838
H  H123  1  0.15180000  0.69800000  0.31880000  1.0 0.1203151055
H  H124  1  0.19320000  0.66920000  0.30750000  1.0 0.1588964289
H  H125  1  0.15370000  0.64650000  0.32560000  1.0 0.1106978627
H  H126  1  0.34880000  0.76670000  0.30820000  1.0 0.2284014226
H  H127  1  0.29700000  0.75830000  0.30100000  1.0 0.1899187838
H  H128  1  0.31140000  0.80020000  0.31960000  1.0 0.2208551076
H  H129  1  0.38060000  0.48300000  0.51250000  1.0 0.1693520268
H  H130  1  0.41220000  0.50770000  0.48990000  1.0 0.1693520268
H  H131  1  0.30260000  0.57340000  0.51390000  1.0 0.1489280275
H  H132  1  0.32550000  0.54060000  0.53580000  1.0 0.1304911075
H  H133  1  0.26300000  0.55610000  0.43690000  1.0 0.1588964289
H  H134  1  0.27970000  0.50700000  0.43120000  1.0 0.1588964289
H  H135  1  0.20730000  0.48970000  0.38360000  1.0 0.1693520268
H  H136  1  0.23490000  0.51070000  0.35760000  1.0 0.1693520268
H  H137  1  0.42690000  0.58060000  0.31100000  1.0 -0.0093040271
H  H138  1  0.37060000  0.63970000  0.26350000  1.0 -0.1109536572
H  H139  1  0.27480000  0.60100000  0.28800000  1.0 0.0669019428
H  H140  1  0.33040000  0.54040000  0.33560000  1.0 0.0399398457
H  H141  1  0.44350000  0.51010000  0.53500000  1.0 0.2782419157
H  H142  1  0.43120000  0.55880000  0.52450000  1.0 0.2284014226
H  H143  1  0.39960000  0.53410000  0.54710000  1.0 0.1899187838
H  H144  1  0.25500000  0.52250000  0.52800000  1.0 0.1588964289
H  H145  1  0.26410000  0.51750000  0.49430000  1.0 0.1693520268
H  H146  1  0.28730000  0.48430000  0.51650000  1.0 0.1693520268
H  H147  1  0.21640000  0.50630000  0.46090000  1.0 0.1588964289
H  H148  1  0.18790000  0.53170000  0.43690000  1.0 0.1993504182
H  H149  1  0.20460000  0.48250000  0.43120000  1.0 0.1899187838
H  H150  1  0.25640000  0.43870000  0.36470000  1.0 0.2208551076
H  H151  1  0.29790000  0.47070000  0.37100000  1.0 0.1993504182
H  H152  1  0.27040000  0.44970000  0.39710000  1.0 0.1899187838
H  H153  1  0.42200000  0.55880000  0.24860000  1.0 -0.1302056303
H  H154  1  0.39440000  0.49030000  0.30140000  1.0 -0.0010045007
H  H155  1  0.31560000  0.57300000  0.23300000  1.0 -0.0093040271
H  H156  1  0.28690000  0.50450000  0.28520000  1.0 0.1106978627
H  H157  1  0.00520000  0.20220000  0.61640000  1.0 0.1899187838
H  H158  1  0.97610000  0.12020000  0.66240000  1.0 0.2096296819
H  H159  1  0.93200000  0.14270000  0.67610000  1.0 0.1203151055
H  H160  1  0.91200000  0.08200000  0.64890000  1.0 0.1693520268
H  H161  1  0.89210000  0.12600000  0.63510000  1.0 0.1588964289
H  H162  1  0.93580000  0.10370000  0.62150000  1.0 0.2096296819
H  H163  1  0.12870000  0.68150000  0.35260000  1.0 0.1693520268
H  H164  1  0.14900000  0.63520000  0.34280000  1.0 0.138278385
H  H165  1  0.15120000  0.64950000  0.37580000  1.0 0.2096296819
H  H166  1  0.36330000  0.54110000  0.45870000  1.0 0.2208551076
H  H167  1  0.67950000  0.84870000  0.11690000  1.0 0.4224856869
H  H168  1  0.55040000  0.84530000  0.17110000  1.0 0.4067632035
H  H169  1  0.50380000  0.78770000  0.15710000  1.0 0.1304911075
H  H170  1  0.48980000  0.82100000  0.13190000  1.0 0.1799524883
H  H171  1  0.69510000  0.75120000  0.15290000  1.0 0.4664119036
H  H172  1  0.74290000  0.77020000  0.13830000  1.0 0.4400192798
H  H173  1  0.44280000  0.83360000  0.17330000  1.0 0.1489280275
H  H174  1  0.48650000  0.84330000  0.19230000  1.0 0.1693520268
H  H175  1  0.47250000  0.87650000  0.16720000  1.0 0.1799524883
H  H176  1  0.61070000  0.93130000  0.03190000  1.0 0.2284014226
H  H177  1  0.64710000  0.82090000  0.01640000  1.0 0.2208551076
H  H178  1  0.78120000  0.73760000  0.09590000  1.0 0.1489280275
H  H179  1  0.63290000  0.02840000  0.11550000  1.0 0.0481971892
H  H180  1  0.56030000  0.97730000  0.15670000  1.0 0.0669019428
H  H181  1  0.50770000  0.94060000  0.09970000  1.0 0.0669019428
H  H182  1  0.57990000  0.99180000  0.05790000  1.0 0.0296992949
H  H183  1  0.49940000  0.91830000  0.04460000  1.0 0.0481971892
H  H184  1  0.46010000  0.83250000  0.08470000  1.0 0.0030233409
H  H185  1  0.51020000  0.76470000  0.04110000  1.0 0.138278385
H  H186  1  0.54730000  0.84760000  0.00250000  1.0 0.0399398457
H  H187  1  0.68170000  0.86220000  0.23270000  1.0 -0.0880347159
H  H188  1  0.58840000  0.90330000  0.20110000  1.0 -0.0688876136
H  H189  1  0.65070000  0.96470000  0.16010000  1.0 0.0399398457
H  H190  1  0.74280000  0.92940000  0.18970000  1.0 -0.0093040271
H  H191  1  0.55240000  0.69290000  0.16220000  1.0 -0.0589139289
H  H192  1  0.50490000  0.72220000  0.10380000  1.0 0.0621659234
H  H193  1  0.59180000  0.66510000  0.07020000  1.0 0.0399398457
H  H194  1  0.63250000  0.63970000  0.12770000  1.0 -0.028097412
H  H195  1  0.56030000  0.07210000  0.14830000  1.0 0.0180205194
H  H196  1  0.57510000  0.08330000  0.07700000  1.0 0.1693520268
H  H197  1  0.47210000  0.01150000  0.13610000  1.0 -0.028097412
H  H198  1  0.48510000  0.02190000  0.06670000  1.0 0.0481971892
H  H199  1  0.40420000  0.89030000  0.04570000  1.0 0.0030233409
H  H200  1  0.46340000  0.89540000  0.98800000  1.0 0.1203151055
H  H201  1  0.41140000  0.77970000  0.04430000  1.0 0.1304911075
H  H202  1  0.47290000  0.78830000  0.98410000  1.0 0.1588964289
H  H203  1  0.62020000  0.92420000  0.26130000  1.0 -0.0787643672
H  H204  1  0.72900000  0.94490000  0.25180000  1.0 0.0884848449
H  H205  1  0.59770000  0.99860000  0.20990000  1.0 -0.0192884071
H  H206  1  0.70660000  0.01580000  0.20160000  1.0 0.1203151055
H  H207  1  0.47120000  0.65170000  0.14200000  1.0 -0.0787643672
H  H208  1  0.55810000  0.59710000  0.15830000  1.0 -0.1109536572
H  H209  1  0.48800000  0.64250000  0.07490000  1.0 0.138278385
H  H210  1  0.57710000  0.58350000  0.08990000  1.0 -0.0093040271
H  H211  1  0.85330000  0.86630000  0.08970000  1.0 0.0296992949
H  H212  1  0.80370000  0.92830000  0.04520000  1.0 0.0296992949
H  H213  1  0.76850000  0.84540000  0.00890000  1.0 0.0296992949
H  H214  1  0.81750000  0.78000000  0.05100000  1.0 0.0481971892
H  H215  1  0.67620000  0.97960000  0.97100000  1.0 0.1304911075
H  H216  1  0.69930000  0.94960000  0.99470000  1.0 0.1489280275
H  H217  1  0.58760000  0.95630000  0.96020000  1.0 0.1799524883
H  H218  1  0.56140000  0.94880000  0.99010000  1.0 0.1993504182
H  H219  1  0.65290000  0.72650000  0.04700000  1.0 0.1693520268
H  H220  1  0.61090000  0.71910000  0.02650000  1.0 0.1693520268
H  H221  1  0.66250000  0.73560000  0.97110000  1.0 0.1693520268
H  H222  1  0.65500000  0.78760000  0.97050000  1.0 0.1693520268
H  H223  1  0.77720000  0.61260000  0.06990000  1.0 0.138278385
H  H224  1  0.73970000  0.64610000  0.05810000  1.0 0.1489280275
H  H225  1  0.84580000  0.70330000  0.10390000  1.0 0.1588964289
H  H226  1  0.85320000  0.65900000  0.08500000  1.0 0.2284014226
H  H227  1  0.91470000  0.82300000  0.05650000  1.0 0.1489280275
H  H228  1  0.90150000  0.91590000  0.04390000  1.0 0.1106978627
H  H229  1  0.83740000  0.90010000  0.98720000  1.0 0.0030233409
H  H230  1  0.84820000  0.79760000  0.99560000  1.0 0.1021478729
H  H231  1  0.71620000  0.92870000  0.95200000  1.0 0.1693520268
H  H232  1  0.68760000  0.89170000  0.96810000  1.0 0.1799524883
H  H233  1  0.66430000  0.92190000  0.94430000  1.0 0.1799524883
H  H234  1  0.56240000  0.02160000  0.97830000  1.0 0.237324955
H  H235  1  0.59020000  0.01270000  0.00710000  1.0 0.1899187838
H  H236  1  0.61610000  0.02030000  0.97750000  1.0 0.1693520268
H  H237  1  0.64870000  0.65900000  0.03250000  1.0 0.1899187838
H  H238  1  0.65100000  0.67430000  0.99970000  1.0 0.1899187838
H  H239  1  0.69320000  0.68180000  0.02030000  1.0 0.1899187838
H  H240  1  0.59180000  0.75190000  0.95340000  1.0 0.2096296819
H  H241  1  0.58720000  0.72550000  0.98300000  1.0 0.1693520268
H  H242  1  0.57970000  0.77760000  0.98240000  1.0 0.1899187838
H  H243  1  0.70470000  0.59290000  0.08970000  1.0 0.1588964289
H  H244  1  0.73750000  0.60760000  0.11510000  1.0 0.138278385
H  H245  1  0.70020000  0.64090000  0.10340000  1.0 0.1799524883
H  H246  1  0.85410000  0.63690000  0.13950000  1.0 0.1799524883
H  H247  1  0.80480000  0.65730000  0.14290000  1.0 0.138278385
H  H248  1  0.81220000  0.61370000  0.12430000  1.0 0.1489280275
H  H249  1  0.41340000  0.07350000  0.10130000  1.0 -0.0688876136
H  H250  1  0.47000000  0.10870000  0.15690000  1.0 -0.0880347159
H  H251  1  0.54190000  0.15710000  0.11540000  1.0 0.0296992949
H  H252  1  0.48080000  0.12020000  0.05790000  1.0 0.1203151055
H  H253  1  0.38470000  0.75670000  0.97560000  1.0 0.1489280275
H  H254  1  0.40820000  0.84320000  0.94550000  1.0 0.1899187838
H  H255  1  0.35800000  0.90880000  0.98620000  1.0 0.0621659234
H  H256  1  0.33090000  0.80950000  0.02530000  1.0 0.0669019428
H  H257  1  0.54140000  0.50750000  0.12180000  1.0 -0.0503924216
H  H258  1  0.48830000  0.54610000  0.06420000  1.0 0.1106978627
H  H259  1  0.41440000  0.59240000  0.10500000  1.0 0.0669019428
H  H260  1  0.46430000  0.55570000  0.16260000  1.0 -0.0503924216
H  H261  1  0.39230000  0.15680000  0.06970000  1.0 0.0110824362
H  H262  1  0.38300000  0.14610000  0.13960000  1.0 -0.0589139289
H  H263  1  0.47320000  0.20380000  0.14840000  1.0 -0.0359951015
H  H264  1  0.48460000  0.21340000  0.07620000  1.0 0.0621659234
H  H265  1  0.28370000  0.76190000  0.98380000  1.0 0.0884848449
H  H266  1  0.33600000  0.77740000  0.92900000  1.0 0.0399398457
H  H267  1  0.32430000  0.88200000  0.93060000  1.0 0.0669019428
H  H268  1  0.26550000  0.86780000  0.99260000  1.0 0.0296992949
H  H269  1  0.46920000  0.46070000  0.15450000  1.0 0.0180205194
H  H270  1  0.48480000  0.45370000  0.08180000  1.0 0.0481971892
H  H271  1  0.39670000  0.51180000  0.07170000  1.0 0.0819370881
H  H272  1  0.37990000  0.51720000  0.14030000  1.0 0.0621659234
H  H273  1  0.90730000  0.81920000  0.95450000  1.0 0.0481971892
H  H274  1  0.92730000  0.92470000  0.96850000  1.0 0.0296992949
H  H275  1  0.98150000  0.90310000  0.02370000  1.0 0.1799524883
H  H276  1  0.96910000  0.79910000  0.01780000  1.0 0.1588964289
H  H277  1  0.99940000  0.77780000  0.95750000  1.0 0.0669019428
H  H278  1  0.96930000  0.87660000  0.92320000  1.0 0.0110824362
H  H279  1  0.02480000  0.92690000  0.97130000  1.0 0.0399398457
H  H280  1  0.05280000  0.84230000  0.00380000  1.0 0.0481971892
H  H281  1  0.15380000  0.79950000  0.90560000  1.0 0.4224856869
H  H282  1  0.28930000  0.86940000  0.86110000  1.0 0.3653669358
H  H283  1  0.23070000  0.74670000  0.86620000  1.0 0.4025321269
H  H284  1  0.11730000  0.91700000  0.97450000  1.0 0.2096296819
H  H285  1  0.23980000  0.92220000  0.86570000  1.0 0.1799524883
H  H286  1  0.29990000  0.79090000  0.86490000  1.0 0.1021478729
H  H287  1  0.28290000  0.79840000  0.83760000  1.0 0.1021478729
H  H288  1  0.15780000  0.76770000  0.84360000  1.0 0.1899187838
H  H289  1  0.34820000  0.80200000  0.81880000  1.0 0.1203151055
H  H290  1  0.30680000  0.83080000  0.80750000  1.0 0.1588964289
H  H291  1  0.34630000  0.85350000  0.82560000  1.0 0.1106978627
H  H292  1  0.15120000  0.73330000  0.80820000  1.0 0.2284014226
H  H293  1  0.20300000  0.74170000  0.80100000  1.0 0.1899187838
H  H294  1  0.18860000  0.69980000  0.81960000  1.0 0.2096296819
H  H295  1  0.11940000  0.01700000  0.01250000  1.0 0.1588964289
H  H296  1  0.08780000  0.99230000  0.98990000  1.0 0.1693520268
H  H297  1  0.19740000  0.92660000  0.01390000  1.0 0.1489280275
H  H298  1  0.17450000  0.95940000  0.03580000  1.0 0.1304911075
H  H299  1  0.23700000  0.94390000  0.93690000  1.0 0.1588964289
H  H300  1  0.22030000  0.99300000  0.93120000  1.0 0.1588964289
H  H301  1  0.29270000  0.01030000  0.88360000  1.0 0.1693520268
H  H302  1  0.26510000  0.98930000  0.85760000  1.0 0.1693520268
H  H303  1  0.07310000  0.91940000  0.81100000  1.0 -0.0093040271
H  H304  1  0.12940000  0.86030000  0.76350000  1.0 -0.1109536572
H  H305  1  0.22520000  0.89900000  0.78800000  1.0 0.0669019428
H  H306  1  0.16960000  0.95960000  0.83560000  1.0 0.0399398457
H  H307  1  0.05650000  0.98990000  0.03500000  1.0 0.2782419157
H  H308  1  0.06880000  0.94120000  0.02450000  1.0 0.2284014226
H  H309  1  0.10040000  0.96590000  0.04710000  1.0 0.1899187838
H  H310  1  0.24500000  0.97750000  0.02800000  1.0 0.1588964289
H  H311  1  0.23590000  0.98250000  0.99430000  1.0 0.1693520268
H  H312  1  0.21270000  0.01570000  0.01650000  1.0 0.1693520268
H  H313  1  0.28360000  0.99370000  0.96090000  1.0 0.1588964289
H  H314  1  0.31210000  0.96830000  0.93690000  1.0 0.1993504182
H  H315  1  0.29540000  0.01750000  0.93120000  1.0 0.1899187838
H  H316  1  0.24360000  0.06130000  0.86470000  1.0 0.2208551076
H  H317  1  0.20210000  0.02930000  0.87100000  1.0 0.1993504182
H  H318  1  0.22960000  0.05030000  0.89710000  1.0 0.1899187838
H  H319  1  0.07800000  0.94120000  0.74860000  1.0 -0.1302056303
H  H320  1  0.10560000  0.00970000  0.80140000  1.0 -0.0010045007
H  H321  1  0.18440000  0.92700000  0.73300000  1.0 -0.0093040271
H  H322  1  0.21310000  0.99550000  0.78520000  1.0 0.1106978627
H  H323  1  0.49480000  0.29780000  0.11640000  1.0 0.1899187838
H  H324  1  0.52390000  0.37980000  0.16240000  1.0 0.2096296819
H  H325  1  0.56800000  0.35730000  0.17610000  1.0 0.1203151055
H  H326  1  0.58800000  0.41800000  0.14890000  1.0 0.1693520268
H  H327  1  0.60790000  0.37400000  0.13510000  1.0 0.1588964289
H  H328  1  0.56420000  0.39630000  0.12150000  1.0 0.2096296819
H  H329  1  0.37130000  0.81850000  0.85260000  1.0 0.1693520268
H  H330  1  0.35100000  0.86480000  0.84280000  1.0 0.138278385
H  H331  1  0.34880000  0.85050000  0.87580000  1.0 0.2096296819
H  H332  1  0.13670000  0.95890000  0.95870000  1.0 0.2208551076
H  H333  1  0.82050000  0.34870000  0.88310000  1.0 0.4224856869
H  H334  1  0.94960000  0.34530000  0.82890000  1.0 0.4067632035
H  H335  1  0.99620000  0.28770000  0.84290000  1.0 0.1304911075
H  H336  1  0.01020000  0.32100000  0.86810000  1.0 0.1693520268
H  H337  1  0.80490000  0.25120000  0.84710000  1.0 0.4664119036
H  H338  1  0.75710000  0.27020000  0.86170000  1.0 0.4400192798
H  H339  1  0.05720000  0.33360000  0.82670000  1.0 0.1489280275
H  H340  1  0.01350000  0.34330000  0.80770000  1.0 0.1693520268
H  H341  1  0.02750000  0.37650000  0.83280000  1.0 0.1799524883
H  H342  1  0.88930000  0.43130000  0.96810000  1.0 0.2208551076
H  H343  1  0.85290000  0.32090000  0.98360000  1.0 0.2208551076
H  H344  1  0.71880000  0.23760000  0.90410000  1.0 0.1489280275
H  H345  1  0.86710000  0.52840000  0.88450000  1.0 0.0399398457
H  H346  1  0.93970000  0.47730000  0.84330000  1.0 0.0621659234
H  H347  1  0.99230000  0.44060000  0.90030000  1.0 0.0621659234
H  H348  1  0.92010000  0.49180000  0.94210000  1.0 0.0296992949
H  H349  1  0.00060000  0.41830000  0.95540000  1.0 0.0481971892
H  H350  1  0.03990000  0.33250000  0.91530000  1.0 0.0030233409
H  H351  1  0.98980000  0.26470000  0.95890000  1.0 0.138278385
H  H352  1  0.95270000  0.34760000  0.99750000  1.0 0.0481971892
H  H353  1  0.81830000  0.36220000  0.76730000  1.0 -0.0880347159
H  H354  1  0.91160000  0.40330000  0.79890000  1.0 -0.0688876136
H  H355  1  0.84930000  0.46470000  0.83990000  1.0 0.0399398457
H  H356  1  0.75720000  0.42940000  0.81030000  1.0 -0.0093040271
H  H357  1  0.94760000  0.19290000  0.83780000  1.0 -0.0589139289
H  H358  1  0.99510000  0.22220000  0.89620000  1.0 0.0621659234
H  H359  1  0.90820000  0.16510000  0.92980000  1.0 0.0296992949
H  H360  1  0.86750000  0.13970000  0.87230000  1.0 -0.028097412
H  H361  1  0.93970000  0.57210000  0.85170000  1.0 0.0110824362
H  H362  1  0.92490000  0.58330000  0.92300000  1.0 0.1693520268
H  H363  1  0.02790000  0.51150000  0.86390000  1.0 -0.028097412
H  H364  1  0.01490000  0.52190000  0.93330000  1.0 0.0481971892
H  H365  1  0.09580000  0.39030000  0.95430000  1.0 0.0030233409
H  H366  1  0.03660000  0.39540000  0.01200000  1.0 0.1203151055
H  H367  1  0.08860000  0.27970000  0.95570000  1.0 0.1304911075
H  H368  1  0.02710000  0.28830000  0.01590000  1.0 0.1588964289
H  H369  1  0.87980000  0.42420000  0.73870000  1.0 -0.0787643672
H  H370  1  0.77100000  0.44490000  0.74820000  1.0 0.0884848449
H  H371  1  0.90230000  0.49860000  0.79010000  1.0 -0.0192884071
H  H372  1  0.79340000  0.51580000  0.79840000  1.0 0.1106978627
H  H373  1  0.02880000  0.15170000  0.85800000  1.0 -0.0787643672
H  H374  1  0.94190000  0.09710000  0.84170000  1.0 -0.1109536572
H  H375  1  0.01200000  0.14250000  0.92510000  1.0 0.138278385
H  H376  1  0.92290000  0.08350000  0.91010000  1.0 -0.0093040271
H  H377  1  0.64670000  0.36630000  0.91030000  1.0 0.0296992949
H  H378  1  0.69630000  0.42830000  0.95480000  1.0 0.0296992949
H  H379  1  0.73150000  0.34540000  0.99110000  1.0 0.0296992949
H  H380  1  0.68250000  0.28000000  0.94900000  1.0 0.0481971892
H  H381  1  0.82380000  0.47960000  0.02900000  1.0 0.1304911075
H  H382  1  0.80070000  0.44960000  0.00530000  1.0 0.1489280275
H  H383  1  0.91240000  0.45630000  0.03980000  1.0 0.1799524883
H  H384  1  0.93860000  0.44880000  0.00990000  1.0 0.1993504182
H  H385  1  0.84710000  0.22650000  0.95300000  1.0 0.1693520268
H  H386  1  0.88910000  0.21910000  0.97350000  1.0 0.1693520268
H  H387  1  0.83750000  0.23560000  0.02890000  1.0 0.1693520268
H  H388  1  0.84500000  0.28760000  0.02950000  1.0 0.1693520268
H  H389  1  0.72280000  0.11260000  0.93010000  1.0 0.138278385
H  H390  1  0.76030000  0.14610000  0.94190000  1.0 0.1489280275
H  H391  1  0.65420000  0.20330000  0.89610000  1.0 0.1588964289
H  H392  1  0.64680000  0.15900000  0.91500000  1.0 0.2284014226
H  H393  1  0.58530000  0.32300000  0.94350000  1.0 0.1489280275
H  H394  1  0.59850000  0.41590000  0.95610000  1.0 0.1106978627
H  H395  1  0.66260000  0.40010000  0.01280000  1.0 0.0030233409
H  H396  1  0.65180000  0.29760000  0.00440000  1.0 0.1021478729
H  H397  1  0.78380000  0.42870000  0.04800000  1.0 0.1693520268
H  H398  1  0.81240000  0.39170000  0.03190000  1.0 0.1799524883
H  H399  1  0.83570000  0.42190000  0.05570000  1.0 0.1799524883
H  H400  1  0.93760000  0.52160000  0.02170000  1.0 0.237324955
H  H401  1  0.90980000  0.51270000  0.99290000  1.0 0.1899187838
H  H402  1  0.88390000  0.52030000  0.02250000  1.0 0.1693520268
H  H403  1  0.85130000  0.15900000  0.96750000  1.0 0.1899187838
H  H404  1  0.84900000  0.17430000  0.00030000  1.0 0.1899187838
H  H405  1  0.80680000  0.18180000  0.97970000  1.0 0.1899187838
H  H406  1  0.90820000  0.25190000  0.04660000  1.0 0.2096296819
H  H407  1  0.91280000  0.22550000  0.01700000  1.0 0.1693520268
H  H408  1  0.92030000  0.27760000  0.01760000  1.0 0.1899187838
H  H409  1  0.79530000  0.09290000  0.91030000  1.0 0.1588964289
H  H410  1  0.76250000  0.10760000  0.88490000  1.0 0.138278385
H  H411  1  0.79980000  0.14090000  0.89660000  1.0 0.1799524883
H  H412  1  0.64590000  0.13690000  0.86050000  1.0 0.1799524883
H  H413  1  0.69520000  0.15730000  0.85710000  1.0 0.138278385
H  H414  1  0.68780000  0.11370000  0.87570000  1.0 0.1489280275
H  H415  1  0.08660000  0.57350000  0.89870000  1.0 -0.0688876136
H  H416  1  0.03000000  0.60870000  0.84310000  1.0 -0.0880347159
H  H417  1  0.95810000  0.65710000  0.88460000  1.0 0.0296992949
H  H418  1  0.01920000  0.62020000  0.94210000  1.0 0.1203151055
H  H419  1  0.11530000  0.25670000  0.02440000  1.0 0.1489280275
H  H420  1  0.09180000  0.34320000  0.05450000  1.0 0.1899187838
H  H421  1  0.14200000  0.40880000  0.01380000  1.0 0.0669019428
H  H422  1  0.16910000  0.30950000  0.97470000  1.0 0.0669019428
H  H423  1  0.95860000  0.00750000  0.87820000  1.0 -0.0503924216
H  H424  1  0.01170000  0.04610000  0.93580000  1.0 0.1106978627
H  H425  1  0.08560000  0.09240000  0.89500000  1.0 0.0621659234
H  H426  1  0.03570000  0.05570000  0.83740000  1.0 -0.0589139289
H  H427  1  0.10770000  0.65680000  0.93030000  1.0 0.0110824362
H  H428  1  0.11700000  0.64610000  0.86040000  1.0 -0.0589139289
H  H429  1  0.02680000  0.70380000  0.85160000  1.0 -0.0359951015
H  H430  1  0.01540000  0.71340000  0.92380000  1.0 0.0621659234
H  H431  1  0.21630000  0.26190000  0.01620000  1.0 0.0819370881
H  H432  1  0.16400000  0.27740000  0.07100000  1.0 0.0399398457
H  H433  1  0.17570000  0.38200000  0.06940000  1.0 0.0669019428
H  H434  1  0.23450000  0.36780000  0.00740000  1.0 0.0296992949
H  H435  1  0.03080000  0.96070000  0.84550000  1.0 0.0180205194
H  H436  1  0.01520000  0.95370000  0.91820000  1.0 0.0481971892
H  H437  1  0.10330000  0.01180000  0.92830000  1.0 0.0819370881
H  H438  1  0.12010000  0.01720000  0.85970000  1.0 0.0621659234
H  H439  1  0.59270000  0.31920000  0.04550000  1.0 0.0481971892
H  H440  1  0.57270000  0.42470000  0.03150000  1.0 0.0296992949
H  H441  1  0.51850000  0.40310000  0.97630000  1.0 0.1799524883
H  H442  1  0.53090000  0.29910000  0.98220000  1.0 0.1588964289
H  H443  1  0.50060000  0.27780000  0.04250000  1.0 0.0669019428
H  H444  1  0.53070000  0.37660000  0.07680000  1.0 0.0110824362
H  H445  1  0.47520000  0.42690000  0.02870000  1.0 0.0399398457
H  H446  1  0.44720000  0.34230000  0.99620000  1.0 0.0481971892
H  H447  1  0.34620000  0.29950000  0.09440000  1.0 0.4224856869
H  H448  1  0.21070000  0.36940000  0.13890000  1.0 0.3653669358
H  H449  1  0.26930000  0.24670000  0.13380000  1.0 0.4025321269
H  H450  1  0.38270000  0.41700000  0.02550000  1.0 0.2096296819
H  H451  1  0.26020000  0.42220000  0.13430000  1.0 0.1799524883
H  H452  1  0.20010000  0.29090000  0.13510000  1.0 0.1021478729
H  H453  1  0.21710000  0.29840000  0.16240000  1.0 0.1021478729
H  H454  1  0.34220000  0.26770000  0.15640000  1.0 0.1899187838
H  H455  1  0.15180000  0.30200000  0.18120000  1.0 0.1203151055
H  H456  1  0.19320000  0.33080000  0.19250000  1.0 0.1588964289
H  H457  1  0.15370000  0.35350000  0.17440000  1.0 0.1106978627
H  H458  1  0.34880000  0.23330000  0.19180000  1.0 0.2284014226
H  H459  1  0.29700000  0.24170000  0.19900000  1.0 0.1899187838
H  H460  1  0.31140000  0.19980000  0.18040000  1.0 0.2208551076
H  H461  1  0.38060000  0.51700000  0.98750000  1.0 0.1588964289
H  H462  1  0.41220000  0.49230000  0.01010000  1.0 0.1693520268
H  H463  1  0.30260000  0.42660000  0.98610000  1.0 0.1489280275
H  H464  1  0.32550000  0.45940000  0.96420000  1.0 0.1304911075
H  H465  1  0.26300000  0.44390000  0.06310000  1.0 0.1588964289
H  H466  1  0.27970000  0.49300000  0.06880000  1.0 0.1588964289
H  H467  1  0.20730000  0.51030000  0.11640000  1.0 0.1693520268
H  H468  1  0.23490000  0.48930000  0.14240000  1.0 0.1693520268
H  H469  1  0.42690000  0.41940000  0.18900000  1.0 -0.0093040271
H  H470  1  0.37060000  0.36030000  0.23650000  1.0 -0.1109536572
H  H471  1  0.27480000  0.39900000  0.21200000  1.0 0.0669019428
H  H472  1  0.33040000  0.45960000  0.16440000  1.0 0.0399398457
H  H473  1  0.44350000  0.48990000  0.96500000  1.0 0.2782419157
H  H474  1  0.43120000  0.44120000  0.97550000  1.0 0.2284014226
H  H475  1  0.39960000  0.46590000  0.95290000  1.0 0.1899187838
H  H476  1  0.25500000  0.47750000  0.97200000  1.0 0.1588964289
H  H477  1  0.26410000  0.48250000  0.00570000  1.0 0.1693520268
H  H478  1  0.28730000  0.51570000  0.98350000  1.0 0.1693520268
H  H479  1  0.21640000  0.49370000  0.03910000  1.0 0.1588964289
H  H480  1  0.18790000  0.46830000  0.06310000  1.0 0.1993504182
H  H481  1  0.20460000  0.51750000  0.06880000  1.0 0.1899187838
H  H482  1  0.25640000  0.56130000  0.13530000  1.0 0.2208551076
H  H483  1  0.29790000  0.52930000  0.12900000  1.0 0.1993504182
H  H484  1  0.27040000  0.55030000  0.10290000  1.0 0.1899187838
H  H485  1  0.42200000  0.44120000  0.25140000  1.0 -0.1302056303
H  H486  1  0.39440000  0.50970000  0.19860000  1.0 -0.0010045007
H  H487  1  0.31560000  0.42700000  0.26700000  1.0 -0.0093040271
H  H488  1  0.28690000  0.49550000  0.21480000  1.0 0.1106978627
H  H489  1  0.00520000  0.79780000  0.88360000  1.0 0.1899187838
H  H490  1  0.97610000  0.87980000  0.83760000  1.0 0.2096296819
H  H491  1  0.93200000  0.85730000  0.82390000  1.0 0.1203151055
H  H492  1  0.91200000  0.91800000  0.85110000  1.0 0.1693520268
H  H493  1  0.89210000  0.87400000  0.86490000  1.0 0.1588964289
H  H494  1  0.93580000  0.89630000  0.87850000  1.0 0.1993504182
H  H495  1  0.12870000  0.31850000  0.14740000  1.0 0.1693520268
H  H496  1  0.14900000  0.36480000  0.15720000  1.0 0.138278385
H  H497  1  0.15120000  0.35050000  0.12420000  1.0 0.2096296819
H  H498  1  0.36330000  0.45890000  0.04130000  1.0 0.2208551076
H  H499  1  0.67950000  0.15130000  0.38310000  1.0 0.4224856869
H  H500  1  0.55040000  0.15470000  0.32890000  1.0 0.4067632035
H  H501  1  0.50380000  0.21230000  0.34290000  1.0 0.1304911075
H  H502  1  0.48980000  0.17900000  0.36810000  1.0 0.1693520268
H  H503  1  0.69510000  0.24880000  0.34710000  1.0 0.4664119036
H  H504  1  0.74290000  0.22980000  0.36170000  1.0 0.4400192798
H  H505  1  0.44280000  0.16640000  0.32670000  1.0 0.1489280275
H  H506  1  0.48650000  0.15670000  0.30770000  1.0 0.1693520268
H  H507  1  0.47250000  0.12350000  0.33280000  1.0 0.1799524883
H  H508  1  0.61070000  0.06870000  0.46810000  1.0 0.2208551076
H  H509  1  0.64710000  0.17910000  0.48360000  1.0 0.2208551076
H  H510  1  0.78120000  0.26240000  0.40410000  1.0 0.1489280275
H  H511  1  0.63290000  0.97160000  0.38450000  1.0 0.0481971892
H  H512  1  0.56030000  0.02270000  0.34330000  1.0 0.0669019428
H  H513  1  0.50770000  0.05940000  0.40030000  1.0 0.0669019428
H  H514  1  0.57990000  0.00820000  0.44210000  1.0 0.0296992949
H  H515  1  0.49940000  0.08170000  0.45540000  1.0 0.0481971892
H  H516  1  0.46010000  0.16750000  0.41530000  1.0 0.0030233409
H  H517  1  0.51020000  0.23530000  0.45890000  1.0 0.138278385
H  H518  1  0.54730000  0.15240000  0.49750000  1.0 0.0481971892
H  H519  1  0.68170000  0.13780000  0.26730000  1.0 -0.0880347159
H  H520  1  0.58840000  0.09670000  0.29890000  1.0 -0.0688876136
H  H521  1  0.65070000  0.03530000  0.33990000  1.0 0.0399398457
H  H522  1  0.74280000  0.07060000  0.31030000  1.0 -0.0093040271
H  H523  1  0.55240000  0.30710000  0.33780000  1.0 -0.0589139289
H  H524  1  0.50490000  0.27780000  0.39620000  1.0 0.0621659234
H  H525  1  0.59180000  0.33490000  0.42980000  1.0 0.0399398457
H  H526  1  0.63250000  0.36030000  0.37230000  1.0 -0.028097412
H  H527  1  0.56030000  0.92790000  0.35170000  1.0 0.0180205194
H  H528  1  0.57510000  0.91670000  0.42300000  1.0 0.1693520268
H  H529  1  0.47210000  0.98850000  0.36390000  1.0 -0.028097412
H  H530  1  0.48510000  0.97810000  0.43330000  1.0 0.0481971892
H  H531  1  0.40420000  0.10970000  0.45430000  1.0 0.0030233409
H  H532  1  0.46340000  0.10460000  0.51200000  1.0 0.1203151055
H  H533  1  0.41140000  0.22030000  0.45570000  1.0 0.1304911075
H  H534  1  0.47290000  0.21170000  0.51590000  1.0 0.1588964289
H  H535  1  0.62020000  0.07580000  0.23870000  1.0 -0.0787643672
H  H536  1  0.72900000  0.05510000  0.24820000  1.0 0.0884848449
H  H537  1  0.59770000  0.00140000  0.29010000  1.0 -0.0192884071
H  H538  1  0.70660000  0.98420000  0.29840000  1.0 0.1203151055
H  H539  1  0.47120000  0.34830000  0.35800000  1.0 -0.0787643672
H  H540  1  0.55810000  0.40290000  0.34170000  1.0 -0.1109536572
H  H541  1  0.48800000  0.35750000  0.42510000  1.0 0.138278385
H  H542  1  0.57710000  0.41650000  0.41010000  1.0 -0.0093040271
H  H543  1  0.85330000  0.13370000  0.41030000  1.0 0.0296992949
H  H544  1  0.80370000  0.07170000  0.45480000  1.0 0.0296992949
H  H545  1  0.76850000  0.15460000  0.49110000  1.0 0.0296992949
H  H546  1  0.81750000  0.22000000  0.44900000  1.0 0.0481971892
H  H547  1  0.67620000  0.02040000  0.52900000  1.0 0.1304911075
H  H548  1  0.69930000  0.05040000  0.50530000  1.0 0.1489280275
H  H549  1  0.58760000  0.04370000  0.53980000  1.0 0.1799524883
H  H550  1  0.56140000  0.05120000  0.50990000  1.0 0.1993504182
H  H551  1  0.65290000  0.27350000  0.45300000  1.0 0.1693520268
H  H552  1  0.61090000  0.28090000  0.47350000  1.0 0.1693520268
H  H553  1  0.66250000  0.26440000  0.52890000  1.0 0.1693520268
H  H554  1  0.65500000  0.21240000  0.52950000  1.0 0.1693520268
H  H555  1  0.77720000  0.38740000  0.43010000  1.0 0.138278385
H  H556  1  0.73970000  0.35390000  0.44190000  1.0 0.1489280275
H  H557  1  0.84580000  0.29670000  0.39610000  1.0 0.1588964289
H  H558  1  0.85320000  0.34100000  0.41500000  1.0 0.2284014226
H  H559  1  0.91470000  0.17700000  0.44350000  1.0 0.1489280275
H  H560  1  0.90150000  0.08410000  0.45610000  1.0 0.1106978627
H  H561  1  0.83740000  0.09990000  0.51280000  1.0 0.0030233409
H  H562  1  0.84820000  0.20240000  0.50440000  1.0 0.1021478729
H  H563  1  0.71620000  0.07130000  0.54800000  1.0 0.1693520268
H  H564  1  0.68760000  0.10830000  0.53190000  1.0 0.1799524883
H  H565  1  0.66430000  0.07810000  0.55570000  1.0 0.1799524883
H  H566  1  0.56240000  0.97840000  0.52170000  1.0 0.237324955
H  H567  1  0.59020000  0.98730000  0.49290000  1.0 0.1899187838
H  H568  1  0.61610000  0.97970000  0.52250000  1.0 0.1693520268
H  H569  1  0.64870000  0.34100000  0.46750000  1.0 0.1899187838
H  H570  1  0.65100000  0.32570000  0.50030000  1.0 0.1899187838
H  H571  1  0.69320000  0.31820000  0.47970000  1.0 0.1899187838
H  H572  1  0.59180000  0.24810000  0.54660000  1.0 0.2096296819
H  H573  1  0.58720000  0.27450000  0.51700000  1.0 0.1693520268
H  H574  1  0.57970000  0.22240000  0.51760000  1.0 0.1899187838
H  H575  1  0.70470000  0.40710000  0.41030000  1.0 0.1588964289
H  H576  1  0.73750000  0.39240000  0.38490000  1.0 0.138278385
H  H577  1  0.70020000  0.35910000  0.39660000  1.0 0.1799524883
H  H578  1  0.85410000  0.36310000  0.36050000  1.0 0.1799524883
H  H579  1  0.80480000  0.34270000  0.35710000  1.0 0.138278385
H  H580  1  0.81220000  0.38630000  0.37570000  1.0 0.1489280275
H  H581  1  0.41340000  0.92650000  0.39870000  1.0 -0.0688876136
H  H582  1  0.47000000  0.89130000  0.34310000  1.0 -0.0880347159
H  H583  1  0.54190000  0.84290000  0.38460000  1.0 0.0296992949
H  H584  1  0.48080000  0.87980000  0.44210000  1.0 0.1203151055
H  H585  1  0.38470000  0.24330000  0.52440000  1.0 0.1489280275
H  H586  1  0.40820000  0.15680000  0.55450000  1.0 0.1899187838
H  H587  1  0.35800000  0.09120000  0.51380000  1.0 0.0621659234
H  H588  1  0.33090000  0.19050000  0.47470000  1.0 0.0669019428
H  H589  1  0.54140000  0.49250000  0.37820000  1.0 -0.0503924216
H  H590  1  0.48830000  0.45390000  0.43580000  1.0 0.1106978627
H  H591  1  0.41440000  0.40760000  0.39500000  1.0 0.0669019428
H  H592  1  0.46430000  0.44430000  0.33740000  1.0 -0.0503924216
H  H593  1  0.39230000  0.84320000  0.43030000  1.0 0.0110824362
H  H594  1  0.38300000  0.85390000  0.36040000  1.0 -0.0589139289
H  H595  1  0.47320000  0.79620000  0.35160000  1.0 -0.0359951015
H  H596  1  0.48460000  0.78660000  0.42380000  1.0 0.0621659234
H  H597  1  0.28370000  0.23810000  0.51620000  1.0 0.0819370881
H  H598  1  0.33600000  0.22260000  0.57100000  1.0 0.0399398457
H  H599  1  0.32430000  0.11800000  0.56940000  1.0 0.0669019428
H  H600  1  0.26550000  0.13220000  0.50740000  1.0 0.0296992949
H  H601  1  0.46920000  0.53930000  0.34550000  1.0 0.0110824362
H  H602  1  0.48480000  0.54630000  0.41820000  1.0 0.0481971892
H  H603  1  0.39670000  0.48820000  0.42830000  1.0 0.0819370881
H  H604  1  0.37990000  0.48280000  0.35970000  1.0 0.0621659234
H  H605  1  0.90730000  0.18080000  0.54550000  1.0 0.0481971892
H  H606  1  0.92730000  0.07530000  0.53150000  1.0 0.0296992949
H  H607  1  0.98150000  0.09690000  0.47630000  1.0 0.1799524883
H  H608  1  0.96910000  0.20090000  0.48220000  1.0 0.1588964289
H  H609  1  0.99940000  0.22220000  0.54250000  1.0 0.0669019428
H  H610  1  0.96930000  0.12340000  0.57680000  1.0 0.0110824362
H  H611  1  0.02480000  0.07310000  0.52870000  1.0 0.0399398457
H  H612  1  0.05280000  0.15770000  0.49620000  1.0 0.0481971892
H  H613  1  0.15380000  0.20050000  0.59440000  1.0 0.4224856869
H  H614  1  0.28930000  0.13060000  0.63890000  1.0 0.3653669358
H  H615  1  0.23070000  0.25330000  0.63380000  1.0 0.4025321269
H  H616  1  0.11730000  0.08300000  0.52550000  1.0 0.2096296819
H  H617  1  0.23980000  0.07780000  0.63430000  1.0 0.1799524883
H  H618  1  0.29990000  0.20910000  0.63510000  1.0 0.1021478729
H  H619  1  0.28290000  0.20160000  0.66240000  1.0 0.1021478729
H  H620  1  0.15780000  0.23230000  0.65640000  1.0 0.1899187838
H  H621  1  0.34820000  0.19800000  0.68120000  1.0 0.1203151055
H  H622  1  0.30680000  0.16920000  0.69250000  1.0 0.1588964289
H  H623  1  0.34630000  0.14650000  0.67440000  1.0 0.1106978627
H  H624  1  0.15120000  0.26670000  0.69180000  1.0 0.2284014226
H  H625  1  0.20300000  0.25830000  0.69900000  1.0 0.1899187838
H  H626  1  0.18860000  0.30020000  0.68040000  1.0 0.2096296819
H  H627  1  0.11940000  0.98300000  0.48750000  1.0 0.1693520268
H  H628  1  0.08780000  0.00770000  0.51010000  1.0 0.1693520268
H  H629  1  0.19740000  0.07340000  0.48610000  1.0 0.1489280275
H  H630  1  0.17450000  0.04060000  0.46420000  1.0 0.1304911075
H  H631  1  0.23700000  0.05610000  0.56310000  1.0 0.1588964289
H  H632  1  0.22030000  0.00700000  0.56880000  1.0 0.1588964289
H  H633  1  0.29270000  0.98970000  0.61640000  1.0 0.1693520268
H  H634  1  0.26510000  0.01070000  0.64240000  1.0 0.1693520268
H  H635  1  0.07310000  0.08060000  0.68900000  1.0 -0.0093040271
H  H636  1  0.12940000  0.13970000  0.73650000  1.0 -0.1109536572
H  H637  1  0.22520000  0.10100000  0.71200000  1.0 0.0669019428
H  H638  1  0.16960000  0.04040000  0.66440000  1.0 0.0399398457
H  H639  1  0.05650000  0.01010000  0.46500000  1.0 0.2782419157
H  H640  1  0.06880000  0.05880000  0.47550000  1.0 0.2284014226
H  H641  1  0.10040000  0.03410000  0.45290000  1.0 0.1899187838
H  H642  1  0.24500000  0.02250000  0.47200000  1.0 0.1588964289
H  H643  1  0.23590000  0.01750000  0.50570000  1.0 0.1693520268
H  H644  1  0.21270000  0.98430000  0.48350000  1.0 0.1693520268
H  H645  1  0.28360000  0.00630000  0.53910000  1.0 0.1588964289
H  H646  1  0.31210000  0.03170000  0.56310000  1.0 0.1993504182
H  H647  1  0.29540000  0.98250000  0.56880000  1.0 0.1899187838
H  H648  1  0.24360000  0.93870000  0.63530000  1.0 0.2208551076
H  H649  1  0.20210000  0.97070000  0.62900000  1.0 0.1993504182
H  H650  1  0.22960000  0.94970000  0.60290000  1.0 0.1899187838
H  H651  1  0.07800000  0.05880000  0.75140000  1.0 -0.1302056303
H  H652  1  0.10560000  0.99030000  0.69860000  1.0 -0.0010045007
H  H653  1  0.18440000  0.07300000  0.76700000  1.0 -0.0192884071
H  H654  1  0.21310000  0.00450000  0.71480000  1.0 0.1106978627
H  H655  1  0.49480000  0.70220000  0.38360000  1.0 0.1899187838
H  H656  1  0.52390000  0.62020000  0.33760000  1.0 0.2096296819
H  H657  1  0.56800000  0.64270000  0.32390000  1.0 0.1203151055
H  H658  1  0.58800000  0.58200000  0.35110000  1.0 0.1693520268
H  H659  1  0.60790000  0.62600000  0.36490000  1.0 0.1588964289
H  H660  1  0.56420000  0.60370000  0.37850000  1.0 0.2096296819
H  H661  1  0.37130000  0.18150000  0.64740000  1.0 0.1693520268
H  H662  1  0.35100000  0.13520000  0.65720000  1.0 0.138278385
H  H663  1  0.34880000  0.14950000  0.62420000  1.0 0.2096296819
H  H664  1  0.13670000  0.04110000  0.54130000  1.0 0.2208551076
H  H665  1  0.17950000  0.34870000  0.38310000  1.0 0.4224856869
H  H666  1  0.05040000  0.34530000  0.32890000  1.0 0.4067632035
H  H667  1  0.00380000  0.28770000  0.34290000  1.0 0.1304911075
H  H668  1  0.98980000  0.32100000  0.36810000  1.0 0.1799524883
H  H669  1  0.19510000  0.25120000  0.34710000  1.0 0.4664119036
H  H670  1  0.24290000  0.27020000  0.36170000  1.0 0.4400192798
H  H671  1  0.94280000  0.33360000  0.32670000  1.0 0.1489280275
H  H672  1  0.98650000  0.34330000  0.30770000  1.0 0.1693520268
H  H673  1  0.97250000  0.37650000  0.33280000  1.0 0.1799524883
H  H674  1  0.11070000  0.43130000  0.46810000  1.0 0.2208551076
H  H675  1  0.14710000  0.32090000  0.48360000  1.0 0.2208551076
H  H676  1  0.28120000  0.23760000  0.40410000  1.0 0.1489280275
H  H677  1  0.13290000  0.52840000  0.38450000  1.0 0.0481971892
H  H678  1  0.06030000  0.47730000  0.34330000  1.0 0.0669019428
H  H679  1  0.00770000  0.44060000  0.40030000  1.0 0.0669019428
H  H680  1  0.07990000  0.49180000  0.44210000  1.0 0.0296992949
H  H681  1  0.99940000  0.41830000  0.45540000  1.0 0.0399398457
H  H682  1  0.96010000  0.33250000  0.41530000  1.0 0.0030233409
H  H683  1  0.01020000  0.26470000  0.45890000  1.0 0.138278385
H  H684  1  0.04730000  0.34760000  0.49750000  1.0 0.0399398457
H  H685  1  0.18170000  0.36220000  0.26730000  1.0 -0.0880347159
H  H686  1  0.08840000  0.40330000  0.29890000  1.0 -0.0688876136
H  H687  1  0.15070000  0.46470000  0.33990000  1.0 0.0399398457
H  H688  1  0.24280000  0.42940000  0.31030000  1.0 -0.0093040271
H  H689  1  0.05240000  0.19290000  0.33780000  1.0 -0.0589139289
H  H690  1  0.00490000  0.22220000  0.39620000  1.0 0.0621659234
H  H691  1  0.09180000  0.16510000  0.42980000  1.0 0.0399398457
H  H692  1  0.13250000  0.13970000  0.37230000  1.0 -0.028097412
H  H693  1  0.06030000  0.57210000  0.35170000  1.0 0.0180205194
H  H694  1  0.07510000  0.58330000  0.42300000  1.0 0.1693520268
H  H695  1  0.97210000  0.51150000  0.36390000  1.0 -0.028097412
H  H696  1  0.98510000  0.52190000  0.43330000  1.0 0.0481971892
H  H697  1  0.90420000  0.39030000  0.45430000  1.0 0.0030233409
H  H698  1  0.96340000  0.39540000  0.51200000  1.0 0.1203151055
H  H699  1  0.91140000  0.27970000  0.45570000  1.0 0.1304911075
H  H700  1  0.97290000  0.28830000  0.51590000  1.0 0.1588964289
H  H701  1  0.12020000  0.42420000  0.23870000  1.0 -0.0688876136
H  H702  1  0.22900000  0.44490000  0.24820000  1.0 0.0884848449
H  H703  1  0.09770000  0.49860000  0.29010000  1.0 -0.0192884071
H  H704  1  0.20660000  0.51580000  0.29840000  1.0 0.1203151055
H  H705  1  0.97120000  0.15170000  0.35800000  1.0 -0.0787643672
H  H706  1  0.05810000  0.09710000  0.34170000  1.0 -0.1109536572
H  H707  1  0.98800000  0.14250000  0.42510000  1.0 0.138278385
H  H708  1  0.07710000  0.08350000  0.41010000  1.0 -0.0093040271
H  H709  1  0.35330000  0.36630000  0.41030000  1.0 0.0296992949
H  H710  1  0.30370000  0.42830000  0.45480000  1.0 0.0296992949
H  H711  1  0.26850000  0.34540000  0.49110000  1.0 0.0296992949
H  H712  1  0.31750000  0.28000000  0.44900000  1.0 0.0481971892
H  H713  1  0.17620000  0.47960000  0.52900000  1.0 0.1304911075
H  H714  1  0.19930000  0.44960000  0.50530000  1.0 0.1489280275
H  H715  1  0.08760000  0.45630000  0.53980000  1.0 0.1799524883
H  H716  1  0.06140000  0.44880000  0.50990000  1.0 0.1899187838
H  H717  1  0.15290000  0.22650000  0.45300000  1.0 0.1693520268
H  H718  1  0.11090000  0.21910000  0.47350000  1.0 0.1693520268
H  H719  1  0.16250000  0.23560000  0.52890000  1.0 0.1693520268
H  H720  1  0.15500000  0.28760000  0.52950000  1.0 0.1693520268
H  H721  1  0.27720000  0.11260000  0.43010000  1.0 0.138278385
H  H722  1  0.23970000  0.14610000  0.44190000  1.0 0.1489280275
H  H723  1  0.34580000  0.20330000  0.39610000  1.0 0.1588964289
H  H724  1  0.35320000  0.15900000  0.41500000  1.0 0.2284014226
H  H725  1  0.41470000  0.32300000  0.44350000  1.0 0.1489280275
H  H726  1  0.40150000  0.41590000  0.45610000  1.0 0.1106978627
H  H727  1  0.33740000  0.40010000  0.51280000  1.0 0.0030233409
H  H728  1  0.34820000  0.29760000  0.50440000  1.0 0.1021478729
H  H729  1  0.21620000  0.42870000  0.54800000  1.0 0.1693520268
H  H730  1  0.18760000  0.39170000  0.53190000  1.0 0.1799524883
H  H731  1  0.16430000  0.42190000  0.55570000  1.0 0.1799524883
H  H732  1  0.06240000  0.52160000  0.52170000  1.0 0.237324955
H  H733  1  0.09020000  0.51270000  0.49290000  1.0 0.1899187838
H  H734  1  0.11610000  0.52030000  0.52250000  1.0 0.1693520268
H  H735  1  0.14870000  0.15900000  0.46750000  1.0 0.1899187838
H  H736  1  0.15100000  0.17430000  0.50030000  1.0 0.1899187838
H  H737  1  0.19320000  0.18180000  0.47970000  1.0 0.1899187838
H  H738  1  0.09180000  0.25190000  0.54660000  1.0 0.2096296819
H  H739  1  0.08720000  0.22550000  0.51700000  1.0 0.1693520268
H  H740  1  0.07970000  0.27760000  0.51760000  1.0 0.1899187838
H  H741  1  0.20470000  0.09290000  0.41030000  1.0 0.1588964289
H  H742  1  0.23750000  0.10760000  0.38490000  1.0 0.138278385
H  H743  1  0.20020000  0.14090000  0.39660000  1.0 0.1799524883
H  H744  1  0.35410000  0.13690000  0.36050000  1.0 0.1799524883
H  H745  1  0.30480000  0.15730000  0.35710000  1.0 0.138278385
H  H746  1  0.31220000  0.11370000  0.37570000  1.0 0.1489280275
H  H747  1  0.91340000  0.57350000  0.39870000  1.0 -0.0688876136
H  H748  1  0.97000000  0.60870000  0.34310000  1.0 -0.0880347159
H  H749  1  0.04190000  0.65710000  0.38460000  1.0 0.0296992949
H  H750  1  0.98080000  0.62020000  0.44210000  1.0 0.1203151055
H  H751  1  0.88470000  0.25670000  0.52440000  1.0 0.138278385
H  H752  1  0.90820000  0.34320000  0.55450000  1.0 0.1899187838
H  H753  1  0.85800000  0.40880000  0.51380000  1.0 0.0621659234
H  H754  1  0.83090000  0.30950000  0.47470000  1.0 0.0669019428
H  H755  1  0.04140000  0.00750000  0.37820000  1.0 -0.0503924216
H  H756  1  0.98830000  0.04610000  0.43580000  1.0 0.1106978627
H  H757  1  0.91440000  0.09240000  0.39500000  1.0 0.0621659234
H  H758  1  0.96430000  0.05570000  0.33740000  1.0 -0.0589139289
H  H759  1  0.89230000  0.65680000  0.43030000  1.0 0.0030233409
H  H760  1  0.88300000  0.64610000  0.36040000  1.0 -0.0589139289
H  H761  1  0.97320000  0.70380000  0.35160000  1.0 -0.0359951015
H  H762  1  0.98460000  0.71340000  0.42380000  1.0 0.0621659234
H  H763  1  0.78370000  0.26190000  0.51620000  1.0 0.0819370881
H  H764  1  0.83600000  0.27740000  0.57100000  1.0 0.0399398457
H  H765  1  0.82430000  0.38200000  0.56940000  1.0 0.0669019428
H  H766  1  0.76550000  0.36780000  0.50740000  1.0 0.0296992949
H  H767  1  0.96920000  0.96070000  0.34550000  1.0 0.0110824362
H  H768  1  0.98480000  0.95370000  0.41820000  1.0 0.0481971892
H  H769  1  0.89670000  0.01180000  0.42830000  1.0 0.0819370881
H  H770  1  0.87990000  0.01720000  0.35970000  1.0 0.0621659234
H  H771  1  0.40730000  0.31920000  0.54550000  1.0 0.0481971892
H  H772  1  0.42730000  0.42470000  0.53150000  1.0 0.0296992949
H  H773  1  0.48150000  0.40310000  0.47630000  1.0 0.1799524883
H  H774  1  0.46910000  0.29910000  0.48220000  1.0 0.1588964289
H  H775  1  0.49940000  0.27780000  0.54250000  1.0 0.0669019428
H  H776  1  0.46930000  0.37660000  0.57680000  1.0 0.0110824362
H  H777  1  0.52480000  0.42690000  0.52870000  1.0 0.0399398457
H  H778  1  0.55280000  0.34230000  0.49620000  1.0 0.0481971892
H  H779  1  0.65380000  0.29950000  0.59440000  1.0 0.4224856869
H  H780  1  0.78930000  0.36940000  0.63890000  1.0 0.3653669358
H  H781  1  0.73070000  0.24670000  0.63380000  1.0 0.4025321269
H  H782  1  0.61730000  0.41700000  0.52550000  1.0 0.2096296819
H  H783  1  0.73980000  0.42220000  0.63430000  1.0 0.1799524883
H  H784  1  0.79990000  0.29090000  0.63510000  1.0 0.1021478729
H  H785  1  0.78290000  0.29840000  0.66240000  1.0 0.1021478729
H  H786  1  0.65780000  0.26770000  0.65640000  1.0 0.1899187838
H  H787  1  0.84820000  0.30200000  0.68120000  1.0 0.1203151055
H  H788  1  0.80680000  0.33080000  0.69250000  1.0 0.1588964289
H  H789  1  0.84630000  0.35350000  0.67440000  1.0 0.1106978627
H  H790  1  0.65120000  0.23330000  0.69180000  1.0 0.2284014226
H  H791  1  0.70300000  0.24170000  0.69900000  1.0 0.1899187838
H  H792  1  0.68860000  0.19980000  0.68040000  1.0 0.2208551076
H  H793  1  0.61940000  0.51700000  0.48750000  1.0 0.1693520268
H  H794  1  0.58780000  0.49230000  0.51010000  1.0 0.1693520268
H  H795  1  0.69740000  0.42660000  0.48610000  1.0 0.1489280275
H  H796  1  0.67450000  0.45940000  0.46420000  1.0 0.138278385
H  H797  1  0.73700000  0.44390000  0.56310000  1.0 0.1588964289
H  H798  1  0.72030000  0.49300000  0.56880000  1.0 0.1588964289
H  H799  1  0.79270000  0.51030000  0.61640000  1.0 0.1693520268
H  H800  1  0.76510000  0.48930000  0.64240000  1.0 0.1693520268
H  H801  1  0.57310000  0.41940000  0.68900000  1.0 -0.0093040271
H  H802  1  0.62940000  0.36030000  0.73650000  1.0 -0.1109536572
H  H803  1  0.72520000  0.39900000  0.71200000  1.0 0.0669019428
H  H804  1  0.66960000  0.45960000  0.66440000  1.0 0.0399398457
H  H805  1  0.55650000  0.48990000  0.46500000  1.0 0.2782419157
H  H806  1  0.56880000  0.44120000  0.47550000  1.0 0.2284014226
H  H807  1  0.60040000  0.46590000  0.45290000  1.0 0.1899187838
H  H808  1  0.74500000  0.47750000  0.47200000  1.0 0.1588964289
H  H809  1  0.73590000  0.48250000  0.50570000  1.0 0.1693520268
H  H810  1  0.71270000  0.51570000  0.48350000  1.0 0.1693520268
H  H811  1  0.78360000  0.49370000  0.53910000  1.0 0.1588964289
H  H812  1  0.81210000  0.46830000  0.56310000  1.0 0.1993504182
H  H813  1  0.79540000  0.51750000  0.56880000  1.0 0.1899187838
H  H814  1  0.74360000  0.56130000  0.63530000  1.0 0.2208551076
H  H815  1  0.70210000  0.52930000  0.62900000  1.0 0.1993504182
H  H816  1  0.72960000  0.55030000  0.60290000  1.0 0.1899187838
H  H817  1  0.57800000  0.44120000  0.75140000  1.0 -0.1302056303
H  H818  1  0.60560000  0.50970000  0.69860000  1.0 -0.0010045007
H  H819  1  0.68440000  0.42700000  0.76700000  1.0 -0.0192884071
H  H820  1  0.71310000  0.49550000  0.71480000  1.0 0.1106978627
H  H821  1  0.99480000  0.79780000  0.38360000  1.0 0.1899187838
H  H822  1  0.02390000  0.87980000  0.33760000  1.0 0.2096296819
H  H823  1  0.06800000  0.85730000  0.32390000  1.0 0.1203151055
H  H824  1  0.08800000  0.91800000  0.35110000  1.0 0.1693520268
H  H825  1  0.10790000  0.87400000  0.36490000  1.0 0.1588964289
H  H826  1  0.06420000  0.89630000  0.37850000  1.0 0.2096296819
H  H827  1  0.87130000  0.31850000  0.64740000  1.0 0.1693520268
H  H828  1  0.85100000  0.36480000  0.65720000  1.0 0.138278385
H  H829  1  0.84880000  0.35050000  0.62420000  1.0 0.2096296819
H  H830  1  0.63670000  0.45890000  0.54130000  1.0 0.2208551076
H  H831  1  0.32050000  0.15130000  0.88310000  1.0 0.4224856869
H  H832  1  0.44960000  0.15470000  0.82890000  1.0 0.4067632035
H  H833  1  0.49620000  0.21230000  0.84290000  1.0 0.1304911075
H  H834  1  0.51020000  0.17900000  0.86810000  1.0 0.1693520268
H  H835  1  0.30490000  0.24880000  0.84710000  1.0 0.4664119036
H  H836  1  0.25710000  0.22980000  0.86170000  1.0 0.4400192798
H  H837  1  0.55720000  0.16640000  0.82670000  1.0 0.1489280275
H  H838  1  0.51350000  0.15670000  0.80770000  1.0 0.1693520268
H  H839  1  0.52750000  0.12350000  0.83280000  1.0 0.1799524883
H  H840  1  0.38930000  0.06870000  0.96810000  1.0 0.2208551076
H  H841  1  0.35290000  0.17910000  0.98360000  1.0 0.2208551076
H  H842  1  0.21880000  0.26240000  0.90410000  1.0 0.1489280275
H  H843  1  0.36710000  0.97160000  0.88450000  1.0 0.0399398457
H  H844  1  0.43970000  0.02270000  0.84330000  1.0 0.0621659234
H  H845  1  0.49230000  0.05940000  0.90030000  1.0 0.0669019428
H  H846  1  0.42010000  0.00820000  0.94210000  1.0 0.0296992949
H  H847  1  0.50060000  0.08170000  0.95540000  1.0 0.0399398457
H  H848  1  0.53990000  0.16750000  0.91530000  1.0 0.0030233409
H  H849  1  0.48980000  0.23530000  0.95890000  1.0 0.1304911075
H  H850  1  0.45270000  0.15240000  0.99750000  1.0 0.0481971892
H  H851  1  0.31830000  0.13780000  0.76730000  1.0 -0.0880347159
H  H852  1  0.41160000  0.09670000  0.79890000  1.0 -0.0688876136
H  H853  1  0.34930000  0.03530000  0.83990000  1.0 0.0399398457
H  H854  1  0.25720000  0.07060000  0.81030000  1.0 -0.0093040271
H  H855  1  0.44760000  0.30710000  0.83780000  1.0 -0.0589139289
H  H856  1  0.49510000  0.27780000  0.89620000  1.0 0.0621659234
H  H857  1  0.40820000  0.33490000  0.92980000  1.0 0.0296992949
H  H858  1  0.36750000  0.36030000  0.87230000  1.0 -0.028097412
H  H859  1  0.43970000  0.92790000  0.85170000  1.0 0.0180205194
H  H860  1  0.42490000  0.91670000  0.92300000  1.0 0.1693520268
H  H861  1  0.52790000  0.98850000  0.86390000  1.0 -0.028097412
H  H862  1  0.51490000  0.97810000  0.93330000  1.0 0.0481971892
H  H863  1  0.59580000  0.10970000  0.95430000  1.0 0.0030233409
H  H864  1  0.53660000  0.10460000  0.01200000  1.0 0.1203151055
H  H865  1  0.58860000  0.22030000  0.95570000  1.0 0.1304911075
H  H866  1  0.52710000  0.21170000  0.01590000  1.0 0.1588964289
H  H867  1  0.37980000  0.07580000  0.73870000  1.0 -0.0787643672
H  H868  1  0.27100000  0.05510000  0.74820000  1.0 0.0884848449
H  H869  1  0.40230000  0.00140000  0.79010000  1.0 -0.0192884071
H  H870  1  0.29340000  0.98420000  0.79840000  1.0 0.1203151055
H  H871  1  0.52880000  0.34830000  0.85800000  1.0 -0.0787643672
H  H872  1  0.44190000  0.40290000  0.84170000  1.0 -0.1109536572
H  H873  1  0.51200000  0.35750000  0.92510000  1.0 0.138278385
H  H874  1  0.42290000  0.41650000  0.91010000  1.0 -0.0093040271
H  H875  1  0.14670000  0.13370000  0.91030000  1.0 0.0296992949
H  H876  1  0.19630000  0.07170000  0.95480000  1.0 0.0296992949
H  H877  1  0.23150000  0.15460000  0.99110000  1.0 0.0296992949
H  H878  1  0.18250000  0.22000000  0.94900000  1.0 0.0481971892
H  H879  1  0.32380000  0.02040000  0.02900000  1.0 0.1304911075
H  H880  1  0.30070000  0.05040000  0.00530000  1.0 0.1489280275
H  H881  1  0.41240000  0.04370000  0.03980000  1.0 0.1799524883
H  H882  1  0.43860000  0.05120000  0.00990000  1.0 0.1993504182
H  H883  1  0.34710000  0.27350000  0.95300000  1.0 0.1693520268
H  H884  1  0.38910000  0.28090000  0.97350000  1.0 0.1693520268
H  H885  1  0.33750000  0.26440000  0.02890000  1.0 0.1693520268
H  H886  1  0.34500000  0.21240000  0.02950000  1.0 0.1693520268
H  H887  1  0.22280000  0.38740000  0.93010000  1.0 0.138278385
H  H888  1  0.26030000  0.35390000  0.94190000  1.0 0.1489280275
H  H889  1  0.15420000  0.29670000  0.89610000  1.0 0.1588964289
H  H890  1  0.14680000  0.34100000  0.91500000  1.0 0.2284014226
H  H891  1  0.08530000  0.17700000  0.94350000  1.0 0.1489280275
H  H892  1  0.09850000  0.08410000  0.95610000  1.0 0.1203151055
H  H893  1  0.16260000  0.09990000  0.01280000  1.0 0.0110824362
H  H894  1  0.15180000  0.20240000  0.00440000  1.0 0.1106978627
H  H895  1  0.28380000  0.07130000  0.04800000  1.0 0.1693520268
H  H896  1  0.31240000  0.10830000  0.03190000  1.0 0.1799524883
H  H897  1  0.33570000  0.07810000  0.05570000  1.0 0.1799524883
H  H898  1  0.43760000  0.97840000  0.02170000  1.0 0.237324955
H  H899  1  0.40980000  0.98730000  0.99290000  1.0 0.1899187838
H  H900  1  0.38390000  0.97970000  0.02250000  1.0 0.1693520268
H  H901  1  0.35130000  0.34100000  0.96750000  1.0 0.1899187838
H  H902  1  0.34900000  0.32570000  0.00030000  1.0 0.1899187838
H  H903  1  0.30680000  0.31820000  0.97970000  1.0 0.1899187838
H  H904  1  0.40820000  0.24810000  0.04660000  1.0 0.2096296819
H  H905  1  0.41280000  0.27450000  0.01700000  1.0 0.1693520268
H  H906  1  0.42030000  0.22240000  0.01760000  1.0 0.1899187838
H  H907  1  0.29530000  0.40710000  0.91030000  1.0 0.1588964289
H  H908  1  0.26250000  0.39240000  0.88490000  1.0 0.138278385
H  H909  1  0.29980000  0.35910000  0.89660000  1.0 0.1799524883
H  H910  1  0.14590000  0.36310000  0.86050000  1.0 0.1799524883
H  H911  1  0.19520000  0.34270000  0.85710000  1.0 0.138278385
H  H912  1  0.18780000  0.38630000  0.87570000  1.0 0.1489280275
H  H913  1  0.58660000  0.92650000  0.89870000  1.0 -0.0688876136
H  H914  1  0.53000000  0.89130000  0.84310000  1.0 -0.0880347159
H  H915  1  0.45810000  0.84290000  0.88460000  1.0 0.0296992949
H  H916  1  0.51920000  0.87980000  0.94210000  1.0 0.1203151055
H  H917  1  0.61530000  0.24330000  0.02440000  1.0 0.1489280275
H  H918  1  0.59180000  0.15680000  0.05450000  1.0 0.1899187838
H  H919  1  0.64200000  0.09120000  0.01380000  1.0 0.0669019428
H  H920  1  0.66910000  0.19050000  0.97470000  1.0 0.0669019428
H  H921  1  0.45860000  0.49250000  0.87820000  1.0 -0.0503924216
H  H922  1  0.51170000  0.45390000  0.93580000  1.0 0.1106978627
H  H923  1  0.58560000  0.40760000  0.89500000  1.0 0.0669019428
H  H924  1  0.53570000  0.44430000  0.83740000  1.0 -0.0503924216
H  H925  1  0.60770000  0.84320000  0.93030000  1.0 0.0110824362
H  H926  1  0.61700000  0.85390000  0.86040000  1.0 -0.0589139289
H  H927  1  0.52680000  0.79620000  0.85160000  1.0 -0.0359951015
H  H928  1  0.51540000  0.78660000  0.92380000  1.0 0.0621659234
H  H929  1  0.71630000  0.23810000  0.01620000  1.0 0.0819370881
H  H930  1  0.66400000  0.22260000  0.07100000  1.0 0.0399398457
H  H931  1  0.67570000  0.11800000  0.06940000  1.0 0.0669019428
H  H932  1  0.73450000  0.13220000  0.00740000  1.0 0.0296992949
H  H933  1  0.53080000  0.53930000  0.84550000  1.0 0.0180205194
H  H934  1  0.51520000  0.54630000  0.91820000  1.0 0.0481971892
H  H935  1  0.60330000  0.48820000  0.92830000  1.0 0.0819370881
H  H936  1  0.62010000  0.48280000  0.85970000  1.0 0.0621659234
H  H937  1  0.09270000  0.18080000  0.04550000  1.0 0.0481971892
H  H938  1  0.07270000  0.07530000  0.03150000  1.0 0.0296992949
H  H939  1  0.01850000  0.09690000  0.97630000  1.0 0.1799524883
H  H940  1  0.03090000  0.20090000  0.98220000  1.0 0.1588964289
H  H941  1  0.00060000  0.22220000  0.04250000  1.0 0.0669019428
H  H942  1  0.03070000  0.12340000  0.07680000  1.0 0.0110824362
H  H943  1  0.97520000  0.07310000  0.02870000  1.0 0.0399398457
H  H944  1  0.94720000  0.15770000  0.99620000  1.0 0.0481971892
H  H945  1  0.84620000  0.20050000  0.09440000  1.0 0.4224856869
H  H946  1  0.71070000  0.13060000  0.13890000  1.0 0.3653669358
H  H947  1  0.76930000  0.25330000  0.13380000  1.0 0.4025321269
H  H948  1  0.88270000  0.08300000  0.02550000  1.0 0.2096296819
H  H949  1  0.76020000  0.07780000  0.13430000  1.0 0.1799524883
H  H950  1  0.70010000  0.20910000  0.13510000  1.0 0.1021478729
H  H951  1  0.71710000  0.20160000  0.16240000  1.0 0.1021478729
H  H952  1  0.84220000  0.23230000  0.15640000  1.0 0.1899187838
H  H953  1  0.65180000  0.19800000  0.18120000  1.0 0.1203151055
H  H954  1  0.69320000  0.16920000  0.19250000  1.0 0.1588964289
H  H955  1  0.65370000  0.14650000  0.17440000  1.0 0.1106978627
H  H956  1  0.84880000  0.26670000  0.19180000  1.0 0.2284014226
H  H957  1  0.79700000  0.25830000  0.19900000  1.0 0.1899187838
H  H958  1  0.81140000  0.30020000  0.18040000  1.0 0.2096296819
H  H959  1  0.88060000  0.98300000  0.98750000  1.0 0.1693520268
H  H960  1  0.91220000  0.00770000  0.01010000  1.0 0.1693520268
H  H961  1  0.80260000  0.07340000  0.98610000  1.0 0.1489280275
H  H962  1  0.82550000  0.04060000  0.96420000  1.0 0.1304911075
H  H963  1  0.76300000  0.05610000  0.06310000  1.0 0.1588964289
H  H964  1  0.77970000  0.00700000  0.06880000  1.0 0.1588964289
H  H965  1  0.70730000  0.98970000  0.11640000  1.0 0.1693520268
H  H966  1  0.73490000  0.01070000  0.14240000  1.0 0.1693520268
H  H967  1  0.92690000  0.08060000  0.18900000  1.0 -0.0093040271
H  H968  1  0.87060000  0.13970000  0.23650000  1.0 -0.1109536572
H  H969  1  0.77480000  0.10100000  0.21200000  1.0 0.0669019428
H  H970  1  0.83040000  0.04040000  0.16440000  1.0 0.0399398457
H  H971  1  0.94350000  0.01010000  0.96500000  1.0 0.2782419157
H  H972  1  0.93120000  0.05880000  0.97550000  1.0 0.2284014226
H  H973  1  0.89960000  0.03410000  0.95290000  1.0 0.1899187838
H  H974  1  0.75500000  0.02250000  0.97200000  1.0 0.1588964289
H  H975  1  0.76410000  0.01750000  0.00570000  1.0 0.1693520268
H  H976  1  0.78730000  0.98430000  0.98350000  1.0 0.1693520268
H  H977  1  0.71640000  0.00630000  0.03910000  1.0 0.1588964289
H  H978  1  0.68790000  0.03170000  0.06310000  1.0 0.1993504182
H  H979  1  0.70460000  0.98250000  0.06880000  1.0 0.1899187838
H  H980  1  0.75640000  0.93870000  0.13530000  1.0 0.2208551076
H  H981  1  0.79790000  0.97070000  0.12900000  1.0 0.1993504182
H  H982  1  0.77040000  0.94970000  0.10290000  1.0 0.1899187838
H  H983  1  0.92200000  0.05880000  0.25140000  1.0 -0.1302056303
H  H984  1  0.89440000  0.99030000  0.19860000  1.0 -0.0010045007
H  H985  1  0.81560000  0.07300000  0.26700000  1.0 -0.0192884071
H  H986  1  0.78690000  0.00450000  0.21480000  1.0 0.1106978627
H  H987  1  0.50520000  0.70220000  0.88360000  1.0 0.1899187838
H  H988  1  0.47610000  0.62020000  0.83760000  1.0 0.2096296819
H  H989  1  0.43200000  0.64270000  0.82390000  1.0 0.1203151055
H  H990  1  0.41200000  0.58200000  0.85110000  1.0 0.1693520268
H  H991  1  0.39210000  0.62600000  0.86490000  1.0 0.1588964289
H  H992  1  0.43580000  0.60370000  0.87850000  1.0 0.2096296819
H  H993  1  0.62870000  0.18150000  0.14740000  1.0 0.1693520268
H  H994  1  0.64900000  0.13520000  0.15720000  1.0 0.138278385
H  H995  1  0.65120000  0.14950000  0.12420000  1.0 0.2096296819
H  H996  1  0.86330000  0.04110000  0.04130000  1.0 0.2208551076
H  H997  1  0.17950000  0.65130000  0.11690000  1.0 0.4224856869
H  H998  1  0.05040000  0.65470000  0.17110000  1.0 0.4067632035
H  H999  1  0.00380000  0.71230000  0.15710000  1.0 0.1304911075
H  H1000  1  0.98980000  0.67900000  0.13190000  1.0 0.1799524883
H  H1001  1  0.19510000  0.74880000  0.15290000  1.0 0.4664119036
H  H1002  1  0.24290000  0.72980000  0.13830000  1.0 0.4400192798
H  H1003  1  0.94280000  0.66640000  0.17330000  1.0 0.1489280275
H  H1004  1  0.98650000  0.65670000  0.19230000  1.0 0.1693520268
H  H1005  1  0.97250000  0.62350000  0.16720000  1.0 0.1799524883
H  H1006  1  0.11070000  0.56870000  0.03190000  1.0 0.2208551076
H  H1007  1  0.14710000  0.67910000  0.01640000  1.0 0.2208551076
H  H1008  1  0.28120000  0.76240000  0.09590000  1.0 0.1489280275
H  H1009  1  0.13290000  0.47160000  0.11550000  1.0 0.0481971892
H  H1010  1  0.06030000  0.52270000  0.15670000  1.0 0.0669019428
H  H1011  1  0.00770000  0.55940000  0.09970000  1.0 0.0669019428
H  H1012  1  0.07990000  0.50820000  0.05790000  1.0 0.0296992949
H  H1013  1  0.99940000  0.58170000  0.04460000  1.0 0.0399398457
H  H1014  1  0.96010000  0.66750000  0.08470000  1.0 0.0030233409
H  H1015  1  0.01020000  0.73530000  0.04110000  1.0 0.138278385
H  H1016  1  0.04730000  0.65240000  0.00250000  1.0 0.0399398457
H  H1017  1  0.18170000  0.63780000  0.23270000  1.0 -0.0880347159
H  H1018  1  0.08840000  0.59670000  0.20110000  1.0 -0.0688876136
H  H1019  1  0.15070000  0.53530000  0.16010000  1.0 0.0399398457
H  H1020  1  0.24280000  0.57060000  0.18970000  1.0 -0.0093040271
H  H1021  1  0.05240000  0.80710000  0.16220000  1.0 -0.0589139289
H  H1022  1  0.00490000  0.77780000  0.10380000  1.0 0.0621659234
H  H1023  1  0.09180000  0.83490000  0.07020000  1.0 0.0399398457
H  H1024  1  0.13250000  0.86030000  0.12770000  1.0 -0.028097412
H  H1025  1  0.06030000  0.42790000  0.14830000  1.0 0.0180205194
H  H1026  1  0.07510000  0.41670000  0.07700000  1.0 0.1693520268
H  H1027  1  0.97210000  0.48850000  0.13610000  1.0 -0.028097412
H  H1028  1  0.98510000  0.47810000  0.06670000  1.0 0.0481971892
H  H1029  1  0.90420000  0.60970000  0.04570000  1.0 0.0030233409
H  H1030  1  0.96340000  0.60460000  0.98800000  1.0 0.1203151055
H  H1031  1  0.91140000  0.72030000  0.04430000  1.0 0.1304911075
H  H1032  1  0.97290000  0.71170000  0.98410000  1.0 0.1588964289
H  H1033  1  0.12020000  0.57580000  0.26130000  1.0 -0.0688876136
H  H1034  1  0.22900000  0.55510000  0.25180000  1.0 0.0884848449
H  H1035  1  0.09770000  0.50140000  0.20990000  1.0 -0.0192884071
H  H1036  1  0.20660000  0.48420000  0.20160000  1.0 0.1203151055
H  H1037  1  0.97120000  0.84830000  0.14200000  1.0 -0.0787643672
H  H1038  1  0.05810000  0.90290000  0.15830000  1.0 -0.1109536572
H  H1039  1  0.98800000  0.85750000  0.07490000  1.0 0.138278385
H  H1040  1  0.07710000  0.91650000  0.08990000  1.0 -0.0093040271
H  H1041  1  0.35330000  0.63370000  0.08970000  1.0 0.0296992949
H  H1042  1  0.30370000  0.57170000  0.04520000  1.0 0.0296992949
H  H1043  1  0.26850000  0.65460000  0.00890000  1.0 0.0296992949
H  H1044  1  0.31750000  0.72000000  0.05100000  1.0 0.0481971892
H  H1045  1  0.17620000  0.52040000  0.97100000  1.0 0.1304911075
H  H1046  1  0.19930000  0.55040000  0.99470000  1.0 0.1489280275
H  H1047  1  0.08760000  0.54370000  0.96020000  1.0 0.1799524883
H  H1048  1  0.06140000  0.55120000  0.99010000  1.0 0.1899187838
H  H1049  1  0.15290000  0.77350000  0.04700000  1.0 0.1693520268
H  H1050  1  0.11090000  0.78090000  0.02650000  1.0 0.1693520268
H  H1051  1  0.16250000  0.76440000  0.97110000  1.0 0.1693520268
H  H1052  1  0.15500000  0.71240000  0.97050000  1.0 0.1693520268
H  H1053  1  0.27720000  0.88740000  0.06990000  1.0 0.138278385
H  H1054  1  0.23970000  0.85390000  0.05810000  1.0 0.1489280275
H  H1055  1  0.34580000  0.79670000  0.10390000  1.0 0.1588964289
H  H1056  1  0.35320000  0.84100000  0.08500000  1.0 0.2284014226
H  H1057  1  0.41470000  0.67700000  0.05650000  1.0 0.1489280275
H  H1058  1  0.40150000  0.58410000  0.04390000  1.0 0.1203151055
H  H1059  1  0.33740000  0.59990000  0.98720000  1.0 0.0030233409
H  H1060  1  0.34820000  0.70240000  0.99560000  1.0 0.1021478729
H  H1061  1  0.21620000  0.57130000  0.95200000  1.0 0.1693520268
H  H1062  1  0.18760000  0.60830000  0.96810000  1.0 0.1799524883
H  H1063  1  0.16430000  0.57810000  0.94430000  1.0 0.1799524883
H  H1064  1  0.06240000  0.47840000  0.97830000  1.0 0.237324955
H  H1065  1  0.09020000  0.48730000  0.00710000  1.0 0.1899187838
H  H1066  1  0.11610000  0.47970000  0.97750000  1.0 0.1693520268
H  H1067  1  0.14870000  0.84100000  0.03250000  1.0 0.1899187838
H  H1068  1  0.15100000  0.82570000  0.99970000  1.0 0.1899187838
H  H1069  1  0.19320000  0.81820000  0.02030000  1.0 0.1899187838
H  H1070  1  0.09180000  0.74810000  0.95340000  1.0 0.2096296819
H  H1071  1  0.08720000  0.77450000  0.98300000  1.0 0.1693520268
H  H1072  1  0.07970000  0.72240000  0.98240000  1.0 0.1899187838
H  H1073  1  0.20470000  0.90710000  0.08970000  1.0 0.1588964289
H  H1074  1  0.23750000  0.89240000  0.11510000  1.0 0.138278385
H  H1075  1  0.20020000  0.85910000  0.10340000  1.0 0.1799524883
H  H1076  1  0.35410000  0.86310000  0.13950000  1.0 0.1799524883
H  H1077  1  0.30480000  0.84270000  0.14290000  1.0 0.138278385
H  H1078  1  0.31220000  0.88630000  0.12430000  1.0 0.1489280275
H  H1079  1  0.91340000  0.42650000  0.10130000  1.0 -0.0688876136
H  H1080  1  0.97000000  0.39130000  0.15690000  1.0 -0.0880347159
H  H1081  1  0.04190000  0.34290000  0.11540000  1.0 0.0296992949
H  H1082  1  0.98080000  0.37980000  0.05790000  1.0 0.1203151055
H  H1083  1  0.88470000  0.74330000  0.97560000  1.0 0.1489280275
H  H1084  1  0.90820000  0.65680000  0.94550000  1.0 0.1899187838
H  H1085  1  0.85800000  0.59120000  0.98620000  1.0 0.0621659234
H  H1086  1  0.83090000  0.69050000  0.02530000  1.0 0.0669019428
H  H1087  1  0.04140000  0.99250000  0.12180000  1.0 -0.0503924216
H  H1088  1  0.98830000  0.95390000  0.06420000  1.0 0.1106978627
H  H1089  1  0.91440000  0.90760000  0.10500000  1.0 0.0669019428
H  H1090  1  0.96430000  0.94430000  0.16260000  1.0 -0.0503924216
H  H1091  1  0.89230000  0.34320000  0.06970000  1.0 0.0030233409
H  H1092  1  0.88300000  0.35390000  0.13960000  1.0 -0.0589139289
H  H1093  1  0.97320000  0.29620000  0.14840000  1.0 -0.0359951015
H  H1094  1  0.98460000  0.28660000  0.07620000  1.0 0.0621659234
H  H1095  1  0.78370000  0.73810000  0.98380000  1.0 0.0884848449
H  H1096  1  0.83600000  0.72260000  0.92900000  1.0 0.0399398457
H  H1097  1  0.82430000  0.61800000  0.93060000  1.0 0.0669019428
H  H1098  1  0.76550000  0.63220000  0.99260000  1.0 0.0296992949
H  H1099  1  0.96920000  0.03930000  0.15450000  1.0 0.0110824362
H  H1100  1  0.98480000  0.04630000  0.08180000  1.0 0.0481971892
H  H1101  1  0.89670000  0.98820000  0.07170000  1.0 0.0819370881
H  H1102  1  0.87990000  0.98280000  0.14030000  1.0 0.0621659234
H  H1103  1  0.40730000  0.68080000  0.95450000  1.0 0.0481971892
H  H1104  1  0.42730000  0.57530000  0.96850000  1.0 0.0296992949
H  H1105  1  0.48150000  0.59690000  0.02370000  1.0 0.1799524883
H  H1106  1  0.46910000  0.70090000  0.01780000  1.0 0.1588964289
H  H1107  1  0.49940000  0.72220000  0.95750000  1.0 0.0669019428
H  H1108  1  0.46930000  0.62340000  0.92320000  1.0 0.0110824362
H  H1109  1  0.52480000  0.57310000  0.97130000  1.0 0.0399398457
H  H1110  1  0.55280000  0.65770000  0.00380000  1.0 0.0481971892
H  H1111  1  0.65380000  0.70050000  0.90560000  1.0 0.4224856869
H  H1112  1  0.78930000  0.63060000  0.86110000  1.0 0.3653669358
H  H1113  1  0.73070000  0.75330000  0.86620000  1.0 0.4025321269
H  H1114  1  0.61730000  0.58300000  0.97450000  1.0 0.2096296819
H  H1115  1  0.73980000  0.57780000  0.86570000  1.0 0.1799524883
H  H1116  1  0.79990000  0.70910000  0.86490000  1.0 0.1021478729
H  H1117  1  0.78290000  0.70160000  0.83760000  1.0 0.1021478729
H  H1118  1  0.65780000  0.73230000  0.84360000  1.0 0.1899187838
H  H1119  1  0.84820000  0.69800000  0.81880000  1.0 0.1203151055
H  H1120  1  0.80680000  0.66920000  0.80750000  1.0 0.1588964289
H  H1121  1  0.84630000  0.64650000  0.82560000  1.0 0.1106978627
H  H1122  1  0.65120000  0.76670000  0.80820000  1.0 0.2284014226
H  H1123  1  0.70300000  0.75830000  0.80100000  1.0 0.1899187838
H  H1124  1  0.68860000  0.80020000  0.81960000  1.0 0.2208551076
H  H1125  1  0.61940000  0.48300000  0.01250000  1.0 0.1693520268
H  H1126  1  0.58780000  0.50770000  0.98990000  1.0 0.1693520268
H  H1127  1  0.69740000  0.57340000  0.01390000  1.0 0.1489280275
H  H1128  1  0.67450000  0.54060000  0.03580000  1.0 0.138278385
H  H1129  1  0.73700000  0.55610000  0.93690000  1.0 0.1588964289
H  H1130  1  0.72030000  0.50700000  0.93120000  1.0 0.1588964289
H  H1131  1  0.79270000  0.48970000  0.88360000  1.0 0.1693520268
H  H1132  1  0.76510000  0.51070000  0.85760000  1.0 0.1693520268
H  H1133  1  0.57310000  0.58060000  0.81100000  1.0 -0.0093040271
H  H1134  1  0.62940000  0.63970000  0.76350000  1.0 -0.1109536572
H  H1135  1  0.72520000  0.60100000  0.78800000  1.0 0.0669019428
H  H1136  1  0.66960000  0.54040000  0.83560000  1.0 0.0399398457
H  H1137  1  0.55650000  0.51010000  0.03500000  1.0 0.2782419157
H  H1138  1  0.56880000  0.55880000  0.02450000  1.0 0.2284014226
H  H1139  1  0.60040000  0.53410000  0.04710000  1.0 0.1899187838
H  H1140  1  0.74500000  0.52250000  0.02800000  1.0 0.1588964289
H  H1141  1  0.73590000  0.51750000  0.99430000  1.0 0.1693520268
H  H1142  1  0.71270000  0.48430000  0.01650000  1.0 0.1693520268
H  H1143  1  0.78360000  0.50630000  0.96090000  1.0 0.1588964289
H  H1144  1  0.81210000  0.53170000  0.93690000  1.0 0.1993504182
H  H1145  1  0.79540000  0.48250000  0.93120000  1.0 0.1899187838
H  H1146  1  0.74360000  0.43870000  0.86470000  1.0 0.2208551076
H  H1147  1  0.70210000  0.47070000  0.87100000  1.0 0.1993504182
H  H1148  1  0.72960000  0.44970000  0.89710000  1.0 0.1899187838
H  H1149  1  0.57800000  0.55880000  0.74860000  1.0 -0.1302056303
H  H1150  1  0.60560000  0.49030000  0.80140000  1.0 -0.0010045007
H  H1151  1  0.68440000  0.57300000  0.73300000  1.0 -0.0093040271
H  H1152  1  0.71310000  0.50450000  0.78520000  1.0 0.1106978627
H  H1153  1  0.99480000  0.20220000  0.11640000  1.0 0.1899187838
H  H1154  1  0.02390000  0.12020000  0.16240000  1.0 0.2096296819
H  H1155  1  0.06800000  0.14270000  0.17610000  1.0 0.1203151055
H  H1156  1  0.08800000  0.08200000  0.14890000  1.0 0.1693520268
H  H1157  1  0.10790000  0.12600000  0.13510000  1.0 0.1588964289
H  H1158  1  0.06420000  0.10370000  0.12150000  1.0 0.2096296819
H  H1159  1  0.87130000  0.68150000  0.85260000  1.0 0.1693520268
H  H1160  1  0.85100000  0.63520000  0.84280000  1.0 0.138278385
H  H1161  1  0.84880000  0.64950000  0.87580000  1.0 0.2096296819
H  H1162  1  0.63670000  0.54110000  0.95870000  1.0 0.2208551076
H  H1163  1  0.32050000  0.84870000  0.61690000  1.0 0.4224856869
H  H1164  1  0.44960000  0.84530000  0.67110000  1.0 0.4067632035
H  H1165  1  0.49620000  0.78770000  0.65710000  1.0 0.1304911075
H  H1166  1  0.51020000  0.82100000  0.63190000  1.0 0.1693520268
H  H1167  1  0.30490000  0.75120000  0.65290000  1.0 0.4664119036
H  H1168  1  0.25710000  0.77020000  0.63830000  1.0 0.4400192798
H  H1169  1  0.55720000  0.83360000  0.67330000  1.0 0.1489280275
H  H1170  1  0.51350000  0.84330000  0.69230000  1.0 0.1693520268
H  H1171  1  0.52750000  0.87650000  0.66720000  1.0 0.1799524883
H  H1172  1  0.38930000  0.93130000  0.53190000  1.0 0.2208551076
H  H1173  1  0.35290000  0.82090000  0.51640000  1.0 0.2208551076
H  H1174  1  0.21880000  0.73760000  0.59590000  1.0 0.1489280275
H  H1175  1  0.36710000  0.02840000  0.61550000  1.0 0.0399398457
H  H1176  1  0.43970000  0.97730000  0.65670000  1.0 0.0669019428
H  H1177  1  0.49230000  0.94060000  0.59970000  1.0 0.0669019428
H  H1178  1  0.42010000  0.99180000  0.55790000  1.0 0.0296992949
H  H1179  1  0.50060000  0.91830000  0.54460000  1.0 0.0399398457
H  H1180  1  0.53990000  0.83250000  0.58470000  1.0 0.0030233409
H  H1181  1  0.48980000  0.76470000  0.54110000  1.0 0.138278385
H  H1182  1  0.45270000  0.84760000  0.50250000  1.0 0.0481971892
H  H1183  1  0.31830000  0.86220000  0.73270000  1.0 -0.0880347159
H  H1184  1  0.41160000  0.90330000  0.70110000  1.0 -0.0688876136
H  H1185  1  0.34930000  0.96470000  0.66010000  1.0 0.0399398457
H  H1186  1  0.25720000  0.92940000  0.68970000  1.0 -0.0093040271
H  H1187  1  0.44760000  0.69290000  0.66220000  1.0 -0.0589139289
H  H1188  1  0.49510000  0.72220000  0.60380000  1.0 0.0621659234
H  H1189  1  0.40820000  0.66510000  0.57020000  1.0 0.0399398457
H  H1190  1  0.36750000  0.63970000  0.62770000  1.0 -0.028097412
H  H1191  1  0.43970000  0.07210000  0.64830000  1.0 0.0180205194
H  H1192  1  0.42490000  0.08330000  0.57700000  1.0 0.1693520268
H  H1193  1  0.52790000  0.01150000  0.63610000  1.0 -0.028097412
H  H1194  1  0.51490000  0.02190000  0.56670000  1.0 0.0481971892
H  H1195  1  0.59580000  0.89030000  0.54570000  1.0 0.0030233409
H  H1196  1  0.53660000  0.89540000  0.48800000  1.0 0.1203151055
H  H1197  1  0.58860000  0.77970000  0.54430000  1.0 0.1304911075
H  H1198  1  0.52710000  0.78830000  0.48410000  1.0 0.1588964289
H  H1199  1  0.37980000  0.92420000  0.76130000  1.0 -0.0787643672
H  H1200  1  0.27100000  0.94490000  0.75180000  1.0 0.0884848449
H  H1201  1  0.40230000  0.99860000  0.70990000  1.0 -0.0192884071
H  H1202  1  0.29340000  0.01580000  0.70160000  1.0 0.1203151055
H  H1203  1  0.52880000  0.65170000  0.64200000  1.0 -0.0787643672
H  H1204  1  0.44190000  0.59710000  0.65830000  1.0 -0.1109536572
H  H1205  1  0.51200000  0.64250000  0.57490000  1.0 0.138278385
H  H1206  1  0.42290000  0.58350000  0.58990000  1.0 -0.0093040271
H  H1207  1  0.14670000  0.86630000  0.58970000  1.0 0.0296992949
H  H1208  1  0.19630000  0.92830000  0.54520000  1.0 0.0296992949
H  H1209  1  0.23150000  0.84540000  0.50890000  1.0 0.0296992949
H  H1210  1  0.18250000  0.78000000  0.55100000  1.0 0.0481971892
H  H1211  1  0.32380000  0.97960000  0.47100000  1.0 0.1304911075
H  H1212  1  0.30070000  0.94960000  0.49470000  1.0 0.1489280275
H  H1213  1  0.41240000  0.95630000  0.46020000  1.0 0.1799524883
H  H1214  1  0.43860000  0.94880000  0.49010000  1.0 0.1993504182
H  H1215  1  0.34710000  0.72650000  0.54700000  1.0 0.1693520268
H  H1216  1  0.38910000  0.71910000  0.52650000  1.0 0.1693520268
H  H1217  1  0.33750000  0.73560000  0.47110000  1.0 0.1693520268
H  H1218  1  0.34500000  0.78760000  0.47050000  1.0 0.1693520268
H  H1219  1  0.22280000  0.61260000  0.56990000  1.0 0.138278385
H  H1220  1  0.26030000  0.64610000  0.55810000  1.0 0.1489280275
H  H1221  1  0.15420000  0.70330000  0.60390000  1.0 0.1588964289
H  H1222  1  0.14680000  0.65900000  0.58500000  1.0 0.2284014226
H  H1223  1  0.08530000  0.82300000  0.55650000  1.0 0.1489280275
H  H1224  1  0.09850000  0.91590000  0.54390000  1.0 0.1203151055
H  H1225  1  0.16260000  0.90010000  0.48720000  1.0 0.0110824362
H  H1226  1  0.15180000  0.79760000  0.49560000  1.0 0.1106978627
H  H1227  1  0.28380000  0.92870000  0.45200000  1.0 0.1693520268
H  H1228  1  0.31240000  0.89170000  0.46810000  1.0 0.1799524883
H  H1229  1  0.33570000  0.92190000  0.44430000  1.0 0.1799524883
H  H1230  1  0.43760000  0.02160000  0.47830000  1.0 0.237324955
H  H1231  1  0.40980000  0.01270000  0.50710000  1.0 0.1899187838
H  H1232  1  0.38390000  0.02030000  0.47750000  1.0 0.1693520268
H  H1233  1  0.35130000  0.65900000  0.53250000  1.0 0.1899187838
H  H1234  1  0.34900000  0.67430000  0.49970000  1.0 0.1899187838
H  H1235  1  0.30680000  0.68180000  0.52030000  1.0 0.1899187838
H  H1236  1  0.40820000  0.75190000  0.45340000  1.0 0.2096296819
H  H1237  1  0.41280000  0.72550000  0.48300000  1.0 0.1693520268
H  H1238  1  0.42030000  0.77760000  0.48240000  1.0 0.1899187838
H  H1239  1  0.29530000  0.59290000  0.58970000  1.0 0.1588964289
H  H1240  1  0.26250000  0.60760000  0.61510000  1.0 0.138278385
H  H1241  1  0.29980000  0.64090000  0.60340000  1.0 0.1799524883
H  H1242  1  0.14590000  0.63690000  0.63950000  1.0 0.1799524883
H  H1243  1  0.19520000  0.65730000  0.64290000  1.0 0.138278385
H  H1244  1  0.18780000  0.61370000  0.62430000  1.0 0.1489280275
H  H1245  1  0.58660000  0.07350000  0.60130000  1.0 -0.0688876136
H  H1246  1  0.53000000  0.10870000  0.65690000  1.0 -0.0880347159
H  H1247  1  0.45810000  0.15710000  0.61540000  1.0 0.0296992949
H  H1248  1  0.51920000  0.12020000  0.55790000  1.0 0.1203151055
H  H1249  1  0.61530000  0.75670000  0.47560000  1.0 0.1489280275
H  H1250  1  0.59180000  0.84320000  0.44550000  1.0 0.1899187838
H  H1251  1  0.64200000  0.90880000  0.48620000  1.0 0.0669019428
H  H1252  1  0.66910000  0.80950000  0.52530000  1.0 0.0669019428
H  H1253  1  0.45860000  0.50750000  0.62180000  1.0 -0.0503924216
H  H1254  1  0.51170000  0.54610000  0.56420000  1.0 0.1106978627
H  H1255  1  0.58560000  0.59240000  0.60500000  1.0 0.0669019428
H  H1256  1  0.53570000  0.55570000  0.66260000  1.0 -0.0589139289
H  H1257  1  0.60770000  0.15680000  0.56970000  1.0 0.0110824362
H  H1258  1  0.61700000  0.14610000  0.63960000  1.0 -0.0589139289
H  H1259  1  0.52680000  0.20380000  0.64840000  1.0 -0.0359951015
H  H1260  1  0.51540000  0.21340000  0.57620000  1.0 0.0621659234
H  H1261  1  0.71630000  0.76190000  0.48380000  1.0 0.0884848449
H  H1262  1  0.66400000  0.77740000  0.42900000  1.0 0.0399398457
H  H1263  1  0.67570000  0.88200000  0.43060000  1.0 0.0669019428
H  H1264  1  0.73450000  0.86780000  0.49260000  1.0 0.0296992949
H  H1265  1  0.53080000  0.46070000  0.65450000  1.0 0.0180205194
H  H1266  1  0.51520000  0.45370000  0.58180000  1.0 0.0481971892
H  H1267  1  0.60330000  0.51180000  0.57170000  1.0 0.0819370881
H  H1268  1  0.62010000  0.51720000  0.64030000  1.0 0.0621659234
H  H1269  1  0.09270000  0.81920000  0.45450000  1.0 0.0481971892
H  H1270  1  0.07270000  0.92470000  0.46850000  1.0 0.0296992949
H  H1271  1  0.01850000  0.90310000  0.52370000  1.0 0.1799524883
H  H1272  1  0.03090000  0.79910000  0.51780000  1.0 0.1588964289
H  H1273  1  0.00060000  0.77780000  0.45750000  1.0 0.0669019428
H  H1274  1  0.03070000  0.87660000  0.42320000  1.0 0.0110824362
H  H1275  1  0.97520000  0.92690000  0.47130000  1.0 0.0399398457
H  H1276  1  0.94720000  0.84230000  0.50380000  1.0 0.0481971892
H  H1277  1  0.84620000  0.79950000  0.40560000  1.0 0.4224856869
H  H1278  1  0.71070000  0.86940000  0.36110000  1.0 0.3653669358
H  H1279  1  0.76930000  0.74670000  0.36620000  1.0 0.4025321269
H  H1280  1  0.88270000  0.91700000  0.47450000  1.0 0.2096296819
H  H1281  1  0.76020000  0.92220000  0.36570000  1.0 0.1799524883
H  H1282  1  0.70010000  0.79090000  0.36490000  1.0 0.1021478729
H  H1283  1  0.71710000  0.79840000  0.33760000  1.0 0.1021478729
H  H1284  1  0.84220000  0.76770000  0.34360000  1.0 0.1899187838
H  H1285  1  0.65180000  0.80200000  0.31880000  1.0 0.1203151055
H  H1286  1  0.69320000  0.83080000  0.30750000  1.0 0.1588964289
H  H1287  1  0.65370000  0.85350000  0.32560000  1.0 0.1106978627
H  H1288  1  0.84880000  0.73330000  0.30820000  1.0 0.2284014226
H  H1289  1  0.79700000  0.74170000  0.30100000  1.0 0.1899187838
H  H1290  1  0.81140000  0.69980000  0.31960000  1.0 0.2096296819
H  H1291  1  0.88060000  0.01700000  0.51250000  1.0 0.1588964289
H  H1292  1  0.91220000  0.99230000  0.48990000  1.0 0.1693520268
H  H1293  1  0.80260000  0.92660000  0.51390000  1.0 0.1489280275
H  H1294  1  0.82550000  0.95940000  0.53580000  1.0 0.1304911075
H  H1295  1  0.76300000  0.94390000  0.43690000  1.0 0.1588964289
H  H1296  1  0.77970000  0.99300000  0.43120000  1.0 0.1588964289
H  H1297  1  0.70730000  0.01030000  0.38360000  1.0 0.1693520268
H  H1298  1  0.73490000  0.98930000  0.35760000  1.0 0.1693520268
H  H1299  1  0.92690000  0.91940000  0.31100000  1.0 -0.0093040271
H  H1300  1  0.87060000  0.86030000  0.26350000  1.0 -0.1109536572
H  H1301  1  0.77480000  0.89900000  0.28800000  1.0 0.0669019428
H  H1302  1  0.83040000  0.95960000  0.33560000  1.0 0.0399398457
H  H1303  1  0.94350000  0.98990000  0.53500000  1.0 0.2782419157
H  H1304  1  0.93120000  0.94120000  0.52450000  1.0 0.2284014226
H  H1305  1  0.89960000  0.96590000  0.54710000  1.0 0.1899187838
H  H1306  1  0.75500000  0.97750000  0.52800000  1.0 0.1588964289
H  H1307  1  0.76410000  0.98250000  0.49430000  1.0 0.1693520268
H  H1308  1  0.78730000  0.01570000  0.51650000  1.0 0.1693520268
H  H1309  1  0.71640000  0.99370000  0.46090000  1.0 0.1588964289
H  H1310  1  0.68790000  0.96830000  0.43690000  1.0 0.1993504182
H  H1311  1  0.70460000  0.01750000  0.43120000  1.0 0.1899187838
H  H1312  1  0.75640000  0.06130000  0.36470000  1.0 0.2208551076
H  H1313  1  0.79790000  0.02930000  0.37100000  1.0 0.1993504182
H  H1314  1  0.77040000  0.05030000  0.39710000  1.0 0.1899187838
H  H1315  1  0.92200000  0.94120000  0.24860000  1.0 -0.1302056303
H  H1316  1  0.89440000  0.00970000  0.30140000  1.0 -0.0010045007
H  H1317  1  0.81560000  0.92700000  0.23300000  1.0 -0.0093040271
H  H1318  1  0.78690000  0.99550000  0.28520000  1.0 0.1106978627
H  H1319  1  0.50520000  0.29780000  0.61640000  1.0 0.1899187838
H  H1320  1  0.47610000  0.37980000  0.66240000  1.0 0.2096296819
H  H1321  1  0.43200000  0.35730000  0.67610000  1.0 0.1203151055
H  H1322  1  0.41200000  0.41800000  0.64890000  1.0 0.1693520268
H  H1323  1  0.39210000  0.37400000  0.63510000  1.0 0.1588964289
H  H1324  1  0.43580000  0.39630000  0.62150000  1.0 0.2096296819
H  H1325  1  0.62870000  0.81850000  0.35260000  1.0 0.1693520268
H  H1326  1  0.64900000  0.86480000  0.34280000  1.0 0.138278385
H  H1327  1  0.65120000  0.85050000  0.37580000  1.0 0.2096296819
H  H1328  1  0.86330000  0.95890000  0.45870000  1.0 0.2208551076
C  C1  1  0.89170000  0.57033000  0.60575000  1.0 0.6691214927
C  C2  1  0.94020000  0.65740000  0.56840000  1.0 0.6793741167
C  C3  1  0.82980000  0.63400000  0.66736000  1.0 0.6793741167
C  C4  1  0.99750000  0.68100000  0.65150000  1.0 0.1489280275
C  C5  1  0.89420000  0.76220000  0.61380000  1.0 0.6793741167
C  C6  1  0.92050000  0.52870000  0.60656000  1.0 -0.118620516
C  C7  1  0.98220000  0.65780000  0.54989000  1.0 -0.1302056303
C  C8  1  0.83390000  0.59830000  0.68956000  1.0 -0.1606281269
C  C9  1  0.02660000  0.65440000  0.67310000  1.0 -0.4068170487
C  C10  1  0.92250000  0.80420000  0.61449000  1.0 -0.1415052439
C  C11  1  0.74563000  0.64904000  0.57341000  1.0 0.6793741167
C  C12  1  0.86470000  0.57340000  0.51930000  1.0 0.3211159761
C  C13  1  0.84090000  0.70410000  0.52585000  1.0 0.3485755959
C  C14  1  0.73730000  0.78570000  0.58930000  1.0 0.3211159761
C  C15  1  0.70368000  0.64470000  0.55577000  1.0 -0.1415052439
C  C16  1  0.82490000  0.54980000  0.48010000  1.0 0.0110824362
C  C17  1  0.91220000  0.53730000  0.48100000  1.0 -0.0093040271
C  C18  1  0.85590000  0.77860000  0.52680000  1.0 0.0399398457
C  C19  1  0.85460000  0.74000000  0.47990000  1.0 0.0110824362
C  C20  1  0.74440000  0.86430000  0.57550000  1.0 0.0180205194
C  C21  1  0.66600000  0.82630000  0.59950000  1.0 -0.0503924216
C  C22  1  0.98590000  0.43870000  0.60645000  1.0 0.1106978627
C  C23  1  0.07640000  0.66300000  0.50970000  1.0 0.1106978627
C  C24  1  0.83780000  0.51840000  0.73898000  1.0 0.1106978627
C  C25  1  0.98480000  0.89630000  0.61469000  1.0 0.1304911075
C  C26  1  0.81340000  0.57880000  0.45980000  1.0 -0.304409515
C  C27  1  0.91080000  0.49230000  0.48640000  1.0 -0.3544878491
C  C28  1  0.83960000  0.81870000  0.51930000  1.0 -0.3689114525
C  C29  1  0.90310000  0.74680000  0.47420000  1.0 -0.3689114525
C  C30  1  0.77870000  0.88240000  0.59800000  1.0 -0.3606722687
C  C31  1  0.67470000  0.85810000  0.62990000  1.0 -0.3379153549
C  C32  1  0.01420000  0.39850000  0.60708000  1.0 0.1203151055
C  C33  1  0.11790000  0.66490000  0.49267000  1.0 0.138278385
C  C34  1  0.01190000  0.93690000  0.61513000  1.0 0.1203151055
C  C35  1  0.61077000  0.64180000  0.51400000  1.0 0.138278385
C  C36  1  0.56970000  0.64270000  0.49611000  1.0 0.1203151055
C  C37  1  0.07460000  0.30520000  0.60879000  1.0 -0.1713476009
C  C38  1  0.21332000  0.67640000  0.45465000  1.0 -0.149948696
C  C39  1  0.07450000  0.02865000  0.61199000  1.0 -0.1109536572
C  C40  1  0.10200000  0.26280000  0.60990000  1.0 0.6691214927
C  C41  1  0.25670000  0.67925000  0.43713000  1.0 0.6691214927
C  C42  1  0.10180000  0.07130000  0.60995000  1.0 0.6793741167
C  C43  1  0.47550000  0.65000000  0.45595000  1.0 -0.1109536572
C  C44  1  0.43390000  0.65360000  0.43770000  1.0 0.6691214927
C  C45  1  0.35600000  0.56370000  0.47319000  1.0 0.2096296819
C  C46  1  0.26408000  0.57414000  0.38578000  1.0 0.3418007643
C  C47  1  0.19650000  0.68260000  0.35040000  1.0 0.1993504182
C  C48  1  0.34520000  0.63900000  0.32907000  1.0 0.6638221369
C  C49  1  0.31390000  0.74550000  0.33980000  1.0 0.2570246459
C  C50  1  0.17170000  0.67330000  0.32320000  1.0 -0.189707164
C  C51  1  0.34920000  0.60320000  0.30645000  1.0 -0.149948696
C  C52  1  0.31800000  0.76930000  0.31550000  1.0 -0.4500294625
C  C53  1  0.39260000  0.51210000  0.50680000  1.0 -0.0010045007
C  C54  1  0.31480000  0.54330000  0.51580000  1.0 0.0110824362
C  C55  1  0.25520000  0.52820000  0.42727000  1.0 0.0296992949
C  C56  1  0.23750000  0.49940000  0.37742000  1.0 0.0481971892
C  C57  1  0.41890000  0.53020000  0.53020000  1.0 -0.4222075677
C  C58  1  0.27740000  0.51470000  0.51350000  1.0 -0.3227114639
C  C59  1  0.21230000  0.51060000  0.44019000  1.0 -0.3807138502
C  C60  1  0.26810000  0.46140000  0.37760000  1.0 -0.3689114525
C  C61  1  0.35538000  0.51870000  0.25984000  1.0 0.1203151055
C  C62  1  0.99880000  0.18340000  0.63210000  1.0 0.3485755959
C  C63  1  0.94760000  0.13540000  0.65800000  1.0 0.0296992949
C  C64  1  0.91970000  0.10980000  0.63940000  1.0 -0.2870161831
C  C65  1  0.15270000  0.66010000  0.35600000  1.0 -0.1997867752
C  C66  1  0.60830000  0.92967000  0.10575000  1.0 0.6691214927
C  C67  1  0.55980000  0.84260000  0.06840000  1.0 0.6793741167
C  C68  1  0.67020000  0.86600000  0.16736000  1.0 0.6793741167
C  C69  1  0.50250000  0.81900000  0.15150000  1.0 0.1489280275
C  C70  1  0.60580000  0.73780000  0.11380000  1.0 0.6793741167
C  C71  1  0.57950000  0.97130000  0.10656000  1.0 -0.118620516
C  C72  1  0.51780000  0.84220000  0.04989000  1.0 -0.1415052439
C  C73  1  0.66610000  0.90170000  0.18956000  1.0 -0.1606281269
C  C74  1  0.47340000  0.84560000  0.17310000  1.0 -0.4068170487
C  C75  1  0.57750000  0.69580000  0.11449000  1.0 -0.1302056303
C  C76  1  0.75437000  0.85096000  0.07341000  1.0 0.6793741167
C  C77  1  0.63530000  0.92660000  0.01930000  1.0 0.3253758968
C  C78  1  0.65910000  0.79590000  0.02585000  1.0 0.3485755959
C  C79  1  0.76270000  0.71430000  0.08930000  1.0 0.3211159761
C  C80  1  0.79632000  0.85530000  0.05577000  1.0 -0.1415052439
C  C81  1  0.67510000  0.95020000  0.98010000  1.0 0.0110824362
C  C82  1  0.58780000  0.96270000  0.98100000  1.0 -0.0093040271
C  C83  1  0.64410000  0.72140000  0.02680000  1.0 0.0399398457
C  C84  1  0.64540000  0.76000000  0.97990000  1.0 0.0110824362
C  C85  1  0.75560000  0.63570000  0.07550000  1.0 0.0180205194
C  C86  1  0.83400000  0.67370000  0.09950000  1.0 -0.0503924216
C  C87  1  0.51410000  0.06130000  0.10645000  1.0 0.1106978627
C  C88  1  0.42360000  0.83700000  0.00970000  1.0 0.1106978627
C  C89  1  0.66220000  0.98160000  0.23898000  1.0 0.1106978627
C  C90  1  0.51520000  0.60370000  0.11469000  1.0 0.1304911075
C  C91  1  0.68660000  0.92120000  0.95980000  1.0 -0.304409515
C  C92  1  0.58920000  0.00770000  0.98640000  1.0 -0.3606722687
C  C93  1  0.66040000  0.68130000  0.01930000  1.0 -0.3689114525
C  C94  1  0.59690000  0.75320000  0.97420000  1.0 -0.3689114525
C  C95  1  0.72130000  0.61760000  0.09800000  1.0 -0.3606722687
C  C96  1  0.82530000  0.64190000  0.12990000  1.0 -0.3347282409
C  C97  1  0.48580000  0.10150000  0.10708000  1.0 0.1203151055
C  C98  1  0.38210000  0.83510000  0.99267000  1.0 0.138278385
C  C99  1  0.48810000  0.56310000  0.11513000  1.0 0.1203151055
C  C100  1  0.88923000  0.85820000  0.01400000  1.0 0.138278385
C  C101  1  0.93030000  0.85730000  0.99611000  1.0 0.1203151055
C  C102  1  0.42540000  0.19480000  0.10879000  1.0 -0.1713476009
C  C103  1  0.28668000  0.82360000  0.95465000  1.0 -0.149948696
C  C104  1  0.42550000  0.47135000  0.11199000  1.0 -0.1109536572
C  C105  1  0.39800000  0.23720000  0.10990000  1.0 0.6691214927
C  C106  1  0.24330000  0.82075000  0.93713000  1.0 0.6691214927
C  C107  1  0.39820000  0.42870000  0.10995000  1.0 0.6793741167
C  C108  1  0.02450000  0.85000000  0.95595000  1.0 -0.1109536572
C  C109  1  0.06610000  0.84640000  0.93770000  1.0 0.6691214927
C  C110  1  0.14400000  0.93630000  0.97319000  1.0 0.2096296819
C  C111  1  0.23592000  0.92586000  0.88578000  1.0 0.3418007643
C  C112  1  0.30350000  0.81740000  0.85040000  1.0 0.1993504182
C  C113  1  0.15480000  0.86100000  0.82907000  1.0 0.6638221369
C  C114  1  0.18610000  0.75450000  0.83980000  1.0 0.254260709
C  C115  1  0.32830000  0.82670000  0.82320000  1.0 -0.189707164
C  C116  1  0.15080000  0.89680000  0.80645000  1.0 -0.149948696
C  C117  1  0.18200000  0.73070000  0.81550000  1.0 -0.4431352416
C  C118  1  0.10740000  0.98790000  0.00680000  1.0 -0.0010045007
C  C119  1  0.18520000  0.95670000  0.01580000  1.0 0.0110824362
C  C120  1  0.24480000  0.97180000  0.92727000  1.0 0.0296992949
C  C121  1  0.26250000  0.00060000  0.87742000  1.0 0.0399398457
C  C122  1  0.08110000  0.96980000  0.03020000  1.0 -0.4222075677
C  C123  1  0.22260000  0.98530000  0.01350000  1.0 -0.3227114639
C  C124  1  0.28770000  0.98940000  0.94019000  1.0 -0.3807138502
C  C125  1  0.23190000  0.03860000  0.87760000  1.0 -0.3689114525
C  C126  1  0.14462000  0.98130000  0.75984000  1.0 0.1203151055
C  C127  1  0.50120000  0.31660000  0.13210000  1.0 0.3485755959
C  C128  1  0.55240000  0.36460000  0.15800000  1.0 0.0399398457
C  C129  1  0.58030000  0.39020000  0.13940000  1.0 -0.2796588752
C  C130  1  0.34730000  0.83990000  0.85600000  1.0 -0.1997867752
C  C131  1  0.89170000  0.42967000  0.89425000  1.0 0.6691214927
C  C132  1  0.94020000  0.34260000  0.93160000  1.0 0.6793741167
C  C133  1  0.82980000  0.36600000  0.83264000  1.0 0.6793741167
C  C134  1  0.99750000  0.31900000  0.84850000  1.0 0.1489280275
C  C135  1  0.89420000  0.23780000  0.88620000  1.0 0.6793741167
C  C136  1  0.92050000  0.47130000  0.89344000  1.0 -0.118620516
C  C137  1  0.98220000  0.34220000  0.95011000  1.0 -0.1302056303
C  C138  1  0.83390000  0.40170000  0.81044000  1.0 -0.1606281269
C  C139  1  0.02660000  0.34560000  0.82690000  1.0 -0.4068170487
C  C140  1  0.92250000  0.19580000  0.88551000  1.0 -0.1302056303
C  C141  1  0.74563000  0.35096000  0.92659000  1.0 0.6793741167
C  C142  1  0.86470000  0.42660000  0.98070000  1.0 0.3211159761
C  C143  1  0.84090000  0.29590000  0.97415000  1.0 0.3485755959
C  C144  1  0.73730000  0.21430000  0.91070000  1.0 0.3211159761
C  C145  1  0.70368000  0.35530000  0.94423000  1.0 -0.1302056303
C  C146  1  0.82490000  0.45020000  0.01990000  1.0 0.0110824362
C  C147  1  0.91220000  0.46270000  0.01900000  1.0 -0.0093040271
C  C148  1  0.85590000  0.22140000  0.97320000  1.0 0.0399398457
C  C149  1  0.85460000  0.26000000  0.02010000  1.0 0.0110824362
C  C150  1  0.74440000  0.13570000  0.92450000  1.0 0.0180205194
C  C151  1  0.66600000  0.17370000  0.90050000  1.0 -0.0503924216
C  C152  1  0.98590000  0.56130000  0.89355000  1.0 0.1203151055
C  C153  1  0.07640000  0.33700000  0.99030000  1.0 0.1106978627
C  C154  1  0.83780000  0.48160000  0.76102000  1.0 0.1106978627
C  C155  1  0.98480000  0.10370000  0.88531000  1.0 0.1304911075
C  C156  1  0.81340000  0.42120000  0.04020000  1.0 -0.304409515
C  C157  1  0.91080000  0.50770000  0.01360000  1.0 -0.3544878491
C  C158  1  0.83960000  0.18130000  0.98070000  1.0 -0.3689114525
C  C159  1  0.90310000  0.25320000  0.02580000  1.0 -0.3689114525
C  C160  1  0.77870000  0.11760000  0.90200000  1.0 -0.3606722687
C  C161  1  0.67470000  0.14190000  0.87010000  1.0 -0.3379153549
C  C162  1  0.01420000  0.60150000  0.89292000  1.0 0.1203151055
C  C163  1  0.11790000  0.33510000  0.00733000  1.0 0.138278385
C  C164  1  0.01190000  0.06310000  0.88487000  1.0 0.1203151055
C  C165  1  0.61077000  0.35820000  0.98600000  1.0 0.138278385
C  C166  1  0.56970000  0.35730000  0.00389000  1.0 0.1203151055
C  C167  1  0.07460000  0.69480000  0.89121000  1.0 -0.1713476009
C  C168  1  0.21332000  0.32360000  0.04535000  1.0 -0.149948696
C  C169  1  0.07450000  0.97135000  0.88801000  1.0 -0.1109536572
C  C170  1  0.10200000  0.73720000  0.89010000  1.0 0.6691214927
C  C171  1  0.25670000  0.32075000  0.06287000  1.0 0.6691214927
C  C172  1  0.10180000  0.92870000  0.89005000  1.0 0.6793741167
C  C173  1  0.47550000  0.35000000  0.04405000  1.0 -0.1109536572
C  C174  1  0.43390000  0.34640000  0.06230000  1.0 0.6691214927
C  C175  1  0.35600000  0.43630000  0.02681000  1.0 0.2096296819
C  C176  1  0.26408000  0.42586000  0.11422000  1.0 0.3418007643
C  C177  1  0.19650000  0.31740000  0.14960000  1.0 0.1993504182
C  C178  1  0.34520000  0.36100000  0.17093000  1.0 0.6638221369
C  C179  1  0.31390000  0.25450000  0.16020000  1.0 0.254260709
C  C180  1  0.17170000  0.32670000  0.17680000  1.0 -0.189707164
C  C181  1  0.34920000  0.39680000  0.19355000  1.0 -0.149948696
C  C182  1  0.31800000  0.23070000  0.18450000  1.0 -0.4431352416
C  C183  1  0.39260000  0.48790000  0.99320000  1.0 -0.0010045007
C  C184  1  0.31480000  0.45670000  0.98420000  1.0 0.0110824362
C  C185  1  0.25520000  0.47180000  0.07273000  1.0 0.0296992949
C  C186  1  0.23750000  0.50060000  0.12258000  1.0 0.0481971892
C  C187  1  0.41890000  0.46980000  0.96980000  1.0 -0.4222075677
C  C188  1  0.27740000  0.48530000  0.98650000  1.0 -0.3227114639
C  C189  1  0.21230000  0.48940000  0.05981000  1.0 -0.3807138502
C  C190  1  0.26810000  0.53860000  0.12240000  1.0 -0.3689114525
C  C191  1  0.35538000  0.48130000  0.24016000  1.0 0.1203151055
C  C192  1  0.99880000  0.81660000  0.86790000  1.0 0.3485755959
C  C193  1  0.94760000  0.86460000  0.84200000  1.0 0.0296992949
C  C194  1  0.91970000  0.89020000  0.86060000  1.0 -0.2870161831
C  C195  1  0.15270000  0.33990000  0.14400000  1.0 -0.1997867752
C  C196  1  0.60830000  0.07033000  0.39425000  1.0 0.6691214927
C  C197  1  0.55980000  0.15740000  0.43160000  1.0 0.6793741167
C  C198  1  0.67020000  0.13400000  0.33264000  1.0 0.6793741167
C  C199  1  0.50250000  0.18100000  0.34850000  1.0 0.1489280275
C  C200  1  0.60580000  0.26220000  0.38620000  1.0 0.6793741167
C  C201  1  0.57950000  0.02870000  0.39344000  1.0 -0.118620516
C  C202  1  0.51780000  0.15780000  0.45011000  1.0 -0.1415052439
C  C203  1  0.66610000  0.09830000  0.31044000  1.0 -0.1606281269
C  C204  1  0.47340000  0.15440000  0.32690000  1.0 -0.4002079823
C  C205  1  0.57750000  0.30420000  0.38551000  1.0 -0.1302056303
C  C206  1  0.75437000  0.14904000  0.42659000  1.0 0.6793741167
C  C207  1  0.63530000  0.07340000  0.48070000  1.0 0.3253758968
C  C208  1  0.65910000  0.20410000  0.47415000  1.0 0.3485755959
C  C209  1  0.76270000  0.28570000  0.41070000  1.0 0.3211159761
C  C210  1  0.79632000  0.14470000  0.44423000  1.0 -0.1415052439
C  C211  1  0.67510000  0.04980000  0.51990000  1.0 0.0110824362
C  C212  1  0.58780000  0.03730000  0.51900000  1.0 -0.0093040271
C  C213  1  0.64410000  0.27860000  0.47320000  1.0 0.0399398457
C  C214  1  0.64540000  0.24000000  0.52010000  1.0 0.0110824362
C  C215  1  0.75560000  0.36430000  0.42450000  1.0 0.0180205194
C  C216  1  0.83400000  0.32630000  0.40050000  1.0 -0.0503924216
C  C217  1  0.51410000  0.93870000  0.39355000  1.0 0.1203151055
C  C218  1  0.42360000  0.16300000  0.49030000  1.0 0.1106978627
C  C219  1  0.66220000  0.01840000  0.26102000  1.0 0.1106978627
C  C220  1  0.51520000  0.39630000  0.38531000  1.0 0.1304911075
C  C221  1  0.68660000  0.07880000  0.54020000  1.0 -0.304409515
C  C222  1  0.58920000  0.99230000  0.51360000  1.0 -0.3544878491
C  C223  1  0.66040000  0.31870000  0.48070000  1.0 -0.3689114525
C  C224  1  0.59690000  0.24680000  0.52580000  1.0 -0.3689114525
C  C225  1  0.72130000  0.38240000  0.40200000  1.0 -0.3606722687
C  C226  1  0.82530000  0.35810000  0.37010000  1.0 -0.3347282409
C  C227  1  0.48580000  0.89850000  0.39292000  1.0 0.1203151055
C  C228  1  0.38210000  0.16490000  0.50733000  1.0 0.1304911075
C  C229  1  0.48810000  0.43690000  0.38487000  1.0 0.1203151055
C  C230  1  0.88923000  0.14180000  0.48600000  1.0 0.1304911075
C  C231  1  0.93030000  0.14270000  0.50389000  1.0 0.1203151055
C  C232  1  0.42540000  0.80520000  0.39121000  1.0 -0.1713476009
C  C233  1  0.28668000  0.17640000  0.54535000  1.0 -0.149948696
C  C234  1  0.42550000  0.52865000  0.38801000  1.0 -0.1109536572
C  C235  1  0.39800000  0.76280000  0.39010000  1.0 0.6691214927
C  C236  1  0.24330000  0.17925000  0.56287000  1.0 0.6691214927
C  C237  1  0.39820000  0.57130000  0.39005000  1.0 0.6793741167
C  C238  1  0.02450000  0.15000000  0.54405000  1.0 -0.1109536572
C  C239  1  0.06610000  0.15360000  0.56230000  1.0 0.6691214927
C  C240  1  0.14400000  0.06370000  0.52681000  1.0 0.2096296819
C  C241  1  0.23592000  0.07414000  0.61422000  1.0 0.3418007643
C  C242  1  0.30350000  0.18260000  0.64960000  1.0 0.1993504182
C  C243  1  0.15480000  0.13900000  0.67093000  1.0 0.6638221369
C  C244  1  0.18610000  0.24550000  0.66020000  1.0 0.254260709
C  C245  1  0.32830000  0.17330000  0.67680000  1.0 -0.189707164
C  C246  1  0.15080000  0.10320000  0.69355000  1.0 -0.149948696
C  C247  1  0.18200000  0.26930000  0.68450000  1.0 -0.4431352416
C  C248  1  0.10740000  0.01210000  0.49320000  1.0 -0.0010045007
C  C249  1  0.18520000  0.04330000  0.48420000  1.0 0.0110824362
C  C250  1  0.24480000  0.02820000  0.57273000  1.0 0.0296992949
C  C251  1  0.26250000  0.99940000  0.62258000  1.0 0.0399398457
C  C252  1  0.08110000  0.03020000  0.46980000  1.0 -0.4222075677
C  C253  1  0.22260000  0.01470000  0.48650000  1.0 -0.3227114639
C  C254  1  0.28770000  0.01060000  0.55981000  1.0 -0.3807138502
C  C255  1  0.23190000  0.96140000  0.62240000  1.0 -0.3689114525
C  C256  1  0.14462000  0.01870000  0.74016000  1.0 0.1203151055
C  C257  1  0.50120000  0.68340000  0.36790000  1.0 0.3485755959
C  C258  1  0.55240000  0.63540000  0.34200000  1.0 0.0399398457
C  C259  1  0.58030000  0.60980000  0.36060000  1.0 -0.2796588752
C  C260  1  0.34730000  0.16010000  0.64400000  1.0 -0.1997867752
C  C261  1  0.10830000  0.42967000  0.39425000  1.0 0.6691214927
C  C262  1  0.05980000  0.34260000  0.43160000  1.0 0.6793741167
C  C263  1  0.17020000  0.36600000  0.33264000  1.0 0.6793741167
C  C264  1  0.00250000  0.31900000  0.34850000  1.0 0.1489280275
C  C265  1  0.10580000  0.23780000  0.38620000  1.0 0.6793741167
C  C266  1  0.07950000  0.47130000  0.39344000  1.0 -0.118620516
C  C267  1  0.01780000  0.34220000  0.45011000  1.0 -0.1415052439
C  C268  1  0.16610000  0.40170000  0.31044000  1.0 -0.1606281269
C  C269  1  0.97340000  0.34560000  0.32690000  1.0 -0.4068170487
C  C270  1  0.07750000  0.19580000  0.38551000  1.0 -0.1302056303
C  C271  1  0.25437000  0.35096000  0.42659000  1.0 0.6793741167
C  C272  1  0.13530000  0.42660000  0.48070000  1.0 0.3253758968
C  C273  1  0.15910000  0.29590000  0.47415000  1.0 0.3485755959
C  C274  1  0.26270000  0.21430000  0.41070000  1.0 0.3211159761
C  C275  1  0.29632000  0.35530000  0.44423000  1.0 -0.1415052439
C  C276  1  0.17510000  0.45020000  0.51990000  1.0 0.0110824362
C  C277  1  0.08780000  0.46270000  0.51900000  1.0 -0.0093040271
C  C278  1  0.14410000  0.22140000  0.47320000  1.0 0.0399398457
C  C279  1  0.14540000  0.26000000  0.52010000  1.0 0.0110824362
C  C280  1  0.25560000  0.13570000  0.42450000  1.0 0.0180205194
C  C281  1  0.33400000  0.17370000  0.40050000  1.0 -0.0503924216
C  C282  1  0.01410000  0.56130000  0.39355000  1.0 0.1106978627
C  C283  1  0.92360000  0.33700000  0.49030000  1.0 0.1106978627
C  C284  1  0.16220000  0.48160000  0.26102000  1.0 0.1106978627
C  C285  1  0.01520000  0.10370000  0.38531000  1.0 0.1304911075
C  C286  1  0.18660000  0.42120000  0.54020000  1.0 -0.304409515
C  C287  1  0.08920000  0.50770000  0.51360000  1.0 -0.3544878491
C  C288  1  0.16040000  0.18130000  0.48070000  1.0 -0.3689114525
C  C289  1  0.09690000  0.25320000  0.52580000  1.0 -0.3689114525
C  C290  1  0.22130000  0.11760000  0.40200000  1.0 -0.3606722687
C  C291  1  0.32530000  0.14190000  0.37010000  1.0 -0.3379153549
C  C292  1  0.98580000  0.60150000  0.39292000  1.0 0.1203151055
C  C293  1  0.88210000  0.33510000  0.50733000  1.0 0.138278385
C  C294  1  0.98810000  0.06310000  0.38487000  1.0 0.1203151055
C  C295  1  0.38923000  0.35820000  0.48600000  1.0 0.1304911075
C  C296  1  0.43030000  0.35730000  0.50389000  1.0 0.1203151055
C  C297  1  0.92540000  0.69480000  0.39121000  1.0 -0.1713476009
C  C298  1  0.78668000  0.32360000  0.54535000  1.0 -0.149948696
C  C299  1  0.92550000  0.97135000  0.38801000  1.0 -0.1109536572
C  C300  1  0.89800000  0.73720000  0.39010000  1.0 0.6691214927
C  C301  1  0.74330000  0.32075000  0.56287000  1.0 0.6691214927
C  C302  1  0.89820000  0.92870000  0.39005000  1.0 0.6793741167
C  C303  1  0.52450000  0.35000000  0.54405000  1.0 -0.1109536572
C  C304  1  0.56610000  0.34640000  0.56230000  1.0 0.6691214927
C  C305  1  0.64400000  0.43630000  0.52681000  1.0 0.2096296819
C  C306  1  0.73592000  0.42586000  0.61422000  1.0 0.3418007643
C  C307  1  0.80350000  0.31740000  0.64960000  1.0 0.1993504182
C  C308  1  0.65480000  0.36100000  0.67093000  1.0 0.6638221369
C  C309  1  0.68610000  0.25450000  0.66020000  1.0 0.254260709
C  C310  1  0.82830000  0.32670000  0.67680000  1.0 -0.189707164
C  C311  1  0.65080000  0.39680000  0.69355000  1.0 -0.149948696
C  C312  1  0.68200000  0.23070000  0.68450000  1.0 -0.4431352416
C  C313  1  0.60740000  0.48790000  0.49320000  1.0 -0.0010045007
C  C314  1  0.68520000  0.45670000  0.48420000  1.0 0.0110824362
C  C315  1  0.74480000  0.47180000  0.57273000  1.0 0.0296992949
C  C316  1  0.76250000  0.50060000  0.62258000  1.0 0.0399398457
C  C317  1  0.58110000  0.46980000  0.46980000  1.0 -0.4222075677
C  C318  1  0.72260000  0.48530000  0.48650000  1.0 -0.3227114639
C  C319  1  0.78770000  0.48940000  0.55981000  1.0 -0.3807138502
C  C320  1  0.73190000  0.53860000  0.62240000  1.0 -0.3689114525
C  C321  1  0.64462000  0.48130000  0.74016000  1.0 0.1304911075
C  C322  1  0.00120000  0.81660000  0.36790000  1.0 0.3485755959
C  C323  1  0.05240000  0.86460000  0.34200000  1.0 0.0296992949
C  C324  1  0.08030000  0.89020000  0.36060000  1.0 -0.2796588752
C  C325  1  0.84730000  0.33990000  0.64400000  1.0 -0.1997867752
C  C326  1  0.39170000  0.07033000  0.89425000  1.0 0.6691214927
C  C327  1  0.44020000  0.15740000  0.93160000  1.0 0.6793741167
C  C328  1  0.32980000  0.13400000  0.83264000  1.0 0.6793741167
C  C329  1  0.49750000  0.18100000  0.84850000  1.0 0.1489280275
C  C330  1  0.39420000  0.26220000  0.88620000  1.0 0.6793741167
C  C331  1  0.42050000  0.02870000  0.89344000  1.0 -0.118620516
C  C332  1  0.48220000  0.15780000  0.95011000  1.0 -0.1415052439
C  C333  1  0.33390000  0.09830000  0.81044000  1.0 -0.1606281269
C  C334  1  0.52660000  0.15440000  0.82690000  1.0 -0.4068170487
C  C335  1  0.42250000  0.30420000  0.88551000  1.0 -0.1415052439
C  C336  1  0.24563000  0.14904000  0.92659000  1.0 0.6793741167
C  C337  1  0.36470000  0.07340000  0.98070000  1.0 0.3211159761
C  C338  1  0.34090000  0.20410000  0.97415000  1.0 0.3485755959
C  C339  1  0.23730000  0.28570000  0.91070000  1.0 0.3211159761
C  C340  1  0.20368000  0.14470000  0.94423000  1.0 -0.1415052439
C  C341  1  0.32490000  0.04980000  0.01990000  1.0 0.0110824362
C  C342  1  0.41220000  0.03730000  0.01900000  1.0 -0.0093040271
C  C343  1  0.35590000  0.27860000  0.97320000  1.0 0.0399398457
C  C344  1  0.35460000  0.24000000  0.02010000  1.0 0.0110824362
C  C345  1  0.24440000  0.36430000  0.92450000  1.0 0.0180205194
C  C346  1  0.16600000  0.32630000  0.90050000  1.0 -0.0503924216
C  C347  1  0.48590000  0.93870000  0.89355000  1.0 0.1203151055
C  C348  1  0.57640000  0.16300000  0.99030000  1.0 0.1106978627
C  C349  1  0.33780000  0.01840000  0.76102000  1.0 0.1106978627
C  C350  1  0.48480000  0.39630000  0.88531000  1.0 0.1304911075
C  C351  1  0.31340000  0.07880000  0.04020000  1.0 -0.304409515
C  C352  1  0.41080000  0.99230000  0.01360000  1.0 -0.3544878491
C  C353  1  0.33960000  0.31870000  0.98070000  1.0 -0.3689114525
C  C354  1  0.40310000  0.24680000  0.02580000  1.0 -0.3689114525
C  C355  1  0.27870000  0.38240000  0.90200000  1.0 -0.3606722687
C  C356  1  0.17470000  0.35810000  0.87010000  1.0 -0.3379153549
C  C357  1  0.51420000  0.89850000  0.89292000  1.0 0.1203151055
C  C358  1  0.61790000  0.16490000  0.00733000  1.0 0.138278385
C  C359  1  0.51190000  0.43690000  0.88487000  1.0 0.1203151055
C  C360  1  0.11077000  0.14180000  0.98600000  1.0 0.1304911075
C  C361  1  0.06970000  0.14270000  0.00389000  1.0 0.1203151055
C  C362  1  0.57460000  0.80520000  0.89121000  1.0 -0.1606281269
C  C363  1  0.71332000  0.17640000  0.04535000  1.0 -0.149948696
C  C364  1  0.57450000  0.52865000  0.88801000  1.0 -0.1109536572
C  C365  1  0.60200000  0.76280000  0.89010000  1.0 0.6691214927
C  C366  1  0.75670000  0.17925000  0.06287000  1.0 0.6691214927
C  C367  1  0.60180000  0.57130000  0.89005000  1.0 0.6793741167
C  C368  1  0.97550000  0.15000000  0.04405000  1.0 -0.1026675894
C  C369  1  0.93390000  0.15360000  0.06230000  1.0 0.6691214927
C  C370  1  0.85600000  0.06370000  0.02681000  1.0 0.2096296819
C  C371  1  0.76408000  0.07414000  0.11422000  1.0 0.3418007643
C  C372  1  0.69650000  0.18260000  0.14960000  1.0 0.1993504182
C  C373  1  0.84520000  0.13900000  0.17093000  1.0 0.6638221369
C  C374  1  0.81390000  0.24550000  0.16020000  1.0 0.254260709
C  C375  1  0.67170000  0.17330000  0.17680000  1.0 -0.189707164
C  C376  1  0.84920000  0.10320000  0.19355000  1.0 -0.149948696
C  C377  1  0.81800000  0.26930000  0.18450000  1.0 -0.4431352416
C  C378  1  0.89260000  0.01210000  0.99320000  1.0 -0.0010045007
C  C379  1  0.81480000  0.04330000  0.98420000  1.0 0.0110824362
C  C380  1  0.75520000  0.02820000  0.07273000  1.0 0.0296992949
C  C381  1  0.73750000  0.99940000  0.12258000  1.0 0.0399398457
C  C382  1  0.91890000  0.03020000  0.96980000  1.0 -0.4222075677
C  C383  1  0.77740000  0.01470000  0.98650000  1.0 -0.3227114639
C  C384  1  0.71230000  0.01060000  0.05981000  1.0 -0.3807138502
C  C385  1  0.76810000  0.96140000  0.12240000  1.0 -0.3689114525
C  C386  1  0.85538000  0.01870000  0.24016000  1.0 0.1203151055
C  C387  1  0.49880000  0.68340000  0.86790000  1.0 0.3485755959
C  C388  1  0.44760000  0.63540000  0.84200000  1.0 0.0296992949
C  C389  1  0.41970000  0.60980000  0.86060000  1.0 -0.2796588752
C  C390  1  0.65270000  0.16010000  0.14400000  1.0 -0.1997867752
C  C391  1  0.10830000  0.57033000  0.10575000  1.0 0.6691214927
C  C392  1  0.05980000  0.65740000  0.06840000  1.0 0.6793741167
C  C393  1  0.17020000  0.63400000  0.16736000  1.0 0.6793741167
C  C394  1  0.00250000  0.68100000  0.15150000  1.0 0.1489280275
C  C395  1  0.10580000  0.76220000  0.11380000  1.0 0.6793741167
C  C396  1  0.07950000  0.52870000  0.10656000  1.0 -0.118620516
C  C397  1  0.01780000  0.65780000  0.04989000  1.0 -0.1415052439
C  C398  1  0.16610000  0.59830000  0.18956000  1.0 -0.1606281269
C  C399  1  0.97340000  0.65440000  0.17310000  1.0 -0.4068170487
C  C400  1  0.07750000  0.80420000  0.11449000  1.0 -0.1415052439
C  C401  1  0.25437000  0.64904000  0.07341000  1.0 0.6793741167
C  C402  1  0.13530000  0.57340000  0.01930000  1.0 0.3253758968
C  C403  1  0.15910000  0.70410000  0.02585000  1.0 0.3485755959
C  C404  1  0.26270000  0.78570000  0.08930000  1.0 0.3211159761
C  C405  1  0.29632000  0.64470000  0.05577000  1.0 -0.1415052439
C  C406  1  0.17510000  0.54980000  0.98010000  1.0 0.0110824362
C  C407  1  0.08780000  0.53730000  0.98100000  1.0 -0.0093040271
C  C408  1  0.14410000  0.77860000  0.02680000  1.0 0.0399398457
C  C409  1  0.14540000  0.74000000  0.97990000  1.0 0.0110824362
C  C410  1  0.25560000  0.86430000  0.07550000  1.0 0.0180205194
C  C411  1  0.33400000  0.82630000  0.09950000  1.0 -0.0503924216
C  C412  1  0.01410000  0.43870000  0.10645000  1.0 0.1106978627
C  C413  1  0.92360000  0.66300000  0.00970000  1.0 0.1106978627
C  C414  1  0.16220000  0.51840000  0.23898000  1.0 0.1106978627
C  C415  1  0.01520000  0.89630000  0.11469000  1.0 0.1304911075
C  C416  1  0.18660000  0.57880000  0.95980000  1.0 -0.304409515
C  C417  1  0.08920000  0.49230000  0.98640000  1.0 -0.3544878491
C  C418  1  0.16040000  0.81870000  0.01930000  1.0 -0.3689114525
C  C419  1  0.09690000  0.74680000  0.97420000  1.0 -0.3689114525
C  C420  1  0.22130000  0.88240000  0.09800000  1.0 -0.3606722687
C  C421  1  0.32530000  0.85810000  0.12990000  1.0 -0.3379153549
C  C422  1  0.98580000  0.39850000  0.10708000  1.0 0.1203151055
C  C423  1  0.88210000  0.66490000  0.99267000  1.0 0.138278385
C  C424  1  0.98810000  0.93690000  0.11513000  1.0 0.1203151055
C  C425  1  0.38923000  0.64180000  0.01400000  1.0 0.1304911075
C  C426  1  0.43030000  0.64270000  0.99611000  1.0 0.1203151055
C  C427  1  0.92540000  0.30520000  0.10879000  1.0 -0.1713476009
C  C428  1  0.78668000  0.67640000  0.95465000  1.0 -0.149948696
C  C429  1  0.92550000  0.02865000  0.11199000  1.0 -0.1109536572
C  C430  1  0.89800000  0.26280000  0.10990000  1.0 0.6691214927
C  C431  1  0.74330000  0.67925000  0.93713000  1.0 0.6691214927
C  C432  1  0.89820000  0.07130000  0.10995000  1.0 0.6793741167
C  C433  1  0.52450000  0.65000000  0.95595000  1.0 -0.1109536572
C  C434  1  0.56610000  0.65360000  0.93770000  1.0 0.6691214927
C  C435  1  0.64400000  0.56370000  0.97319000  1.0 0.2096296819
C  C436  1  0.73592000  0.57414000  0.88578000  1.0 0.3418007643
C  C437  1  0.80350000  0.68260000  0.85040000  1.0 0.1993504182
C  C438  1  0.65480000  0.63900000  0.82907000  1.0 0.6638221369
C  C439  1  0.68610000  0.74550000  0.83980000  1.0 0.2570246459
C  C440  1  0.82830000  0.67330000  0.82320000  1.0 -0.189707164
C  C441  1  0.65080000  0.60320000  0.80645000  1.0 -0.1415052439
C  C442  1  0.68200000  0.76930000  0.81550000  1.0 -0.4500294625
C  C443  1  0.60740000  0.51210000  0.00680000  1.0 -0.0010045007
C  C444  1  0.68520000  0.54330000  0.01580000  1.0 0.0110824362
C  C445  1  0.74480000  0.52820000  0.92727000  1.0 0.0296992949
C  C446  1  0.76250000  0.49940000  0.87742000  1.0 0.0399398457
C  C447  1  0.58110000  0.53020000  0.03020000  1.0 -0.4222075677
C  C448  1  0.72260000  0.51470000  0.01350000  1.0 -0.3227114639
C  C449  1  0.78770000  0.51060000  0.94019000  1.0 -0.3807138502
C  C450  1  0.73190000  0.46140000  0.87760000  1.0 -0.3689114525
C  C451  1  0.64462000  0.51870000  0.75984000  1.0 0.1304911075
C  C452  1  0.00120000  0.18340000  0.13210000  1.0 0.3485755959
C  C453  1  0.05240000  0.13540000  0.15800000  1.0 0.0399398457
C  C454  1  0.08030000  0.10980000  0.13940000  1.0 -0.2796588752
C  C455  1  0.84730000  0.66010000  0.85600000  1.0 -0.1997867752
C  C456  1  0.39170000  0.92967000  0.60575000  1.0 0.6691214927
C  C457  1  0.44020000  0.84260000  0.56840000  1.0 0.6793741167
C  C458  1  0.32980000  0.86600000  0.66736000  1.0 0.6793741167
C  C459  1  0.49750000  0.81900000  0.65150000  1.0 0.1489280275
C  C460  1  0.39420000  0.73780000  0.61380000  1.0 0.6793741167
C  C461  1  0.42050000  0.97130000  0.60656000  1.0 -0.118620516
C  C462  1  0.48220000  0.84220000  0.54989000  1.0 -0.1415052439
C  C463  1  0.33390000  0.90170000  0.68956000  1.0 -0.1606281269
C  C464  1  0.52660000  0.84560000  0.67310000  1.0 -0.4068170487
C  C465  1  0.42250000  0.69580000  0.61449000  1.0 -0.1415052439
C  C466  1  0.24563000  0.85096000  0.57341000  1.0 0.6793741167
C  C467  1  0.36470000  0.92660000  0.51930000  1.0 0.3253758968
C  C468  1  0.34090000  0.79590000  0.52585000  1.0 0.3485755959
C  C469  1  0.23730000  0.71430000  0.58930000  1.0 0.3211159761
C  C470  1  0.20368000  0.85530000  0.55577000  1.0 -0.1415052439
C  C471  1  0.32490000  0.95020000  0.48010000  1.0 0.0110824362
C  C472  1  0.41220000  0.96270000  0.48100000  1.0 -0.0093040271
C  C473  1  0.35590000  0.72140000  0.52680000  1.0 0.0399398457
C  C474  1  0.35460000  0.76000000  0.47990000  1.0 0.0110824362
C  C475  1  0.24440000  0.63570000  0.57550000  1.0 0.0180205194
C  C476  1  0.16600000  0.67370000  0.59950000  1.0 -0.0503924216
C  C477  1  0.48590000  0.06130000  0.60645000  1.0 0.1106978627
C  C478  1  0.57640000  0.83700000  0.50970000  1.0 0.1106978627
C  C479  1  0.33780000  0.98160000  0.73898000  1.0 0.1106978627
C  C480  1  0.48480000  0.60370000  0.61469000  1.0 0.1304911075
C  C481  1  0.31340000  0.92120000  0.45980000  1.0 -0.304409515
C  C482  1  0.41080000  0.00770000  0.48640000  1.0 -0.3544878491
C  C483  1  0.33960000  0.68130000  0.51930000  1.0 -0.3689114525
C  C484  1  0.40310000  0.75320000  0.47420000  1.0 -0.3689114525
C  C485  1  0.27870000  0.61760000  0.59800000  1.0 -0.3606722687
C  C486  1  0.17470000  0.64190000  0.62990000  1.0 -0.3347282409
C  C487  1  0.51420000  0.10150000  0.60708000  1.0 0.1203151055
C  C488  1  0.61790000  0.83510000  0.49267000  1.0 0.138278385
C  C489  1  0.51190000  0.56310000  0.61513000  1.0 0.1203151055
C  C490  1  0.11077000  0.85820000  0.51400000  1.0 0.138278385
C  C491  1  0.06970000  0.85730000  0.49611000  1.0 0.1203151055
C  C492  1  0.57460000  0.19480000  0.60879000  1.0 -0.1713476009
C  C493  1  0.71332000  0.82360000  0.45465000  1.0 -0.149948696
C  C494  1  0.57450000  0.47135000  0.61199000  1.0 -0.1109536572
C  C495  1  0.60200000  0.23720000  0.60990000  1.0 0.6691214927
C  C496  1  0.75670000  0.82075000  0.43713000  1.0 0.6691214927
C  C497  1  0.60180000  0.42870000  0.60995000  1.0 0.6793741167
C  C498  1  0.97550000  0.85000000  0.45595000  1.0 -0.1026675894
C  C499  1  0.93390000  0.84640000  0.43770000  1.0 0.6691214927
C  C500  1  0.85600000  0.93630000  0.47319000  1.0 0.2096296819
C  C501  1  0.76408000  0.92586000  0.38578000  1.0 0.3418007643
C  C502  1  0.69650000  0.81740000  0.35040000  1.0 0.1993504182
C  C503  1  0.84520000  0.86100000  0.32907000  1.0 0.6638221369
C  C504  1  0.81390000  0.75450000  0.33980000  1.0 0.254260709
C  C505  1  0.67170000  0.82670000  0.32320000  1.0 -0.189707164
C  C506  1  0.84920000  0.89680000  0.30645000  1.0 -0.149948696
C  C507  1  0.81800000  0.73070000  0.31550000  1.0 -0.4431352416
C  C508  1  0.89260000  0.98790000  0.50680000  1.0 -0.0010045007
C  C509  1  0.81480000  0.95670000  0.51580000  1.0 0.0110824362
C  C510  1  0.75520000  0.97180000  0.42727000  1.0 0.0296992949
C  C511  1  0.73750000  0.00060000  0.37742000  1.0 0.0481971892
C  C512  1  0.91890000  0.96980000  0.53020000  1.0 -0.4222075677
C  C513  1  0.77740000  0.98530000  0.51350000  1.0 -0.3227114639
C  C514  1  0.71230000  0.98940000  0.44019000  1.0 -0.3807138502
C  C515  1  0.76810000  0.03860000  0.37760000  1.0 -0.3689114525
C  C516  1  0.85538000  0.98130000  0.25984000  1.0 0.1304911075
C  C517  1  0.49880000  0.31660000  0.63210000  1.0 0.3485755959
C  C518  1  0.44760000  0.36460000  0.65800000  1.0 0.0296992949
C  C519  1  0.41970000  0.39020000  0.63940000  1.0 -0.2796588752
C  C520  1  0.65270000  0.83990000  0.35600000  1.0 -0.1997867752
N  N1  1  0.86700000  0.55230000  0.49553000  1.0 -0.1713476009
N  N2  1  0.84360000  0.73770000  0.51017000  1.0 -0.1109536572
N  N3  1  0.72010000  0.82590000  0.59040000  1.0 -0.118620516
N  N4  1  0.35360000  0.54230000  0.49857000  1.0 -0.1606281269
N  N5  1  0.25288000  0.53585000  0.39657000  1.0 -0.149948696
N  N6  1  0.95520000  0.17540000  0.64000000  1.0 -0.2796588752
N  N7  1  0.63300000  0.94770000  0.99553000  1.0 -0.1713476009
N  N8  1  0.65640000  0.76230000  0.01017000  1.0 -0.1109536572
N  N9  1  0.77990000  0.67410000  0.09040000  1.0 -0.118620516
N  N10  1  0.14640000  0.95770000  0.99857000  1.0 -0.1606281269
N  N11  1  0.24712000  0.96415000  0.89657000  1.0 -0.149948696
N  N12  1  0.54480000  0.32460000  0.14000000  1.0 -0.2796588752
N  N13  1  0.86700000  0.44770000  0.00447000  1.0 -0.1713476009
N  N14  1  0.84360000  0.26230000  0.98983000  1.0 -0.1109536572
N  N15  1  0.72010000  0.17410000  0.90960000  1.0 -0.118620516
N  N16  1  0.35360000  0.45770000  0.00143000  1.0 -0.1606281269
N  N17  1  0.25288000  0.46415000  0.10343000  1.0 -0.149948696
N  N18  1  0.95520000  0.82460000  0.86000000  1.0 -0.2796588752
N  N19  1  0.63300000  0.05230000  0.50447000  1.0 -0.1713476009
N  N20  1  0.65640000  0.23770000  0.48983000  1.0 -0.1109536572
N  N21  1  0.77990000  0.32590000  0.40960000  1.0 -0.118620516
N  N22  1  0.14640000  0.04230000  0.50143000  1.0 -0.1606281269
N  N23  1  0.24712000  0.03585000  0.60343000  1.0 -0.149948696
N  N24  1  0.54480000  0.67540000  0.36000000  1.0 -0.2796588752
N  N25  1  0.13300000  0.44770000  0.50447000  1.0 -0.1713476009
N  N26  1  0.15640000  0.26230000  0.48983000  1.0 -0.1109536572
N  N27  1  0.27990000  0.17410000  0.40960000  1.0 -0.118620516
N  N28  1  0.64640000  0.45770000  0.50143000  1.0 -0.1606281269
N  N29  1  0.74712000  0.46415000  0.60343000  1.0 -0.149948696
N  N30  1  0.04480000  0.82460000  0.36000000  1.0 -0.2796588752
N  N31  1  0.36700000  0.05230000  0.00447000  1.0 -0.1713476009
N  N32  1  0.34360000  0.23770000  0.98983000  1.0 -0.1109536572
N  N33  1  0.22010000  0.32590000  0.90960000  1.0 -0.118620516
N  N34  1  0.85360000  0.04230000  0.00143000  1.0 -0.1606281269
N  N35  1  0.75288000  0.03585000  0.10343000  1.0 -0.149948696
N  N36  1  0.45520000  0.67540000  0.86000000  1.0 -0.2796588752
N  N37  1  0.13300000  0.55230000  0.99553000  1.0 -0.1713476009
N  N38  1  0.15640000  0.73770000  0.01017000  1.0 -0.1109536572
N  N39  1  0.27990000  0.82590000  0.09040000  1.0 -0.118620516
N  N40  1  0.64640000  0.54230000  0.99857000  1.0 -0.1606281269
N  N41  1  0.74712000  0.53585000  0.89657000  1.0 -0.149948696
N  N42  1  0.04480000  0.17540000  0.14000000  1.0 -0.2796588752
N  N43  1  0.36700000  0.94770000  0.49553000  1.0 -0.1713476009
N  N44  1  0.34360000  0.76230000  0.51017000  1.0 -0.1109536572
N  N45  1  0.22010000  0.67410000  0.59040000  1.0 -0.118620516
N  N46  1  0.85360000  0.95770000  0.49857000  1.0 -0.1606281269
N  N47  1  0.75288000  0.96415000  0.39657000  1.0 -0.149948696
N  N48  1  0.45520000  0.32460000  0.64000000  1.0 -0.2796588752
O  O1  1  0.84195000  0.66694000  0.60401000  1.0 -0.7861933409
O  O2  1  0.90476000  0.59941000  0.62309000  1.0 -0.532797478
O  O3  1  0.94236000  0.67550000  0.59214000  1.0 -0.5190733223
O  O4  1  0.86470000  0.65816000  0.66589000  1.0 -0.5685827791
O  O5  1  0.95730000  0.66350000  0.65220000  1.0 -0.4500294625
O  O6  1  0.90344000  0.73467000  0.63237000  1.0 -0.5509258645
O  O7  1  0.86048000  0.57122000  0.58896000  1.0 -0.540552585
O  O8  1  0.90813000  0.63747000  0.55703000  1.0 -0.540552585
O  O9  1  0.77376000  0.61898000  0.57040000  1.0 -0.4949274658
O  O10  1  0.83692000  0.59803000  0.52821000  1.0 -0.3807138502
O  O11  1  0.82788000  0.69515000  0.54857000  1.0 -0.4002079823
O  O12  1  0.74916000  0.68379000  0.58762000  1.0 -0.5608118374
O  O13  1  0.77379000  0.77612000  0.58063000  1.0 -0.3892329558
O  O14  1  0.86410000  0.76134000  0.59566000  1.0 -0.5509258645
O  O15  1  0.78790000  0.73540000  0.63633000  1.0 -0.7514081149
O  O16  1  0.79610000  0.63370000  0.65176000  1.0 -0.4843292831
O  O17  1  0.08563000  0.23409000  0.62593000  1.0 -0.5509258645
O  O18  1  0.13650000  0.26080000  0.59555000  1.0 -0.5190733223
O  O19  1  0.29126000  0.66530000  0.44854000  1.0 -0.5108923912
O  O20  1  0.25243000  0.69534000  0.41272000  1.0 -0.5509258645
O  O21  1  0.09459000  0.09893000  0.62895000  1.0 -0.5108923912
O  O22  1  0.12750000  0.07389000  0.58889000  1.0 -0.5509258645
O  O23  1  0.44122000  0.66280000  0.41270000  1.0 -0.5190733223
O  O24  1  0.39701000  0.64632000  0.44962000  1.0 -0.540552585
O  O25  1  0.34501000  0.67142000  0.39570000  1.0 -0.8061275704
O  O26  1  0.32725000  0.58540000  0.46298000  1.0 -0.3227114639
O  O27  1  0.27932000  0.60618000  0.39928000  1.0 -0.4500294625
O  O28  1  0.22094000  0.66016000  0.36016000  1.0 -0.3606722687
O  O29  1  0.30658000  0.63850000  0.34158000  1.0 -0.5685827791
O  O30  1  0.28706000  0.73396000  0.35954000  1.0 -0.4576036035
O  O31  1  0.37633000  0.66460000  0.33273000  1.0 -0.5608118374
O  O32  1  0.03180000  0.16470000  0.64663000  1.0 -0.4002079823
O  O33  1  0.65805000  0.83306000  0.10401000  1.0 -0.7845493753
O  O34  1  0.59524000  0.90059000  0.12309000  1.0 -0.532797478
O  O35  1  0.55764000  0.82450000  0.09214000  1.0 -0.5190733223
O  O36  1  0.63530000  0.84184000  0.16589000  1.0 -0.5685827791
O  O37  1  0.54270000  0.83650000  0.15220000  1.0 -0.4500294625
O  O38  1  0.59656000  0.76533000  0.13237000  1.0 -0.5509258645
O  O39  1  0.63952000  0.92878000  0.08896000  1.0 -0.540552585
O  O40  1  0.59187000  0.86253000  0.05703000  1.0 -0.540552585
O  O41  1  0.72624000  0.88102000  0.07040000  1.0 -0.4958996176
O  O42  1  0.66308000  0.90197000  0.02821000  1.0 -0.3807138502
O  O43  1  0.67212000  0.80485000  0.04857000  1.0 -0.4002079823
O  O44  1  0.75084000  0.81621000  0.08762000  1.0 -0.5608118374
O  O45  1  0.72621000  0.72388000  0.08063000  1.0 -0.3892329558
O  O46  1  0.63590000  0.73866000  0.09566000  1.0 -0.5509258645
O  O47  1  0.71210000  0.76460000  0.13633000  1.0 -0.7514081149
O  O48  1  0.70390000  0.86630000  0.15176000  1.0 -0.4843292831
O  O49  1  0.41437000  0.26591000  0.12593000  1.0 -0.5509258645
O  O50  1  0.36350000  0.23920000  0.09555000  1.0 -0.5190733223
O  O51  1  0.20874000  0.83470000  0.94854000  1.0 -0.5108923912
O  O52  1  0.24757000  0.80466000  0.91272000  1.0 -0.5509258645
O  O53  1  0.40541000  0.40107000  0.12895000  1.0 -0.5108923912
O  O54  1  0.37250000  0.42611000  0.08889000  1.0 -0.5509258645
O  O55  1  0.05878000  0.83720000  0.91270000  1.0 -0.5190733223
O  O56  1  0.10299000  0.85368000  0.94962000  1.0 -0.540552585
O  O57  1  0.15499000  0.82858000  0.89570000  1.0 -0.8061275704
O  O58  1  0.17275000  0.91460000  0.96298000  1.0 -0.3227114639
O  O59  1  0.22068000  0.89382000  0.89928000  1.0 -0.4500294625
O  O60  1  0.27906000  0.83984000  0.86016000  1.0 -0.3606722687
O  O61  1  0.19342000  0.86150000  0.84158000  1.0 -0.5685827791
O  O62  1  0.21294000  0.76604000  0.85954000  1.0 -0.4576036035
O  O63  1  0.12367000  0.83540000  0.83273000  1.0 -0.5608118374
O  O64  1  0.46820000  0.33530000  0.14663000  1.0 -0.4002079823
O  O65  1  0.84195000  0.33306000  0.89599000  1.0 -0.7861933409
O  O66  1  0.90476000  0.40059000  0.87691000  1.0 -0.532797478
O  O67  1  0.94236000  0.32450000  0.90786000  1.0 -0.5190733223
O  O68  1  0.86470000  0.34184000  0.83411000  1.0 -0.5685827791
O  O69  1  0.95730000  0.33650000  0.84780000  1.0 -0.4500294625
O  O70  1  0.90344000  0.26533000  0.86763000  1.0 -0.5509258645
O  O71  1  0.86048000  0.42878000  0.91104000  1.0 -0.540552585
O  O72  1  0.90813000  0.36253000  0.94297000  1.0 -0.540552585
O  O73  1  0.77376000  0.38102000  0.92960000  1.0 -0.4958996176
O  O74  1  0.83692000  0.40197000  0.97179000  1.0 -0.3807138502
O  O75  1  0.82788000  0.30485000  0.95143000  1.0 -0.4002079823
O  O76  1  0.74916000  0.31621000  0.91238000  1.0 -0.5685827791
O  O77  1  0.77379000  0.22388000  0.91937000  1.0 -0.3892329558
O  O78  1  0.86410000  0.23866000  0.90434000  1.0 -0.540552585
O  O79  1  0.78790000  0.26460000  0.86367000  1.0 -0.7514081149
O  O80  1  0.79610000  0.36630000  0.84824000  1.0 -0.4843292831
O  O81  1  0.08563000  0.76591000  0.87407000  1.0 -0.5509258645
O  O82  1  0.13650000  0.73920000  0.90445000  1.0 -0.5190733223
O  O83  1  0.29126000  0.33470000  0.05146000  1.0 -0.5108923912
O  O84  1  0.25243000  0.30466000  0.08728000  1.0 -0.5509258645
O  O85  1  0.09459000  0.90107000  0.87105000  1.0 -0.5108923912
O  O86  1  0.12750000  0.92611000  0.91111000  1.0 -0.5509258645
O  O87  1  0.44122000  0.33720000  0.08730000  1.0 -0.5190733223
O  O88  1  0.39701000  0.35368000  0.05038000  1.0 -0.540552585
O  O89  1  0.34501000  0.32858000  0.10430000  1.0 -0.8061275704
O  O90  1  0.32725000  0.41460000  0.03702000  1.0 -0.3227114639
O  O91  1  0.27932000  0.39382000  0.10072000  1.0 -0.4500294625
O  O92  1  0.22094000  0.33984000  0.13984000  1.0 -0.3606722687
O  O93  1  0.30658000  0.36150000  0.15842000  1.0 -0.5685827791
O  O94  1  0.28706000  0.26604000  0.14046000  1.0 -0.4576036035
O  O95  1  0.37633000  0.33540000  0.16727000  1.0 -0.5608118374
O  O96  1  0.03180000  0.83530000  0.85337000  1.0 -0.4002079823
O  O97  1  0.65805000  0.16694000  0.39599000  1.0 -0.7845493753
O  O98  1  0.59524000  0.09941000  0.37691000  1.0 -0.532797478
O  O99  1  0.55764000  0.17550000  0.40786000  1.0 -0.5190733223
O  O100  1  0.63530000  0.15816000  0.33411000  1.0 -0.5685827791
O  O101  1  0.54270000  0.16350000  0.34780000  1.0 -0.4500294625
O  O102  1  0.59656000  0.23467000  0.36763000  1.0 -0.5509258645
O  O103  1  0.63952000  0.07122000  0.41104000  1.0 -0.540552585
O  O104  1  0.59187000  0.13747000  0.44297000  1.0 -0.540552585
O  O105  1  0.72624000  0.11898000  0.42960000  1.0 -0.4958996176
O  O106  1  0.66308000  0.09803000  0.47179000  1.0 -0.3807138502
O  O107  1  0.67212000  0.19515000  0.45143000  1.0 -0.4002079823
O  O108  1  0.75084000  0.18379000  0.41238000  1.0 -0.5685827791
O  O109  1  0.72621000  0.27612000  0.41937000  1.0 -0.3892329558
O  O110  1  0.63590000  0.26134000  0.40434000  1.0 -0.5509258645
O  O111  1  0.71210000  0.23540000  0.36367000  1.0 -0.7514081149
O  O112  1  0.70390000  0.13370000  0.34824000  1.0 -0.4843292831
O  O113  1  0.41437000  0.73409000  0.37407000  1.0 -0.5509258645
O  O114  1  0.36350000  0.76080000  0.40445000  1.0 -0.5190733223
O  O115  1  0.20874000  0.16530000  0.55146000  1.0 -0.5108923912
O  O116  1  0.24757000  0.19534000  0.58728000  1.0 -0.5509258645
O  O117  1  0.40541000  0.59893000  0.37105000  1.0 -0.5108923912
O  O118  1  0.37250000  0.57389000  0.41111000  1.0 -0.5509258645
O  O119  1  0.05878000  0.16280000  0.58730000  1.0 -0.5190733223
O  O120  1  0.10299000  0.14632000  0.55038000  1.0 -0.540552585
O  O121  1  0.15499000  0.17142000  0.60430000  1.0 -0.8061275704
O  O122  1  0.17275000  0.08540000  0.53702000  1.0 -0.3227114639
O  O123  1  0.22068000  0.10618000  0.60072000  1.0 -0.4500294625
O  O124  1  0.27906000  0.16016000  0.63984000  1.0 -0.3606722687
O  O125  1  0.19342000  0.13850000  0.65842000  1.0 -0.5685827791
O  O126  1  0.21294000  0.23396000  0.64046000  1.0 -0.4576036035
O  O127  1  0.12367000  0.16460000  0.66727000  1.0 -0.5608118374
O  O128  1  0.46820000  0.66470000  0.35337000  1.0 -0.4002079823
O  O129  1  0.15805000  0.33306000  0.39599000  1.0 -0.7845493753
O  O130  1  0.09524000  0.40059000  0.37691000  1.0 -0.532797478
O  O131  1  0.05764000  0.32450000  0.40786000  1.0 -0.5190733223
O  O132  1  0.13530000  0.34184000  0.33411000  1.0 -0.5685827791
O  O133  1  0.04270000  0.33650000  0.34780000  1.0 -0.4500294625
O  O134  1  0.09656000  0.26533000  0.36763000  1.0 -0.5509258645
O  O135  1  0.13952000  0.42878000  0.41104000  1.0 -0.540552585
O  O136  1  0.09187000  0.36253000  0.44297000  1.0 -0.540552585
O  O137  1  0.22624000  0.38102000  0.42960000  1.0 -0.4958996176
O  O138  1  0.16308000  0.40197000  0.47179000  1.0 -0.3807138502
O  O139  1  0.17212000  0.30485000  0.45143000  1.0 -0.4002079823
O  O140  1  0.25084000  0.31621000  0.41238000  1.0 -0.5685827791
O  O141  1  0.22621000  0.22388000  0.41937000  1.0 -0.3892329558
O  O142  1  0.13590000  0.23866000  0.40434000  1.0 -0.5509258645
O  O143  1  0.21210000  0.26460000  0.36367000  1.0 -0.7514081149
O  O144  1  0.20390000  0.36630000  0.34824000  1.0 -0.4843292831
O  O145  1  0.91437000  0.76591000  0.37407000  1.0 -0.5509258645
O  O146  1  0.86350000  0.73920000  0.40445000  1.0 -0.5190733223
O  O147  1  0.70874000  0.33470000  0.55146000  1.0 -0.5108923912
O  O148  1  0.74757000  0.30466000  0.58728000  1.0 -0.5509258645
O  O149  1  0.90541000  0.90107000  0.37105000  1.0 -0.5108923912
O  O150  1  0.87250000  0.92611000  0.41111000  1.0 -0.5509258645
O  O151  1  0.55878000  0.33720000  0.58730000  1.0 -0.5190733223
O  O152  1  0.60299000  0.35368000  0.55038000  1.0 -0.540552585
O  O153  1  0.65499000  0.32858000  0.60430000  1.0 -0.8061275704
O  O154  1  0.67275000  0.41460000  0.53702000  1.0 -0.3227114639
O  O155  1  0.72068000  0.39382000  0.60072000  1.0 -0.4500294625
O  O156  1  0.77906000  0.33984000  0.63984000  1.0 -0.3606722687
O  O157  1  0.69342000  0.36150000  0.65842000  1.0 -0.5685827791
O  O158  1  0.71294000  0.26604000  0.64046000  1.0 -0.4576036035
O  O159  1  0.62367000  0.33540000  0.66727000  1.0 -0.5608118374
O  O160  1  0.96820000  0.83530000  0.35337000  1.0 -0.4002079823
O  O161  1  0.34195000  0.16694000  0.89599000  1.0 -0.7845493753
O  O162  1  0.40476000  0.09941000  0.87691000  1.0 -0.532797478
O  O163  1  0.44236000  0.17550000  0.90786000  1.0 -0.5190733223
O  O164  1  0.36470000  0.15816000  0.83411000  1.0 -0.5685827791
O  O165  1  0.45730000  0.16350000  0.84780000  1.0 -0.4500294625
O  O166  1  0.40344000  0.23467000  0.86763000  1.0 -0.5509258645
O  O167  1  0.36048000  0.07122000  0.91104000  1.0 -0.540552585
O  O168  1  0.40813000  0.13747000  0.94297000  1.0 -0.540552585
O  O169  1  0.27376000  0.11898000  0.92960000  1.0 -0.4958996176
O  O170  1  0.33692000  0.09803000  0.97179000  1.0 -0.3807138502
O  O171  1  0.32788000  0.19515000  0.95143000  1.0 -0.4002079823
O  O172  1  0.24916000  0.18379000  0.91238000  1.0 -0.5685827791
O  O173  1  0.27379000  0.27612000  0.91937000  1.0 -0.3892329558
O  O174  1  0.36410000  0.26134000  0.90434000  1.0 -0.5509258645
O  O175  1  0.28790000  0.23540000  0.86367000  1.0 -0.7514081149
O  O176  1  0.29610000  0.13370000  0.84824000  1.0 -0.4843292831
O  O177  1  0.58563000  0.73409000  0.87407000  1.0 -0.5509258645
O  O178  1  0.63650000  0.76080000  0.90445000  1.0 -0.5190733223
O  O179  1  0.79126000  0.16530000  0.05146000  1.0 -0.5108923912
O  O180  1  0.75243000  0.19534000  0.08728000  1.0 -0.5509258645
O  O181  1  0.59459000  0.59893000  0.87105000  1.0 -0.5108923912
O  O182  1  0.62750000  0.57389000  0.91111000  1.0 -0.5509258645
O  O183  1  0.94122000  0.16280000  0.08730000  1.0 -0.5190733223
O  O184  1  0.89701000  0.14632000  0.05038000  1.0 -0.540552585
O  O185  1  0.84501000  0.17142000  0.10430000  1.0 -0.8061275704
O  O186  1  0.82725000  0.08540000  0.03702000  1.0 -0.3227114639
O  O187  1  0.77932000  0.10618000  0.10072000  1.0 -0.4500294625
O  O188  1  0.72094000  0.16016000  0.13984000  1.0 -0.3606722687
O  O189  1  0.80658000  0.13850000  0.15842000  1.0 -0.5608118374
O  O190  1  0.78706000  0.23396000  0.14046000  1.0 -0.4576036035
O  O191  1  0.87633000  0.16460000  0.16727000  1.0 -0.5608118374
O  O192  1  0.53180000  0.66470000  0.85337000  1.0 -0.4002079823
O  O193  1  0.15805000  0.66694000  0.10401000  1.0 -0.7845493753
O  O194  1  0.09524000  0.59941000  0.12309000  1.0 -0.532797478
O  O195  1  0.05764000  0.67550000  0.09214000  1.0 -0.5190733223
O  O196  1  0.13530000  0.65816000  0.16589000  1.0 -0.5685827791
O  O197  1  0.04270000  0.66350000  0.15220000  1.0 -0.4500294625
O  O198  1  0.09656000  0.73467000  0.13237000  1.0 -0.5509258645
O  O199  1  0.13952000  0.57122000  0.08896000  1.0 -0.540552585
O  O200  1  0.09187000  0.63747000  0.05703000  1.0 -0.540552585
O  O201  1  0.22624000  0.61898000  0.07040000  1.0 -0.4958996176
O  O202  1  0.16308000  0.59803000  0.02821000  1.0 -0.3807138502
O  O203  1  0.17212000  0.69515000  0.04857000  1.0 -0.4002079823
O  O204  1  0.25084000  0.68379000  0.08762000  1.0 -0.5685827791
O  O205  1  0.22621000  0.77612000  0.08063000  1.0 -0.3892329558
O  O206  1  0.13590000  0.76134000  0.09566000  1.0 -0.5509258645
O  O207  1  0.21210000  0.73540000  0.13633000  1.0 -0.7514081149
O  O208  1  0.20390000  0.63370000  0.15176000  1.0 -0.4843292831
O  O209  1  0.91437000  0.23409000  0.12593000  1.0 -0.5509258645
O  O210  1  0.86350000  0.26080000  0.09555000  1.0 -0.5190733223
O  O211  1  0.70874000  0.66530000  0.94854000  1.0 -0.5108923912
O  O212  1  0.74757000  0.69534000  0.91272000  1.0 -0.5509258645
O  O213  1  0.90541000  0.09893000  0.12895000  1.0 -0.5108923912
O  O214  1  0.87250000  0.07389000  0.08889000  1.0 -0.5509258645
O  O215  1  0.55878000  0.66280000  0.91270000  1.0 -0.5190733223
O  O216  1  0.60299000  0.64632000  0.94962000  1.0 -0.540552585
O  O217  1  0.65499000  0.67142000  0.89570000  1.0 -0.8061275704
O  O218  1  0.67275000  0.58540000  0.96298000  1.0 -0.3227114639
O  O219  1  0.72068000  0.60618000  0.89928000  1.0 -0.4500294625
O  O220  1  0.77906000  0.66016000  0.86016000  1.0 -0.3606722687
O  O221  1  0.69342000  0.63850000  0.84158000  1.0 -0.5685827791
O  O222  1  0.71294000  0.73396000  0.85954000  1.0 -0.4576036035
O  O223  1  0.62367000  0.66460000  0.83273000  1.0 -0.5608118374
O  O224  1  0.96820000  0.16470000  0.14663000  1.0 -0.4002079823
O  O225  1  0.34195000  0.83306000  0.60401000  1.0 -0.7845493753
O  O226  1  0.40476000  0.90059000  0.62309000  1.0 -0.532797478
O  O227  1  0.44236000  0.82450000  0.59214000  1.0 -0.5190733223
O  O228  1  0.36470000  0.84184000  0.66589000  1.0 -0.5685827791
O  O229  1  0.45730000  0.83650000  0.65220000  1.0 -0.4500294625
O  O230  1  0.40344000  0.76533000  0.63237000  1.0 -0.5509258645
O  O231  1  0.36048000  0.92878000  0.58896000  1.0 -0.540552585
O  O232  1  0.40813000  0.86253000  0.55703000  1.0 -0.540552585
O  O233  1  0.27376000  0.88102000  0.57040000  1.0 -0.4958996176
O  O234  1  0.33692000  0.90197000  0.52821000  1.0 -0.3807138502
O  O235  1  0.32788000  0.80485000  0.54857000  1.0 -0.4002079823
O  O236  1  0.24916000  0.81621000  0.58762000  1.0 -0.5685827791
O  O237  1  0.27379000  0.72388000  0.58063000  1.0 -0.3892329558
O  O238  1  0.36410000  0.73866000  0.59566000  1.0 -0.5509258645
O  O239  1  0.28790000  0.76460000  0.63633000  1.0 -0.7514081149
O  O240  1  0.29610000  0.86630000  0.65176000  1.0 -0.4843292831
O  O241  1  0.58563000  0.26591000  0.62593000  1.0 -0.5509258645
O  O242  1  0.63650000  0.23920000  0.59555000  1.0 -0.5190733223
O  O243  1  0.79126000  0.83470000  0.44854000  1.0 -0.5108923912
O  O244  1  0.75243000  0.80466000  0.41272000  1.0 -0.5509258645
O  O245  1  0.59459000  0.40107000  0.62895000  1.0 -0.5108923912
O  O246  1  0.62750000  0.42611000  0.58889000  1.0 -0.5509258645
O  O247  1  0.94122000  0.83720000  0.41270000  1.0 -0.5190733223
O  O248  1  0.89701000  0.85368000  0.44962000  1.0 -0.540552585
O  O249  1  0.84501000  0.82858000  0.39570000  1.0 -0.8061275704
O  O250  1  0.82725000  0.91460000  0.46298000  1.0 -0.3227114639
O  O251  1  0.77932000  0.89382000  0.39928000  1.0 -0.4500294625
O  O252  1  0.72094000  0.83984000  0.36016000  1.0 -0.3606722687
O  O253  1  0.80658000  0.86150000  0.34158000  1.0 -0.5608118374
O  O254  1  0.78706000  0.76604000  0.35954000  1.0 -0.4576036035
O  O255  1  0.87633000  0.83540000  0.33273000  1.0 -0.5608118374
O  O256  1  0.53180000  0.33530000  0.64663000  1.0 -0.4002079823
