# DDEC6 charges by PACMAN v1.1 (https://github.com/mtap-research/PACMAN-charge/)
data_DEZSAG_ASR_pacman
_symmetry_space_group_name_H-M   'P 1'
_cell_length_a   6.99880000
_cell_length_b   14.36190000
_cell_length_c   29.32900000
_cell_angle_alpha   90.00000000
_cell_angle_beta   90.00000000
_cell_angle_gamma   90.00000000
_symmetry_Int_Tables_number   1
_chemical_formula_structural   Ce(C7O3)2
_chemical_formula_sum   'Ce8 C112 O48'
_cell_volume   2948.03569150
_cell_formula_units_Z   8
loop_
 _symmetry_equiv_pos_site_id
 _symmetry_equiv_pos_as_xyz
  1  'x, y, z'
loop_
 _atom_site_type_symbol
 _atom_site_label
 _atom_site_symmetry_multiplicity
 _atom_site_fract_x
 _atom_site_fract_y
 _atom_site_fract_z
 _atom_site_occupancy
 _atom_site_charge
Ce  Ce1  1  0.41860000  0.20470000  0.49790000  1.0 1.9386460342
Ce  Ce2  1  0.08140000  0.79530000  0.99790000  1.0 1.9386460342
Ce  Ce3  1  0.58140000  0.70470000  0.00210000  1.0 1.9386460342
Ce  Ce4  1  0.91860000  0.29530000  0.50210000  1.0 1.9386460342
Ce  Ce5  1  0.92640000  0.04760000  0.50180000  1.0 2.0160301485
Ce  Ce6  1  0.57360000  0.95240000  0.00180000  1.0 2.0160301485
Ce  Ce7  1  0.07360000  0.54760000  0.99820000  1.0 2.0160301485
Ce  Ce8  1  0.42640000  0.45240000  0.49820000  1.0 2.0160301485
C  C1  1  0.57265000  0.30207000  0.26529000  1.0 0.2513720749
C  C2  1  0.92735000  0.69793000  0.76529000  1.0 0.2513720749
C  C3  1  0.42735000  0.80207000  0.23471000  1.0 0.2513720749
C  C4  1  0.07265000  0.19793000  0.73471000  1.0 0.2513720749
C  C5  1  0.57028000  0.23653000  0.30016000  1.0 -0.1199096177
C  C6  1  0.92972000  0.76347000  0.80016000  1.0 -0.1199096177
C  C7  1  0.42972000  0.73653000  0.19984000  1.0 -0.1199096177
C  C8  1  0.07028000  0.26347000  0.69984000  1.0 -0.1199096177
C  C9  1  0.54406000  0.26487000  0.34504000  1.0 0.0700974156
C  C10  1  0.95594000  0.73513000  0.84504000  1.0 0.0700974156
C  C11  1  0.45594000  0.76487000  0.15496000  1.0 0.0700974156
C  C12  1  0.04406000  0.23513000  0.65496000  1.0 0.0700974156
C  C13  1  0.52022000  0.35875000  0.35505000  1.0 -0.0532813707
C  C14  1  0.97978000  0.64125000  0.85505000  1.0 -0.0532813707
C  C15  1  0.47978000  0.85875000  0.14495000  1.0 -0.0532813707
C  C16  1  0.02022000  0.14125000  0.64495000  1.0 -0.0532813707
C  C17  1  0.52259000  0.42429000  0.32018000  1.0 0.0601419011
C  C18  1  0.97741000  0.57571000  0.82018000  1.0 0.0601419011
C  C19  1  0.47741000  0.92429000  0.17982000  1.0 0.0601419011
C  C20  1  0.02259000  0.07571000  0.67982000  1.0 0.0495658652
C  C21  1  0.54880000  0.39595000  0.27530000  1.0 -0.1280515647
C  C22  1  0.95120000  0.60405000  0.77530000  1.0 -0.1280515647
C  C23  1  0.45120000  0.89595000  0.22470000  1.0 -0.1280515647
C  C24  1  0.04880000  0.10405000  0.72470000  1.0 -0.1280515647
C  C25  1  0.49099000  0.39036000  0.40510000  1.0 0.6787917772
C  C26  1  0.00901000  0.60964000  0.90510000  1.0 0.6787917772
C  C27  1  0.50901000  0.89036000  0.09490000  1.0 0.6787917772
C  C28  1  0.99099000  0.10964000  0.59490000  1.0 0.6787917772
C  C29  1  0.61055000  0.33385000  0.18521000  1.0 0.2448303596
C  C30  1  0.88945000  0.66615000  0.68521000  1.0 0.2448303596
C  C31  1  0.38945000  0.83385000  0.31479000  1.0 0.2448303596
C  C32  1  0.11055000  0.16615000  0.81479000  1.0 0.2448303596
C  C33  1  0.78723000  0.35326000  0.16576000  1.0 -0.1515555262
C  C34  1  0.71277000  0.64674000  0.66576000  1.0 -0.1515555262
C  C35  1  0.21277000  0.85326000  0.33424000  1.0 -0.1515555262
C  C36  1  0.28723000  0.14674000  0.83424000  1.0 -0.1515555262
C  C37  1  0.79967000  0.41402000  0.12899000  1.0 0.0700974156
C  C38  1  0.70033000  0.58598000  0.62899000  1.0 0.0700974156
C  C39  1  0.20033000  0.91402000  0.37101000  1.0 0.0700974156
C  C40  1  0.29967000  0.08598000  0.87101000  1.0 0.0700974156
C  C41  1  0.63543000  0.45537000  0.11167000  1.0 -0.0704512184
C  C42  1  0.86457000  0.54463000  0.61167000  1.0 -0.0704512184
C  C43  1  0.36457000  0.95537000  0.38833000  1.0 -0.0704512184
C  C44  1  0.13543000  0.04463000  0.88833000  1.0 -0.0704512184
C  C45  1  0.45875000  0.43596000  0.13112000  1.0 0.0700974156
C  C46  1  0.04125000  0.56404000  0.63112000  1.0 0.0700974156
C  C47  1  0.54125000  0.93596000  0.36888000  1.0 0.0700974156
C  C48  1  0.95875000  0.06404000  0.86888000  1.0 0.0700974156
C  C49  1  0.44631000  0.37520000  0.16789000  1.0 -0.1280515647
C  C50  1  0.05369000  0.62480000  0.66789000  1.0 -0.1280515647
C  C51  1  0.55369000  0.87520000  0.33211000  1.0 -0.1280515647
C  C52  1  0.94631000  0.12480000  0.83211000  1.0 -0.1280515647
C  C53  1  0.64930000  0.52312000  0.07067000  1.0 0.6904672899
C  C54  1  0.85070000  0.47688000  0.57067000  1.0 0.6904672899
C  C55  1  0.35070000  0.02312000  0.42933000  1.0 0.6787917772
C  C56  1  0.14930000  0.97688000  0.92933000  1.0 0.6904672899
C  C57  1  0.61789000  0.29617000  0.74177000  1.0 0.2513720749
C  C58  1  0.88211000  0.70383000  0.24177000  1.0 0.2513720749
C  C59  1  0.38211000  0.79617000  0.75823000  1.0 0.2513720749
C  C60  1  0.11789000  0.20383000  0.25823000  1.0 0.2513720749
C  C61  1  0.59456000  0.22011000  0.71300000  1.0 -0.113135039
C  C62  1  0.90544000  0.77989000  0.21300000  1.0 -0.1199096177
C  C63  1  0.40544000  0.72011000  0.78700000  1.0 -0.1199096177
C  C64  1  0.09456000  0.27989000  0.28700000  1.0 -0.1199096177
C  C65  1  0.53845000  0.23358000  0.66802000  1.0 -0.0028424588
C  C66  1  0.96155000  0.76642000  0.16802000  1.0 0.0003846074
C  C67  1  0.46155000  0.73358000  0.83198000  1.0 -0.0028424588
C  C68  1  0.03845000  0.26642000  0.33198000  1.0 -0.0028424588
C  C69  1  0.50567000  0.32311000  0.65181000  1.0 -0.0704512184
C  C70  1  0.99433000  0.67689000  0.15181000  1.0 -0.0704512184
C  C71  1  0.49433000  0.82311000  0.84819000  1.0 -0.0704512184
C  C72  1  0.00567000  0.17689000  0.34819000  1.0 -0.0704512184
C  C73  1  0.52900000  0.39917000  0.68058000  1.0 0.0601419011
C  C74  1  0.97100000  0.60083000  0.18058000  1.0 0.0601419011
C  C75  1  0.47100000  0.89917000  0.81942000  1.0 0.0601419011
C  C76  1  0.02900000  0.10083000  0.31942000  1.0 0.0601419011
C  C77  1  0.58511000  0.38571000  0.72556000  1.0 -0.1280515647
C  C78  1  0.91489000  0.61429000  0.22556000  1.0 -0.1280515647
C  C79  1  0.41489000  0.88571000  0.77444000  1.0 -0.1280515647
C  C80  1  0.08511000  0.11429000  0.27444000  1.0 -0.1280515647
C  C81  1  0.44310000  0.33813000  0.60165000  1.0 0.6904672899
C  C82  1  0.05690000  0.66187000  0.10165000  1.0 0.695567117
C  C83  1  0.55690000  0.83813000  0.89835000  1.0 0.6904672899
C  C84  1  0.94310000  0.16187000  0.39835000  1.0 0.695567117
C  C85  1  0.62886000  0.34219000  0.82065000  1.0 0.2513720749
C  C86  1  0.87114000  0.65781000  0.32065000  1.0 0.2513720749
C  C87  1  0.37114000  0.84219000  0.67935000  1.0 0.2513720749
C  C88  1  0.12886000  0.15781000  0.17935000  1.0 0.2513720749
C  C89  1  0.73284000  0.33932000  0.86100000  1.0 -0.0842246684
C  C90  1  0.76716000  0.66068000  0.36100000  1.0 -0.0842246684
C  C91  1  0.26716000  0.83932000  0.63900000  1.0 -0.0842246684
C  C92  1  0.23284000  0.16068000  0.13900000  1.0 -0.0842246684
C  C93  1  0.68791000  0.39971000  0.89645000  1.0 0.0700974156
C  C94  1  0.81209000  0.60029000  0.39645000  1.0 0.0700974156
C  C95  1  0.31209000  0.89971000  0.60355000  1.0 0.0700974156
C  C96  1  0.18791000  0.10029000  0.10355000  1.0 0.0700974156
C  C97  1  0.53901000  0.46296000  0.89155000  1.0 -0.0704512184
C  C98  1  0.96099000  0.53704000  0.39155000  1.0 -0.0704512184
C  C99  1  0.46099000  0.96296000  0.60845000  1.0 -0.0704512184
C  C100  1  0.03901000  0.03704000  0.10845000  1.0 -0.0704512184
C  C101  1  0.43503000  0.46583000  0.85119000  1.0 0.0495658652
C  C102  1  0.06497000  0.53417000  0.35119000  1.0 0.0495658652
C  C103  1  0.56497000  0.96583000  0.64881000  1.0 0.0495658652
C  C104  1  0.93503000  0.03417000  0.14881000  1.0 0.0495658652
C  C105  1  0.47996000  0.40544000  0.81574000  1.0 -0.1280515647
C  C106  1  0.02004000  0.59456000  0.31574000  1.0 -0.1280515647
C  C107  1  0.52004000  0.90544000  0.68426000  1.0 -0.1280515647
C  C108  1  0.97996000  0.09456000  0.18426000  1.0 -0.1280515647
C  C109  1  0.48891000  0.53030000  0.93108000  1.0 0.6716089108
C  C110  1  0.01109000  0.46970000  0.43108000  1.0 0.6716089108
C  C111  1  0.51109000  0.03030000  0.56892000  1.0 0.6716089108
C  C112  1  0.98891000  0.96970000  0.06892000  1.0 0.6716089108
O  O1  1  0.73400000  0.17000000  0.47100000  1.0 -0.8254891477
O  O2  1  0.76600000  0.83000000  0.97100000  1.0 -0.8213951629
O  O3  1  0.26600000  0.67000000  0.02900000  1.0 -0.8213951629
O  O4  1  0.23400000  0.33000000  0.52900000  1.0 -0.8213951629
O  O5  1  0.10300000  0.17000000  0.47100000  1.0 -0.9891317727
O  O6  1  0.39700000  0.83000000  0.97100000  1.0 -0.9891317727
O  O7  1  0.89700000  0.67000000  0.02900000  1.0 -0.9849204264
O  O8  1  0.60300000  0.33000000  0.52900000  1.0 -0.9891317727
O  O9  1  0.59835000  0.27427000  0.22127000  1.0 -0.1867497629
O  O10  1  0.90165000  0.72573000  0.72127000  1.0 -0.1867497629
O  O11  1  0.40165000  0.77427000  0.27873000  1.0 -0.1867497629
O  O12  1  0.09835000  0.22573000  0.77873000  1.0 -0.1867497629
O  O13  1  0.48909000  0.47854000  0.41508000  1.0 -0.5926587126
O  O14  1  0.01091000  0.52146000  0.91508000  1.0 -0.5926587126
O  O15  1  0.51091000  0.97854000  0.08492000  1.0 -0.5926587126
O  O16  1  0.98909000  0.02146000  0.58492000  1.0 -0.5926587126
O  O17  1  0.46836000  0.32868000  0.43709000  1.0 -0.7148214421
O  O18  1  0.03164000  0.67132000  0.93709000  1.0 -0.7148214421
O  O19  1  0.53164000  0.82868000  0.06291000  1.0 -0.7148214421
O  O20  1  0.96836000  0.17132000  0.56291000  1.0 -0.7148214421
O  O21  1  0.75922000  0.50314000  0.03630000  1.0 -0.619550421
O  O22  1  0.74078000  0.49686000  0.53630000  1.0 -0.619550421
O  O23  1  0.24078000  0.00314000  0.46370000  1.0 -0.619550421
O  O24  1  0.25922000  0.99686000  0.96370000  1.0 -0.619550421
O  O25  1  0.55101000  0.59993000  0.07064000  1.0 -0.5462106508
O  O26  1  0.94899000  0.40007000  0.57064000  1.0 -0.5462106508
O  O27  1  0.44899000  0.09993000  0.42936000  1.0 -0.5446020207
O  O28  1  0.05101000  0.90007000  0.92936000  1.0 -0.5462106508
O  O29  1  0.67292000  0.28296000  0.78588000  1.0 -0.1867497629
O  O30  1  0.82708000  0.71704000  0.28588000  1.0 -0.1867497629
O  O31  1  0.32708000  0.78296000  0.71412000  1.0 -0.1867497629
O  O32  1  0.17292000  0.21704000  0.21412000  1.0 -0.1867497629
O  O33  1  0.38263000  0.26809000  0.57756000  1.0 -0.3883056782
O  O34  1  0.11737000  0.73191000  0.07756000  1.0 -0.3883056782
O  O35  1  0.61737000  0.76809000  0.92244000  1.0 -0.3883056782
O  O36  1  0.88263000  0.23191000  0.42244000  1.0 -0.3883056782
O  O37  1  0.45111000  0.42077000  0.58366000  1.0 -0.5138418368
O  O38  1  0.04889000  0.57923000  0.08366000  1.0 -0.5138418368
O  O39  1  0.54889000  0.92077000  0.91634000  1.0 -0.5138418368
O  O40  1  0.95111000  0.07923000  0.41634000  1.0 -0.5138418368
O  O41  1  0.31772000  0.56484000  0.93425000  1.0 -0.6657962046
O  O42  1  0.18228000  0.43516000  0.43425000  1.0 -0.6657962046
O  O43  1  0.68228000  0.06484000  0.56575000  1.0 -0.6657962046
O  O44  1  0.81772000  0.93516000  0.06575000  1.0 -0.6657962046
O  O45  1  0.61807000  0.55225000  0.96106000  1.0 -0.6546217195
O  O46  1  0.88193000  0.44775000  0.46106000  1.0 -0.6546217195
O  O47  1  0.38193000  0.05225000  0.53894000  1.0 -0.6546217195
O  O48  1  0.11807000  0.94775000  0.03894000  1.0 -0.6546217195
