# DDEC6 charges by PACMAN v1.1 (https://github.com/mtap-research/PACMAN-charge/)
data_DEZTAG01_ASR_pacman
_symmetry_space_group_name_H-M   'P 1'
_cell_length_a   13.58670000
_cell_length_b   19.52880000
_cell_length_c   26.20130000
_cell_angle_alpha   90.00000000
_cell_angle_beta   90.00000000
_cell_angle_gamma   90.00000000
_symmetry_Int_Tables_number   1
_chemical_formula_structural   Co2B40H47C15NO9
_chemical_formula_sum   'Co8 B160 H188 C60 N4 O36'
_cell_volume   6952.04194188
_cell_formula_units_Z   4
loop_
 _symmetry_equiv_pos_site_id
 _symmetry_equiv_pos_as_xyz
  1  'x, y, z'
loop_
 _atom_site_type_symbol
 _atom_site_label
 _atom_site_symmetry_multiplicity
 _atom_site_fract_x
 _atom_site_fract_y
 _atom_site_fract_z
 _atom_site_occupancy
 _atom_site_charge
Co  Co1  1  0.76454000  0.56948000  0.76568000  1.0 1.2953642225
Co  Co2  1  0.49269000  0.14698000  0.26609000  1.0 1.1896875715
Co  Co3  1  0.73546000  0.06948000  0.26568000  1.0 1.2953642225
Co  Co4  1  0.00731000  0.64698000  0.76609000  1.0 1.1896875715
Co  Co5  1  0.23546000  0.56948000  0.23432000  1.0 1.2953642225
Co  Co6  1  0.50731000  0.14698000  0.73391000  1.0 1.1896875715
Co  Co7  1  0.26454000  0.06948000  0.73432000  1.0 1.2953642225
Co  Co8  1  0.99269000  0.64698000  0.23391000  1.0 1.1896875715
B  B1  1  0.85400000  0.46210000  0.57330000  1.0 -0.0508582991
B  B2  1  0.90040000  0.39420000  0.59200000  1.0 -0.0986230214
B  B3  1  0.81500000  0.35380000  0.62970000  1.0 -0.0398830449
B  B4  1  0.70180000  0.39520000  0.62930000  1.0 -0.0299179343
B  B5  1  0.72300000  0.46380000  0.58550000  1.0 -0.0218166617
B  B6  1  0.86960000  0.39140000  0.52780000  1.0 -0.0679199086
B  B7  1  0.85870000  0.32240000  0.56510000  1.0 -0.0299179343
B  B8  1  0.72430000  0.32220000  0.59170000  1.0 -0.0508582991
B  B9  1  0.67490000  0.39100000  0.57130000  1.0 -0.0597825961
B  B10  1  0.75800000  0.43820000  0.53070000  1.0 -0.0508582991
B  B11  1  0.60560000  0.26890000  0.42640000  1.0 -0.0508582991
B  B12  1  0.65520000  0.19610000  0.44900000  1.0 -0.0508582991
B  B13  1  0.78020000  0.19530000  0.42900000  1.0 -0.0398830449
B  B14  1  0.80010000  0.26790000  0.39250000  1.0 -0.0883582156
B  B15  1  0.68600000  0.30490000  0.37800000  1.0 0.0085286209
B  B16  1  0.63760000  0.26730000  0.48800000  1.0 -0.0597825961
B  B17  1  0.74830000  0.21950000  0.48460000  1.0 -0.0398830449
B  B18  1  0.83630000  0.26780000  0.44760000  1.0 -0.0597825961
B  B19  1  0.77820000  0.33670000  0.43040000  1.0 -0.077404947
B  B20  1  0.65210000  0.33910000  0.44830000  1.0 -0.0398830449
B  B21  1  0.83480000  0.46550000  0.95730000  1.0 -0.0398830449
B  B22  1  0.71070000  0.45960000  0.93780000  1.0 -0.0597825961
B  B23  1  0.68220000  0.40050000  0.91200000  1.0 -0.0679199086
B  B24  1  0.79890000  0.34520000  0.89330000  1.0 -0.0091843158
B  B25  1  0.89140000  0.38990000  0.92110000  1.0 -0.077404947
B  B26  1  0.74760000  0.43840000  0.00150000  1.0 -0.0299179343
B  B27  1  0.66020000  0.39450000  0.97190000  1.0 -0.0986230214
B  B28  1  0.69920000  0.32790000  0.94870000  1.0 -0.0218166617
B  B29  1  0.83850000  0.31810000  0.95250000  1.0 -0.0597825961
B  B30  1  0.86360000  0.38780000  0.98960000  1.0 -0.0508582991
B  B31  1  0.59620000  0.27120000  0.11970000  1.0 -0.0883582156
B  B32  1  0.68930000  0.30710000  0.14610000  1.0 -0.0883582156
B  B33  1  0.80080000  0.26290000  0.14310000  1.0 -0.0508582991
B  B34  1  0.77260000  0.19130000  0.10380000  1.0 -0.0299179343
B  B35  1  0.64210000  0.19640000  0.09120000  1.0 -0.0299179343
B  B36  1  0.65110000  0.34220000  0.09190000  1.0 -0.0679199086
B  B37  1  0.77380000  0.33770000  0.10770000  1.0 -0.0679199086
B  B38  1  0.82640000  0.26200000  0.07300000  1.0 -0.0299179343
B  B39  1  0.72680000  0.22160000  0.04130000  1.0 -0.0597825961
B  B40  1  0.62060000  0.27090000  0.05670000  1.0 -0.0597825961
B  B41  1  0.64600000  0.96210000  0.07330000  1.0 -0.0508582991
B  B42  1  0.59960000  0.89420000  0.09200000  1.0 -0.0986230214
B  B43  1  0.68500000  0.85380000  0.12970000  1.0 -0.0398830449
B  B44  1  0.79820000  0.89520000  0.12930000  1.0 -0.0299179343
B  B45  1  0.77700000  0.96380000  0.08550000  1.0 -0.0218166617
B  B46  1  0.63040000  0.89140000  0.02780000  1.0 -0.0679199086
B  B47  1  0.64130000  0.82240000  0.06510000  1.0 -0.0299179343
B  B48  1  0.77570000  0.82220000  0.09170000  1.0 -0.0597825961
B  B49  1  0.82510000  0.89100000  0.07130000  1.0 -0.0597825961
B  B50  1  0.74200000  0.93820000  0.03070000  1.0 -0.0508582991
B  B51  1  0.89440000  0.76890000  0.92640000  1.0 -0.0508582991
B  B52  1  0.84480000  0.69610000  0.94900000  1.0 -0.0508582991
B  B53  1  0.71980000  0.69530000  0.92900000  1.0 -0.0398830449
B  B54  1  0.69990000  0.76790000  0.89250000  1.0 -0.0883582156
B  B55  1  0.81400000  0.80490000  0.87800000  1.0 0.0085286209
B  B56  1  0.86240000  0.76730000  0.98800000  1.0 -0.0597825961
B  B57  1  0.75170000  0.71950000  0.98460000  1.0 -0.0398830449
B  B58  1  0.66370000  0.76780000  0.94760000  1.0 -0.0597825961
B  B59  1  0.72180000  0.83670000  0.93040000  1.0 -0.077404947
B  B60  1  0.84790000  0.83910000  0.94830000  1.0 -0.0398830449
B  B61  1  0.66520000  0.96550000  0.45730000  1.0 -0.0398830449
B  B62  1  0.78930000  0.95960000  0.43780000  1.0 -0.0597825961
B  B63  1  0.81780000  0.90050000  0.41200000  1.0 -0.0679199086
B  B64  1  0.70110000  0.84520000  0.39330000  1.0 -0.0091843158
B  B65  1  0.60860000  0.88990000  0.42110000  1.0 -0.077404947
B  B66  1  0.75240000  0.93840000  0.50150000  1.0 -0.0299179343
B  B67  1  0.83980000  0.89450000  0.47190000  1.0 -0.0986230214
B  B68  1  0.80080000  0.82790000  0.44870000  1.0 -0.0218166617
B  B69  1  0.66150000  0.81810000  0.45250000  1.0 -0.0597825961
B  B70  1  0.63640000  0.88780000  0.48960000  1.0 -0.0508582991
B  B71  1  0.90380000  0.77120000  0.61970000  1.0 -0.0883582156
B  B72  1  0.81070000  0.80710000  0.64610000  1.0 -0.0883582156
B  B73  1  0.69920000  0.76290000  0.64310000  1.0 -0.0508582991
B  B74  1  0.72740000  0.69130000  0.60380000  1.0 -0.0299179343
B  B75  1  0.85790000  0.69640000  0.59120000  1.0 -0.0299179343
B  B76  1  0.84890000  0.84220000  0.59190000  1.0 -0.0679199086
B  B77  1  0.72620000  0.83770000  0.60770000  1.0 -0.0679199086
B  B78  1  0.67360000  0.76200000  0.57300000  1.0 -0.0299179343
B  B79  1  0.77320000  0.72160000  0.54130000  1.0 -0.0597825961
B  B80  1  0.87940000  0.77090000  0.55670000  1.0 -0.0597825961
B  B81  1  0.14600000  0.46210000  0.42670000  1.0 -0.0508582991
B  B82  1  0.09960000  0.39420000  0.40800000  1.0 -0.0986230214
B  B83  1  0.18500000  0.35380000  0.37030000  1.0 -0.0299179343
B  B84  1  0.29820000  0.39520000  0.37070000  1.0 -0.0299179343
B  B85  1  0.27700000  0.46380000  0.41450000  1.0 -0.0218166617
B  B86  1  0.13040000  0.39140000  0.47220000  1.0 -0.0679199086
B  B87  1  0.14130000  0.32240000  0.43490000  1.0 -0.0299179343
B  B88  1  0.27570000  0.32220000  0.40830000  1.0 -0.0508582991
B  B89  1  0.32510000  0.39100000  0.42870000  1.0 -0.0597825961
B  B90  1  0.24200000  0.43820000  0.46930000  1.0 -0.0508582991
B  B91  1  0.39440000  0.26890000  0.57360000  1.0 -0.0508582991
B  B92  1  0.34480000  0.19610000  0.55100000  1.0 -0.0508582991
B  B93  1  0.21980000  0.19530000  0.57100000  1.0 -0.0398830449
B  B94  1  0.19990000  0.26790000  0.60750000  1.0 -0.0883582156
B  B95  1  0.31400000  0.30490000  0.62200000  1.0 0.0085286209
B  B96  1  0.36240000  0.26730000  0.51200000  1.0 -0.0597825961
B  B97  1  0.25170000  0.21950000  0.51540000  1.0 -0.0398830449
B  B98  1  0.16370000  0.26780000  0.55240000  1.0 -0.0597825961
B  B99  1  0.22180000  0.33670000  0.56960000  1.0 -0.077404947
B  B100  1  0.34790000  0.33910000  0.55170000  1.0 -0.0398830449
B  B101  1  0.16520000  0.46550000  0.04270000  1.0 -0.0398830449
B  B102  1  0.28930000  0.45960000  0.06220000  1.0 -0.0597825961
B  B103  1  0.31780000  0.40050000  0.08800000  1.0 -0.0679199086
B  B104  1  0.20110000  0.34520000  0.10670000  1.0 -0.0091843158
B  B105  1  0.10860000  0.38990000  0.07890000  1.0 -0.077404947
B  B106  1  0.25240000  0.43840000  0.99850000  1.0 -0.0299179343
B  B107  1  0.33980000  0.39450000  0.02810000  1.0 -0.0986230214
B  B108  1  0.30080000  0.32790000  0.05130000  1.0 -0.0218166617
B  B109  1  0.16150000  0.31810000  0.04750000  1.0 -0.0597825961
B  B110  1  0.13640000  0.38780000  0.01040000  1.0 -0.0508582991
B  B111  1  0.40380000  0.27120000  0.88030000  1.0 -0.0883582156
B  B112  1  0.31070000  0.30710000  0.85390000  1.0 -0.0883582156
B  B113  1  0.19920000  0.26290000  0.85690000  1.0 -0.0508582991
B  B114  1  0.22740000  0.19130000  0.89620000  1.0 -0.0299179343
B  B115  1  0.35790000  0.19640000  0.90880000  1.0 -0.0299179343
B  B116  1  0.34890000  0.34220000  0.90810000  1.0 -0.0679199086
B  B117  1  0.22620000  0.33770000  0.89230000  1.0 -0.0679199086
B  B118  1  0.17360000  0.26200000  0.92700000  1.0 -0.0299179343
B  B119  1  0.27320000  0.22160000  0.95870000  1.0 -0.0597825961
B  B120  1  0.37940000  0.27090000  0.94330000  1.0 -0.0597825961
B  B121  1  0.35400000  0.96210000  0.92670000  1.0 -0.0508582991
B  B122  1  0.40040000  0.89420000  0.90800000  1.0 -0.0986230214
B  B123  1  0.31500000  0.85380000  0.87030000  1.0 -0.0299179343
B  B124  1  0.20180000  0.89520000  0.87070000  1.0 -0.0299179343
B  B125  1  0.22300000  0.96380000  0.91450000  1.0 -0.0218166617
B  B126  1  0.36960000  0.89140000  0.97220000  1.0 -0.0679199086
B  B127  1  0.35870000  0.82240000  0.93490000  1.0 -0.0299179343
B  B128  1  0.22430000  0.82220000  0.90830000  1.0 -0.0508582991
B  B129  1  0.17490000  0.89100000  0.92870000  1.0 -0.0597825961
B  B130  1  0.25800000  0.93820000  0.96930000  1.0 -0.0508582991
B  B131  1  0.10560000  0.76890000  0.07360000  1.0 -0.0508582991
B  B132  1  0.15520000  0.69610000  0.05100000  1.0 -0.0508582991
B  B133  1  0.28020000  0.69530000  0.07100000  1.0 -0.0398830449
B  B134  1  0.30010000  0.76790000  0.10750000  1.0 -0.0883582156
B  B135  1  0.18600000  0.80490000  0.12200000  1.0 0.0085286209
B  B136  1  0.13760000  0.76730000  0.01200000  1.0 -0.0597825961
B  B137  1  0.24830000  0.71950000  0.01540000  1.0 -0.0398830449
B  B138  1  0.33630000  0.76780000  0.05240000  1.0 -0.0597825961
B  B139  1  0.27820000  0.83670000  0.06960000  1.0 -0.077404947
B  B140  1  0.15210000  0.83910000  0.05170000  1.0 -0.0398830449
B  B141  1  0.33480000  0.96550000  0.54270000  1.0 -0.0398830449
B  B142  1  0.21070000  0.95960000  0.56220000  1.0 -0.0597825961
B  B143  1  0.18220000  0.90050000  0.58800000  1.0 -0.0679199086
B  B144  1  0.29890000  0.84520000  0.60670000  1.0 -0.0091843158
B  B145  1  0.39140000  0.88990000  0.57890000  1.0 -0.077404947
B  B146  1  0.24760000  0.93840000  0.49850000  1.0 -0.0299179343
B  B147  1  0.16020000  0.89450000  0.52810000  1.0 -0.0986230214
B  B148  1  0.19920000  0.82790000  0.55130000  1.0 -0.0218166617
B  B149  1  0.33850000  0.81810000  0.54750000  1.0 -0.0597825961
B  B150  1  0.36360000  0.88780000  0.51040000  1.0 -0.0508582991
B  B151  1  0.09620000  0.77120000  0.38030000  1.0 -0.0883582156
B  B152  1  0.18930000  0.80710000  0.35390000  1.0 -0.0883582156
B  B153  1  0.30080000  0.76290000  0.35690000  1.0 -0.0508582991
B  B154  1  0.27260000  0.69130000  0.39620000  1.0 -0.0299179343
B  B155  1  0.14210000  0.69640000  0.40880000  1.0 -0.0299179343
B  B156  1  0.15110000  0.84220000  0.40810000  1.0 -0.0679199086
B  B157  1  0.27380000  0.83770000  0.39230000  1.0 -0.0679199086
B  B158  1  0.32640000  0.76200000  0.42700000  1.0 -0.0299179343
B  B159  1  0.22680000  0.72160000  0.45870000  1.0 -0.0597825961
B  B160  1  0.12060000  0.77090000  0.44330000  1.0 -0.0597825961
H  H1  1  0.94350000  0.47040000  0.77150000  1.0 0.2409322253
H  H2  1  0.03380000  0.36610000  0.73850000  1.0 0.2609301022
H  H3  1  0.03990000  0.36350000  0.79950000  1.0 0.2609301022
H  H4  1  0.13840000  0.35940000  0.76610000  1.0 0.2609301022
H  H5  1  0.18370000  0.52900000  0.75500000  1.0 0.2081863704
H  H6  1  0.21630000  0.45880000  0.72850000  1.0 0.2291163396
H  H7  1  0.22200000  0.46650000  0.78920000  1.0 0.2247611648
H  H8  1  0.90180000  0.50860000  0.57170000  1.0 0.0085286209
H  H9  1  0.98020000  0.39380000  0.60270000  1.0 0.0029011246
H  H10  1  0.83600000  0.32570000  0.66540000  1.0 -0.0597825961
H  H11  1  0.64870000  0.39690000  0.66200000  1.0 -0.0508582991
H  H12  1  0.67910000  0.51230000  0.58580000  1.0 -0.0508582991
H  H13  1  0.91780000  0.39120000  0.49310000  1.0 -0.0091843158
H  H14  1  0.90520000  0.27660000  0.55620000  1.0 -0.0398830449
H  H15  1  0.68310000  0.27340000  0.59850000  1.0 -0.0597825961
H  H16  1  0.59370000  0.38760000  0.56430000  1.0 -0.0218166617
H  H17  1  0.73630000  0.46920000  0.49650000  1.0 -0.0597825961
H  H18  1  0.52470000  0.27200000  0.41860000  1.0 -0.0091843158
H  H19  1  0.60970000  0.14910000  0.45530000  1.0 0.0085286209
H  H20  1  0.82120000  0.14610000  0.42390000  1.0 -0.0299179343
H  H21  1  0.85720000  0.27100000  0.36180000  1.0 -0.0091843158
H  H22  1  0.66470000  0.32640000  0.33990000  1.0 -0.0679199086
H  H23  1  0.58700000  0.26730000  0.52170000  1.0 -0.0218166617
H  H24  1  0.77160000  0.18600000  0.51710000  1.0 -0.0398830449
H  H25  1  0.91770000  0.26950000  0.45410000  1.0 0.0029011246
H  H26  1  0.81800000  0.38680000  0.42760000  1.0 -0.0398830449
H  H27  1  0.60940000  0.38770000  0.45360000  1.0 -0.0508582991
H  H28  1  0.87350000  0.51490000  0.96560000  1.0 -0.0091843158
H  H29  1  0.66860000  0.50660000  0.92670000  1.0 -0.0091843158
H  H30  1  0.61860000  0.40610000  0.88510000  1.0 -0.0218166617
H  H31  1  0.81070000  0.31380000  0.85800000  1.0 -0.077404947
H  H32  1  0.96640000  0.39050000  0.90340000  1.0 -0.0091843158
H  H33  1  0.73060000  0.46930000  0.03640000  1.0 -0.0299179343
H  H34  1  0.58440000  0.39530000  0.98870000  1.0 0.0186851146
H  H35  1  0.64640000  0.28390000  0.94860000  1.0 -0.0508582991
H  H36  1  0.87970000  0.26860000  0.95510000  1.0 -0.0398830449
H  H37  1  0.92500000  0.38450000  0.01800000  1.0 0.0085286209
H  H38  1  0.52000000  0.27490000  0.13570000  1.0 0.0029011246
H  H39  1  0.67360000  0.33540000  0.18240000  1.0 -0.0299179343
H  H40  1  0.85870000  0.26160000  0.17350000  1.0 -0.0299179343
H  H41  1  0.81470000  0.14240000  0.10880000  1.0 -0.0398830449
H  H42  1  0.59650000  0.14900000  0.08730000  1.0 -0.0091843158
H  H43  1  0.61450000  0.39330000  0.08730000  1.0 0.0029011246
H  H44  1  0.81660000  0.38570000  0.11520000  1.0 -0.0299179343
H  H45  1  0.90240000  0.26030000  0.05650000  1.0 -0.0398830449
H  H46  1  0.73610000  0.19290000  0.00460000  1.0 -0.0597825961
H  H47  1  0.55820000  0.27420000  0.02890000  1.0 0.0598708625
H  H48  1  0.55650000  0.97040000  0.27150000  1.0 0.2409322253
H  H49  1  0.46620000  0.86610000  0.23850000  1.0 0.2609301022
H  H50  1  0.46010000  0.86350000  0.29950000  1.0 0.2653062856
H  H51  1  0.36160000  0.85940000  0.26610000  1.0 0.2609301022
H  H52  1  0.31630000  0.02900000  0.25500000  1.0 0.2081863704
H  H53  1  0.28370000  0.95880000  0.22850000  1.0 0.2291163396
H  H54  1  0.27800000  0.96650000  0.28920000  1.0 0.2291163396
H  H55  1  0.59820000  0.00860000  0.07170000  1.0 0.0085286209
H  H56  1  0.51980000  0.89380000  0.10270000  1.0 0.0029011246
H  H57  1  0.66400000  0.82570000  0.16540000  1.0 -0.0597825961
H  H58  1  0.85130000  0.89690000  0.16200000  1.0 -0.0508582991
H  H59  1  0.82090000  0.01230000  0.08580000  1.0 -0.0508582991
H  H60  1  0.58220000  0.89120000  0.99310000  1.0 -0.0091843158
H  H61  1  0.59480000  0.77660000  0.05620000  1.0 -0.0398830449
H  H62  1  0.81690000  0.77340000  0.09850000  1.0 -0.0597825961
H  H63  1  0.90630000  0.88760000  0.06430000  1.0 -0.0218166617
H  H64  1  0.76370000  0.96920000  0.99650000  1.0 -0.0597825961
H  H65  1  0.97530000  0.77200000  0.91860000  1.0 -0.0091843158
H  H66  1  0.89030000  0.64910000  0.95530000  1.0 0.0085286209
H  H67  1  0.67880000  0.64610000  0.92390000  1.0 -0.0218166617
H  H68  1  0.64280000  0.77100000  0.86180000  1.0 -0.0091843158
H  H69  1  0.83530000  0.82640000  0.83990000  1.0 -0.0679199086
H  H70  1  0.91300000  0.76730000  0.02170000  1.0 -0.0218166617
H  H71  1  0.72840000  0.68600000  0.01710000  1.0 -0.0398830449
H  H72  1  0.58230000  0.76950000  0.95410000  1.0 0.0029011246
H  H73  1  0.68200000  0.88680000  0.92760000  1.0 -0.0398830449
H  H74  1  0.89060000  0.88770000  0.95360000  1.0 -0.0508582991
H  H75  1  0.62650000  0.01490000  0.46560000  1.0 -0.0091843158
H  H76  1  0.83140000  0.00660000  0.42670000  1.0 -0.0091843158
H  H77  1  0.88140000  0.90610000  0.38510000  1.0 -0.0218166617
H  H78  1  0.68930000  0.81380000  0.35800000  1.0 -0.077404947
H  H79  1  0.53360000  0.89050000  0.40340000  1.0 -0.0091843158
H  H80  1  0.76940000  0.96930000  0.53640000  1.0 -0.0299179343
H  H81  1  0.91560000  0.89530000  0.48870000  1.0 0.0186851146
H  H82  1  0.85360000  0.78390000  0.44860000  1.0 -0.0508582991
H  H83  1  0.62030000  0.76860000  0.45510000  1.0 -0.0398830449
H  H84  1  0.57500000  0.88450000  0.51800000  1.0 0.0085286209
H  H85  1  0.98000000  0.77490000  0.63570000  1.0 0.0029011246
H  H86  1  0.82640000  0.83540000  0.68240000  1.0 -0.0299179343
H  H87  1  0.64130000  0.76160000  0.67350000  1.0 -0.0299179343
H  H88  1  0.68530000  0.64240000  0.60880000  1.0 -0.0398830449
H  H89  1  0.90350000  0.64900000  0.58730000  1.0 -0.0091843158
H  H90  1  0.88550000  0.89330000  0.58730000  1.0 0.0029011246
H  H91  1  0.68340000  0.88570000  0.61520000  1.0 -0.0299179343
H  H92  1  0.59760000  0.76030000  0.55650000  1.0 -0.0398830449
H  H93  1  0.76390000  0.69290000  0.50460000  1.0 -0.0597825961
H  H94  1  0.94180000  0.77420000  0.52890000  1.0 0.0598708625
H  H95  1  0.05650000  0.47040000  0.22850000  1.0 0.2409322253
H  H96  1  0.96620000  0.36610000  0.26150000  1.0 0.2609301022
H  H97  1  0.96010000  0.36350000  0.20050000  1.0 0.2609301022
H  H98  1  0.86160000  0.35940000  0.23390000  1.0 0.2609301022
H  H99  1  0.81630000  0.52900000  0.24500000  1.0 0.2081863704
H  H100  1  0.78370000  0.45880000  0.27150000  1.0 0.2291163396
H  H101  1  0.77800000  0.46650000  0.21080000  1.0 0.2247611648
H  H102  1  0.09820000  0.50860000  0.42830000  1.0 0.0085286209
H  H103  1  0.01980000  0.39380000  0.39730000  1.0 0.0029011246
H  H104  1  0.16400000  0.32570000  0.33460000  1.0 -0.0597825961
H  H105  1  0.35130000  0.39690000  0.33800000  1.0 -0.0508582991
H  H106  1  0.32090000  0.51230000  0.41420000  1.0 -0.0508582991
H  H107  1  0.08220000  0.39120000  0.50690000  1.0 -0.0091843158
H  H108  1  0.09480000  0.27660000  0.44380000  1.0 -0.0398830449
H  H109  1  0.31690000  0.27340000  0.40150000  1.0 -0.0597825961
H  H110  1  0.40630000  0.38760000  0.43570000  1.0 -0.0218166617
H  H111  1  0.26370000  0.46920000  0.50350000  1.0 -0.0597825961
H  H112  1  0.47530000  0.27200000  0.58140000  1.0 -0.0091843158
H  H113  1  0.39030000  0.14910000  0.54470000  1.0 0.0085286209
H  H114  1  0.17880000  0.14610000  0.57610000  1.0 -0.0218166617
H  H115  1  0.14280000  0.27100000  0.63820000  1.0 -0.0091843158
H  H116  1  0.33530000  0.32640000  0.66010000  1.0 -0.0679199086
H  H117  1  0.41300000  0.26730000  0.47830000  1.0 -0.0218166617
H  H118  1  0.22840000  0.18600000  0.48290000  1.0 -0.0398830449
H  H119  1  0.08230000  0.26950000  0.54590000  1.0 0.0029011246
H  H120  1  0.18200000  0.38680000  0.57240000  1.0 -0.0398830449
H  H121  1  0.39060000  0.38770000  0.54640000  1.0 -0.0508582991
H  H122  1  0.12650000  0.51490000  0.03440000  1.0 -0.0091843158
H  H123  1  0.33140000  0.50660000  0.07330000  1.0 -0.0091843158
H  H124  1  0.38140000  0.40610000  0.11490000  1.0 -0.0218166617
H  H125  1  0.18930000  0.31380000  0.14200000  1.0 -0.077404947
H  H126  1  0.03360000  0.39050000  0.09660000  1.0 -0.0091843158
H  H127  1  0.26940000  0.46930000  0.96360000  1.0 -0.0299179343
H  H128  1  0.41560000  0.39530000  0.01130000  1.0 0.0186851146
H  H129  1  0.35360000  0.28390000  0.05140000  1.0 -0.0508582991
H  H130  1  0.12030000  0.26860000  0.04490000  1.0 -0.0398830449
H  H131  1  0.07500000  0.38450000  0.98200000  1.0 0.0085286209
H  H132  1  0.48000000  0.27490000  0.86430000  1.0 0.0029011246
H  H133  1  0.32640000  0.33540000  0.81760000  1.0 -0.0299179343
H  H134  1  0.14130000  0.26160000  0.82650000  1.0 -0.0299179343
H  H135  1  0.18530000  0.14240000  0.89120000  1.0 -0.0398830449
H  H136  1  0.40350000  0.14900000  0.91270000  1.0 -0.0091843158
H  H137  1  0.38550000  0.39330000  0.91270000  1.0 0.0029011246
H  H138  1  0.18340000  0.38570000  0.88480000  1.0 -0.0299179343
H  H139  1  0.09760000  0.26030000  0.94350000  1.0 -0.0398830449
H  H140  1  0.26390000  0.19290000  0.99540000  1.0 -0.0597825961
H  H141  1  0.44180000  0.27420000  0.97110000  1.0 0.0598708625
H  H142  1  0.44350000  0.97040000  0.72850000  1.0 0.2409322253
H  H143  1  0.53380000  0.86610000  0.76150000  1.0 0.2609301022
H  H144  1  0.53990000  0.86350000  0.70050000  1.0 0.2653062856
H  H145  1  0.63840000  0.85940000  0.73390000  1.0 0.2609301022
H  H146  1  0.68370000  0.02900000  0.74500000  1.0 0.2081863704
H  H147  1  0.71630000  0.95880000  0.77150000  1.0 0.2291163396
H  H148  1  0.72200000  0.96650000  0.71080000  1.0 0.2291163396
H  H149  1  0.40180000  0.00860000  0.92830000  1.0 0.0085286209
H  H150  1  0.48020000  0.89380000  0.89730000  1.0 0.0029011246
H  H151  1  0.33600000  0.82570000  0.83460000  1.0 -0.0597825961
H  H152  1  0.14870000  0.89690000  0.83800000  1.0 -0.0398830449
H  H153  1  0.17910000  0.01230000  0.91420000  1.0 -0.0508582991
H  H154  1  0.41780000  0.89120000  0.00690000  1.0 -0.0091843158
H  H155  1  0.40520000  0.77660000  0.94380000  1.0 -0.0398830449
H  H156  1  0.18310000  0.77340000  0.90150000  1.0 -0.0597825961
H  H157  1  0.09370000  0.88760000  0.93570000  1.0 -0.0218166617
H  H158  1  0.23630000  0.96920000  0.00350000  1.0 -0.0597825961
H  H159  1  0.02470000  0.77200000  0.08140000  1.0 -0.0091843158
H  H160  1  0.10970000  0.64910000  0.04470000  1.0 0.0085286209
H  H161  1  0.32120000  0.64610000  0.07610000  1.0 -0.0218166617
H  H162  1  0.35720000  0.77100000  0.13820000  1.0 -0.0091843158
H  H163  1  0.16470000  0.82640000  0.16010000  1.0 -0.0679199086
H  H164  1  0.08700000  0.76730000  0.97830000  1.0 -0.0218166617
H  H165  1  0.27160000  0.68600000  0.98290000  1.0 -0.0398830449
H  H166  1  0.41770000  0.76950000  0.04590000  1.0 0.0029011246
H  H167  1  0.31800000  0.88680000  0.07240000  1.0 -0.0398830449
H  H168  1  0.10940000  0.88770000  0.04640000  1.0 -0.0508582991
H  H169  1  0.37350000  0.01490000  0.53440000  1.0 -0.0091843158
H  H170  1  0.16860000  0.00660000  0.57330000  1.0 -0.0091843158
H  H171  1  0.11860000  0.90610000  0.61490000  1.0 -0.0218166617
H  H172  1  0.31070000  0.81380000  0.64200000  1.0 -0.077404947
H  H173  1  0.46640000  0.89050000  0.59660000  1.0 -0.0091843158
H  H174  1  0.23060000  0.96930000  0.46360000  1.0 -0.0299179343
H  H175  1  0.08440000  0.89530000  0.51130000  1.0 0.0186851146
H  H176  1  0.14640000  0.78390000  0.55140000  1.0 -0.0508582991
H  H177  1  0.37970000  0.76860000  0.54490000  1.0 -0.0398830449
H  H178  1  0.42500000  0.88450000  0.48200000  1.0 0.0085286209
H  H179  1  0.02000000  0.77490000  0.36430000  1.0 0.0029011246
H  H180  1  0.17360000  0.83540000  0.31760000  1.0 -0.0299179343
H  H181  1  0.35870000  0.76160000  0.32650000  1.0 -0.0299179343
H  H182  1  0.31470000  0.64240000  0.39120000  1.0 -0.0398830449
H  H183  1  0.09650000  0.64900000  0.41270000  1.0 -0.0091843158
H  H184  1  0.11450000  0.89330000  0.41270000  1.0 0.0029011246
H  H185  1  0.31660000  0.88570000  0.38480000  1.0 -0.0299179343
H  H186  1  0.40240000  0.76030000  0.44350000  1.0 -0.0398830449
H  H187  1  0.23610000  0.69290000  0.49540000  1.0 -0.0597825961
H  H188  1  0.05820000  0.77420000  0.47110000  1.0 0.0598708625
C  C1  1  0.83390000  0.47890000  0.67770000  1.0 0.7408017805
C  C2  1  0.81120000  0.43860000  0.62700000  1.0 -0.0091843158
C  C3  1  0.76270000  0.35010000  0.53460000  1.0 0.1319980672
C  C4  1  0.66760000  0.18140000  0.34220000  1.0 0.7540176726
C  C5  1  0.69370000  0.22260000  0.38900000  1.0 -0.0018489667
C  C6  1  0.74460000  0.31140000  0.48840000  1.0 0.1545224144
C  C7  1  0.82790000  0.47600000  0.85130000  1.0 0.7287429339
C  C8  1  0.80000000  0.43320000  0.89880000  1.0 -0.0018489667
C  C9  1  0.75450000  0.34890000  0.99840000  1.0 0.1659954827
C  C10  1  0.66490000  0.18060000  0.19400000  1.0 0.7408017805
C  C11  1  0.68630000  0.22190000  0.14440000  1.0 0.0029011246
C  C12  1  0.73110000  0.30700000  0.04660000  1.0 0.1802021973
C  C13  1  0.99740000  0.50140000  0.77360000  1.0 0.1972256667
C  C14  1  0.07300000  0.37970000  0.76840000  1.0 -0.3367888862
C  C15  1  0.18500000  0.47900000  0.75850000  1.0 -0.2718936139
C  C16  1  0.66610000  0.97890000  0.17770000  1.0 0.7408017805
C  C17  1  0.68880000  0.93860000  0.12700000  1.0 -0.0091843158
C  C18  1  0.73730000  0.85010000  0.03460000  1.0 0.1319980672
C  C19  1  0.83240000  0.68140000  0.84220000  1.0 0.7540176726
C  C20  1  0.80630000  0.72260000  0.88900000  1.0 -0.0018489667
C  C21  1  0.75540000  0.81140000  0.98840000  1.0 0.1601294531
C  C22  1  0.67210000  0.97600000  0.35130000  1.0 0.7287429339
C  C23  1  0.70000000  0.93320000  0.39880000  1.0 -0.0018489667
C  C24  1  0.74550000  0.84890000  0.49840000  1.0 0.1659954827
C  C25  1  0.83510000  0.68060000  0.69400000  1.0 0.7408017805
C  C26  1  0.81370000  0.72190000  0.64440000  1.0 0.0085286209
C  C27  1  0.76890000  0.80700000  0.54660000  1.0 0.1802021973
C  C28  1  0.50260000  0.00140000  0.27360000  1.0 0.1972256667
C  C29  1  0.42700000  0.87970000  0.26840000  1.0 -0.3367888862
C  C30  1  0.31500000  0.97900000  0.25850000  1.0 -0.2718936139
C  C31  1  0.16610000  0.47890000  0.32230000  1.0 0.7408017805
C  C32  1  0.18880000  0.43860000  0.37300000  1.0 -0.0091843158
C  C33  1  0.23730000  0.35010000  0.46540000  1.0 0.1319980672
C  C34  1  0.33240000  0.18140000  0.65780000  1.0 0.7540176726
C  C35  1  0.30630000  0.22260000  0.61100000  1.0 -0.0018489667
C  C36  1  0.25540000  0.31140000  0.51160000  1.0 0.1545224144
C  C37  1  0.17210000  0.47600000  0.14870000  1.0 0.7287429339
C  C38  1  0.20000000  0.43320000  0.10120000  1.0 -0.0018489667
C  C39  1  0.24550000  0.34890000  0.00160000  1.0 0.1601294531
C  C40  1  0.33510000  0.18060000  0.80600000  1.0 0.7408017805
C  C41  1  0.31370000  0.22190000  0.85560000  1.0 0.0029011246
C  C42  1  0.26890000  0.30700000  0.95340000  1.0 0.1802021973
C  C43  1  0.00260000  0.50140000  0.22640000  1.0 0.1972256667
C  C44  1  0.92700000  0.37970000  0.23160000  1.0 -0.3367888862
C  C45  1  0.81500000  0.47900000  0.24150000  1.0 -0.2718936139
C  C46  1  0.33390000  0.97890000  0.82230000  1.0 0.7408017805
C  C47  1  0.31120000  0.93860000  0.87300000  1.0 -0.0091843158
C  C48  1  0.26270000  0.85010000  0.96540000  1.0 0.1319980672
C  C49  1  0.16760000  0.68140000  0.15780000  1.0 0.7540176726
C  C50  1  0.19370000  0.72260000  0.11100000  1.0 -0.0018489667
C  C51  1  0.24460000  0.81140000  0.01160000  1.0 0.1545224144
C  C52  1  0.32790000  0.97600000  0.64870000  1.0 0.7287429339
C  C53  1  0.30000000  0.93320000  0.60120000  1.0 -0.0018489667
C  C54  1  0.25450000  0.84890000  0.50160000  1.0 0.1659954827
C  C55  1  0.16490000  0.68060000  0.30600000  1.0 0.7408017805
C  C56  1  0.18630000  0.72190000  0.35560000  1.0 0.0029011246
C  C57  1  0.23110000  0.80700000  0.45340000  1.0 0.1802021973
C  C58  1  0.49740000  0.00140000  0.72640000  1.0 0.1972256667
C  C59  1  0.57300000  0.87970000  0.73160000  1.0 -0.3367888862
C  C60  1  0.68500000  0.97900000  0.74150000  1.0 -0.2718936139
N  N1  1  0.08300000  0.45310000  0.76300000  1.0 0.1390026134
N  N2  1  0.41700000  0.95310000  0.26300000  1.0 0.1390026134
N  N3  1  0.91700000  0.45310000  0.23700000  1.0 0.1390026134
N  N4  1  0.58300000  0.95310000  0.73700000  1.0 0.1390026134
O  O1  1  0.75940000  0.49800000  0.70860000  1.0 -0.5393995776
O  O2  1  0.92080000  0.49370000  0.68030000  1.0 -0.4315073722
O  O3  1  0.58180000  0.18800000  0.32390000  1.0 -0.5393995776
O  O4  1  0.73670000  0.14290000  0.32370000  1.0 -0.5225720787
O  O5  1  0.75330000  0.49530000  0.82510000  1.0 -0.5042798304
O  O6  1  0.91610000  0.48720000  0.84470000  1.0 -0.4315073722
O  O7  1  0.57510000  0.18690000  0.20760000  1.0 -0.5393995776
O  O8  1  0.73220000  0.14560000  0.20800000  1.0 -0.4772589588
O  O9  1  0.92160000  0.56060000  0.76670000  1.0 -0.4401613259
O  O10  1  0.74060000  0.99800000  0.20860000  1.0 -0.5393995776
O  O11  1  0.57920000  0.99370000  0.18030000  1.0 -0.4315073722
O  O12  1  0.91820000  0.68800000  0.82390000  1.0 -0.5393995776
O  O13  1  0.76330000  0.64290000  0.82370000  1.0 -0.5225720787
O  O14  1  0.74670000  0.99530000  0.32510000  1.0 -0.5042798304
O  O15  1  0.58390000  0.98720000  0.34470000  1.0 -0.4315073722
O  O16  1  0.92490000  0.68690000  0.70760000  1.0 -0.5393995776
O  O17  1  0.76780000  0.64560000  0.70800000  1.0 -0.4772589588
O  O18  1  0.57840000  0.06060000  0.26670000  1.0 -0.4401613259
O  O19  1  0.24060000  0.49800000  0.29140000  1.0 -0.5393995776
O  O20  1  0.07920000  0.49370000  0.31970000  1.0 -0.4315073722
O  O21  1  0.41820000  0.18800000  0.67610000  1.0 -0.5393995776
O  O22  1  0.26330000  0.14290000  0.67630000  1.0 -0.5225720787
O  O23  1  0.24670000  0.49530000  0.17490000  1.0 -0.5042798304
O  O24  1  0.08390000  0.48720000  0.15530000  1.0 -0.4315073722
O  O25  1  0.42490000  0.18690000  0.79240000  1.0 -0.5393995776
O  O26  1  0.26780000  0.14560000  0.79200000  1.0 -0.4772589588
O  O27  1  0.07840000  0.56060000  0.23330000  1.0 -0.4401613259
O  O28  1  0.25940000  0.99800000  0.79140000  1.0 -0.5393995776
O  O29  1  0.42080000  0.99370000  0.81970000  1.0 -0.4315073722
O  O30  1  0.08180000  0.68800000  0.17610000  1.0 -0.5393995776
O  O31  1  0.23670000  0.64290000  0.17630000  1.0 -0.5225720787
O  O32  1  0.25330000  0.99530000  0.67490000  1.0 -0.5042798304
O  O33  1  0.41610000  0.98720000  0.65530000  1.0 -0.4315073722
O  O34  1  0.07510000  0.68690000  0.29240000  1.0 -0.5393995776
O  O35  1  0.23220000  0.64560000  0.29200000  1.0 -0.4772589588
O  O36  1  0.42160000  0.06060000  0.73330000  1.0 -0.4401613259
