# DDEC6 charges by PACMAN v1.1 (https://github.com/mtap-research/PACMAN-charge/)
data_DIBQUC_FSR_pacman
_symmetry_space_group_name_H-M   'P 1'
_cell_length_a   17.56400000
_cell_length_b   20.80000000
_cell_length_c   25.62900000
_cell_angle_alpha   90.00000000
_cell_angle_beta   90.00000000
_cell_angle_gamma   90.00000000
_symmetry_Int_Tables_number   1
_chemical_formula_structural   Co3H32C59(NO7)2
_chemical_formula_sum   'Co12 H128 C236 N8 O56'
_cell_volume   9363.07332480
_cell_formula_units_Z   4
loop_
 _symmetry_equiv_pos_site_id
 _symmetry_equiv_pos_as_xyz
  1  'x, y, z'
loop_
 _atom_site_type_symbol
 _atom_site_label
 _atom_site_symmetry_multiplicity
 _atom_site_fract_x
 _atom_site_fract_y
 _atom_site_fract_z
 _atom_site_occupancy
 _atom_site_charge
Co  Co1  1  0.00311000  0.43835000  0.18198000  1.0 1.0323002984
Co  Co2  1  0.49689000  0.93835000  0.81802000  1.0 1.0353279362
Co  Co3  1  0.00311000  0.43835000  0.31802000  1.0 1.0323002984
Co  Co4  1  0.49689000  0.93835000  0.68198000  1.0 1.0353279362
Co  Co5  1  0.11362000  0.33774000  0.25000000  1.0 1.0062732051
Co  Co6  1  0.38638000  0.83774000  0.75000000  1.0 1.0062732051
Co  Co7  1  0.99689000  0.56165000  0.68198000  1.0 1.0323002984
Co  Co8  1  0.50311000  0.06165000  0.31802000  1.0 1.0323002984
Co  Co9  1  0.99689000  0.56165000  0.81802000  1.0 1.0323002984
Co  Co10  1  0.50311000  0.06165000  0.18198000  1.0 1.0323002984
Co  Co11  1  0.88638000  0.66226000  0.75000000  1.0 1.0062732051
Co  Co12  1  0.61362000  0.16226000  0.25000000  1.0 1.0062732051
H  H1  1  0.74520000  0.46910000  0.18930000  1.0 0.1298376813
H  H2  1  0.75480000  0.96910000  0.81070000  1.0 0.1298376813
H  H3  1  0.74520000  0.46910000  0.31070000  1.0 0.1298376813
H  H4  1  0.75480000  0.96910000  0.68930000  1.0 0.1298376813
H  H5  1  0.62600000  0.50200000  0.16420000  1.0 0.1180298293
H  H6  1  0.87400000  0.00200000  0.83580000  1.0 0.1180298293
H  H7  1  0.62600000  0.50200000  0.33580000  1.0 0.1180298293
H  H8  1  0.87400000  0.00200000  0.66420000  1.0 0.1180298293
H  H9  1  0.71210000  0.53970000  0.02320000  1.0 0.112008818
H  H10  1  0.78790000  0.03970000  0.97680000  1.0 0.112008818
H  H11  1  0.71210000  0.53970000  0.47680000  1.0 0.112008818
H  H12  1  0.78790000  0.03970000  0.52320000  1.0 0.112008818
H  H13  1  0.83040000  0.50410000  0.05600000  1.0 0.1298376813
H  H14  1  0.66960000  0.00410000  0.94400000  1.0 0.1298376813
H  H15  1  0.83040000  0.50410000  0.44400000  1.0 0.1298376813
H  H16  1  0.66960000  0.00410000  0.55600000  1.0 0.1298376813
H  H17  1  0.18920000  0.53670000  0.10990000  1.0 0.1298376813
H  H18  1  0.31080000  0.03670000  0.89010000  1.0 0.1298376813
H  H19  1  0.18920000  0.53670000  0.39010000  1.0 0.1298376813
H  H20  1  0.31080000  0.03670000  0.60990000  1.0 0.1298376813
H  H21  1  0.30120000  0.58500000  0.07790000  1.0 0.1180298293
H  H22  1  0.19880000  0.08500000  0.92210000  1.0 0.1180298293
H  H23  1  0.30120000  0.58500000  0.42210000  1.0 0.1180298293
H  H24  1  0.19880000  0.08500000  0.57790000  1.0 0.1180298293
H  H25  1  0.41570000  0.42770000  0.12200000  1.0 0.1180298293
H  H26  1  0.08430000  0.92770000  0.87800000  1.0 0.1180298293
H  H27  1  0.41570000  0.42770000  0.37800000  1.0 0.1180298293
H  H28  1  0.08430000  0.92770000  0.62200000  1.0 0.1180298293
H  H29  1  0.30530000  0.38600000  0.15810000  1.0 0.1180298293
H  H30  1  0.19470000  0.88600000  0.84190000  1.0 0.1180298293
H  H31  1  0.30530000  0.38600000  0.34190000  1.0 0.1180298293
H  H32  1  0.19470000  0.88600000  0.65810000  1.0 0.1180298293
H  H33  1  0.57140000  0.79040000  0.92690000  1.0 0.1298376813
H  H34  1  0.92860000  0.29040000  0.07310000  1.0 0.1298376813
H  H35  1  0.57140000  0.79040000  0.57310000  1.0 0.1298376813
H  H36  1  0.92860000  0.29040000  0.42690000  1.0 0.1298376813
H  H37  1  0.57990000  0.71800000  0.99150000  1.0 0.1180298293
H  H38  1  0.92010000  0.21800000  0.00850000  1.0 0.1180298293
H  H39  1  0.57990000  0.71800000  0.50850000  1.0 0.1180298293
H  H40  1  0.92010000  0.21800000  0.49150000  1.0 0.1180298293
H  H41  1  0.41090000  0.61250000  0.92390000  1.0 0.112008818
H  H42  1  0.08910000  0.11250000  0.07610000  1.0 0.112008818
H  H43  1  0.41090000  0.61250000  0.57610000  1.0 0.112008818
H  H44  1  0.08910000  0.11250000  0.42390000  1.0 0.112008818
H  H45  1  0.40330000  0.68920000  0.86140000  1.0 0.112008818
H  H46  1  0.09670000  0.18920000  0.13860000  1.0 0.112008818
H  H47  1  0.40330000  0.68920000  0.63860000  1.0 0.112008818
H  H48  1  0.09670000  0.18920000  0.36140000  1.0 0.112008818
H  H49  1  0.51750000  0.49060000  0.11730000  1.0 0.112008818
H  H50  1  0.98250000  0.99060000  0.88270000  1.0 0.112008818
H  H51  1  0.51750000  0.49060000  0.38270000  1.0 0.112008818
H  H52  1  0.98250000  0.99060000  0.61730000  1.0 0.112008818
H  H53  1  0.38970000  0.58740000  0.01720000  1.0 0.112008818
H  H54  1  0.11030000  0.08740000  0.98280000  1.0 0.112008818
H  H55  1  0.38970000  0.58740000  0.48280000  1.0 0.112008818
H  H56  1  0.11030000  0.08740000  0.51720000  1.0 0.112008818
H  H57  1  0.61760000  0.60450000  0.01620000  1.0 0.1180298293
H  H58  1  0.88240000  0.10450000  0.98380000  1.0 0.1180298293
H  H59  1  0.61760000  0.60450000  0.48380000  1.0 0.1180298293
H  H60  1  0.88240000  0.10450000  0.51620000  1.0 0.1180298293
H  H61  1  0.20200000  0.26840000  0.17440000  1.0 0.1374897758
H  H62  1  0.29800000  0.76840000  0.82560000  1.0 0.1374897758
H  H63  1  0.20200000  0.26840000  0.32560000  1.0 0.1374897758
H  H64  1  0.29800000  0.76840000  0.67440000  1.0 0.1374897758
H  H65  1  0.25480000  0.53090000  0.68930000  1.0 0.1298376813
H  H66  1  0.24520000  0.03090000  0.31070000  1.0 0.1298376813
H  H67  1  0.25480000  0.53090000  0.81070000  1.0 0.1298376813
H  H68  1  0.24520000  0.03090000  0.18930000  1.0 0.1298376813
H  H69  1  0.37400000  0.49800000  0.66420000  1.0 0.1180298293
H  H70  1  0.12600000  0.99800000  0.33580000  1.0 0.1180298293
H  H71  1  0.37400000  0.49800000  0.83580000  1.0 0.1180298293
H  H72  1  0.12600000  0.99800000  0.16420000  1.0 0.1180298293
H  H73  1  0.28790000  0.46030000  0.52320000  1.0 0.112008818
H  H74  1  0.21210000  0.96030000  0.47680000  1.0 0.112008818
H  H75  1  0.28790000  0.46030000  0.97680000  1.0 0.112008818
H  H76  1  0.21210000  0.96030000  0.02320000  1.0 0.112008818
H  H77  1  0.16960000  0.49590000  0.55600000  1.0 0.1298376813
H  H78  1  0.33040000  0.99590000  0.44400000  1.0 0.1298376813
H  H79  1  0.16960000  0.49590000  0.94400000  1.0 0.1298376813
H  H80  1  0.33040000  0.99590000  0.05600000  1.0 0.1298376813
H  H81  1  0.81080000  0.46330000  0.60990000  1.0 0.1298376813
H  H82  1  0.68920000  0.96330000  0.39010000  1.0 0.1298376813
H  H83  1  0.81080000  0.46330000  0.89010000  1.0 0.1298376813
H  H84  1  0.68920000  0.96330000  0.10990000  1.0 0.1298376813
H  H85  1  0.69880000  0.41500000  0.57790000  1.0 0.1180298293
H  H86  1  0.80120000  0.91500000  0.42210000  1.0 0.1180298293
H  H87  1  0.69880000  0.41500000  0.92210000  1.0 0.1180298293
H  H88  1  0.80120000  0.91500000  0.07790000  1.0 0.1180298293
H  H89  1  0.58430000  0.57230000  0.62200000  1.0 0.1180298293
H  H90  1  0.91570000  0.07230000  0.37800000  1.0 0.1180298293
H  H91  1  0.58430000  0.57230000  0.87800000  1.0 0.1180298293
H  H92  1  0.91570000  0.07230000  0.12200000  1.0 0.1180298293
H  H93  1  0.69470000  0.61400000  0.65810000  1.0 0.1180298293
H  H94  1  0.80530000  0.11400000  0.34190000  1.0 0.1180298293
H  H95  1  0.69470000  0.61400000  0.84190000  1.0 0.1180298293
H  H96  1  0.80530000  0.11400000  0.15810000  1.0 0.1180298293
H  H97  1  0.42860000  0.20960000  0.42690000  1.0 0.1298376813
H  H98  1  0.07140000  0.70960000  0.57310000  1.0 0.1298376813
H  H99  1  0.42860000  0.20960000  0.07310000  1.0 0.1298376813
H  H100  1  0.07140000  0.70960000  0.92690000  1.0 0.1298376813
H  H101  1  0.42010000  0.28200000  0.49150000  1.0 0.1180298293
H  H102  1  0.07990000  0.78200000  0.50850000  1.0 0.1180298293
H  H103  1  0.42010000  0.28200000  0.00850000  1.0 0.1180298293
H  H104  1  0.07990000  0.78200000  0.99150000  1.0 0.1180298293
H  H105  1  0.58910000  0.38750000  0.42390000  1.0 0.112008818
H  H106  1  0.91090000  0.88750000  0.57610000  1.0 0.112008818
H  H107  1  0.58910000  0.38750000  0.07610000  1.0 0.112008818
H  H108  1  0.91090000  0.88750000  0.92390000  1.0 0.112008818
H  H109  1  0.59670000  0.31080000  0.36140000  1.0 0.112008818
H  H110  1  0.90330000  0.81080000  0.63860000  1.0 0.112008818
H  H111  1  0.59670000  0.31080000  0.13860000  1.0 0.112008818
H  H112  1  0.90330000  0.81080000  0.86140000  1.0 0.112008818
H  H113  1  0.48250000  0.50940000  0.61730000  1.0 0.112008818
H  H114  1  0.01750000  0.00940000  0.38270000  1.0 0.112008818
H  H115  1  0.48250000  0.50940000  0.88270000  1.0 0.112008818
H  H116  1  0.01750000  0.00940000  0.11730000  1.0 0.112008818
H  H117  1  0.61030000  0.41260000  0.51720000  1.0 0.112008818
H  H118  1  0.88970000  0.91260000  0.48280000  1.0 0.112008818
H  H119  1  0.61030000  0.41260000  0.98280000  1.0 0.112008818
H  H120  1  0.88970000  0.91260000  0.01720000  1.0 0.112008818
H  H121  1  0.38240000  0.39550000  0.51620000  1.0 0.1180298293
H  H122  1  0.11760000  0.89550000  0.48380000  1.0 0.1180298293
H  H123  1  0.38240000  0.39550000  0.98380000  1.0 0.1180298293
H  H124  1  0.11760000  0.89550000  0.01620000  1.0 0.1180298293
H  H125  1  0.79800000  0.73160000  0.67440000  1.0 0.1374897758
H  H126  1  0.70200000  0.23160000  0.32560000  1.0 0.1374897758
H  H127  1  0.79800000  0.73160000  0.82560000  1.0 0.1374897758
H  H128  1  0.70200000  0.23160000  0.17440000  1.0 0.1374897758
C  C1  1  0.87970000  0.47320000  0.14860000  1.0 0.5040646146
C  C2  1  0.62030000  0.97320000  0.85140000  1.0 0.5054626713
C  C3  1  0.87970000  0.47320000  0.35140000  1.0 0.5040646146
C  C4  1  0.62030000  0.97320000  0.64860000  1.0 0.5054626713
C  C5  1  0.79920000  0.49030000  0.12770000  1.0 0.007444687
C  C6  1  0.70080000  0.99030000  0.87230000  1.0 0.007444687
C  C7  1  0.79920000  0.49030000  0.37230000  1.0 0.007444687
C  C8  1  0.70080000  0.99030000  0.62770000  1.0 0.007444687
C  C9  1  0.73940000  0.48610000  0.15600000  1.0 -0.1040738572
C  C10  1  0.76060000  0.98610000  0.84400000  1.0 -0.1040738572
C  C11  1  0.73940000  0.48610000  0.34400000  1.0 -0.1040738572
C  C12  1  0.76060000  0.98610000  0.65600000  1.0 -0.1040738572
C  C13  1  0.66680000  0.50480000  0.14120000  1.0 -0.1498199278
C  C14  1  0.83320000  0.00480000  0.85880000  1.0 -0.1449164053
C  C15  1  0.66680000  0.50480000  0.35880000  1.0 -0.1498199278
C  C16  1  0.83320000  0.00480000  0.64120000  1.0 -0.1498199278
C  C17  1  0.65760000  0.52730000  0.09210000  1.0 0.0707873979
C  C18  1  0.84240000  0.02730000  0.90790000  1.0 0.0707873979
C  C19  1  0.65760000  0.52730000  0.40790000  1.0 0.0707873979
C  C20  1  0.84240000  0.02730000  0.59210000  1.0 0.0707873979
C  C21  1  0.71760000  0.52710000  0.05780000  1.0 -0.1498199278
C  C22  1  0.78240000  0.02710000  0.94220000  1.0 -0.1581655145
C  C23  1  0.71760000  0.52710000  0.44220000  1.0 -0.1498199278
C  C24  1  0.78240000  0.02710000  0.55780000  1.0 -0.1498199278
C  C25  1  0.78890000  0.50630000  0.07850000  1.0 -0.1079956327
C  C26  1  0.71110000  0.00630000  0.92150000  1.0 -0.1079956327
C  C27  1  0.78890000  0.50630000  0.42150000  1.0 -0.1079956327
C  C28  1  0.71110000  0.00630000  0.57850000  1.0 -0.1079956327
C  C29  1  0.16870000  0.42770000  0.16970000  1.0 0.5644795547
C  C30  1  0.33130000  0.92770000  0.83030000  1.0 0.5644795547
C  C31  1  0.16870000  0.42770000  0.33030000  1.0 0.5644795547
C  C32  1  0.33130000  0.92770000  0.66970000  1.0 0.5644795547
C  C33  1  0.23800000  0.46310000  0.14120000  1.0 -0.0004540866
C  C34  1  0.26200000  0.96310000  0.85880000  1.0 -0.0004540866
C  C35  1  0.23800000  0.46310000  0.35880000  1.0 -0.0004540866
C  C36  1  0.26200000  0.96310000  0.64120000  1.0 -0.0004540866
C  C37  1  0.23580000  0.51620000  0.11470000  1.0 -0.0883582806
C  C38  1  0.26420000  0.01620000  0.88530000  1.0 -0.0883582806
C  C39  1  0.23580000  0.51620000  0.38530000  1.0 -0.0883582806
C  C40  1  0.26420000  0.01620000  0.61470000  1.0 -0.0883582806
C  C41  1  0.30250000  0.54410000  0.09260000  1.0 -0.1498199278
C  C42  1  0.19750000  0.04410000  0.90740000  1.0 -0.1498199278
C  C43  1  0.30250000  0.54410000  0.40740000  1.0 -0.1498199278
C  C44  1  0.19750000  0.04410000  0.59260000  1.0 -0.1498199278
C  C45  1  0.37030000  0.50840000  0.09380000  1.0 0.0707873979
C  C46  1  0.12970000  0.00840000  0.90620000  1.0 0.0707873979
C  C47  1  0.37030000  0.50840000  0.40620000  1.0 0.0707873979
C  C48  1  0.12970000  0.00840000  0.59380000  1.0 0.0707873979
C  C49  1  0.37060000  0.45090000  0.11960000  1.0 -0.1498199278
C  C50  1  0.12940000  0.95090000  0.88040000  1.0 -0.1498199278
C  C51  1  0.37060000  0.45090000  0.38040000  1.0 -0.1498199278
C  C52  1  0.12940000  0.95090000  0.61960000  1.0 -0.1498199278
C  C53  1  0.30490000  0.42630000  0.14230000  1.0 -0.1040738572
C  C54  1  0.19510000  0.92630000  0.85770000  1.0 -0.1079956327
C  C55  1  0.30490000  0.42630000  0.35770000  1.0 -0.1040738572
C  C56  1  0.19510000  0.92630000  0.64230000  1.0 -0.1079956327
C  C57  1  0.47570000  0.79700000  0.84670000  1.0 0.59543402
C  C58  1  0.02430000  0.29700000  0.15330000  1.0 0.59543402
C  C59  1  0.47570000  0.79700000  0.65330000  1.0 0.59543402
C  C60  1  0.02430000  0.29700000  0.34670000  1.0 0.59543402
C  C61  1  0.48450000  0.74650000  0.88600000  1.0 -0.0511200663
C  C62  1  0.01550000  0.24650000  0.11400000  1.0 -0.0511200663
C  C63  1  0.48450000  0.74650000  0.61400000  1.0 -0.0511200663
C  C64  1  0.01550000  0.24650000  0.38600000  1.0 -0.0511200663
C  C65  1  0.53940000  0.75470000  0.92690000  1.0 -0.0836707445
C  C66  1  0.96060000  0.25470000  0.07310000  1.0 -0.0836707445
C  C67  1  0.53940000  0.75470000  0.57310000  1.0 -0.0836707445
C  C68  1  0.96060000  0.25470000  0.42690000  1.0 -0.0836707445
C  C69  1  0.54460000  0.71110000  0.96510000  1.0 -0.1498199278
C  C70  1  0.95540000  0.21110000  0.03490000  1.0 -0.1498199278
C  C71  1  0.54460000  0.71110000  0.53490000  1.0 -0.1498199278
C  C72  1  0.95540000  0.21110000  0.46510000  1.0 -0.1498199278
C  C73  1  0.49860000  0.65400000  0.96760000  1.0 0.0707873979
C  C74  1  0.00140000  0.15400000  0.03240000  1.0 0.0707873979
C  C75  1  0.49860000  0.65400000  0.53240000  1.0 0.0707873979
C  C76  1  0.00140000  0.15400000  0.46760000  1.0 0.0707873979
C  C77  1  0.44330000  0.64780000  0.92520000  1.0 -0.1581655145
C  C78  1  0.05670000  0.14780000  0.07480000  1.0 -0.1581655145
C  C79  1  0.44330000  0.64780000  0.57480000  1.0 -0.1581655145
C  C80  1  0.05670000  0.14780000  0.42520000  1.0 -0.1581655145
C  C81  1  0.43950000  0.69410000  0.88760000  1.0 -0.0883582806
C  C82  1  0.06050000  0.19410000  0.11240000  1.0 -0.0883582806
C  C83  1  0.43950000  0.69410000  0.61240000  1.0 -0.0883582806
C  C84  1  0.06050000  0.19410000  0.38760000  1.0 -0.0883582806
C  C85  1  0.57910000  0.54670000  0.07020000  1.0 0.0882041882
C  C86  1  0.92090000  0.04670000  0.92980000  1.0 0.0882041882
C  C87  1  0.57910000  0.54670000  0.42980000  1.0 0.0882041882
C  C88  1  0.92090000  0.04670000  0.57020000  1.0 0.0882041882
C  C89  1  0.51350000  0.52040000  0.09040000  1.0 -0.2109125231
C  C90  1  0.98650000  0.02040000  0.90960000  1.0 -0.2109125231
C  C91  1  0.51350000  0.52040000  0.40960000  1.0 -0.2109125231
C  C92  1  0.98650000  0.02040000  0.59040000  1.0 -0.2109125231
C  C93  1  0.44050000  0.53680000  0.07180000  1.0 0.0834438251
C  C94  1  0.05950000  0.03680000  0.92820000  1.0 0.0882041882
C  C95  1  0.44050000  0.53680000  0.42820000  1.0 0.0834438251
C  C96  1  0.05950000  0.03680000  0.57180000  1.0 0.0882041882
C  C97  1  0.43700000  0.57820000  0.03160000  1.0 -0.1921174995
C  C98  1  0.06300000  0.07820000  0.96840000  1.0 -0.1921174995
C  C99  1  0.43700000  0.57820000  0.46840000  1.0 -0.1921174995
C  C100  1  0.06300000  0.07820000  0.53160000  1.0 -0.1921174995
C  C101  1  0.50360000  0.60900000  0.00960000  1.0 0.0707873979
C  C102  1  0.99640000  0.10900000  0.99040000  1.0 0.0707873979
C  C103  1  0.50360000  0.60900000  0.49040000  1.0 0.0707873979
C  C104  1  0.99640000  0.10900000  0.50960000  1.0 0.0707873979
C  C105  1  0.57300000  0.58830000  0.03070000  1.0 -0.1921174995
C  C106  1  0.92700000  0.08830000  0.96930000  1.0 -0.1921174995
C  C107  1  0.57300000  0.58830000  0.46930000  1.0 -0.1921174995
C  C108  1  0.92700000  0.08830000  0.53070000  1.0 -0.1921174995
C  C109  1  0.22680000  0.25190000  0.20360000  1.0 0.060607922
C  C110  1  0.27320000  0.75190000  0.79640000  1.0 0.060607922
C  C111  1  0.22680000  0.25190000  0.29640000  1.0 0.060607922
C  C112  1  0.27320000  0.75190000  0.70360000  1.0 0.060607922
C  C113  1  0.31200000  0.18600000  0.25000000  1.0 0.112008818
C  C114  1  0.18800000  0.68600000  0.75000000  1.0 0.112008818
C  C115  1  0.28130000  0.20010000  0.13340000  1.0 -0.0836707445
C  C116  1  0.21870000  0.70010000  0.86660000  1.0 -0.0836707445
C  C117  1  0.28130000  0.20010000  0.36660000  1.0 -0.0836707445
C  C118  1  0.21870000  0.70010000  0.63340000  1.0 -0.0836707445
C  C119  1  0.12030000  0.52680000  0.64860000  1.0 0.5054626713
C  C120  1  0.37970000  0.02680000  0.35140000  1.0 0.5040646146
C  C121  1  0.12030000  0.52680000  0.85140000  1.0 0.5054626713
C  C122  1  0.37970000  0.02680000  0.14860000  1.0 0.5040646146
C  C123  1  0.20080000  0.50970000  0.62770000  1.0 0.007444687
C  C124  1  0.29920000  0.00970000  0.37230000  1.0 0.007444687
C  C125  1  0.20080000  0.50970000  0.87230000  1.0 0.007444687
C  C126  1  0.29920000  0.00970000  0.12770000  1.0 0.007444687
C  C127  1  0.26060000  0.51390000  0.65600000  1.0 -0.1040738572
C  C128  1  0.23940000  0.01390000  0.34400000  1.0 -0.1040738572
C  C129  1  0.26060000  0.51390000  0.84400000  1.0 -0.1040738572
C  C130  1  0.23940000  0.01390000  0.15600000  1.0 -0.1040738572
C  C131  1  0.33320000  0.49520000  0.64120000  1.0 -0.1498199278
C  C132  1  0.16680000  0.99520000  0.35880000  1.0 -0.1498199278
C  C133  1  0.33320000  0.49520000  0.85880000  1.0 -0.1498199278
C  C134  1  0.16680000  0.99520000  0.14120000  1.0 -0.1498199278
C  C135  1  0.34240000  0.47270000  0.59210000  1.0 0.0707873979
C  C136  1  0.15760000  0.97270000  0.40790000  1.0 0.0707873979
C  C137  1  0.34240000  0.47270000  0.90790000  1.0 0.0707873979
C  C138  1  0.15760000  0.97270000  0.09210000  1.0 0.0707873979
C  C139  1  0.28240000  0.47290000  0.55780000  1.0 -0.1581655145
C  C140  1  0.21760000  0.97290000  0.44220000  1.0 -0.1581655145
C  C141  1  0.28240000  0.47290000  0.94220000  1.0 -0.1581655145
C  C142  1  0.21760000  0.97290000  0.05780000  1.0 -0.1498199278
C  C143  1  0.21110000  0.49370000  0.57850000  1.0 -0.1079956327
C  C144  1  0.28890000  0.99370000  0.42150000  1.0 -0.1079956327
C  C145  1  0.21110000  0.49370000  0.92150000  1.0 -0.1079956327
C  C146  1  0.28890000  0.99370000  0.07850000  1.0 -0.1079956327
C  C147  1  0.83130000  0.57230000  0.66970000  1.0 0.5644795547
C  C148  1  0.66870000  0.07230000  0.33030000  1.0 0.5644795547
C  C149  1  0.83130000  0.57230000  0.83030000  1.0 0.5644795547
C  C150  1  0.66870000  0.07230000  0.16970000  1.0 0.5644795547
C  C151  1  0.76200000  0.53690000  0.64120000  1.0 -0.0004540866
C  C152  1  0.73800000  0.03690000  0.35880000  1.0 -0.0004540866
C  C153  1  0.76200000  0.53690000  0.85880000  1.0 -0.0004540866
C  C154  1  0.73800000  0.03690000  0.14120000  1.0 -0.0004540866
C  C155  1  0.76420000  0.48380000  0.61470000  1.0 -0.0883582806
C  C156  1  0.73580000  0.98380000  0.38530000  1.0 -0.0883582806
C  C157  1  0.76420000  0.48380000  0.88530000  1.0 -0.0883582806
C  C158  1  0.73580000  0.98380000  0.11470000  1.0 -0.0883582806
C  C159  1  0.69750000  0.45590000  0.59260000  1.0 -0.1498199278
C  C160  1  0.80250000  0.95590000  0.40740000  1.0 -0.1498199278
C  C161  1  0.69750000  0.45590000  0.90740000  1.0 -0.1498199278
C  C162  1  0.80250000  0.95590000  0.09260000  1.0 -0.1498199278
C  C163  1  0.62970000  0.49160000  0.59380000  1.0 0.0707873979
C  C164  1  0.87030000  0.99160000  0.40620000  1.0 0.0707873979
C  C165  1  0.62970000  0.49160000  0.90620000  1.0 0.0707873979
C  C166  1  0.87030000  0.99160000  0.09380000  1.0 0.0707873979
C  C167  1  0.62940000  0.54910000  0.61960000  1.0 -0.1498199278
C  C168  1  0.87060000  0.04910000  0.38040000  1.0 -0.1498199278
C  C169  1  0.62940000  0.54910000  0.88040000  1.0 -0.1498199278
C  C170  1  0.87060000  0.04910000  0.11960000  1.0 -0.1498199278
C  C171  1  0.69510000  0.57370000  0.64230000  1.0 -0.1040738572
C  C172  1  0.80490000  0.07370000  0.35770000  1.0 -0.1040738572
C  C173  1  0.69510000  0.57370000  0.85770000  1.0 -0.1040738572
C  C174  1  0.80490000  0.07370000  0.14230000  1.0 -0.1040738572
C  C175  1  0.52430000  0.20300000  0.34670000  1.0 0.59543402
C  C176  1  0.97570000  0.70300000  0.65330000  1.0 0.59543402
C  C177  1  0.52430000  0.20300000  0.15330000  1.0 0.59543402
C  C178  1  0.97570000  0.70300000  0.84670000  1.0 0.59543402
C  C179  1  0.51550000  0.25350000  0.38600000  1.0 -0.0511200663
C  C180  1  0.98450000  0.75350000  0.61400000  1.0 -0.0511200663
C  C181  1  0.51550000  0.25350000  0.11400000  1.0 -0.0511200663
C  C182  1  0.98450000  0.75350000  0.88600000  1.0 -0.0511200663
C  C183  1  0.46060000  0.24530000  0.42690000  1.0 -0.0836707445
C  C184  1  0.03940000  0.74530000  0.57310000  1.0 -0.0836707445
C  C185  1  0.46060000  0.24530000  0.07310000  1.0 -0.0836707445
C  C186  1  0.03940000  0.74530000  0.92690000  1.0 -0.0836707445
C  C187  1  0.45540000  0.28890000  0.46510000  1.0 -0.1498199278
C  C188  1  0.04460000  0.78890000  0.53490000  1.0 -0.1498199278
C  C189  1  0.45540000  0.28890000  0.03490000  1.0 -0.1498199278
C  C190  1  0.04460000  0.78890000  0.96510000  1.0 -0.1498199278
C  C191  1  0.50140000  0.34600000  0.46760000  1.0 0.0707873979
C  C192  1  0.99860000  0.84600000  0.53240000  1.0 0.0707873979
C  C193  1  0.50140000  0.34600000  0.03240000  1.0 0.0707873979
C  C194  1  0.99860000  0.84600000  0.96760000  1.0 0.0707873979
C  C195  1  0.55670000  0.35220000  0.42520000  1.0 -0.1581655145
C  C196  1  0.94330000  0.85220000  0.57480000  1.0 -0.1581655145
C  C197  1  0.55670000  0.35220000  0.07480000  1.0 -0.1581655145
C  C198  1  0.94330000  0.85220000  0.92520000  1.0 -0.1581655145
C  C199  1  0.56050000  0.30590000  0.38760000  1.0 -0.0883582806
C  C200  1  0.93950000  0.80590000  0.61240000  1.0 -0.0883582806
C  C201  1  0.56050000  0.30590000  0.11240000  1.0 -0.0883582806
C  C202  1  0.93950000  0.80590000  0.88760000  1.0 -0.0883582806
C  C203  1  0.42090000  0.45330000  0.57020000  1.0 0.0882041882
C  C204  1  0.07910000  0.95330000  0.42980000  1.0 0.0882041882
C  C205  1  0.42090000  0.45330000  0.92980000  1.0 0.0882041882
C  C206  1  0.07910000  0.95330000  0.07020000  1.0 0.0882041882
C  C207  1  0.48650000  0.47960000  0.59040000  1.0 -0.2109125231
C  C208  1  0.01350000  0.97960000  0.40960000  1.0 -0.2109125231
C  C209  1  0.48650000  0.47960000  0.90960000  1.0 -0.2109125231
C  C210  1  0.01350000  0.97960000  0.09040000  1.0 -0.2109125231
C  C211  1  0.55950000  0.46320000  0.57180000  1.0 0.0834438251
C  C212  1  0.94050000  0.96320000  0.42820000  1.0 0.0834438251
C  C213  1  0.55950000  0.46320000  0.92820000  1.0 0.0834438251
C  C214  1  0.94050000  0.96320000  0.07180000  1.0 0.0834438251
C  C215  1  0.56300000  0.42180000  0.53160000  1.0 -0.1921174995
C  C216  1  0.93700000  0.92180000  0.46840000  1.0 -0.1921174995
C  C217  1  0.56300000  0.42180000  0.96840000  1.0 -0.1921174995
C  C218  1  0.93700000  0.92180000  0.03160000  1.0 -0.1921174995
C  C219  1  0.49640000  0.39100000  0.50960000  1.0 0.0707873979
C  C220  1  0.00360000  0.89100000  0.49040000  1.0 0.0707873979
C  C221  1  0.49640000  0.39100000  0.99040000  1.0 0.0707873979
C  C222  1  0.00360000  0.89100000  0.00960000  1.0 0.0834438251
C  C223  1  0.42700000  0.41170000  0.53070000  1.0 -0.1921174995
C  C224  1  0.07300000  0.91170000  0.46930000  1.0 -0.1921174995
C  C225  1  0.42700000  0.41170000  0.96930000  1.0 -0.1921174995
C  C226  1  0.07300000  0.91170000  0.03070000  1.0 -0.1921174995
C  C227  1  0.77320000  0.74810000  0.70360000  1.0 0.060607922
C  C228  1  0.72680000  0.24810000  0.29640000  1.0 0.060607922
C  C229  1  0.77320000  0.74810000  0.79640000  1.0 0.060607922
C  C230  1  0.72680000  0.24810000  0.20360000  1.0 0.060607922
C  C231  1  0.68800000  0.81400000  0.75000000  1.0 0.112008818
C  C232  1  0.81200000  0.31400000  0.25000000  1.0 0.112008818
C  C233  1  0.71870000  0.79990000  0.63340000  1.0 -0.0836707445
C  C234  1  0.78130000  0.29990000  0.36660000  1.0 -0.0836707445
C  C235  1  0.71870000  0.79990000  0.86660000  1.0 -0.0836707445
C  C236  1  0.78130000  0.29990000  0.13340000  1.0 -0.0836707445
N  N1  1  0.28560000  0.20980000  0.19580000  1.0 0.024752584
N  N2  1  0.21440000  0.70980000  0.80420000  1.0 0.024752584
N  N3  1  0.28560000  0.20980000  0.30420000  1.0 0.024752584
N  N4  1  0.21440000  0.70980000  0.69580000  1.0 0.024752584
N  N5  1  0.71440000  0.79020000  0.69580000  1.0 0.024752584
N  N6  1  0.78560000  0.29020000  0.30420000  1.0 0.024752584
N  N7  1  0.71440000  0.79020000  0.80420000  1.0 0.024752584
N  N8  1  0.78560000  0.29020000  0.19580000  1.0 0.024752584
O  O1  1  0.01880000  0.39890000  0.25000000  1.0 -0.879257818
O  O2  1  0.48120000  0.89890000  0.75000000  1.0 -0.879257818
O  O3  1  0.93300000  0.48290000  0.12160000  1.0 -0.4183844601
O  O4  1  0.56700000  0.98290000  0.87840000  1.0 -0.4183844601
O  O5  1  0.93300000  0.48290000  0.37840000  1.0 -0.4183844601
O  O6  1  0.56700000  0.98290000  0.62160000  1.0 -0.4183844601
O  O7  1  0.88020000  0.44120000  0.18640000  1.0 -0.4183844601
O  O8  1  0.61980000  0.94120000  0.81360000  1.0 -0.4183844601
O  O9  1  0.88020000  0.44120000  0.31360000  1.0 -0.4183844601
O  O10  1  0.61980000  0.94120000  0.68640000  1.0 -0.4183844601
O  O11  1  0.17300000  0.38530000  0.19552000  1.0 -0.4292044093
O  O12  1  0.32700000  0.88530000  0.80448000  1.0 -0.4292044093
O  O13  1  0.17300000  0.38530000  0.30448000  1.0 -0.4292044093
O  O14  1  0.32700000  0.88530000  0.69552000  1.0 -0.4292044093
O  O15  1  0.10500000  0.46440000  0.15940000  1.0 -0.5840193182
O  O16  1  0.39500000  0.96440000  0.84060000  1.0 -0.5840193182
O  O17  1  0.10500000  0.46440000  0.34060000  1.0 -0.5840193182
O  O18  1  0.39500000  0.96440000  0.65940000  1.0 -0.5840193182
O  O19  1  0.43570000  0.78280000  0.80783000  1.0 -0.5484166046
O  O20  1  0.06430000  0.28280000  0.19217000  1.0 -0.5484166046
O  O21  1  0.43570000  0.78280000  0.69217000  1.0 -0.5484166046
O  O22  1  0.06430000  0.28280000  0.30783000  1.0 -0.5484166046
O  O23  1  0.50450000  0.85290000  0.85590000  1.0 -0.5382916083
O  O24  1  0.99550000  0.35290000  0.14410000  1.0 -0.5382916083
O  O25  1  0.50450000  0.85290000  0.64410000  1.0 -0.5382916083
O  O26  1  0.99550000  0.35290000  0.35590000  1.0 -0.5382916083
O  O27  1  0.20350000  0.27030000  0.25000000  1.0 -0.2721598644
O  O28  1  0.29650000  0.77030000  0.75000000  1.0 -0.2757354279
O  O29  1  0.98120000  0.60110000  0.75000000  1.0 -0.879257818
O  O30  1  0.51880000  0.10110000  0.25000000  1.0 -0.879257818
O  O31  1  0.06700000  0.51710000  0.62160000  1.0 -0.4183844601
O  O32  1  0.43300000  0.01710000  0.37840000  1.0 -0.4183844601
O  O33  1  0.06700000  0.51710000  0.87840000  1.0 -0.4183844601
O  O34  1  0.43300000  0.01710000  0.12160000  1.0 -0.4183844601
O  O35  1  0.11980000  0.55880000  0.68640000  1.0 -0.4183844601
O  O36  1  0.38020000  0.05880000  0.31360000  1.0 -0.4183844601
O  O37  1  0.11980000  0.55880000  0.81360000  1.0 -0.4183844601
O  O38  1  0.38020000  0.05880000  0.18640000  1.0 -0.4183844601
O  O39  1  0.82700000  0.61470000  0.69552000  1.0 -0.4292044093
O  O40  1  0.67300000  0.11470000  0.30448000  1.0 -0.4292044093
O  O41  1  0.82700000  0.61470000  0.80448000  1.0 -0.4292044093
O  O42  1  0.67300000  0.11470000  0.19552000  1.0 -0.4292044093
O  O43  1  0.89500000  0.53560000  0.65940000  1.0 -0.5851466407
O  O44  1  0.60500000  0.03560000  0.34060000  1.0 -0.5840193182
O  O45  1  0.89500000  0.53560000  0.84060000  1.0 -0.5851466407
O  O46  1  0.60500000  0.03560000  0.15940000  1.0 -0.5840193182
O  O47  1  0.56430000  0.21720000  0.30783000  1.0 -0.5484166046
O  O48  1  0.93570000  0.71720000  0.69217000  1.0 -0.5484166046
O  O49  1  0.56430000  0.21720000  0.19217000  1.0 -0.5484166046
O  O50  1  0.93570000  0.71720000  0.80783000  1.0 -0.5484166046
O  O51  1  0.49550000  0.14710000  0.35590000  1.0 -0.5382916083
O  O52  1  0.00450000  0.64710000  0.64410000  1.0 -0.5382916083
O  O53  1  0.49550000  0.14710000  0.14410000  1.0 -0.5382916083
O  O54  1  0.00450000  0.64710000  0.85590000  1.0 -0.5382916083
O  O55  1  0.79650000  0.72970000  0.75000000  1.0 -0.2721598644
O  O56  1  0.70350000  0.22970000  0.25000000  1.0 -0.2757354279
