# DDEC6 charges by PACMAN v1.1 (https://github.com/mtap-research/PACMAN-charge/)
data_DIBQOW_ASR_pacman
_symmetry_space_group_name_H-M   'P 1'
_cell_length_a   17.56080000
_cell_length_b   20.88040000
_cell_length_c   25.34740000
_cell_angle_alpha   90.00000000
_cell_angle_beta   90.00000000
_cell_angle_gamma   90.00000000
_symmetry_Int_Tables_number   1
_chemical_formula_structural   Co3H30(C27O7)2
_chemical_formula_sum   'Co12 H120 C216 O56'
_cell_volume   9294.29663394
_cell_formula_units_Z   4
loop_
 _symmetry_equiv_pos_site_id
 _symmetry_equiv_pos_as_xyz
  1  'x, y, z'
loop_
 _atom_site_type_symbol
 _atom_site_label
 _atom_site_symmetry_multiplicity
 _atom_site_fract_x
 _atom_site_fract_y
 _atom_site_fract_z
 _atom_site_occupancy
 _atom_site_charge
Co  Co1  1  0.49614000  0.93507000  0.18221000  1.0 1.0277783723
Co  Co2  1  0.00386000  0.43507000  0.81779000  1.0 1.0277783723
Co  Co3  1  0.49614000  0.93507000  0.31779000  1.0 1.0277783723
Co  Co4  1  0.00386000  0.43507000  0.68221000  1.0 1.0277783723
Co  Co5  1  0.38685000  0.83537000  0.25000000  1.0 1.055990562
Co  Co6  1  0.11315000  0.33537000  0.75000000  1.0 1.0534864517
Co  Co7  1  0.50386000  0.06493000  0.68221000  1.0 1.0277783723
Co  Co8  1  0.99614000  0.56493000  0.31779000  1.0 1.0245509
Co  Co9  1  0.50386000  0.06493000  0.81779000  1.0 1.0277783723
Co  Co10  1  0.99614000  0.56493000  0.18221000  1.0 1.0245509
Co  Co11  1  0.61315000  0.16463000  0.75000000  1.0 1.0534864517
Co  Co12  1  0.88685000  0.66463000  0.25000000  1.0 1.0534864517
H  H1  1  0.75630000  0.97040000  0.19150000  1.0 0.1297723603
H  H2  1  0.74370000  0.47040000  0.80850000  1.0 0.1297723603
H  H3  1  0.75630000  0.97040000  0.30850000  1.0 0.1297723603
H  H4  1  0.74370000  0.47040000  0.69150000  1.0 0.1297723603
H  H5  1  0.87580000  0.99910000  0.16420000  1.0 0.1183207267
H  H6  1  0.62420000  0.49910000  0.83580000  1.0 0.1183207267
H  H7  1  0.87580000  0.99910000  0.33580000  1.0 0.1183207267
H  H8  1  0.62420000  0.49910000  0.66420000  1.0 0.1183207267
H  H9  1  0.78580000  0.04290000  0.02590000  1.0 0.1183207267
H  H10  1  0.71420000  0.54290000  0.97410000  1.0 0.1183207267
H  H11  1  0.78580000  0.04290000  0.47410000  1.0 0.1183207267
H  H12  1  0.71420000  0.54290000  0.52590000  1.0 0.1183207267
H  H13  1  0.66900000  0.00550000  0.05340000  1.0 0.1386350916
H  H14  1  0.83100000  0.50550000  0.94660000  1.0 0.1386350916
H  H15  1  0.66900000  0.00550000  0.44660000  1.0 0.1386350916
H  H16  1  0.83100000  0.50550000  0.55340000  1.0 0.1386350916
H  H17  1  0.30710000  0.04150000  0.11660000  1.0 0.1183207267
H  H18  1  0.19290000  0.54150000  0.88340000  1.0 0.1183207267
H  H19  1  0.30710000  0.04150000  0.38340000  1.0 0.1183207267
H  H20  1  0.19290000  0.54150000  0.61660000  1.0 0.1183207267
H  H21  1  0.19590000  0.08300000  0.08210000  1.0 0.1183207267
H  H22  1  0.30410000  0.58300000  0.91790000  1.0 0.1183207267
H  H23  1  0.19590000  0.08300000  0.41790000  1.0 0.1183207267
H  H24  1  0.30410000  0.58300000  0.58210000  1.0 0.1183207267
H  H25  1  0.08430000  0.92600000  0.12240000  1.0 0.1183207267
H  H26  1  0.41570000  0.42600000  0.87760000  1.0 0.1183207267
H  H27  1  0.08430000  0.92600000  0.37760000  1.0 0.1183207267
H  H28  1  0.41570000  0.42600000  0.62240000  1.0 0.1183207267
H  H29  1  0.19240000  0.88760000  0.16250000  1.0 0.1297723603
H  H30  1  0.30760000  0.38760000  0.83750000  1.0 0.1297723603
H  H31  1  0.19240000  0.88760000  0.33750000  1.0 0.1297723603
H  H32  1  0.30760000  0.38760000  0.66250000  1.0 0.1297723603
H  H33  1  0.93150000  0.28870000  0.93050000  1.0 0.1297723603
H  H34  1  0.56850000  0.78870000  0.06950000  1.0 0.1297723603
H  H35  1  0.93150000  0.28870000  0.56950000  1.0 0.1297723603
H  H36  1  0.56850000  0.78870000  0.43050000  1.0 0.1297723603
H  H37  1  0.92040000  0.21600000  0.99430000  1.0 0.1183207267
H  H38  1  0.57960000  0.71600000  0.00570000  1.0 0.1183207267
H  H39  1  0.92040000  0.21600000  0.50570000  1.0 0.1183207267
H  H40  1  0.57960000  0.71600000  0.49430000  1.0 0.1183207267
H  H41  1  0.08800000  0.11030000  0.92990000  1.0 0.1111677532
H  H42  1  0.41200000  0.61030000  0.07010000  1.0 0.1111677532
H  H43  1  0.08800000  0.11030000  0.57010000  1.0 0.1111677532
H  H44  1  0.41200000  0.61030000  0.42990000  1.0 0.1111677532
H  H45  1  0.09430000  0.18490000  0.86150000  1.0 0.1183207267
H  H46  1  0.40570000  0.68490000  0.13850000  1.0 0.1183207267
H  H47  1  0.09430000  0.18490000  0.63850000  1.0 0.1183207267
H  H48  1  0.40570000  0.68490000  0.36150000  1.0 0.1183207267
H  H49  1  0.98290000  0.99150000  0.12090000  1.0 0.1183207267
H  H50  1  0.51710000  0.49150000  0.87910000  1.0 0.1183207267
H  H51  1  0.98290000  0.99150000  0.37910000  1.0 0.1183207267
H  H52  1  0.51710000  0.49150000  0.62090000  1.0 0.1183207267
H  H53  1  0.10890000  0.08970000  0.01890000  1.0 0.1183207267
H  H54  1  0.39110000  0.58970000  0.98110000  1.0 0.1183207267
H  H55  1  0.10890000  0.08970000  0.48110000  1.0 0.1183207267
H  H56  1  0.39110000  0.58970000  0.51890000  1.0 0.1183207267
H  H57  1  0.88060000  0.10660000  0.02020000  1.0 0.1183207267
H  H58  1  0.61940000  0.60660000  0.97980000  1.0 0.1183207267
H  H59  1  0.88060000  0.10660000  0.47980000  1.0 0.1183207267
H  H60  1  0.61940000  0.60660000  0.52020000  1.0 0.1183207267
H  H61  1  0.24370000  0.02960000  0.69150000  1.0 0.1297723603
H  H62  1  0.25630000  0.52960000  0.30850000  1.0 0.1297723603
H  H63  1  0.24370000  0.02960000  0.80850000  1.0 0.1297723603
H  H64  1  0.25630000  0.52960000  0.19150000  1.0 0.1297723603
H  H65  1  0.12420000  0.00090000  0.66420000  1.0 0.1183207267
H  H66  1  0.37580000  0.50090000  0.33580000  1.0 0.1183207267
H  H67  1  0.12420000  0.00090000  0.83580000  1.0 0.1183207267
H  H68  1  0.37580000  0.50090000  0.16420000  1.0 0.1183207267
H  H69  1  0.21420000  0.95710000  0.52590000  1.0 0.1183207267
H  H70  1  0.28580000  0.45710000  0.47410000  1.0 0.1183207267
H  H71  1  0.21420000  0.95710000  0.97410000  1.0 0.1183207267
H  H72  1  0.28580000  0.45710000  0.02590000  1.0 0.1183207267
H  H73  1  0.33100000  0.99450000  0.55340000  1.0 0.1386350916
H  H74  1  0.16900000  0.49450000  0.44660000  1.0 0.1386350916
H  H75  1  0.33100000  0.99450000  0.94660000  1.0 0.1386350916
H  H76  1  0.16900000  0.49450000  0.05340000  1.0 0.1386350916
H  H77  1  0.69290000  0.95850000  0.61660000  1.0 0.1183207267
H  H78  1  0.80710000  0.45850000  0.38340000  1.0 0.1183207267
H  H79  1  0.69290000  0.95850000  0.88340000  1.0 0.1183207267
H  H80  1  0.80710000  0.45850000  0.11660000  1.0 0.1183207267
H  H81  1  0.80410000  0.91700000  0.58210000  1.0 0.1183207267
H  H82  1  0.69590000  0.41700000  0.41790000  1.0 0.1183207267
H  H83  1  0.80410000  0.91700000  0.91790000  1.0 0.1183207267
H  H84  1  0.69590000  0.41700000  0.08210000  1.0 0.1183207267
H  H85  1  0.91570000  0.07400000  0.62240000  1.0 0.1183207267
H  H86  1  0.58430000  0.57400000  0.37760000  1.0 0.1183207267
H  H87  1  0.91570000  0.07400000  0.87760000  1.0 0.1183207267
H  H88  1  0.58430000  0.57400000  0.12240000  1.0 0.1183207267
H  H89  1  0.80760000  0.11240000  0.66250000  1.0 0.1297723603
H  H90  1  0.69240000  0.61240000  0.33750000  1.0 0.1297723603
H  H91  1  0.80760000  0.11240000  0.83750000  1.0 0.1297723603
H  H92  1  0.69240000  0.61240000  0.16250000  1.0 0.1297723603
H  H93  1  0.06850000  0.71130000  0.43050000  1.0 0.1297723603
H  H94  1  0.43150000  0.21130000  0.56950000  1.0 0.1297723603
H  H95  1  0.06850000  0.71130000  0.06950000  1.0 0.1297723603
H  H96  1  0.43150000  0.21130000  0.93050000  1.0 0.1297723603
H  H97  1  0.07960000  0.78400000  0.49430000  1.0 0.1183207267
H  H98  1  0.42040000  0.28400000  0.50570000  1.0 0.1183207267
H  H99  1  0.07960000  0.78400000  0.00570000  1.0 0.1183207267
H  H100  1  0.42040000  0.28400000  0.99430000  1.0 0.1183207267
H  H101  1  0.91200000  0.88970000  0.42990000  1.0 0.1111677532
H  H102  1  0.58800000  0.38970000  0.57010000  1.0 0.1111677532
H  H103  1  0.91200000  0.88970000  0.07010000  1.0 0.1111677532
H  H104  1  0.58800000  0.38970000  0.92990000  1.0 0.1111677532
H  H105  1  0.90570000  0.81510000  0.36150000  1.0 0.1183207267
H  H106  1  0.59430000  0.31510000  0.63850000  1.0 0.1183207267
H  H107  1  0.90570000  0.81510000  0.13850000  1.0 0.1183207267
H  H108  1  0.59430000  0.31510000  0.86150000  1.0 0.1183207267
H  H109  1  0.01710000  0.00850000  0.62090000  1.0 0.1183207267
H  H110  1  0.48290000  0.50850000  0.37910000  1.0 0.1183207267
H  H111  1  0.01710000  0.00850000  0.87910000  1.0 0.1183207267
H  H112  1  0.48290000  0.50850000  0.12090000  1.0 0.1183207267
H  H113  1  0.89110000  0.91030000  0.51890000  1.0 0.1183207267
H  H114  1  0.60890000  0.41030000  0.48110000  1.0 0.1183207267
H  H115  1  0.89110000  0.91030000  0.98110000  1.0 0.1183207267
H  H116  1  0.60890000  0.41030000  0.01890000  1.0 0.1183207267
H  H117  1  0.11940000  0.89340000  0.52020000  1.0 0.1183207267
H  H118  1  0.38060000  0.39340000  0.47980000  1.0 0.1183207267
H  H119  1  0.11940000  0.89340000  0.97980000  1.0 0.1183207267
H  H120  1  0.38060000  0.39340000  0.02020000  1.0 0.1183207267
C  C1  1  0.61440000  0.97150000  0.15480000  1.0 0.4909454213
C  C2  1  0.88560000  0.47150000  0.84520000  1.0 0.4909454213
C  C3  1  0.61440000  0.97150000  0.34520000  1.0 0.4909454213
C  C4  1  0.88560000  0.47150000  0.65480000  1.0 0.4909454213
C  C5  1  0.70140000  0.98770000  0.12670000  1.0 -0.0213005076
C  C6  1  0.79860000  0.48770000  0.87330000  1.0 -0.0213005076
C  C7  1  0.70140000  0.98770000  0.37330000  1.0 -0.0213005076
C  C8  1  0.79860000  0.48770000  0.62670000  1.0 -0.0213005076
C  C9  1  0.76250000  0.98510000  0.15710000  1.0 -0.1097697241
C  C10  1  0.73750000  0.48510000  0.84290000  1.0 -0.1097697241
C  C11  1  0.76250000  0.98510000  0.34290000  1.0 -0.1097697241
C  C12  1  0.73750000  0.48510000  0.65710000  1.0 -0.1097697241
C  C13  1  0.83440000  0.00260000  0.14150000  1.0 -0.1414604092
C  C14  1  0.66560000  0.50260000  0.85850000  1.0 -0.1414604092
C  C15  1  0.83440000  0.00260000  0.35850000  1.0 -0.1414604092
C  C16  1  0.66560000  0.50260000  0.64150000  1.0 -0.1414604092
C  C17  1  0.84260000  0.02440000  0.09360000  1.0 0.0572634101
C  C18  1  0.65740000  0.52440000  0.90640000  1.0 0.0572634101
C  C19  1  0.84260000  0.02440000  0.40640000  1.0 0.0572634101
C  C20  1  0.65740000  0.52440000  0.59360000  1.0 0.0572634101
C  C21  1  0.78000000  0.02700000  0.06000000  1.0 -0.1660274734
C  C22  1  0.72000000  0.52700000  0.94000000  1.0 -0.1660274734
C  C23  1  0.78000000  0.02700000  0.44000000  1.0 -0.1660274734
C  C24  1  0.72000000  0.52700000  0.56000000  1.0 -0.1660274734
C  C25  1  0.71000000  0.00640000  0.07660000  1.0 -0.088436348
C  C26  1  0.79000000  0.50640000  0.92340000  1.0 -0.088436348
C  C27  1  0.71000000  0.00640000  0.42340000  1.0 -0.088436348
C  C28  1  0.79000000  0.50640000  0.57660000  1.0 -0.088436348
C  C29  1  0.33280000  0.93140000  0.16960000  1.0 0.5675729068
C  C30  1  0.16720000  0.43140000  0.83040000  1.0 0.5675729068
C  C31  1  0.33280000  0.93140000  0.33040000  1.0 0.5675729068
C  C32  1  0.16720000  0.43140000  0.66960000  1.0 0.5675729068
C  C33  1  0.26140000  0.96050000  0.14190000  1.0 -0.0139694725
C  C34  1  0.23860000  0.46050000  0.85810000  1.0 -0.0139694725
C  C35  1  0.26140000  0.96050000  0.35810000  1.0 -0.0139694725
C  C36  1  0.23860000  0.46050000  0.64190000  1.0 -0.0139694725
C  C37  1  0.26220000  0.01800000  0.11840000  1.0 -0.088436348
C  C38  1  0.23780000  0.51800000  0.88160000  1.0 -0.088436348
C  C39  1  0.26220000  0.01800000  0.38160000  1.0 -0.088436348
C  C40  1  0.23780000  0.51800000  0.61840000  1.0 -0.088436348
C  C41  1  0.19570000  0.04220000  0.09680000  1.0 -0.1608285873
C  C42  1  0.30430000  0.54220000  0.90320000  1.0 -0.1660274734
C  C43  1  0.19570000  0.04220000  0.40320000  1.0 -0.1608285873
C  C44  1  0.30430000  0.54220000  0.59680000  1.0 -0.1660274734
C  C45  1  0.12850000  0.00650000  0.09660000  1.0 0.0675461368
C  C46  1  0.37150000  0.50650000  0.90340000  1.0 0.0790071797
C  C47  1  0.12850000  0.00650000  0.40340000  1.0 0.0675461368
C  C48  1  0.37150000  0.50650000  0.59660000  1.0 0.0790071797
C  C49  1  0.12880000  0.95010000  0.12110000  1.0 -0.1608285873
C  C50  1  0.37120000  0.45010000  0.87890000  1.0 -0.1608285873
C  C51  1  0.12880000  0.95010000  0.37890000  1.0 -0.1608285873
C  C52  1  0.37120000  0.45010000  0.62110000  1.0 -0.1608285873
C  C53  1  0.19390000  0.92650000  0.14470000  1.0 -0.088436348
C  C54  1  0.30610000  0.42650000  0.85530000  1.0 -0.088436348
C  C55  1  0.19390000  0.92650000  0.35530000  1.0 -0.088436348
C  C56  1  0.30610000  0.42650000  0.64470000  1.0 -0.088436348
C  C57  1  0.02600000  0.29470000  0.84800000  1.0 0.5880426915
C  C58  1  0.47400000  0.79470000  0.15200000  1.0 0.5880426915
C  C59  1  0.02600000  0.29470000  0.65200000  1.0 0.5880426915
C  C60  1  0.47400000  0.79470000  0.34800000  1.0 0.5880426915
C  C61  1  0.01550000  0.24590000  0.88880000  1.0 -0.0478982845
C  C62  1  0.48450000  0.74590000  0.11120000  1.0 -0.0478982845
C  C63  1  0.01550000  0.24590000  0.61120000  1.0 -0.0478982845
C  C64  1  0.48450000  0.74590000  0.38880000  1.0 -0.0478982845
C  C65  1  0.96270000  0.25260000  0.92980000  1.0 -0.0778541303
C  C66  1  0.53730000  0.75260000  0.07020000  1.0 -0.0778541303
C  C67  1  0.96270000  0.25260000  0.57020000  1.0 -0.0778541303
C  C68  1  0.53730000  0.75260000  0.42980000  1.0 -0.0778541303
C  C69  1  0.95570000  0.20920000  0.96750000  1.0 -0.1414604092
C  C70  1  0.54430000  0.70920000  0.03250000  1.0 -0.1414604092
C  C71  1  0.95570000  0.20920000  0.53250000  1.0 -0.1414604092
C  C72  1  0.54430000  0.70920000  0.46750000  1.0 -0.1414604092
C  C73  1  0.00120000  0.15210000  0.96830000  1.0 0.0675461368
C  C74  1  0.49880000  0.65210000  0.03170000  1.0 0.0675461368
C  C75  1  0.00120000  0.15210000  0.53170000  1.0 0.0675461368
C  C76  1  0.49880000  0.65210000  0.46830000  1.0 0.0675461368
C  C77  1  0.05500000  0.14510000  0.92950000  1.0 -0.1761527358
C  C78  1  0.44500000  0.64510000  0.07050000  1.0 -0.1761527358
C  C79  1  0.05500000  0.14510000  0.57050000  1.0 -0.1761527358
C  C80  1  0.44500000  0.64510000  0.42950000  1.0 -0.1761527358
C  C81  1  0.06000000  0.19140000  0.88890000  1.0 -0.088436348
C  C82  1  0.44000000  0.69140000  0.11110000  1.0 -0.088436348
C  C83  1  0.06000000  0.19140000  0.61110000  1.0 -0.088436348
C  C84  1  0.44000000  0.69140000  0.38890000  1.0 -0.088436348
C  C85  1  0.92130000  0.04490000  0.07300000  1.0 0.0913239756
C  C86  1  0.57870000  0.54490000  0.92700000  1.0 0.0913239756
C  C87  1  0.92130000  0.04490000  0.42700000  1.0 0.0913239756
C  C88  1  0.57870000  0.54490000  0.57300000  1.0 0.0913239756
C  C89  1  0.98600000  0.02050000  0.09310000  1.0 -0.1923833637
C  C90  1  0.51400000  0.52050000  0.90690000  1.0 -0.1923833637
C  C91  1  0.98600000  0.02050000  0.40690000  1.0 -0.1923833637
C  C92  1  0.51400000  0.52050000  0.59310000  1.0 -0.1923833637
C  C93  1  0.05620000  0.03680000  0.07400000  1.0 0.0913239756
C  C94  1  0.44380000  0.53680000  0.92600000  1.0 0.0913239756
C  C95  1  0.05620000  0.03680000  0.42600000  1.0 0.0913239756
C  C96  1  0.44380000  0.53680000  0.57400000  1.0 0.0913239756
C  C97  1  0.06140000  0.07880000  0.03240000  1.0 -0.1978894508
C  C98  1  0.43860000  0.57880000  0.96760000  1.0 -0.1978894508
C  C99  1  0.06140000  0.07880000  0.46760000  1.0 -0.1978894508
C  C100  1  0.43860000  0.57880000  0.53240000  1.0 -0.1978894508
C  C101  1  0.99600000  0.10500000  0.01050000  1.0 0.0790071797
C  C102  1  0.50400000  0.60500000  0.98950000  1.0 0.0790071797
C  C103  1  0.99600000  0.10500000  0.48950000  1.0 0.0790071797
C  C104  1  0.50400000  0.60500000  0.51050000  1.0 0.0790071797
C  C105  1  0.92510000  0.08810000  0.03300000  1.0 -0.2061907796
C  C106  1  0.57490000  0.58810000  0.96700000  1.0 -0.2061907796
C  C107  1  0.92510000  0.08810000  0.46700000  1.0 -0.2061907796
C  C108  1  0.57490000  0.58810000  0.53300000  1.0 -0.2061907796
C  C109  1  0.38560000  0.02850000  0.65480000  1.0 0.4909454213
C  C110  1  0.11440000  0.52850000  0.34520000  1.0 0.4909454213
C  C111  1  0.38560000  0.02850000  0.84520000  1.0 0.4909454213
C  C112  1  0.11440000  0.52850000  0.15480000  1.0 0.4909454213
C  C113  1  0.29860000  0.01230000  0.62670000  1.0 -0.0213005076
C  C114  1  0.20140000  0.51230000  0.37330000  1.0 -0.0213005076
C  C115  1  0.29860000  0.01230000  0.87330000  1.0 -0.0213005076
C  C116  1  0.20140000  0.51230000  0.12670000  1.0 -0.0213005076
C  C117  1  0.23750000  0.01490000  0.65710000  1.0 -0.1097697241
C  C118  1  0.26250000  0.51490000  0.34290000  1.0 -0.1097697241
C  C119  1  0.23750000  0.01490000  0.84290000  1.0 -0.1097697241
C  C120  1  0.26250000  0.51490000  0.15710000  1.0 -0.1097697241
C  C121  1  0.16560000  0.99740000  0.64150000  1.0 -0.1414604092
C  C122  1  0.33440000  0.49740000  0.35850000  1.0 -0.1414604092
C  C123  1  0.16560000  0.99740000  0.85850000  1.0 -0.1414604092
C  C124  1  0.33440000  0.49740000  0.14150000  1.0 -0.1414604092
C  C125  1  0.15740000  0.97560000  0.59360000  1.0 0.0572634101
C  C126  1  0.34260000  0.47560000  0.40640000  1.0 0.0572634101
C  C127  1  0.15740000  0.97560000  0.90640000  1.0 0.0572634101
C  C128  1  0.34260000  0.47560000  0.09360000  1.0 0.0572634101
C  C129  1  0.22000000  0.97300000  0.56000000  1.0 -0.1660274734
C  C130  1  0.28000000  0.47300000  0.44000000  1.0 -0.1660274734
C  C131  1  0.22000000  0.97300000  0.94000000  1.0 -0.1660274734
C  C132  1  0.28000000  0.47300000  0.06000000  1.0 -0.1660274734
C  C133  1  0.29000000  0.99360000  0.57660000  1.0 -0.088436348
C  C134  1  0.21000000  0.49360000  0.42340000  1.0 -0.088436348
C  C135  1  0.29000000  0.99360000  0.92340000  1.0 -0.088436348
C  C136  1  0.21000000  0.49360000  0.07660000  1.0 -0.088436348
C  C137  1  0.66720000  0.06860000  0.66960000  1.0 0.5675729068
C  C138  1  0.83280000  0.56860000  0.33040000  1.0 0.5675729068
C  C139  1  0.66720000  0.06860000  0.83040000  1.0 0.5675729068
C  C140  1  0.83280000  0.56860000  0.16960000  1.0 0.5675729068
C  C141  1  0.73860000  0.03950000  0.64190000  1.0 -0.0139694725
C  C142  1  0.76140000  0.53950000  0.35810000  1.0 -0.0139694725
C  C143  1  0.73860000  0.03950000  0.85810000  1.0 -0.0139694725
C  C144  1  0.76140000  0.53950000  0.14190000  1.0 -0.0139694725
C  C145  1  0.73780000  0.98200000  0.61840000  1.0 -0.088436348
C  C146  1  0.76220000  0.48200000  0.38160000  1.0 -0.088436348
C  C147  1  0.73780000  0.98200000  0.88160000  1.0 -0.088436348
C  C148  1  0.76220000  0.48200000  0.11840000  1.0 -0.088436348
C  C149  1  0.80430000  0.95780000  0.59680000  1.0 -0.1660274734
C  C150  1  0.69570000  0.45780000  0.40320000  1.0 -0.1660274734
C  C151  1  0.80430000  0.95780000  0.90320000  1.0 -0.1660274734
C  C152  1  0.69570000  0.45780000  0.09680000  1.0 -0.1660274734
C  C153  1  0.87150000  0.99350000  0.59660000  1.0 0.0790071797
C  C154  1  0.62850000  0.49350000  0.40340000  1.0 0.0790071797
C  C155  1  0.87150000  0.99350000  0.90340000  1.0 0.0790071797
C  C156  1  0.62850000  0.49350000  0.09660000  1.0 0.0790071797
C  C157  1  0.87120000  0.04990000  0.62110000  1.0 -0.1608285873
C  C158  1  0.62880000  0.54990000  0.37890000  1.0 -0.1608285873
C  C159  1  0.87120000  0.04990000  0.87890000  1.0 -0.1608285873
C  C160  1  0.62880000  0.54990000  0.12110000  1.0 -0.1608285873
C  C161  1  0.80610000  0.07350000  0.64470000  1.0 -0.088436348
C  C162  1  0.69390000  0.57350000  0.35530000  1.0 -0.088436348
C  C163  1  0.80610000  0.07350000  0.85530000  1.0 -0.088436348
C  C164  1  0.69390000  0.57350000  0.14470000  1.0 -0.088436348
C  C165  1  0.97400000  0.70530000  0.34800000  1.0 0.5880426915
C  C166  1  0.52600000  0.20530000  0.65200000  1.0 0.5880426915
C  C167  1  0.97400000  0.70530000  0.15200000  1.0 0.5880426915
C  C168  1  0.52600000  0.20530000  0.84800000  1.0 0.5880426915
C  C169  1  0.98450000  0.75410000  0.38880000  1.0 -0.0478982845
C  C170  1  0.51550000  0.25410000  0.61120000  1.0 -0.0478982845
C  C171  1  0.98450000  0.75410000  0.11120000  1.0 -0.0478982845
C  C172  1  0.51550000  0.25410000  0.88880000  1.0 -0.0478982845
C  C173  1  0.03730000  0.74740000  0.42980000  1.0 -0.0778541303
C  C174  1  0.46270000  0.24740000  0.57020000  1.0 -0.0778541303
C  C175  1  0.03730000  0.74740000  0.07020000  1.0 -0.0778541303
C  C176  1  0.46270000  0.24740000  0.92980000  1.0 -0.0778541303
C  C177  1  0.04430000  0.79080000  0.46750000  1.0 -0.1414604092
C  C178  1  0.45570000  0.29080000  0.53250000  1.0 -0.1414604092
C  C179  1  0.04430000  0.79080000  0.03250000  1.0 -0.1414604092
C  C180  1  0.45570000  0.29080000  0.96750000  1.0 -0.1414604092
C  C181  1  0.99880000  0.84790000  0.46830000  1.0 0.0675461368
C  C182  1  0.50120000  0.34790000  0.53170000  1.0 0.0675461368
C  C183  1  0.99880000  0.84790000  0.03170000  1.0 0.0675461368
C  C184  1  0.50120000  0.34790000  0.96830000  1.0 0.0675461368
C  C185  1  0.94500000  0.85490000  0.42950000  1.0 -0.1761527358
C  C186  1  0.55500000  0.35490000  0.57050000  1.0 -0.1761527358
C  C187  1  0.94500000  0.85490000  0.07050000  1.0 -0.1761527358
C  C188  1  0.55500000  0.35490000  0.92950000  1.0 -0.1761527358
C  C189  1  0.94000000  0.80860000  0.38890000  1.0 -0.088436348
C  C190  1  0.56000000  0.30860000  0.61110000  1.0 -0.088436348
C  C191  1  0.94000000  0.80860000  0.11110000  1.0 -0.088436348
C  C192  1  0.56000000  0.30860000  0.88890000  1.0 -0.088436348
C  C193  1  0.07870000  0.95510000  0.57300000  1.0 0.0913239756
C  C194  1  0.42130000  0.45510000  0.42700000  1.0 0.0913239756
C  C195  1  0.07870000  0.95510000  0.92700000  1.0 0.0913239756
C  C196  1  0.42130000  0.45510000  0.07300000  1.0 0.0913239756
C  C197  1  0.01400000  0.97950000  0.59310000  1.0 -0.1923833637
C  C198  1  0.48600000  0.47950000  0.40690000  1.0 -0.1923833637
C  C199  1  0.01400000  0.97950000  0.90690000  1.0 -0.1923833637
C  C200  1  0.48600000  0.47950000  0.09310000  1.0 -0.1923833637
C  C201  1  0.94380000  0.96320000  0.57400000  1.0 0.0913239756
C  C202  1  0.55620000  0.46320000  0.42600000  1.0 0.0913239756
C  C203  1  0.94380000  0.96320000  0.92600000  1.0 0.0913239756
C  C204  1  0.55620000  0.46320000  0.07400000  1.0 0.0913239756
C  C205  1  0.93860000  0.92120000  0.53240000  1.0 -0.1978894508
C  C206  1  0.56140000  0.42120000  0.46760000  1.0 -0.1978894508
C  C207  1  0.93860000  0.92120000  0.96760000  1.0 -0.1978894508
C  C208  1  0.56140000  0.42120000  0.03240000  1.0 -0.1978894508
C  C209  1  0.00400000  0.89500000  0.51050000  1.0 0.0790071797
C  C210  1  0.49600000  0.39500000  0.48950000  1.0 0.0790071797
C  C211  1  0.00400000  0.89500000  0.98950000  1.0 0.0790071797
C  C212  1  0.49600000  0.39500000  0.01050000  1.0 0.0790071797
C  C213  1  0.07490000  0.91190000  0.53300000  1.0 -0.2061907796
C  C214  1  0.42510000  0.41190000  0.46700000  1.0 -0.2061907796
C  C215  1  0.07490000  0.91190000  0.96700000  1.0 -0.2061907796
C  C216  1  0.42510000  0.41190000  0.03300000  1.0 -0.2061907796
O  O1  1  0.48670000  0.01100000  0.25000000  1.0 0.0572634101
O  O2  1  0.01330000  0.51100000  0.75000000  1.0 0.0675461368
O  O3  1  0.48210000  0.89430000  0.25000000  1.0 -0.873892024
O  O4  1  0.01790000  0.39430000  0.75000000  1.0 -0.873892024
O  O5  1  0.56560000  0.98350000  0.12390000  1.0 -0.4454195647
O  O6  1  0.93440000  0.48350000  0.87610000  1.0 -0.4454195647
O  O7  1  0.56560000  0.98350000  0.37610000  1.0 -0.4454195647
O  O8  1  0.93440000  0.48350000  0.62390000  1.0 -0.4454195647
O  O9  1  0.61980000  0.93290000  0.18640000  1.0 -0.3969652651
O  O10  1  0.88020000  0.43290000  0.81360000  1.0 -0.3969652651
O  O11  1  0.61980000  0.93290000  0.31360000  1.0 -0.3969652651
O  O12  1  0.88020000  0.43290000  0.68640000  1.0 -0.3969652651
O  O13  1  0.32630000  0.88440000  0.19374000  1.0 -0.4797670765
O  O14  1  0.17370000  0.38440000  0.80626000  1.0 -0.4797670765
O  O15  1  0.32630000  0.88440000  0.30626000  1.0 -0.4797670765
O  O16  1  0.17370000  0.38440000  0.69374000  1.0 -0.4797670765
O  O17  1  0.39390000  0.96520000  0.16070000  1.0 -0.5308931394
O  O18  1  0.10610000  0.46520000  0.83930000  1.0 -0.5308931394
O  O19  1  0.39390000  0.96520000  0.33930000  1.0 -0.5308931394
O  O20  1  0.10610000  0.46520000  0.66070000  1.0 -0.5308931394
O  O21  1  0.06330000  0.28100000  0.80858000  1.0 -0.5191822796
O  O22  1  0.43670000  0.78100000  0.19142000  1.0 -0.5191822796
O  O23  1  0.06330000  0.28100000  0.69142000  1.0 -0.5191822796
O  O24  1  0.43670000  0.78100000  0.30858000  1.0 -0.5191822796
O  O25  1  0.00010000  0.35020000  0.85790000  1.0 -0.5376561282
O  O26  1  0.49990000  0.85020000  0.14210000  1.0 -0.5376561282
O  O27  1  0.00010000  0.35020000  0.64210000  1.0 -0.5376561282
O  O28  1  0.49990000  0.85020000  0.35790000  1.0 -0.5376561282
O  O29  1  0.51330000  0.98900000  0.75000000  1.0 0.0675461368
O  O30  1  0.98670000  0.48900000  0.25000000  1.0 0.0675461368
O  O31  1  0.51790000  0.10570000  0.75000000  1.0 -0.873892024
O  O32  1  0.98210000  0.60570000  0.25000000  1.0 -0.873892024
O  O33  1  0.43440000  0.01650000  0.62390000  1.0 -0.4444642513
O  O34  1  0.06560000  0.51650000  0.37610000  1.0 -0.4444642513
O  O35  1  0.43440000  0.01650000  0.87610000  1.0 -0.4444642513
O  O36  1  0.06560000  0.51650000  0.12390000  1.0 -0.4444642513
O  O37  1  0.38020000  0.06710000  0.68640000  1.0 -0.3969652651
O  O38  1  0.11980000  0.56710000  0.31360000  1.0 -0.3969652651
O  O39  1  0.38020000  0.06710000  0.81360000  1.0 -0.3969652651
O  O40  1  0.11980000  0.56710000  0.18640000  1.0 -0.3969652651
O  O41  1  0.67370000  0.11560000  0.69374000  1.0 -0.4797670765
O  O42  1  0.82630000  0.61560000  0.30626000  1.0 -0.4797670765
O  O43  1  0.67370000  0.11560000  0.80626000  1.0 -0.4797670765
O  O44  1  0.82630000  0.61560000  0.19374000  1.0 -0.4797670765
O  O45  1  0.60610000  0.03480000  0.66070000  1.0 -0.5308931394
O  O46  1  0.89390000  0.53480000  0.33930000  1.0 -0.5308931394
O  O47  1  0.60610000  0.03480000  0.83930000  1.0 -0.5308931394
O  O48  1  0.89390000  0.53480000  0.16070000  1.0 -0.5308931394
O  O49  1  0.93670000  0.71900000  0.30858000  1.0 -0.5191822796
O  O50  1  0.56330000  0.21900000  0.69142000  1.0 -0.5191822796
O  O51  1  0.93670000  0.71900000  0.19142000  1.0 -0.5191822796
O  O52  1  0.56330000  0.21900000  0.80858000  1.0 -0.5191822796
O  O53  1  0.99990000  0.64980000  0.35790000  1.0 -0.5376561282
O  O54  1  0.50010000  0.14980000  0.64210000  1.0 -0.5376561282
O  O55  1  0.99990000  0.64980000  0.14210000  1.0 -0.5376561282
O  O56  1  0.50010000  0.14980000  0.85790000  1.0 -0.5376561282
