# DDEC6 charges by PACMAN v1.1 (https://github.com/mtap-research/PACMAN-charge/)
data_DIFLUD_ASR_pacman
_symmetry_space_group_name_H-M   'P 1'
_cell_length_a   19.11980000
_cell_length_b   20.18100000
_cell_length_c   21.82200000
_cell_angle_alpha   90.68000000
_cell_angle_beta   93.52700000
_cell_angle_gamma   114.05800000
_symmetry_Int_Tables_number   1
_chemical_formula_structural   Tb2H47C69N3O13
_chemical_formula_sum   'Tb8 H188 C276 N12 O52'
_cell_volume   7667.86087227
_cell_formula_units_Z   4
loop_
 _symmetry_equiv_pos_site_id
 _symmetry_equiv_pos_as_xyz
  1  'x, y, z'
loop_
 _atom_site_type_symbol
 _atom_site_label
 _atom_site_symmetry_multiplicity
 _atom_site_fract_x
 _atom_site_fract_y
 _atom_site_fract_z
 _atom_site_occupancy
 _atom_site_charge
Tb  Tb1  1  0.46513000  0.73678000  0.21391000  1.0 2.0020255322
Tb  Tb2  1  0.53487000  0.26322000  0.78609000  1.0 2.0020255322
Tb  Tb3  1  0.59229000  0.65101000  0.31294000  1.0 1.9942833657
Tb  Tb4  1  0.40771000  0.34899000  0.68706000  1.0 1.9942833657
Tb  Tb5  1  0.53414000  0.75963000  0.71843000  1.0 2.0076144213
Tb  Tb6  1  0.46586000  0.24037000  0.28157000  1.0 2.0076144213
Tb  Tb7  1  0.40071000  0.84855000  0.79705000  1.0 2.0076144213
Tb  Tb8  1  0.59929000  0.15145000  0.20295000  1.0 2.0076144213
H  H1  1  0.60994000  0.64741000  0.42042000  1.0 0.3957311387
H  H2  1  0.39006000  0.35259000  0.57958000  1.0 0.3938183362
H  H3  1  0.69602000  0.73183000  0.41932000  1.0 0.4196070457
H  H4  1  0.30398000  0.26817000  0.58068000  1.0 0.4196070457
H  H5  1  0.37018000  0.86348000  0.91327000  1.0 0.2845446939
H  H6  1  0.62982000  0.13652000  0.08673000  1.0 0.2845446939
H  H7  1  0.35703000  0.79831000  0.90171000  1.0 0.3006389017
H  H8  1  0.64297000  0.20169000  0.09829000  1.0 0.3006389017
H  H9  1  0.13807000  0.34606000  0.21968000  1.0 0.2573050137
H  H10  1  0.86193000  0.65394000  0.78032000  1.0 0.2573050137
H  H11  1  0.92870000  0.05768000  0.24275000  1.0 0.2490044609
H  H12  1  0.07130000  0.94232000  0.75725000  1.0 0.2490044609
H  H13  1  0.28924000  0.82619000  0.49726000  1.0 0.2444224234
H  H14  1  0.71076000  0.17381000  0.50274000  1.0 0.2444224234
H  H15  1  0.07713000  0.51122000  0.73246000  1.0 0.2490044609
H  H16  1  0.92287000  0.48878000  0.26754000  1.0 0.2490044609
H  H17  1  0.84864000  0.09373000  0.73157000  1.0 0.2664887185
H  H18  1  0.15136000  0.90627000  0.26843000  1.0 0.2664887185
H  H19  1  0.69918000  0.66314000  0.00028000  1.0 0.2490044609
H  H20  1  0.30082000  0.33686000  0.99972000  1.0 0.2490044609
H  H21  1  0.45279000  0.47626000  0.25173000  1.0 0.1414405304
H  H22  1  0.54721000  0.52374000  0.74827000  1.0 0.1414405304
H  H23  1  0.25180000  0.31037000  0.26347000  1.0 0.1285804994
H  H24  1  0.74820000  0.68963000  0.73653000  1.0 0.1285804994
H  H25  1  0.26027000  0.50982000  0.23416000  1.0 0.1191959064
H  H26  1  0.73973000  0.49018000  0.76584000  1.0 0.1191959064
H  H27  1  0.13050000  0.45852000  0.22607000  1.0 0.0924947212
H  H28  1  0.86950000  0.54148000  0.77393000  1.0 0.0924947212
H  H29  1  0.13690000  0.45115000  0.29764000  1.0 0.1015487351
H  H30  1  0.86310000  0.54885000  0.70236000  1.0 0.1015487351
H  H31  1  0.09786000  0.35342000  0.35878000  1.0 0.1102592192
H  H32  1  0.90214000  0.64658000  0.64122000  1.0 0.1102592192
H  H33  1  0.04512000  0.26845000  0.43191000  1.0 0.1015487351
H  H34  1  0.95488000  0.73155000  0.56809000  1.0 0.1015487351
H  H35  1  0.91963000  0.18351000  0.41828000  1.0 0.1102592192
H  H36  1  0.08037000  0.81649000  0.58172000  1.0 0.1191959064
H  H37  1  0.84377000  0.19111000  0.33866000  1.0 0.1285804994
H  H38  1  0.15623000  0.80889000  0.66134000  1.0 0.1285804994
H  H39  1  0.82770000  0.24957000  0.23741000  1.0 0.1459827478
H  H40  1  0.17230000  0.75043000  0.76259000  1.0 0.1459827478
H  H41  1  0.80656000  0.30799000  0.14736000  1.0 0.1414405304
H  H42  1  0.19344000  0.69201000  0.85264000  1.0 0.1414405304
H  H43  1  0.85107000  0.39924000  0.08154000  1.0 0.1191959064
H  H44  1  0.14893000  0.60076000  0.91846000  1.0 0.1191959064
H  H45  1  0.97476000  0.48374000  0.09445000  1.0 0.1102592192
H  H46  1  0.02524000  0.51626000  0.90555000  1.0 0.1102592192
H  H47  1  0.05610000  0.47816000  0.16943000  1.0 0.1102592192
H  H48  1  0.94390000  0.52184000  0.83057000  1.0 0.1102592192
H  H49  1  0.80492000  0.88119000  0.27501000  1.0 0.1191959064
H  H50  1  0.19508000  0.11881000  0.72499000  1.0 0.1191959064
H  H51  1  0.81861000  0.08017000  0.23466000  1.0 0.1285804994
H  H52  1  0.18139000  0.91983000  0.76534000  1.0 0.1285804994
H  H53  1  0.61283000  0.91786000  0.25260000  1.0 0.1459827478
H  H54  1  0.38717000  0.08214000  0.74740000  1.0 0.1459827478
H  H55  1  0.94291000  0.93510000  0.23420000  1.0 0.1015487351
H  H56  1  0.05709000  0.06490000  0.76580000  1.0 0.1015487351
H  H57  1  0.93673000  0.94592000  0.30505000  1.0 0.1015487351
H  H58  1  0.06327000  0.05408000  0.69495000  1.0 0.1015487351
H  H59  1  0.96558000  0.03198000  0.37171000  1.0 0.1015487351
H  H60  1  0.03442000  0.96802000  0.62829000  1.0 0.1015487351
H  H61  1  0.02372000  0.11087000  0.46064000  1.0 0.1015487351
H  H62  1  0.97628000  0.88913000  0.53936000  1.0 0.1015487351
H  H63  1  0.14379000  0.20578000  0.45681000  1.0 0.1015487351
H  H64  1  0.85621000  0.79422000  0.54319000  1.0 0.1015487351
H  H65  1  0.22432000  0.21730000  0.37633000  1.0 0.1285804994
H  H66  1  0.77568000  0.78270000  0.62367000  1.0 0.1285804994
H  H67  1  0.23456000  0.16298000  0.27458000  1.0 0.1414405304
H  H68  1  0.76544000  0.83702000  0.72542000  1.0 0.1414405304
H  H69  1  0.25572000  0.13032000  0.18576000  1.0 0.1285804994
H  H70  1  0.74428000  0.86968000  0.81424000  1.0 0.1285804994
H  H71  1  0.21763000  0.04352000  0.10536000  1.0 0.1102592192
H  H72  1  0.78237000  0.95648000  0.89464000  1.0 0.1102592192
H  H73  1  0.09109000  0.95820000  0.09045000  1.0 0.1102592192
H  H74  1  0.90891000  0.04180000  0.90955000  1.0 0.1102592192
H  H75  1  0.00696000  0.95208000  0.16511000  1.0 0.1015487351
H  H76  1  0.99304000  0.04792000  0.83489000  1.0 0.1015487351
H  H77  1  0.36695000  0.76988000  0.37760000  1.0 0.1285804994
H  H78  1  0.63305000  0.23012000  0.62240000  1.0 0.1191959064
H  H79  1  0.38151000  0.80456000  0.56021000  1.0 0.1414405304
H  H80  1  0.61849000  0.19544000  0.43979000  1.0 0.1414405304
H  H81  1  0.51536000  0.72064000  0.48338000  1.0 0.1285804994
H  H82  1  0.48464000  0.27936000  0.51662000  1.0 0.1285804994
H  H83  1  0.22957000  0.77143000  0.39084000  1.0 0.1102592192
H  H84  1  0.77043000  0.22857000  0.60916000  1.0 0.1102592192
H  H85  1  0.30186000  0.84132000  0.37662000  1.0 0.1102592192
H  H86  1  0.69814000  0.15868000  0.62338000  1.0 0.1102592192
H  H87  1  0.12578000  0.72103000  0.42218000  1.0 0.1015487351
H  H88  1  0.87422000  0.27897000  0.57782000  1.0 0.1015487351
H  H89  1  0.99552000  0.67160000  0.43820000  1.0 0.1191959064
H  H90  1  0.00448000  0.32840000  0.56180000  1.0 0.1191959064
H  H91  1  0.92921000  0.73963000  0.44141000  1.0 0.1191959064
H  H92  1  0.07079000  0.26037000  0.55859000  1.0 0.1191959064
H  H93  1  0.98473000  0.85930000  0.43840000  1.0 0.1191959064
H  H94  1  0.01527000  0.14070000  0.56160000  1.0 0.1191959064
H  H95  1  0.10501000  0.97637000  0.42720000  1.0 0.1285804994
H  H96  1  0.89499000  0.02363000  0.57280000  1.0 0.1285804994
H  H97  1  0.21739000  0.08578000  0.42859000  1.0 0.1102592192
H  H98  1  0.78261000  0.91422000  0.57141000  1.0 0.1102592192
H  H99  1  0.34671000  0.14036000  0.42742000  1.0 0.1191959064
H  H100  1  0.65329000  0.85964000  0.57258000  1.0 0.1191959064
H  H101  1  0.42268000  0.07359000  0.42336000  1.0 0.1191959064
H  H102  1  0.57732000  0.92641000  0.57664000  1.0 0.1191959064
H  H103  1  0.36717000  0.95438000  0.41487000  1.0 0.1102592192
H  H104  1  0.63283000  0.04562000  0.58513000  1.0 0.1102592192
H  H105  1  0.19673000  0.60942000  0.75112000  1.0 0.1191959064
H  H106  1  0.80327000  0.39058000  0.24888000  1.0 0.1191959064
H  H107  1  0.18401000  0.41335000  0.70239000  1.0 0.1191959064
H  H108  1  0.81599000  0.58665000  0.29761000  1.0 0.1191959064
H  H109  1  0.38953000  0.58171000  0.73568000  1.0 0.1459827478
H  H110  1  0.61047000  0.41829000  0.26432000  1.0 0.1414405304
H  H111  1  0.07066000  0.37633000  0.74295000  1.0 0.1015487351
H  H112  1  0.92934000  0.62367000  0.25705000  1.0 0.1015487351
H  H113  1  0.03869000  0.38917000  0.67817000  1.0 0.1015487351
H  H114  1  0.96131000  0.61083000  0.32183000  1.0 0.1015487351
H  H115  1  0.96444000  0.42954000  0.63088000  1.0 0.1102592192
H  H116  1  0.03556000  0.57046000  0.36912000  1.0 0.1102592192
H  H117  1  0.85914000  0.43118000  0.57092000  1.0 0.1191959064
H  H118  1  0.14086000  0.56882000  0.42908000  1.0 0.1191959064
H  H119  1  0.74048000  0.39025000  0.61203000  1.0 0.1191959064
H  H120  1  0.25952000  0.60975000  0.38797000  1.0 0.1191959064
H  H121  1  0.72650000  0.36106000  0.70566000  1.0 0.1414405304
H  H122  1  0.27350000  0.63894000  0.29434000  1.0 0.1414405304
H  H123  1  0.78109000  0.34388000  0.80920000  1.0 0.1627069439
H  H124  1  0.21891000  0.65612000  0.19080000  1.0 0.1627069439
H  H125  1  0.83402000  0.33320000  0.91185000  1.0 0.1191959064
H  H126  1  0.16598000  0.66680000  0.08815000  1.0 0.1191959064
H  H127  1  0.93294000  0.34820000  0.97682000  1.0 0.1102592192
H  H128  1  0.06706000  0.65180000  0.02318000  1.0 0.1102592192
H  H129  1  0.05451000  0.37633000  0.93916000  1.0 0.1102592192
H  H130  1  0.94549000  0.62367000  0.06084000  1.0 0.1102592192
H  H131  1  0.07031000  0.38843000  0.83545000  1.0 0.1102592192
H  H132  1  0.92969000  0.61157000  0.16455000  1.0 0.1102592192
H  H133  1  0.72900000  0.99247000  0.72814000  1.0 0.1285804994
H  H134  1  0.27100000  0.00753000  0.27186000  1.0 0.1285804994
H  H135  1  0.74257000  0.19385000  0.76426000  1.0 0.1191959064
H  H136  1  0.25743000  0.80615000  0.23574000  1.0 0.1191959064
H  H137  1  0.53769000  0.02257000  0.75774000  1.0 0.1414405304
H  H138  1  0.46231000  0.97743000  0.24226000  1.0 0.1414405304
H  H139  1  0.85642000  0.22189000  0.77708000  1.0 0.0924947212
H  H140  1  0.14358000  0.77811000  0.22292000  1.0 0.0924947212
H  H141  1  0.90306000  0.21928000  0.72110000  1.0 0.1015487351
H  H142  1  0.09694000  0.78072000  0.27890000  1.0 0.1015487351
H  H143  1  0.00080000  0.21031000  0.69431000  1.0 0.1102592192
H  H144  1  0.99920000  0.78969000  0.30569000  1.0 0.1102592192
H  H145  1  0.12276000  0.24039000  0.66861000  1.0 0.1102592192
H  H146  1  0.87724000  0.75961000  0.33139000  1.0 0.1102592192
H  H147  1  0.22154000  0.26513000  0.74579000  1.0 0.1191959064
H  H148  1  0.77846000  0.73487000  0.25421000  1.0 0.1191959064
H  H149  1  0.19893000  0.26456000  0.84588000  1.0 0.1191959064
H  H150  1  0.80107000  0.73544000  0.15412000  1.0 0.1191959064
H  H151  1  0.10926000  0.23030000  0.92443000  1.0 0.1285804994
H  H152  1  0.89074000  0.76970000  0.07557000  1.0 0.1285804994
H  H153  1  0.01398000  0.19253000  0.00621000  1.0 0.1102592192
H  H154  1  0.98602000  0.80747000  0.99379000  1.0 0.1102592192
H  H155  1  0.89654000  0.16842000  0.03057000  1.0 0.1191959064
H  H156  1  0.10346000  0.83158000  0.96943000  1.0 0.1191959064
H  H157  1  0.79323000  0.14977000  0.96034000  1.0 0.1191959064
H  H158  1  0.20677000  0.85023000  0.03966000  1.0 0.1191959064
H  H159  1  0.81530000  0.16360000  0.85599000  1.0 0.1015487351
H  H160  1  0.18470000  0.83640000  0.14401000  1.0 0.1015487351
H  H161  1  0.61269000  0.71980000  0.88239000  1.0 0.1285804994
H  H162  1  0.38731000  0.28020000  0.11761000  1.0 0.1285804994
H  H163  1  0.60550000  0.67896000  0.06181000  1.0 0.1285804994
H  H164  1  0.39450000  0.32104000  0.93819000  1.0 0.1285804994
H  H165  1  0.47765000  0.77542000  0.98495000  1.0 0.1285804994
H  H166  1  0.52235000  0.22458000  0.01505000  1.0 0.1285804994
H  H167  1  0.71157000  0.70048000  0.88271000  1.0 0.1015487351
H  H168  1  0.28843000  0.29952000  0.11729000  1.0 0.1015487351
H  H169  1  0.65628000  0.61810000  0.88514000  1.0 0.1015487351
H  H170  1  0.34372000  0.38190000  0.11486000  1.0 0.1015487351
H  H171  1  0.64050000  0.52672000  0.93162000  1.0 0.1102592192
H  H172  1  0.35950000  0.47328000  0.06838000  1.0 0.1102592192
H  H173  1  0.62163000  0.40747000  0.94965000  1.0 0.1191959064
H  H174  1  0.37837000  0.59253000  0.05035000  1.0 0.1191959064
H  H175  1  0.72716000  0.38030000  0.96580000  1.0 0.1191959064
H  H176  1  0.27284000  0.61970000  0.03420000  1.0 0.1191959064
H  H177  1  0.85127000  0.46842000  0.96389000  1.0 0.1102592192
H  H178  1  0.14873000  0.53158000  0.03611000  1.0 0.1102592192
H  H179  1  0.93118000  0.58969000  0.93683000  1.0 0.1191959064
H  H180  1  0.06882000  0.41031000  0.06317000  1.0 0.1191959064
H  H181  1  0.01892000  0.70811000  0.88931000  1.0 0.1102592192
H  H182  1  0.98108000  0.29189000  0.11069000  1.0 0.1102592192
H  H183  1  0.03489000  0.81796000  0.85060000  1.0 0.1102592192
H  H184  1  0.96511000  0.18204000  0.14940000  1.0 0.1102592192
H  H185  1  0.93474000  0.85292000  0.84430000  1.0 0.1102592192
H  H186  1  0.06526000  0.14708000  0.15570000  1.0 0.1102592192
H  H187  1  0.81758000  0.77949000  0.87660000  1.0 0.1102592192
H  H188  1  0.18242000  0.22051000  0.12340000  1.0 0.1102592192
C  C1  1  0.40750000  0.58450000  0.23170000  1.0 0.6171650763
C  C2  1  0.59250000  0.41550000  0.76830000  1.0 0.6171650763
C  C3  1  0.36350000  0.50500000  0.24050000  1.0 -0.007532055
C  C4  1  0.63650000  0.49500000  0.75950000  1.0 -0.007532055
C  C5  1  0.39950000  0.45830000  0.25020000  1.0 -0.1308342911
C  C6  1  0.60050000  0.54170000  0.74980000  1.0 -0.1308342911
C  C7  1  0.35670000  0.38550000  0.25750000  1.0 0.0096584366
C  C8  1  0.64330000  0.61450000  0.74250000  1.0 0.0096584366
C  C9  1  0.27990000  0.35950000  0.25750000  1.0 -0.1925291195
C  C10  1  0.72010000  0.64050000  0.74250000  1.0 -0.1925291195
C  C11  1  0.24070000  0.40600000  0.24840000  1.0 0.2091269369
C  C12  1  0.75930000  0.59400000  0.75160000  1.0 0.2040971692
C  C13  1  0.28440000  0.47840000  0.24010000  1.0 -0.1991606987
C  C14  1  0.71560000  0.52160000  0.75990000  1.0 -0.1991606987
C  C15  1  0.39540000  0.33410000  0.26810000  1.0 0.5676980491
C  C16  1  0.60460000  0.66590000  0.73190000  1.0 0.5676980491
C  C17  1  0.11940000  0.42410000  0.25860000  1.0 -0.1206671903
C  C18  1  0.88060000  0.57590000  0.74140000  1.0 -0.1206671903
C  C19  1  0.03380000  0.37810000  0.25680000  1.0 -0.007532055
C  C20  1  0.96620000  0.62190000  0.74320000  1.0 -0.007532055
C  C21  1  0.00360000  0.32550000  0.29950000  1.0 0.0191983857
C  C22  1  0.99640000  0.67450000  0.70050000  1.0 0.0191983857
C  C23  1  0.04660000  0.32100000  0.35270000  1.0 -0.1386150127
C  C24  1  0.95340000  0.67900000  0.64730000  1.0 -0.1308342911
C  C25  1  0.01480000  0.26920000  0.39720000  1.0 -0.1206671903
C  C26  1  0.98520000  0.73080000  0.60280000  1.0 -0.1206671903
C  C27  1  0.93930000  0.21940000  0.39000000  1.0 -0.0917299961
C  C28  1  0.06070000  0.78060000  0.61000000  1.0 -0.0917299961
C  C29  1  0.89510000  0.22360000  0.34230000  1.0 -0.1500812657
C  C30  1  0.10490000  0.77640000  0.65770000  1.0 -0.1500812657
C  C31  1  0.92450000  0.27840000  0.29380000  1.0 0.0924947212
C  C32  1  0.07550000  0.72160000  0.70620000  1.0 0.0924947212
C  C33  1  0.87850000  0.28310000  0.24320000  1.0 -0.1925291195
C  C34  1  0.12150000  0.71690000  0.75680000  1.0 -0.1925291195
C  C35  1  0.90690000  0.33570000  0.20270000  1.0 0.0691444494
C  C36  1  0.09310000  0.66430000  0.79730000  1.0 0.0691444494
C  C37  1  0.85730000  0.34190000  0.15260000  1.0 -0.1386150127
C  C38  1  0.14270000  0.65810000  0.84740000  1.0 -0.1386150127
C  C39  1  0.88340000  0.39580000  0.11380000  1.0 -0.0994252642
C  C40  1  0.11660000  0.60420000  0.88620000  1.0 -0.0994252642
C  C41  1  0.95760000  0.44590000  0.12130000  1.0 -0.109606572
C  C42  1  0.04240000  0.55410000  0.87870000  1.0 -0.109606572
C  C43  1  0.00630000  0.44220000  0.16620000  1.0 -0.1595922075
C  C44  1  0.99370000  0.55780000  0.83380000  1.0 -0.1595922075
C  C45  1  0.98690000  0.38710000  0.20900000  1.0 0.0191983857
C  C46  1  0.01310000  0.61290000  0.79100000  1.0 0.0191983857
C  C47  1  0.65650000  0.81100000  0.27940000  1.0 0.6297817702
C  C48  1  0.34350000  0.18900000  0.72060000  1.0 0.6297817702
C  C49  1  0.70170000  0.88740000  0.26560000  1.0 -0.0292728479
C  C50  1  0.29830000  0.11260000  0.73440000  1.0 -0.0292728479
C  C51  1  0.78100000  0.91230000  0.26670000  1.0 -0.1991606987
C  C52  1  0.21900000  0.08770000  0.73330000  1.0 -0.1991606987
C  C53  1  0.82460000  0.98590000  0.25500000  1.0 0.2174774284
C  C54  1  0.17540000  0.01410000  0.74500000  1.0 0.2174774284
C  C55  1  0.78930000  0.03200000  0.24300000  1.0 -0.1991606987
C  C56  1  0.21070000  0.96800000  0.75700000  1.0 -0.1991606987
C  C57  1  0.71070000  0.00740000  0.24320000  1.0 0.0096584366
C  C58  1  0.28930000  0.99260000  0.75680000  1.0 0.0096584366
C  C59  1  0.66600000  0.93480000  0.25360000  1.0 -0.109606572
C  C60  1  0.33400000  0.06520000  0.74640000  1.0 -0.109606572
C  C61  1  0.67260000  0.05880000  0.23340000  1.0 0.5587965126
C  C62  1  0.32740000  0.94120000  0.76660000  1.0 0.5587965126
C  C63  1  0.95090000  0.97080000  0.26700000  1.0 -0.1206671903
C  C64  1  0.04910000  0.02920000  0.73300000  1.0 -0.1206671903
C  C65  1  0.03460000  0.02640000  0.27310000  1.0 -0.0292728479
C  C66  1  0.96540000  0.97360000  0.72690000  1.0 -0.0362957579
C  C67  1  0.06670000  0.07440000  0.32640000  1.0 0.0191983857
C  C68  1  0.93330000  0.92560000  0.67360000  1.0 0.0191983857
C  C69  1  0.01620000  0.06630000  0.37410000  1.0 -0.1683925738
C  C70  1  0.98380000  0.93370000  0.62590000  1.0 -0.1683925738
C  C71  1  0.05050000  0.11560000  0.42560000  1.0 -0.1206671903
C  C72  1  0.94950000  0.88440000  0.57440000  1.0 -0.1206671903
C  C73  1  0.12560000  0.17210000  0.42390000  1.0 -0.1206671903
C  C74  1  0.87440000  0.82790000  0.57610000  1.0 -0.1206671903
C  C75  1  0.17490000  0.18080000  0.37530000  1.0 -0.1500812657
C  C76  1  0.82510000  0.81920000  0.62470000  1.0 -0.1500812657
C  C77  1  0.14280000  0.12920000  0.32490000  1.0 0.0691444494
C  C78  1  0.85720000  0.87080000  0.67510000  1.0 0.0691444494
C  C79  1  0.18430000  0.12840000  0.27490000  1.0 -0.1793080692
C  C80  1  0.81570000  0.87160000  0.72510000  1.0 -0.1793080692
C  C81  1  0.15730000  0.08300000  0.22970000  1.0 0.0691444494
C  C82  1  0.84270000  0.91700000  0.77030000  1.0 0.0691444494
C  C83  1  0.20740000  0.09200000  0.18350000  1.0 -0.1683925738
C  C84  1  0.79260000  0.90800000  0.81650000  1.0 -0.1683925738
C  C85  1  0.18270000  0.04190000  0.13380000  1.0 -0.0917299961
C  C86  1  0.81730000  0.95810000  0.86620000  1.0 -0.0917299961
C  C87  1  0.10750000  0.98940000  0.12510000  1.0 -0.0994252642
C  C88  1  0.89250000  0.01060000  0.87490000  1.0 -0.0994252642
C  C89  1  0.05780000  0.98560000  0.17050000  1.0 -0.1595922075
C  C90  1  0.94220000  0.01440000  0.82950000  1.0 -0.1595922075
C  C91  1  0.08200000  0.03040000  0.22360000  1.0 0.0096584366
C  C92  1  0.91800000  0.96960000  0.77640000  1.0 0.0096584366
C  C93  1  0.47270000  0.72270000  0.36530000  1.0 0.6482734854
C  C94  1  0.52730000  0.27730000  0.63470000  1.0 0.6482734854
C  C95  1  0.44520000  0.74300000  0.42310000  1.0 -0.0181475897
C  C96  1  0.55480000  0.25700000  0.57690000  1.0 -0.0181475897
C  C97  1  0.38810000  0.76770000  0.41670000  1.0 -0.2099007443
C  C98  1  0.61190000  0.23230000  0.58330000  1.0 -0.1991606987
C  C99  1  0.36140000  0.78980000  0.46800000  1.0 0.2300977173
C  C100  1  0.63860000  0.21020000  0.53200000  1.0 0.2300977173
C  C101  1  0.39660000  0.78820000  0.52550000  1.0 -0.1991606987
C  C102  1  0.60340000  0.21180000  0.47450000  1.0 -0.1991606987
C  C103  1  0.45350000  0.76260000  0.53160000  1.0 -0.007532055
C  C104  1  0.54650000  0.23740000  0.46840000  1.0 -0.007532055
C  C105  1  0.47780000  0.73880000  0.47950000  1.0 -0.1308342911
C  C106  1  0.52220000  0.26120000  0.52050000  1.0 -0.1386150127
C  C107  1  0.48600000  0.75900000  0.59450000  1.0 0.5587965126
C  C108  1  0.51400000  0.24100000  0.40550000  1.0 0.5587965126
C  C109  1  0.26450000  0.81950000  0.40660000  1.0 -0.1206671903
C  C110  1  0.73550000  0.18050000  0.59340000  1.0 -0.1206671903
C  C111  1  0.22080000  0.86490000  0.41650000  1.0 -0.0292728479
C  C112  1  0.77920000  0.13510000  0.58350000  1.0 -0.0292728479
C  C113  1  0.14260000  0.82950000  0.42520000  1.0 0.0191983857
C  C114  1  0.85740000  0.17050000  0.57480000  1.0 0.0191983857
C  C115  1  0.10050000  0.75140000  0.42660000  1.0 -0.1595922075
C  C116  1  0.89950000  0.24860000  0.57340000  1.0 -0.1595922075
C  C117  1  0.02110000  0.72150000  0.43470000  1.0 -0.1308342911
C  C118  1  0.97890000  0.27850000  0.56530000  1.0 -0.1308342911
C  C119  1  0.98180000  0.76210000  0.43760000  1.0 -0.0994252642
C  C120  1  0.01820000  0.23790000  0.56240000  1.0 -0.0994252642
C  C121  1  0.01480000  0.83320000  0.43510000  1.0 -0.1683925738
C  C122  1  0.98520000  0.16680000  0.56490000  1.0 -0.1683925738
C  C123  1  0.09510000  0.87200000  0.42750000  1.0 0.076533171
C  C124  1  0.90490000  0.12800000  0.57250000  1.0 0.076533171
C  C125  1  0.13330000  0.94840000  0.42570000  1.0 -0.2159110432
C  C126  1  0.86670000  0.05160000  0.57430000  1.0 -0.2159110432
C  C127  1  0.21070000  0.98200000  0.42170000  1.0 0.0691444494
C  C128  1  0.78930000  0.01800000  0.57830000  1.0 0.0691444494
C  C129  1  0.24610000  0.05830000  0.42580000  1.0 -0.1386150127
C  C130  1  0.75390000  0.94170000  0.57420000  1.0 -0.1386150127
C  C131  1  0.32260000  0.08990000  0.42550000  1.0 -0.0809945663
C  C132  1  0.67740000  0.91010000  0.57450000  1.0 -0.0809945663
C  C133  1  0.36950000  0.04960000  0.42250000  1.0 -0.0716863622
C  C134  1  0.63050000  0.95040000  0.57750000  1.0 -0.0716863622
C  C135  1  0.33650000  0.97990000  0.41840000  1.0 -0.1308342911
C  C136  1  0.66350000  0.02010000  0.58160000  1.0 -0.1308342911
C  C137  1  0.25410000  0.93860000  0.41910000  1.0 0.0191983857
C  C138  1  0.74590000  0.06140000  0.58090000  1.0 0.0191983857
C  C139  1  0.34300000  0.68780000  0.75850000  1.0 0.6297817702
C  C140  1  0.65700000  0.31220000  0.24150000  1.0 0.6297817702
C  C141  1  0.29880000  0.60810000  0.74300000  1.0 -0.0039058541
C  C142  1  0.70120000  0.39190000  0.25700000  1.0 -0.0039058541
C  C143  1  0.22100000  0.57930000  0.74190000  1.0 -0.1925291195
C  C144  1  0.77900000  0.42070000  0.25810000  1.0 -0.1925291195
C  C145  1  0.17680000  0.50680000  0.72740000  1.0 0.2174774284
C  C146  1  0.82320000  0.49320000  0.27260000  1.0 0.2174774284
C  C147  1  0.21290000  0.46180000  0.71420000  1.0 -0.1991606987
C  C148  1  0.78710000  0.53820000  0.28580000  1.0 -0.1991606987
C  C149  1  0.29300000  0.48980000  0.71870000  1.0 0.0015657511
C  C150  1  0.70700000  0.51020000  0.28130000  1.0 0.0015657511
C  C151  1  0.33620000  0.56300000  0.73290000  1.0 -0.1308342911
C  C152  1  0.66380000  0.43700000  0.26710000  1.0 -0.1308342911
C  C153  1  0.04710000  0.40460000  0.72130000  1.0 -0.1206671903
C  C154  1  0.95290000  0.59540000  0.27870000  1.0 -0.1206671903
C  C155  1  0.97010000  0.39160000  0.74750000  1.0 -0.0292728479
C  C156  1  0.02990000  0.60840000  0.25250000  1.0 -0.0292728479
C  C157  1  0.90920000  0.39260000  0.70800000  1.0 0.0286151556
C  C158  1  0.09080000  0.60740000  0.29200000  1.0 0.0286151556
C  C159  1  0.91700000  0.41500000  0.64740000  1.0 -0.1595922075
C  C160  1  0.08300000  0.58500000  0.35260000  1.0 -0.1595922075
C  C161  1  0.85370000  0.41570000  0.61100000  1.0 -0.1206671903
C  C162  1  0.14630000  0.58430000  0.38900000  1.0 -0.1206671903
C  C163  1  0.78310000  0.39260000  0.63640000  1.0 -0.0917299961
C  C164  1  0.21690000  0.60740000  0.36360000  1.0 -0.0917299961
C  C165  1  0.77510000  0.37470000  0.69150000  1.0 -0.1308342911
C  C166  1  0.22490000  0.62530000  0.30850000  1.0 -0.1308342911
C  C167  1  0.83540000  0.37360000  0.73470000  1.0 0.076533171
C  C168  1  0.16460000  0.62640000  0.26530000  1.0 0.076533171
C  C169  1  0.82920000  0.35790000  0.79400000  1.0 -0.1793080692
C  C170  1  0.17080000  0.64210000  0.20600000  1.0 -0.1793080692
C  C171  1  0.88620000  0.36100000  0.83220000  1.0 0.0691444494
C  C172  1  0.11380000  0.63900000  0.16780000  1.0 0.0691444494
C  C173  1  0.88200000  0.34780000  0.89630000  1.0 -0.1500812657
C  C174  1  0.11800000  0.65220000  0.10370000  1.0 -0.1500812657
C  C175  1  0.93970000  0.35440000  0.93510000  1.0 -0.109606572
C  C176  1  0.06030000  0.64560000  0.06490000  1.0 -0.109606572
C  C177  1  0.01300000  0.37140000  0.91210000  1.0 -0.0994252642
C  C178  1  0.98700000  0.62860000  0.08790000  1.0 -0.0994252642
C  C179  1  0.02310000  0.38070000  0.85030000  1.0 -0.1500812657
C  C180  1  0.97690000  0.61930000  0.14970000  1.0 -0.1500812657
C  C181  1  0.96120000  0.37830000  0.80890000  1.0 0.0286151556
C  C182  1  0.03880000  0.62170000  0.19110000  1.0 0.0286151556
C  C183  1  0.58590000  0.91420000  0.73680000  1.0 0.6148766155
C  C184  1  0.41410000  0.08580000  0.26320000  1.0 0.6148766155
C  C185  1  0.62770000  0.99390000  0.74390000  1.0 -0.0181475897
C  C186  1  0.37230000  0.00610000  0.25610000  1.0 -0.0181475897
C  C187  1  0.70580000  0.02320000  0.73840000  1.0 -0.1991606987
C  C188  1  0.29420000  0.97680000  0.26160000  1.0 -0.1991606987
C  C189  1  0.75140000  0.09750000  0.74760000  1.0 0.2091269369
C  C190  1  0.24860000  0.90250000  0.25240000  1.0 0.2091269369
C  C191  1  0.71420000  0.14400000  0.75900000  1.0 -0.2354908412
C  C192  1  0.28580000  0.85600000  0.24100000  1.0 -0.2354908412
C  C193  1  0.63410000  0.11400000  0.76240000  1.0 -0.0039058541
C  C194  1  0.36590000  0.88600000  0.23760000  1.0 -0.0039058541
C  C195  1  0.59060000  0.04120000  0.75530000  1.0 -0.1206671903
C  C196  1  0.40940000  0.95880000  0.24470000  1.0 -0.1206671903
C  C197  1  0.59900000  0.16530000  0.77630000  1.0 0.5676980491
C  C198  1  0.40100000  0.83470000  0.22370000  1.0 0.5676980491
C  C199  1  0.88290000  0.19560000  0.75850000  1.0 -0.1206671903
C  C200  1  0.11710000  0.80440000  0.24150000  1.0 -0.1206671903
C  C201  1  0.94880000  0.19870000  0.80230000  1.0 -0.007532055
C  C202  1  0.05120000  0.80130000  0.19770000  1.0 -0.007532055
C  C203  1  0.02220000  0.21450000  0.78590000  1.0 0.0191983857
C  C204  1  0.97780000  0.78550000  0.21410000  1.0 0.0191983857
C  C205  1  0.03980000  0.21970000  0.72510000  1.0 -0.1595922075
C  C206  1  0.96020000  0.78030000  0.27490000  1.0 -0.1595922075
C  C207  1  0.11200000  0.23790000  0.70970000  1.0 -0.0994252642
C  C208  1  0.88800000  0.76210000  0.29030000  1.0 -0.0994252642
C  C209  1  0.17170000  0.25330000  0.75670000  1.0 -0.0809945663
C  C210  1  0.82830000  0.74670000  0.24330000  1.0 -0.0809945663
C  C211  1  0.15840000  0.25120000  0.81590000  1.0 -0.1500812657
C  C212  1  0.84160000  0.74880000  0.18410000  1.0 -0.1500812657
C  C213  1  0.08310000  0.22870000  0.83250000  1.0 0.0691444494
C  C214  1  0.91690000  0.77130000  0.16750000  1.0 0.0691444494
C  C215  1  0.06910000  0.22120000  0.89470000  1.0 -0.2099007443
C  C216  1  0.93090000  0.77880000  0.10530000  1.0 -0.2099007443
C  C217  1  0.99480000  0.20000000  0.91110000  1.0 0.076533171
C  C218  1  0.00520000  0.80000000  0.08890000  1.0 0.076533171
C  C219  1  0.97620000  0.18860000  0.97560000  1.0 -0.1500812657
C  C220  1  0.02380000  0.81140000  0.02440000  1.0 -0.1500812657
C  C221  1  0.90590000  0.17290000  0.98920000  1.0 -0.0917299961
C  C222  1  0.09410000  0.82710000  0.01080000  1.0 -0.0917299961
C  C223  1  0.84210000  0.16190000  0.94700000  1.0 -0.1206671903
C  C224  1  0.15790000  0.83810000  0.05300000  1.0 -0.1206671903
C  C225  1  0.85560000  0.17000000  0.88490000  1.0 -0.1386150127
C  C226  1  0.14440000  0.83000000  0.11510000  1.0 -0.1386150127
C  C227  1  0.93270000  0.18830000  0.86490000  1.0 0.0286151556
C  C228  1  0.06730000  0.81170000  0.13510000  1.0 0.0286151556
C  C229  1  0.54170000  0.75300000  0.92520000  1.0 -0.0181475897
C  C230  1  0.45830000  0.24700000  0.07480000  1.0 -0.0181475897
C  C231  1  0.59480000  0.72290000  0.92050000  1.0 -0.1991606987
C  C232  1  0.40520000  0.27710000  0.07950000  1.0 -0.1991606987
C  C233  1  0.59050000  0.69850000  0.02770000  1.0 -0.1991606987
C  C234  1  0.40950000  0.30150000  0.97230000  1.0 -0.1991606987
C  C235  1  0.53770000  0.72840000  0.03280000  1.0 0.0015657511
C  C236  1  0.46230000  0.27160000  0.96720000  1.0 0.0015657511
C  C237  1  0.51340000  0.75550000  0.98140000  1.0 -0.1308342911
C  C238  1  0.48660000  0.24450000  0.01860000  1.0 -0.1308342911
C  C239  1  0.62170000  0.69730000  0.97100000  1.0 0.2300977173
C  C240  1  0.37830000  0.30270000  0.02900000  1.0 0.2300977173
C  C241  1  0.50790000  0.73090000  0.09490000  1.0 0.5496719356
C  C242  1  0.49210000  0.26910000  0.90510000  1.0 0.5496719356
C  C243  1  0.69940000  0.65750000  0.90660000  1.0 -0.1308342911
C  C244  1  0.30060000  0.34250000  0.09340000  1.0 -0.1308342911
C  C245  1  0.76820000  0.63790000  0.91170000  1.0 -0.0181475897
C  C246  1  0.23180000  0.36210000  0.08830000  1.0 -0.0181475897
C  C247  1  0.75570000  0.56630000  0.92940000  1.0 0.0191983857
C  C248  1  0.24430000  0.43370000  0.07060000  1.0 0.0191983857
C  C249  1  0.68230000  0.51420000  0.93560000  1.0 -0.1386150127
C  C250  1  0.31770000  0.48580000  0.06440000  1.0 -0.1386150127
C  C251  1  0.67090000  0.44350000  0.94780000  1.0 -0.0716863622
C  C252  1  0.32910000  0.55650000  0.05220000  1.0 -0.0716863622
C  C253  1  0.73470000  0.42770000  0.95730000  1.0 -0.0917299961
C  C254  1  0.26530000  0.57230000  0.04270000  1.0 -0.0917299961
C  C255  1  0.80910000  0.47930000  0.95460000  1.0 -0.1683925738
C  C256  1  0.19090000  0.52070000  0.04540000  1.0 -0.1683925738
C  C257  1  0.81790000  0.54790000  0.93730000  1.0 0.076533171
C  C258  1  0.18210000  0.45210000  0.06270000  1.0 0.076533171
C  C259  1  0.88930000  0.60110000  0.92800000  1.0 -0.2314808642
C  C260  1  0.11070000  0.39890000  0.07200000  1.0 -0.2314808642
C  C261  1  0.90550000  0.67170000  0.90630000  1.0 0.0691444494
C  C262  1  0.09450000  0.32830000  0.09370000  1.0 0.0691444494
C  C263  1  0.97740000  0.72110000  0.88650000  1.0 -0.1683925738
C  C264  1  0.02260000  0.27890000  0.11350000  1.0 -0.1683925738
C  C265  1  0.98740000  0.78730000  0.86350000  1.0 -0.109606572
C  C266  1  0.01260000  0.21270000  0.13650000  1.0 -0.109606572
C  C267  1  0.92750000  0.80790000  0.85960000  1.0 -0.109606572
C  C268  1  0.07250000  0.19210000  0.14040000  1.0 -0.109606572
C  C269  1  0.85640000  0.76290000  0.87800000  1.0 -0.1595922075
C  C270  1  0.14360000  0.23710000  0.12200000  1.0 -0.1595922075
C  C271  1  0.84010000  0.69070000  0.89940000  1.0 0.0191983857
C  C272  1  0.15990000  0.30930000  0.10060000  1.0 0.0191983857
C  C273  1  0.33430000  0.44220000  0.70830000  1.0 0.5676980491
C  C274  1  0.66570000  0.55780000  0.29170000  1.0 0.5676980491
C  C275  1  0.51540000  0.77830000  0.86820000  1.0 0.6482734854
C  C276  1  0.48460000  0.22170000  0.13180000  1.0 0.6482734854
N  N1  1  0.15950000  0.37610000  0.25040000  1.0 -0.3662973468
N  N2  1  0.84050000  0.62390000  0.74960000  1.0 -0.3612180774
N  N3  1  0.90490000  0.01340000  0.25290000  1.0 -0.3612180774
N  N4  1  0.09510000  0.98660000  0.74710000  1.0 -0.3612180774
N  N5  1  0.30320000  0.81390000  0.46380000  1.0 -0.3193926041
N  N6  1  0.69680000  0.18610000  0.53620000  1.0 -0.3193926041
N  N7  1  0.09730000  0.48050000  0.72790000  1.0 -0.3394277518
N  N8  1  0.90270000  0.51950000  0.27210000  1.0 -0.3394277518
N  N9  1  0.83050000  0.12380000  0.74380000  1.0 -0.3337479507
N  N10  1  0.16950000  0.87620000  0.25620000  1.0 -0.3337479507
N  N11  1  0.67730000  0.67130000  0.96740000  1.0 -0.3193926041
N  N12  1  0.32270000  0.32870000  0.03260000  1.0 -0.3193926041
O  O1  1  0.37180000  0.61830000  0.20610000  1.0 -0.6211127763
O  O2  1  0.62820000  0.38170000  0.79390000  1.0 -0.6211127763
O  O3  1  0.47770000  0.61610000  0.24910000  1.0 -0.7247645979
O  O4  1  0.52230000  0.38390000  0.75090000  1.0 -0.7247645979
O  O5  1  0.43930000  0.72560000  0.31520000  1.0 -0.6512373214
O  O6  1  0.56070000  0.27440000  0.68480000  1.0 -0.6394075345
O  O7  1  0.52870000  0.70520000  0.37160000  1.0 -0.6703984265
O  O8  1  0.47130000  0.29480000  0.62840000  1.0 -0.6703984265
O  O9  1  0.58770000  0.78000000  0.25750000  1.0 -0.7033321385
O  O10  1  0.41230000  0.22000000  0.74250000  1.0 -0.7033321385
O  O11  1  0.68510000  0.77620000  0.31170000  1.0 -0.6333043103
O  O12  1  0.31490000  0.22380000  0.68830000  1.0 -0.6333043103
O  O13  1  0.65700000  0.68510000  0.41680000  1.0 -0.7966166859
O  O14  1  0.34300000  0.31490000  0.58320000  1.0 -0.7966166859
O  O15  1  0.35560000  0.26770000  0.27640000  1.0 -0.6394075345
O  O16  1  0.64440000  0.73230000  0.72360000  1.0 -0.6394075345
O  O17  1  0.46730000  0.35840000  0.26810000  1.0 -0.6103349054
O  O18  1  0.53270000  0.64160000  0.73190000  1.0 -0.6103349054
O  O19  1  0.60300000  0.03870000  0.24140000  1.0 -0.6211127763
O  O20  1  0.39700000  0.96130000  0.75860000  1.0 -0.6211127763
O  O21  1  0.71260000  0.12260000  0.21670000  1.0 -0.6512373214
O  O22  1  0.28740000  0.87740000  0.78330000  1.0 -0.6512373214
O  O23  1  0.53100000  0.73060000  0.60560000  1.0 -0.5833028083
O  O24  1  0.46900000  0.26940000  0.39440000  1.0 -0.5833028083
O  O25  1  0.46900000  0.79190000  0.63740000  1.0 -0.6394075345
O  O26  1  0.53100000  0.20810000  0.36260000  1.0 -0.6394075345
O  O27  1  0.62130000  0.87870000  0.71860000  1.0 -0.6103349054
O  O28  1  0.37870000  0.12130000  0.28140000  1.0 -0.6103349054
O  O29  1  0.51650000  0.88380000  0.74850000  1.0 -0.709756506
O  O30  1  0.48350000  0.11620000  0.25150000  1.0 -0.709756506
O  O31  1  0.41190000  0.72000000  0.74640000  1.0 -0.709756506
O  O32  1  0.58810000  0.28000000  0.25360000  1.0 -0.709756506
O  O33  1  0.31210000  0.72280000  0.78470000  1.0 -0.6005123779
O  O34  1  0.68790000  0.27720000  0.21530000  1.0 -0.6005123779
O  O35  1  0.46080000  0.79550000  0.86860000  1.0 -0.6394075345
O  O36  1  0.53920000  0.20450000  0.13140000  1.0 -0.6394075345
O  O37  1  0.55290000  0.77860000  0.82140000  1.0 -0.6941709643
O  O38  1  0.44710000  0.22140000  0.17860000  1.0 -0.6941709643
O  O39  1  0.33040000  0.82120000  0.88980000  1.0 -0.7270771389
O  O40  1  0.66960000  0.17880000  0.11020000  1.0 -0.7270771389
O  O41  1  0.64120000  0.23070000  0.79260000  1.0 -0.6394075345
O  O42  1  0.35880000  0.76930000  0.20740000  1.0 -0.6394075345
O  O43  1  0.52700000  0.14340000  0.77200000  1.0 -0.6103349054
O  O44  1  0.47300000  0.85660000  0.22800000  1.0 -0.6103349054
O  O45  1  0.29770000  0.38010000  0.67960000  1.0 -0.6703984265
O  O46  1  0.70230000  0.61990000  0.32040000  1.0 -0.6703984265
O  O47  1  0.40200000  0.46040000  0.72770000  1.0 -0.6005123779
O  O48  1  0.59800000  0.53960000  0.27230000  1.0 -0.6005123779
O  O49  1  0.46210000  0.75910000  0.10210000  1.0 -0.5925853674
O  O50  1  0.53790000  0.24090000  0.89790000  1.0 -0.5925853674
O  O51  1  0.53000000  0.70460000  0.13840000  1.0 -0.6005123779
O  O52  1  0.47000000  0.29540000  0.86160000  1.0 -0.6005123779
