# DDEC6 charges by PACMAN v1.1 (https://github.com/mtap-research/PACMAN-charge/)
data_DIFLIR_ASR_pacman
_symmetry_space_group_name_H-M   'P 1'
_cell_length_a   19.18020000
_cell_length_b   20.21560000
_cell_length_c   21.89820000
_cell_angle_alpha   90.69700000
_cell_angle_beta   93.67800000
_cell_angle_gamma   114.16100000
_symmetry_Int_Tables_number   1
_chemical_formula_structural   Eu2H47C69N3O13
_chemical_formula_sum   'Eu8 H188 C276 N12 O52'
_cell_volume   7724.14705652
_cell_formula_units_Z   4
loop_
 _symmetry_equiv_pos_site_id
 _symmetry_equiv_pos_as_xyz
  1  'x, y, z'
loop_
 _atom_site_type_symbol
 _atom_site_label
 _atom_site_symmetry_multiplicity
 _atom_site_fract_x
 _atom_site_fract_y
 _atom_site_fract_z
 _atom_site_occupancy
 _atom_site_charge
Eu  Eu1  1  0.46561000  0.73790000  0.21311000  1.0 2.0095710135
Eu  Eu2  1  0.53439000  0.26210000  0.78689000  1.0 2.0095710135
Eu  Eu3  1  0.59247000  0.65134000  0.31273000  1.0 2.048683343
Eu  Eu4  1  0.40753000  0.34866000  0.68727000  1.0 2.048683343
Eu  Eu5  1  0.53385000  0.75896000  0.71808000  1.0 2.0095710135
Eu  Eu6  1  0.46615000  0.24104000  0.28192000  1.0 2.0095710135
Eu  Eu7  1  0.40150000  0.84855000  0.79664000  1.0 2.0195998527
Eu  Eu8  1  0.59850000  0.15145000  0.20336000  1.0 2.0195998527
H  H1  1  0.60460000  0.65635000  0.43167000  1.0 0.3996751285
H  H2  1  0.39540000  0.34365000  0.56833000  1.0 0.3996751285
H  H3  1  0.69921000  0.66591000  0.42076000  1.0 0.4083070434
H  H4  1  0.30079000  0.33409000  0.57924000  1.0 0.4083070434
H  H5  1  0.30478000  0.84196000  0.88097000  1.0 0.3912199415
H  H6  1  0.69522000  0.15804000  0.11903000  1.0 0.3912199415
H  H7  1  0.37517000  0.83711000  0.91920000  1.0 0.4083070434
H  H8  1  0.62483000  0.16289000  0.08080000  1.0 0.4083070434
H  H9  1  0.13420000  0.33148000  0.24342000  1.0 0.2494466162
H  H10  1  0.86580000  0.66852000  0.75658000  1.0 0.2494466162
H  H11  1  0.92832000  0.05815000  0.24028000  1.0 0.2494466162
H  H12  1  0.07168000  0.94185000  0.75972000  1.0 0.2494466162
H  H13  1  0.28792000  0.82473000  0.49635000  1.0 0.2494466162
H  H14  1  0.71208000  0.17527000  0.50365000  1.0 0.2494466162
H  H15  1  0.70097000  0.66257000  0.00005000  1.0 0.2494466162
H  H16  1  0.29903000  0.33743000  0.99995000  1.0 0.2494466162
H  H17  1  0.84965000  0.09328000  0.73498000  1.0 0.2609533943
H  H18  1  0.15035000  0.90672000  0.26502000  1.0 0.2609533943
H  H19  1  0.07651000  0.51019000  0.73119000  1.0 0.2494466162
H  H20  1  0.92349000  0.48981000  0.26881000  1.0 0.2494466162
H  H21  1  0.25901000  0.50902000  0.23215000  1.0 0.1192645517
H  H22  1  0.74099000  0.49098000  0.76785000  1.0 0.1192645517
H  H23  1  0.24997000  0.31175000  0.26370000  1.0 0.1291227015
H  H24  1  0.75003000  0.68825000  0.73630000  1.0 0.1291227015
H  H25  1  0.45269000  0.47829000  0.24995000  1.0 0.1398884747
H  H26  1  0.54731000  0.52171000  0.75005000  1.0 0.1398884747
H  H27  1  0.13019000  0.45967000  0.22913000  1.0 0.1010789428
H  H28  1  0.86981000  0.54033000  0.77087000  1.0 0.1010789428
H  H29  1  0.13582000  0.44817000  0.29977000  1.0 0.1010789428
H  H30  1  0.86418000  0.55183000  0.70023000  1.0 0.1010789428
H  H31  1  0.09721000  0.34503000  0.35629000  1.0 0.1291227015
H  H32  1  0.90279000  0.65497000  0.64371000  1.0 0.1291227015
H  H33  1  0.04313000  0.27094000  0.43079000  1.0 0.1010789428
H  H34  1  0.95687000  0.72906000  0.56921000  1.0 0.1010789428
H  H35  1  0.91514000  0.18460000  0.41378000  1.0 0.1096905932
H  H36  1  0.08486000  0.81540000  0.58622000  1.0 0.1096905932
H  H37  1  0.84342000  0.19123000  0.33353000  1.0 0.1291227015
H  H38  1  0.15658000  0.80877000  0.66647000  1.0 0.1291227015
H  H39  1  0.82852000  0.24833000  0.23921000  1.0 0.1398884747
H  H40  1  0.17148000  0.75167000  0.76079000  1.0 0.1398884747
H  H41  1  0.80670000  0.30956000  0.14862000  1.0 0.1291227015
H  H42  1  0.19330000  0.69044000  0.85138000  1.0 0.1291227015
H  H43  1  0.85158000  0.39830000  0.08297000  1.0 0.1192645517
H  H44  1  0.14842000  0.60170000  0.91703000  1.0 0.1192645517
H  H45  1  0.97515000  0.48347000  0.09348000  1.0 0.1096905932
H  H46  1  0.02485000  0.51653000  0.90652000  1.0 0.1096905932
H  H47  1  0.05924000  0.47792000  0.17035000  1.0 0.1096905932
H  H48  1  0.94076000  0.52208000  0.82965000  1.0 0.1096905932
H  H49  1  0.80569000  0.88392000  0.27648000  1.0 0.1192645517
H  H50  1  0.19431000  0.11608000  0.72352000  1.0 0.1192645517
H  H51  1  0.81802000  0.08103000  0.23552000  1.0 0.1192645517
H  H52  1  0.18198000  0.91897000  0.76448000  1.0 0.1192645517
H  H53  1  0.61385000  0.91747000  0.25478000  1.0 0.1465794967
H  H54  1  0.38615000  0.08253000  0.74522000  1.0 0.1398884747
H  H55  1  0.94286000  0.93665000  0.23746000  1.0 0.1010789428
H  H56  1  0.05714000  0.06335000  0.76254000  1.0 0.1010789428
H  H57  1  0.93734000  0.95156000  0.30730000  1.0 0.1010789428
H  H58  1  0.06266000  0.04844000  0.69270000  1.0 0.1010789428
H  H59  1  0.02455000  0.11261000  0.45848000  1.0 0.1096905932
H  H60  1  0.97545000  0.88739000  0.54152000  1.0 0.1096905932
H  H61  1  0.97441000  0.03254000  0.37412000  1.0 0.1096905932
H  H62  1  0.02559000  0.96746000  0.62588000  1.0 0.1096905932
H  H63  1  0.22009000  0.21479000  0.37673000  1.0 0.1291227015
H  H64  1  0.77991000  0.78521000  0.62327000  1.0 0.1291227015
H  H65  1  0.14739000  0.20374000  0.45979000  1.0 0.1096905932
H  H66  1  0.85261000  0.79626000  0.54021000  1.0 0.1096905932
H  H67  1  0.23473000  0.16488000  0.28108000  1.0 0.1465794967
H  H68  1  0.76527000  0.83512000  0.71892000  1.0 0.1465794967
H  H69  1  0.25748000  0.13105000  0.18754000  1.0 0.1291227015
H  H70  1  0.74252000  0.86895000  0.81246000  1.0 0.1291227015
H  H71  1  0.21438000  0.05216000  0.10444000  1.0 0.1192645517
H  H72  1  0.78562000  0.94784000  0.89556000  1.0 0.1192645517
H  H73  1  0.09647000  0.96115000  0.09205000  1.0 0.1096905932
H  H74  1  0.90353000  0.03885000  0.90795000  1.0 0.1096905932
H  H75  1  0.00801000  0.94981000  0.16477000  1.0 0.1010789428
H  H76  1  0.99199000  0.05019000  0.83523000  1.0 0.1010789428
H  H77  1  0.36545000  0.76940000  0.37624000  1.0 0.1192645517
H  H78  1  0.63455000  0.23060000  0.62376000  1.0 0.1192645517
H  H79  1  0.38267000  0.80542000  0.55876000  1.0 0.1291227015
H  H80  1  0.61733000  0.19458000  0.44124000  1.0 0.1291227015
H  H81  1  0.51338000  0.72039000  0.48373000  1.0 0.1291227015
H  H82  1  0.48662000  0.27961000  0.51627000  1.0 0.1291227015
H  H83  1  0.23650000  0.77722000  0.38619000  1.0 0.1096905932
H  H84  1  0.76350000  0.22278000  0.61381000  1.0 0.1096905932
H  H85  1  0.30774000  0.85053000  0.37862000  1.0 0.1096905932
H  H86  1  0.69226000  0.14947000  0.62138000  1.0 0.1096905932
H  H87  1  0.13128000  0.72451000  0.42233000  1.0 0.1096905932
H  H88  1  0.86872000  0.27549000  0.57767000  1.0 0.1096905932
H  H89  1  0.00054000  0.67224000  0.43914000  1.0 0.1192645517
H  H90  1  0.99946000  0.32776000  0.56086000  1.0 0.1192645517
H  H91  1  0.93107000  0.73926000  0.44169000  1.0 0.1096905932
H  H92  1  0.06893000  0.26074000  0.55831000  1.0 0.1096905932
H  H93  1  0.98533000  0.86056000  0.43306000  1.0 0.1192645517
H  H94  1  0.01467000  0.13944000  0.56694000  1.0 0.1192645517
H  H95  1  0.10400000  0.97312000  0.42700000  1.0 0.1291227015
H  H96  1  0.89600000  0.02688000  0.57300000  1.0 0.1291227015
H  H97  1  0.22230000  0.08775000  0.42808000  1.0 0.1096905932
H  H98  1  0.77770000  0.91225000  0.57192000  1.0 0.1096905932
H  H99  1  0.35018000  0.14303000  0.42818000  1.0 0.1192645517
H  H100  1  0.64982000  0.85697000  0.57182000  1.0 0.1192645517
H  H101  1  0.42454000  0.07747000  0.42312000  1.0 0.1192645517
H  H102  1  0.57546000  0.92253000  0.57688000  1.0 0.1192645517
H  H103  1  0.36829000  0.95640000  0.41330000  1.0 0.1096905932
H  H104  1  0.63171000  0.04360000  0.58670000  1.0 0.1096905932
H  H105  1  0.73074000  0.99252000  0.72852000  1.0 0.1291227015
H  H106  1  0.26926000  0.00748000  0.27148000  1.0 0.1291227015
H  H107  1  0.74280000  0.19195000  0.76510000  1.0 0.1192645517
H  H108  1  0.25720000  0.80805000  0.23490000  1.0 0.1192645517
H  H109  1  0.53963000  0.02118000  0.75671000  1.0 0.1291227015
H  H110  1  0.46037000  0.97882000  0.24329000  1.0 0.1291227015
H  H111  1  0.85884000  0.22451000  0.77628000  1.0 0.0918097771
H  H112  1  0.14116000  0.77549000  0.22372000  1.0 0.0918097771
H  H113  1  0.90521000  0.21981000  0.72100000  1.0 0.1010789428
H  H114  1  0.09479000  0.78019000  0.27900000  1.0 0.1010789428
H  H115  1  0.81810000  0.16250000  0.85865000  1.0 0.1192645517
H  H116  1  0.18190000  0.83750000  0.14135000  1.0 0.1192645517
H  H117  1  0.79609000  0.14145000  0.95847000  1.0 0.1096905932
H  H118  1  0.20391000  0.85855000  0.04153000  1.0 0.1096905932
H  H119  1  0.90001000  0.16720000  0.03232000  1.0 0.1096905932
H  H120  1  0.09999000  0.83280000  0.96768000  1.0 0.1096905932
H  H121  1  0.01964000  0.20265000  0.00349000  1.0 0.1096905932
H  H122  1  0.98036000  0.79735000  0.99651000  1.0 0.1096905932
H  H123  1  0.11104000  0.23760000  0.92390000  1.0 0.1291227015
H  H124  1  0.88896000  0.76240000  0.07610000  1.0 0.1291227015
H  H125  1  0.19935000  0.26423000  0.84418000  1.0 0.1192645517
H  H126  1  0.80065000  0.73577000  0.15582000  1.0 0.1192645517
H  H127  1  0.22106000  0.26673000  0.74423000  1.0 0.1192645517
H  H128  1  0.77894000  0.73327000  0.25577000  1.0 0.1192645517
H  H129  1  0.12348000  0.24190000  0.66946000  1.0 0.1192645517
H  H130  1  0.87652000  0.75810000  0.33054000  1.0 0.1192645517
H  H131  1  0.00139000  0.20965000  0.69461000  1.0 0.1096905932
H  H132  1  0.99861000  0.79035000  0.30539000  1.0 0.1096905932
H  H133  1  0.61767000  0.72309000  0.88359000  1.0 0.1192645517
H  H134  1  0.38233000  0.27691000  0.11641000  1.0 0.1192645517
H  H135  1  0.60761000  0.68015000  0.06215000  1.0 0.1291227015
H  H136  1  0.39239000  0.31985000  0.93785000  1.0 0.1291227015
H  H137  1  0.47724000  0.77460000  0.98419000  1.0 0.1291227015
H  H138  1  0.52276000  0.22540000  0.01581000  1.0 0.1291227015
H  H139  1  0.71248000  0.70080000  0.88240000  1.0 0.1010789428
H  H140  1  0.28752000  0.29920000  0.11760000  1.0 0.1010789428
H  H141  1  0.65509000  0.61887000  0.88416000  1.0 0.1010789428
H  H142  1  0.34491000  0.38113000  0.11584000  1.0 0.1010789428
H  H143  1  0.62517000  0.40767000  0.95351000  1.0 0.1192645517
H  H144  1  0.37483000  0.59233000  0.04649000  1.0 0.1192645517
H  H145  1  0.64001000  0.52420000  0.93049000  1.0 0.1096905932
H  H146  1  0.35999000  0.47580000  0.06951000  1.0 0.1096905932
H  H147  1  0.85301000  0.47044000  0.95526000  1.0 0.1096905932
H  H148  1  0.14699000  0.52956000  0.04474000  1.0 0.1096905932
H  H149  1  0.73167000  0.38079000  0.96589000  1.0 0.1192645517
H  H150  1  0.26833000  0.61921000  0.03411000  1.0 0.1192645517
H  H151  1  0.93005000  0.58516000  0.93430000  1.0 0.1192645517
H  H152  1  0.06995000  0.41484000  0.06570000  1.0 0.1096905932
H  H153  1  0.01565000  0.70108000  0.89284000  1.0 0.1096905932
H  H154  1  0.98435000  0.29892000  0.10716000  1.0 0.1096905932
H  H155  1  0.03493000  0.81372000  0.85559000  1.0 0.1096905932
H  H156  1  0.96507000  0.18628000  0.14441000  1.0 0.1096905932
H  H157  1  0.93413000  0.84922000  0.84649000  1.0 0.1096905932
H  H158  1  0.06587000  0.15078000  0.15351000  1.0 0.1096905932
H  H159  1  0.81405000  0.77208000  0.87464000  1.0 0.1096905932
H  H160  1  0.18595000  0.22792000  0.12536000  1.0 0.1096905932
H  H161  1  0.19674000  0.61068000  0.74795000  1.0 0.1192645517
H  H162  1  0.80326000  0.38932000  0.25205000  1.0 0.1192645517
H  H163  1  0.18721000  0.41486000  0.69742000  1.0 0.1192645517
H  H164  1  0.81279000  0.58514000  0.30258000  1.0 0.1192645517
H  H165  1  0.38970000  0.58263000  0.73447000  1.0 0.1398884747
H  H166  1  0.61030000  0.41737000  0.26553000  1.0 0.1398884747
H  H167  1  0.06903000  0.37519000  0.74256000  1.0 0.1010789428
H  H168  1  0.93097000  0.62481000  0.25744000  1.0 0.1010789428
H  H169  1  0.03661000  0.38782000  0.67821000  1.0 0.1010789428
H  H170  1  0.96339000  0.61218000  0.32179000  1.0 0.1010789428
H  H171  1  0.96414000  0.42741000  0.63198000  1.0 0.1096905932
H  H172  1  0.03586000  0.57259000  0.36802000  1.0 0.1096905932
H  H173  1  0.86446000  0.43104000  0.57144000  1.0 0.1096905932
H  H174  1  0.13554000  0.56896000  0.42856000  1.0 0.1096905932
H  H175  1  0.74231000  0.39160000  0.60886000  1.0 0.1192645517
H  H176  1  0.25769000  0.60840000  0.39114000  1.0 0.1192645517
H  H177  1  0.72934000  0.36128000  0.70617000  1.0 0.1398884747
H  H178  1  0.27066000  0.63872000  0.29383000  1.0 0.1398884747
H  H179  1  0.78132000  0.34519000  0.80720000  1.0 0.1586911357
H  H180  1  0.21868000  0.65481000  0.19280000  1.0 0.1586911357
H  H181  1  0.83204000  0.32378000  0.91277000  1.0 0.1192645517
H  H182  1  0.16796000  0.67622000  0.08723000  1.0 0.1192645517
H  H183  1  0.93905000  0.35384000  0.97431000  1.0 0.1096905932
H  H184  1  0.06095000  0.64616000  0.02569000  1.0 0.1096905932
H  H185  1  0.05342000  0.37058000  0.93787000  1.0 0.1096905932
H  H186  1  0.94658000  0.62942000  0.06213000  1.0 0.1096905932
H  H187  1  0.06811000  0.38472000  0.83377000  1.0 0.1096905932
H  H188  1  0.93189000  0.61528000  0.16623000  1.0 0.1096905932
C  C1  1  0.40590000  0.58490000  0.23050000  1.0 0.6142367698
C  C2  1  0.59410000  0.41510000  0.76950000  1.0 0.6142367698
C  C3  1  0.36250000  0.50490000  0.23990000  1.0 -0.003258241
C  C4  1  0.63750000  0.49510000  0.76010000  1.0 -0.003258241
C  C5  1  0.28330000  0.47800000  0.23910000  1.0 -0.1988386151
C  C6  1  0.71670000  0.52200000  0.76090000  1.0 -0.1988386151
C  C7  1  0.24060000  0.40620000  0.24860000  1.0 0.2008891232
C  C8  1  0.75940000  0.59380000  0.75140000  1.0 0.2008891232
C  C9  1  0.27840000  0.36070000  0.25760000  1.0 -0.2088573241
C  C10  1  0.72160000  0.63930000  0.74240000  1.0 -0.2088573241
C  C11  1  0.35650000  0.38630000  0.25780000  1.0 0.0023308088
C  C12  1  0.64350000  0.61370000  0.74220000  1.0 0.0023308088
C  C13  1  0.39960000  0.45990000  0.24930000  1.0 -0.1402323018
C  C14  1  0.60040000  0.54010000  0.75070000  1.0 -0.1402323018
C  C15  1  0.39450000  0.33560000  0.26780000  1.0 0.5624735928
C  C16  1  0.60550000  0.66440000  0.73220000  1.0 0.5624735928
C  C17  1  0.11880000  0.42330000  0.25990000  1.0 -0.1121166937
C  C18  1  0.88120000  0.57670000  0.74010000  1.0 -0.1121166937
C  C19  1  0.03300000  0.37760000  0.25680000  1.0 -0.012326376
C  C20  1  0.96700000  0.62240000  0.74320000  1.0 -0.012326376
C  C21  1  0.00340000  0.32580000  0.30050000  1.0 0.0209236638
C  C22  1  0.99660000  0.67420000  0.69950000  1.0 0.0209236638
C  C23  1  0.04470000  0.31680000  0.35190000  1.0 -0.1402323018
C  C24  1  0.95530000  0.68320000  0.64810000  1.0 -0.1402323018
C  C25  1  0.01410000  0.27060000  0.39500000  1.0 -0.1121166937
C  C26  1  0.98590000  0.72940000  0.60500000  1.0 -0.1121166937
C  C27  1  0.93610000  0.22020000  0.38570000  1.0 -0.0991028687
C  C28  1  0.06390000  0.77980000  0.61430000  1.0 -0.0991028687
C  C29  1  0.89460000  0.22390000  0.33860000  1.0 -0.1402323018
C  C30  1  0.10540000  0.77610000  0.66140000  1.0 -0.1402323018
C  C31  1  0.92510000  0.27680000  0.29410000  1.0 0.0768733583
C  C32  1  0.07490000  0.72320000  0.70590000  1.0 0.0768733583
C  C33  1  0.87920000  0.28200000  0.24480000  1.0 -0.1935324319
C  C34  1  0.12080000  0.71800000  0.75520000  1.0 -0.1935324319
C  C35  1  0.90710000  0.33600000  0.20370000  1.0 0.0700072266
C  C36  1  0.09290000  0.66400000  0.79630000  1.0 0.0700072266
C  C37  1  0.85770000  0.34270000  0.15370000  1.0 -0.1402323018
C  C38  1  0.14230000  0.65730000  0.84630000  1.0 -0.1402323018
C  C39  1  0.88430000  0.39550000  0.11510000  1.0 -0.0991028687
C  C40  1  0.11570000  0.60450000  0.88490000  1.0 -0.0991028687
C  C41  1  0.95870000  0.44640000  0.12090000  1.0 -0.1190535755
C  C42  1  0.04130000  0.55360000  0.87910000  1.0 -0.1190535755
C  C43  1  0.00900000  0.44290000  0.16690000  1.0 -0.1687606641
C  C44  1  0.99100000  0.55710000  0.83310000  1.0 -0.1687606641
C  C45  1  0.65790000  0.81130000  0.28080000  1.0 0.6326604463
C  C46  1  0.34210000  0.18870000  0.71920000  1.0 0.6326604463
C  C47  1  0.70250000  0.88860000  0.26690000  1.0 -0.012326376
C  C48  1  0.29750000  0.11140000  0.73310000  1.0 -0.012326376
C  C49  1  0.78170000  0.91470000  0.26730000  1.0 -0.1988386151
C  C50  1  0.21830000  0.08530000  0.73270000  1.0 -0.1988386151
C  C51  1  0.82540000  0.98580000  0.25430000  1.0 0.2180984668
C  C52  1  0.17460000  0.01420000  0.74570000  1.0 0.2180984668
C  C53  1  0.78900000  0.03270000  0.24350000  1.0 -0.2088573241
C  C54  1  0.21100000  0.96730000  0.75650000  1.0 -0.2088573241
C  C55  1  0.71150000  0.00810000  0.24460000  1.0 0.0023308088
C  C56  1  0.28850000  0.99190000  0.75540000  1.0 0.0023308088
C  C57  1  0.66690000  0.93470000  0.25540000  1.0 -0.1190535755
C  C58  1  0.33310000  0.06530000  0.74460000  1.0 -0.1190535755
C  C59  1  0.67320000  0.05850000  0.23430000  1.0 0.5740995384
C  C60  1  0.32680000  0.94150000  0.76570000  1.0 0.5740995384
C  C61  1  0.95140000  0.97430000  0.26860000  1.0 -0.1190535755
C  C62  1  0.04860000  0.02570000  0.73140000  1.0 -0.1190535755
C  C63  1  0.03400000  0.02680000  0.27370000  1.0 -0.0299958312
C  C64  1  0.96600000  0.97320000  0.72630000  1.0 -0.0225826017
C  C65  1  0.05370000  0.11700000  0.42520000  1.0 -0.1190535755
C  C66  1  0.94630000  0.88300000  0.57480000  1.0 -0.1190535755
C  C67  1  0.02370000  0.06910000  0.37460000  1.0 -0.1613778763
C  C68  1  0.97630000  0.93090000  0.62540000  1.0 -0.1613778763
C  C69  1  0.06720000  0.07570000  0.32490000  1.0 0.0209236638
C  C70  1  0.93280000  0.92430000  0.67510000  1.0 0.0209236638
C  C71  1  0.14080000  0.13030000  0.32570000  1.0 0.0700072266
C  C72  1  0.85920000  0.86970000  0.67430000  1.0 0.0700072266
C  C73  1  0.17080000  0.17830000  0.37620000  1.0 -0.1402323018
C  C74  1  0.82920000  0.82170000  0.62380000  1.0 -0.1402323018
C  C75  1  0.12730000  0.17160000  0.42600000  1.0 -0.1190535755
C  C76  1  0.87270000  0.82840000  0.57400000  1.0 -0.1190535755
C  C77  1  0.18410000  0.13090000  0.27890000  1.0 -0.1687606641
C  C78  1  0.81590000  0.86910000  0.72110000  1.0 -0.1687606641
C  C79  1  0.15810000  0.08620000  0.23100000  1.0 0.0700072266
C  C80  1  0.84190000  0.91380000  0.76900000  1.0 0.0700072266
C  C81  1  0.20810000  0.09460000  0.18460000  1.0 -0.148803528
C  C82  1  0.79190000  0.90540000  0.81540000  1.0 -0.148803528
C  C83  1  0.18100000  0.04680000  0.13490000  1.0 -0.0991028687
C  C84  1  0.81900000  0.95320000  0.86510000  1.0 -0.0991028687
C  C85  1  0.11030000  0.99270000  0.12630000  1.0 -0.1121166937
C  C86  1  0.88970000  0.00730000  0.87370000  1.0 -0.1121166937
C  C87  1  0.05770000  0.98550000  0.17080000  1.0 -0.1613778763
C  C88  1  0.94230000  0.01450000  0.82920000  1.0 -0.1613778763
C  C89  1  0.08020000  0.03370000  0.22710000  1.0 0.0209236638
C  C90  1  0.91980000  0.96630000  0.77290000  1.0 0.0209236638
C  C91  1  0.47100000  0.72370000  0.36630000  1.0 0.6406125255
C  C92  1  0.52900000  0.27630000  0.63370000  1.0 0.6406125255
C  C93  1  0.44420000  0.74270000  0.42190000  1.0 -0.0503102042
C  C94  1  0.55580000  0.25730000  0.57810000  1.0 -0.0503102042
C  C95  1  0.38680000  0.76770000  0.41520000  1.0 -0.1988386151
C  C96  1  0.61320000  0.23230000  0.58480000  1.0 -0.1988386151
C  C97  1  0.36060000  0.79040000  0.46630000  1.0 0.2304183483
C  C98  1  0.63940000  0.20960000  0.53370000  1.0 0.2304183483
C  C99  1  0.39670000  0.78830000  0.52410000  1.0 -0.1988386151
C  C100  1  0.60330000  0.21170000  0.47590000  1.0 -0.1988386151
C  C101  1  0.45210000  0.76180000  0.53020000  1.0 -0.003258241
C  C102  1  0.54790000  0.23820000  0.46980000  1.0 -0.003258241
C  C103  1  0.47610000  0.73860000  0.47940000  1.0 -0.1293697737
C  C104  1  0.52390000  0.26140000  0.52060000  1.0 -0.1293697737
C  C105  1  0.48460000  0.75800000  0.59380000  1.0 0.5499517895
C  C106  1  0.51540000  0.24200000  0.40620000  1.0 0.5499517895
C  C107  1  0.26840000  0.82430000  0.40570000  1.0 -0.1293697737
C  C108  1  0.73160000  0.17570000  0.59430000  1.0 -0.1293697737
C  C109  1  0.22060000  0.86530000  0.41620000  1.0 -0.0225826017
C  C110  1  0.77940000  0.13470000  0.58380000  1.0 -0.0299958312
C  C111  1  0.14180000  0.82910000  0.42310000  1.0 0.0277065634
C  C112  1  0.85820000  0.17090000  0.57690000  1.0 0.0277065634
C  C113  1  0.10450000  0.75350000  0.42600000  1.0 -0.1613778763
C  C114  1  0.89550000  0.24650000  0.57400000  1.0 -0.1613778763
C  C115  1  0.02490000  0.72210000  0.43480000  1.0 -0.1190535755
C  C116  1  0.97510000  0.27790000  0.56520000  1.0 -0.1190535755
C  C117  1  0.98330000  0.76230000  0.43700000  1.0 -0.1121166937
C  C118  1  0.01670000  0.23770000  0.56300000  1.0 -0.1121166937
C  C119  1  0.01560000  0.83450000  0.43260000  1.0 -0.1687606641
C  C120  1  0.98440000  0.16550000  0.56740000  1.0 -0.1687606641
C  C121  1  0.09650000  0.87210000  0.42730000  1.0 0.0700072266
C  C122  1  0.90350000  0.12790000  0.57270000  1.0 0.0700072266
C  C123  1  0.13330000  0.94620000  0.42580000  1.0 -0.2166211218
C  C124  1  0.86670000  0.05380000  0.57420000  1.0 -0.2166211218
C  C125  1  0.21160000  0.98320000  0.42260000  1.0 0.0768733583
C  C126  1  0.78840000  0.01680000  0.57740000  1.0 0.0768733583
C  C127  1  0.25040000  0.05980000  0.42590000  1.0 -0.148803528
C  C128  1  0.74960000  0.94020000  0.57410000  1.0 -0.148803528
C  C129  1  0.32650000  0.09260000  0.42580000  1.0 -0.0789279141
C  C130  1  0.67350000  0.90740000  0.57420000  1.0 -0.0789279141
C  C131  1  0.37150000  0.05350000  0.42220000  1.0 -0.0704935067
C  C132  1  0.62850000  0.94650000  0.57780000  1.0 -0.0704935067
C  C133  1  0.33780000  0.98180000  0.41740000  1.0 -0.148803528
C  C134  1  0.66220000  0.01820000  0.58260000  1.0 -0.148803528
C  C135  1  0.25500000  0.94030000  0.41840000  1.0 0.0277065634
C  C136  1  0.74500000  0.05970000  0.58160000  1.0 0.0277065634
C  C137  1  0.58770000  0.91490000  0.73560000  1.0 0.6234298325
C  C138  1  0.41230000  0.08510000  0.26440000  1.0 0.6234298325
C  C139  1  0.62950000  0.99540000  0.74340000  1.0 -0.012326376
C  C140  1  0.37050000  0.00460000  0.25660000  1.0 -0.012326376
C  C141  1  0.70750000  0.02320000  0.73830000  1.0 -0.1935324319
C  C142  1  0.29250000  0.97680000  0.26170000  1.0 -0.1935324319
C  C143  1  0.75140000  0.09790000  0.74780000  1.0 0.2008891232
C  C144  1  0.24860000  0.90210000  0.25220000  1.0 0.2008891232
C  C145  1  0.71450000  0.14210000  0.75950000  1.0 -0.2088573241
C  C146  1  0.28550000  0.85790000  0.24050000  1.0 -0.2088573241
C  C147  1  0.63630000  0.11360000  0.76310000  1.0 -0.012326376
C  C148  1  0.36370000  0.88640000  0.23690000  1.0 -0.012326376
C  C149  1  0.59250000  0.04020000  0.75480000  1.0 -0.1293697737
C  C150  1  0.40750000  0.95980000  0.24520000  1.0 -0.1293697737
C  C151  1  0.60050000  0.16390000  0.77700000  1.0 0.5752965785
C  C152  1  0.39950000  0.83610000  0.22300000  1.0 0.5752965785
C  C153  1  0.88470000  0.19730000  0.75850000  1.0 -0.1293697737
C  C154  1  0.11530000  0.80270000  0.24150000  1.0 -0.1293697737
C  C155  1  0.94920000  0.19900000  0.80290000  1.0 -0.012326376
C  C156  1  0.05080000  0.80100000  0.19710000  1.0 -0.012326376
C  C157  1  0.93310000  0.18740000  0.86690000  1.0 0.0277065634
C  C158  1  0.06690000  0.81260000  0.13310000  1.0 0.0277065634
C  C159  1  0.85850000  0.16810000  0.88700000  1.0 -0.1293697737
C  C160  1  0.14150000  0.83190000  0.11300000  1.0 -0.1293697737
C  C161  1  0.84580000  0.15780000  0.94630000  1.0 -0.1121166937
C  C162  1  0.15420000  0.84220000  0.05370000  1.0 -0.1121166937
C  C163  1  0.90870000  0.17190000  0.99100000  1.0 -0.0991028687
C  C164  1  0.09130000  0.82810000  0.00900000  1.0 -0.0991028687
C  C165  1  0.97930000  0.19180000  0.97370000  1.0 -0.148803528
C  C166  1  0.02070000  0.80820000  0.02630000  1.0 -0.148803528
C  C167  1  0.99500000  0.19700000  0.91160000  1.0 0.0700072266
C  C168  1  0.00500000  0.80300000  0.08840000  1.0 0.0700072266
C  C169  1  0.07030000  0.22380000  0.89410000  1.0 -0.2088573241
C  C170  1  0.92970000  0.77620000  0.10590000  1.0 -0.2088573241
C  C171  1  0.08440000  0.22970000  0.83310000  1.0 0.0700072266
C  C172  1  0.91560000  0.77030000  0.16690000  1.0 0.0700072266
C  C173  1  0.15840000  0.25140000  0.81470000  1.0 -0.148803528
C  C174  1  0.84160000  0.74860000  0.18530000  1.0 -0.148803528
C  C175  1  0.17140000  0.25410000  0.75540000  1.0 -0.0915382378
C  C176  1  0.82860000  0.74590000  0.24460000  1.0 -0.0915382378
C  C177  1  0.11290000  0.23870000  0.71040000  1.0 -0.0991028687
C  C178  1  0.88710000  0.76130000  0.28960000  1.0 -0.0991028687
C  C179  1  0.04040000  0.21910000  0.72540000  1.0 -0.1687606641
C  C180  1  0.95960000  0.78090000  0.27460000  1.0 -0.1687606641
C  C181  1  0.02300000  0.21270000  0.78680000  1.0 0.0209236638
C  C182  1  0.97700000  0.78730000  0.21320000  1.0 0.0209236638
C  C183  1  0.51770000  0.77710000  0.86790000  1.0 0.6522611357
C  C184  1  0.48230000  0.22290000  0.13210000  1.0 0.6522611357
C  C185  1  0.54330000  0.75260000  0.92530000  1.0 -0.0225826017
C  C186  1  0.45670000  0.24740000  0.07470000  1.0 -0.0225826017
C  C187  1  0.59810000  0.72440000  0.92110000  1.0 -0.1988386151
C  C188  1  0.40190000  0.27560000  0.07890000  1.0 -0.1988386151
C  C189  1  0.62410000  0.69840000  0.97190000  1.0 0.2304183483
C  C190  1  0.37590000  0.30160000  0.02810000  1.0 0.2304183483
C  C191  1  0.59250000  0.69920000  0.02790000  1.0 -0.2088573241
C  C192  1  0.40750000  0.30080000  0.97210000  1.0 -0.2088573241
C  C193  1  0.53920000  0.72820000  0.03210000  1.0 0.0023308088
C  C194  1  0.46080000  0.27180000  0.96790000  1.0 0.0023308088
C  C195  1  0.51340000  0.75530000  0.98090000  1.0 -0.1402323018
C  C196  1  0.48660000  0.24470000  0.01910000  1.0 -0.1402323018
C  C197  1  0.50990000  0.73260000  0.09320000  1.0 0.5499517895
C  C198  1  0.49010000  0.26740000  0.90680000  1.0 0.5499517895
C  C199  1  0.69890000  0.65740000  0.90580000  1.0 -0.1293697737
C  C200  1  0.30110000  0.34260000  0.09420000  1.0 -0.1293697737
C  C201  1  0.76610000  0.63560000  0.91200000  1.0 -0.0225826017
C  C202  1  0.23390000  0.36440000  0.08800000  1.0 -0.0225826017
C  C203  1  0.67380000  0.44360000  0.94920000  1.0 -0.0704935067
C  C204  1  0.32620000  0.55640000  0.05080000  1.0 -0.0704935067
C  C205  1  0.68270000  0.51340000  0.93550000  1.0 -0.1402323018
C  C206  1  0.31730000  0.48660000  0.06450000  1.0 -0.1402323018
C  C207  1  0.75540000  0.56710000  0.92910000  1.0 0.0209236638
C  C208  1  0.24460000  0.43290000  0.07090000  1.0 0.0209236638
C  C209  1  0.81920000  0.55100000  0.93650000  1.0 0.0700072266
C  C210  1  0.18080000  0.44900000  0.06350000  1.0 0.0768733583
C  C211  1  0.81030000  0.48120000  0.95030000  1.0 -0.1825893991
C  C212  1  0.18970000  0.51880000  0.04970000  1.0 -0.1825893991
C  C213  1  0.73760000  0.42750000  0.95670000  1.0 -0.0915382378
C  C214  1  0.26240000  0.57250000  0.04330000  1.0 -0.0915382378
C  C215  1  0.88910000  0.59820000  0.92710000  1.0 -0.2166211218
C  C216  1  0.11090000  0.40180000  0.07290000  1.0 -0.2166211218
C  C217  1  0.84290000  0.69040000  0.90060000  1.0 0.0277065634
C  C218  1  0.15710000  0.30960000  0.09940000  1.0 0.0277065634
C  C219  1  0.90330000  0.66910000  0.90610000  1.0 0.0700072266
C  C220  1  0.09670000  0.33090000  0.09390000  1.0 0.0700072266
C  C221  1  0.97520000  0.71530000  0.88920000  1.0 -0.1613778763
C  C222  1  0.02480000  0.28470000  0.11080000  1.0 -0.1613778763
C  C223  1  0.98680000  0.78280000  0.86690000  1.0 -0.1190535755
C  C224  1  0.01320000  0.21720000  0.13310000  1.0 -0.1190535755
C  C225  1  0.92640000  0.80410000  0.86140000  1.0 -0.1121166937
C  C226  1  0.07360000  0.19590000  0.13860000  1.0 -0.1121166937
C  C227  1  0.85450000  0.75790000  0.87830000  1.0 -0.1613778763
C  C228  1  0.14550000  0.24210000  0.12170000  1.0 -0.1613778763
C  C229  1  0.34220000  0.68760000  0.75910000  1.0 0.6406125255
C  C230  1  0.65780000  0.31240000  0.24090000  1.0 0.6406125255
C  C231  1  0.29830000  0.60800000  0.74380000  1.0 -0.003258241
C  C232  1  0.70170000  0.39200000  0.25620000  1.0 -0.003258241
C  C233  1  0.22090000  0.58000000  0.74080000  1.0 -0.1988386151
C  C234  1  0.77910000  0.42000000  0.25920000  1.0 -0.1988386151
C  C235  1  0.17660000  0.50730000  0.72760000  1.0 0.2180984668
C  C236  1  0.82340000  0.49270000  0.27240000  1.0 0.2180984668
C  C237  1  0.21520000  0.46240000  0.71220000  1.0 -0.1825893991
C  C238  1  0.78480000  0.53760000  0.28780000  1.0 -0.1825893991
C  C239  1  0.29360000  0.49030000  0.71940000  1.0 -0.0225826017
C  C240  1  0.70640000  0.50970000  0.28060000  1.0 -0.0225826017
C  C241  1  0.33650000  0.56340000  0.73280000  1.0 -0.1190535755
C  C242  1  0.66350000  0.43660000  0.26720000  1.0 -0.1190535755
C  C243  1  0.33210000  0.44260000  0.70830000  1.0 0.5752965785
C  C244  1  0.66790000  0.55740000  0.29170000  1.0 0.5752965785
C  C245  1  0.04540000  0.40340000  0.72120000  1.0 -0.1293697737
C  C246  1  0.95460000  0.59660000  0.27880000  1.0 -0.1293697737
C  C247  1  0.97060000  0.38970000  0.74670000  1.0 -0.0299958312
C  C248  1  0.02940000  0.61030000  0.25330000  1.0 -0.0299958312
C  C249  1  0.90930000  0.39170000  0.70830000  1.0 0.0209236638
C  C250  1  0.09070000  0.60830000  0.29170000  1.0 0.0209236638
C  C251  1  0.91660000  0.41350000  0.64790000  1.0 -0.1687606641
C  C252  1  0.08340000  0.58650000  0.35210000  1.0 -0.1687606641
C  C253  1  0.85690000  0.41530000  0.61120000  1.0 -0.1190535755
C  C254  1  0.14310000  0.58470000  0.38880000  1.0 -0.1190535755
C  C255  1  0.78420000  0.39320000  0.63370000  1.0 -0.0991028687
C  C256  1  0.21580000  0.60680000  0.36630000  1.0 -0.0991028687
C  C257  1  0.77740000  0.37470000  0.69140000  1.0 -0.1402323018
C  C258  1  0.22260000  0.62530000  0.30860000  1.0 -0.1402323018
C  C259  1  0.83610000  0.37350000  0.73220000  1.0 0.0700072266
C  C260  1  0.16390000  0.62650000  0.26780000  1.0 0.0700072266
C  C261  1  0.82910000  0.35750000  0.79210000  1.0 -0.1988386151
C  C262  1  0.17090000  0.64250000  0.20790000  1.0 -0.1988386151
C  C263  1  0.88710000  0.35810000  0.83150000  1.0 0.0700072266
C  C264  1  0.11290000  0.64190000  0.16850000  1.0 0.0700072266
C  C265  1  0.87980000  0.34210000  0.89680000  1.0 -0.148803528
C  C266  1  0.12020000  0.65790000  0.10320000  1.0 -0.148803528
C  C267  1  0.94260000  0.35440000  0.93220000  1.0 -0.0991028687
C  C268  1  0.05740000  0.64560000  0.06780000  1.0 -0.0991028687
C  C269  1  0.01260000  0.36790000  0.91110000  1.0 -0.1190535755
C  C270  1  0.98740000  0.63210000  0.08890000  1.0 -0.1190535755
C  C271  1  0.02160000  0.37760000  0.84910000  1.0 -0.148803528
C  C272  1  0.97840000  0.62240000  0.15090000  1.0 -0.148803528
C  C273  1  0.96130000  0.37670000  0.80950000  1.0 0.0277065634
C  C274  1  0.03870000  0.62330000  0.19050000  1.0 0.0277065634
C  C275  1  0.98520000  0.38580000  0.21010000  1.0 0.0209236638
C  C276  1  0.01480000  0.61420000  0.78990000  1.0 0.0209236638
N  N1  1  0.16010000  0.37750000  0.24940000  1.0 -0.3608428412
N  N2  1  0.83990000  0.62250000  0.75060000  1.0 -0.3608428412
N  N3  1  0.90530000  0.01450000  0.25200000  1.0 -0.3532723956
N  N4  1  0.09470000  0.98550000  0.74800000  1.0 -0.3532723956
N  N5  1  0.30340000  0.81470000  0.46290000  1.0 -0.3152946257
N  N6  1  0.69660000  0.18530000  0.53710000  1.0 -0.3152946257
N  N7  1  0.67890000  0.67130000  0.96760000  1.0 -0.3270079964
N  N8  1  0.32110000  0.32870000  0.03240000  1.0 -0.3270079964
N  N9  1  0.83150000  0.12390000  0.74530000  1.0 -0.3723215483
N  N10  1  0.16850000  0.87610000  0.25470000  1.0 -0.3723215483
N  N11  1  0.09670000  0.47960000  0.72730000  1.0 -0.3427501642
N  N12  1  0.90330000  0.52040000  0.27270000  1.0 -0.3427501642
O  O1  1  0.58920000  0.77960000  0.25910000  1.0 -0.7171253585
O  O2  1  0.41080000  0.22040000  0.74090000  1.0 -0.7171253585
O  O3  1  0.68810000  0.77780000  0.31240000  1.0 -0.6118142231
O  O4  1  0.31190000  0.22220000  0.68760000  1.0 -0.6118142231
O  O5  1  0.37020000  0.61790000  0.20570000  1.0 -0.5967759215
O  O6  1  0.62980000  0.38210000  0.79430000  1.0 -0.5967759215
O  O7  1  0.47620000  0.61660000  0.24780000  1.0 -0.7274709963
O  O8  1  0.52380000  0.38340000  0.75220000  1.0 -0.7274709963
O  O9  1  0.52660000  0.70430000  0.37190000  1.0 -0.6898263119
O  O10  1  0.47340000  0.29570000  0.62810000  1.0 -0.6898263119
O  O11  1  0.44020000  0.72680000  0.31550000  1.0 -0.6394305848
O  O12  1  0.55980000  0.27320000  0.68450000  1.0 -0.6394305848
O  O13  1  0.65750000  0.68520000  0.41730000  1.0 -0.8199745738
O  O14  1  0.34250000  0.31480000  0.58270000  1.0 -0.8199745738
O  O15  1  0.60320000  0.03850000  0.24200000  1.0 -0.6188938194
O  O16  1  0.39680000  0.96150000  0.75800000  1.0 -0.6188938194
O  O17  1  0.71180000  0.12190000  0.21670000  1.0 -0.6898263119
O  O18  1  0.28820000  0.87810000  0.78330000  1.0 -0.6898263119
O  O19  1  0.35610000  0.27030000  0.27720000  1.0 -0.6188938194
O  O20  1  0.64390000  0.72970000  0.72280000  1.0 -0.6188938194
O  O21  1  0.46560000  0.35870000  0.26770000  1.0 -0.5967759215
O  O22  1  0.53440000  0.64130000  0.73230000  1.0 -0.5967759215
O  O23  1  0.53080000  0.73300000  0.60450000  1.0 -0.5601261281
O  O24  1  0.46920000  0.26700000  0.39550000  1.0 -0.5601261281
O  O25  1  0.46640000  0.78890000  0.63630000  1.0 -0.6188938194
O  O26  1  0.53360000  0.21110000  0.36370000  1.0 -0.6188938194
O  O27  1  0.62350000  0.87910000  0.71820000  1.0 -0.6188938194
O  O28  1  0.37650000  0.12090000  0.28180000  1.0 -0.6188938194
O  O29  1  0.51810000  0.88340000  0.74680000  1.0 -0.7274709963
O  O30  1  0.48190000  0.11660000  0.25320000  1.0 -0.7274709963
O  O31  1  0.55230000  0.77830000  0.82200000  1.0 -0.6516348743
O  O32  1  0.44770000  0.22170000  0.17800000  1.0 -0.6516348743
O  O33  1  0.46200000  0.79590000  0.86930000  1.0 -0.6898263119
O  O34  1  0.53800000  0.20410000  0.13070000  1.0 -0.6898263119
O  O35  1  0.41110000  0.71790000  0.74740000  1.0 -0.7110518538
O  O36  1  0.58890000  0.28210000  0.25260000  1.0 -0.7110518538
O  O37  1  0.31030000  0.72160000  0.78490000  1.0 -0.6118142231
O  O38  1  0.68970000  0.27840000  0.21510000  1.0 -0.6118142231
O  O39  1  0.33340000  0.82410000  0.89170000  1.0 -0.7618532204
O  O40  1  0.66666667  0.17590000  0.10830000  1.0 -0.7618532204
O  O41  1  0.64170000  0.22950000  0.79300000  1.0 -0.6312081241
O  O42  1  0.35830000  0.77050000  0.20700000  1.0 -0.6312081241
O  O43  1  0.52750000  0.14270000  0.77180000  1.0 -0.6312081241
O  O44  1  0.47250000  0.85730000  0.22820000  1.0 -0.6312081241
O  O45  1  0.53210000  0.70550000  0.13740000  1.0 -0.6118142231
O  O46  1  0.46790000  0.29450000  0.86260000  1.0 -0.6118142231
O  O47  1  0.46350000  0.75720000  0.10070000  1.0 -0.5601261281
O  O48  1  0.53650000  0.24280000  0.89930000  1.0 -0.5601261281
O  O49  1  0.40180000  0.46170000  0.72860000  1.0 -0.6312081241
O  O50  1  0.59820000  0.53830000  0.27140000  1.0 -0.6312081241
O  O51  1  0.29690000  0.38160000  0.67960000  1.0 -0.6823268556
O  O52  1  0.70310000  0.61840000  0.32040000  1.0 -0.6823268556
