# DDEC6 charges by PACMAN v1.1 (https://github.com/mtap-research/PACMAN-charge/)
data_DIFLOX_ASR_pacman
_symmetry_space_group_name_H-M   'P 1'
_cell_length_a   19.17790000
_cell_length_b   20.22440000
_cell_length_c   21.87980000
_cell_angle_alpha   90.67900000
_cell_angle_beta   93.68800000
_cell_angle_gamma   114.19200000
_symmetry_Int_Tables_number   1
_chemical_formula_structural   Gd2H47C69N3O13
_chemical_formula_sum   'Gd8 H188 C276 N12 O52'
_cell_volume   7718.20085695
_cell_formula_units_Z   4
loop_
 _symmetry_equiv_pos_site_id
 _symmetry_equiv_pos_as_xyz
  1  'x, y, z'
loop_
 _atom_site_type_symbol
 _atom_site_label
 _atom_site_symmetry_multiplicity
 _atom_site_fract_x
 _atom_site_fract_y
 _atom_site_fract_z
 _atom_site_occupancy
 _atom_site_charge
Gd  Gd1  1  0.46619000  0.24069000  0.28158000  1.0 1.967675304
Gd  Gd2  1  0.53381000  0.75931000  0.71842000  1.0 1.967675304
Gd  Gd3  1  0.53441000  0.26255000  0.78650000  1.0 1.9562319275
Gd  Gd4  1  0.46559000  0.73745000  0.21350000  1.0 1.9562319275
Gd  Gd5  1  0.40725000  0.34862000  0.68726000  1.0 2.0025701281
Gd  Gd6  1  0.59275000  0.65138000  0.31274000  1.0 2.0025701281
Gd  Gd7  1  0.59895000  0.15149000  0.20306000  1.0 2.0082251784
Gd  Gd8  1  0.40105000  0.84851000  0.79694000  1.0 2.0082251784
H  H1  1  0.29006000  0.32087000  0.58047000  1.0 0.4120264109
H  H2  1  0.70994000  0.67913000  0.41953000  1.0 0.4120264109
H  H3  1  0.38935000  0.33594000  0.56797000  1.0 0.4026731904
H  H4  1  0.61065000  0.66406000  0.43203000  1.0 0.4026731904
H  H5  1  0.86265000  0.65328000  0.77921000  1.0 0.2556653377
H  H6  1  0.13735000  0.34672000  0.22079000  1.0 0.2556653377
H  H7  1  0.70898000  0.16099000  0.10821000  1.0 0.4120264109
H  H8  1  0.29102000  0.83901000  0.89179000  1.0 0.4120264109
H  H9  1  0.61707000  0.15580000  0.08232000  1.0 0.4026731904
H  H10  1  0.38293000  0.84420000  0.91768000  1.0 0.4026731904
H  H11  1  0.46263000  0.97919000  0.24334000  1.0 0.1388601481
H  H12  1  0.53737000  0.02081000  0.75666000  1.0 0.1388601481
H  H13  1  0.54694000  0.52250000  0.75114000  1.0 0.1388601481
H  H14  1  0.45306000  0.47750000  0.24886000  1.0 0.1388601481
H  H15  1  0.38685000  0.08287000  0.74762000  1.0 0.1484149378
H  H16  1  0.61315000  0.91713000  0.25238000  1.0 0.1484149378
H  H17  1  0.52016000  0.22411000  0.01464000  1.0 0.1304145319
H  H18  1  0.47984000  0.77589000  0.98536000  1.0 0.1304145319
H  H19  1  0.73960000  0.49043000  0.76718000  1.0 0.1195909556
H  H20  1  0.26040000  0.50957000  0.23282000  1.0 0.1195909556
H  H21  1  0.15209000  0.90713000  0.26515000  1.0 0.2669613715
H  H22  1  0.84791000  0.09287000  0.73485000  1.0 0.2669613715
H  H23  1  0.61073000  0.41728000  0.26493000  1.0 0.1484149378
H  H24  1  0.38927000  0.58272000  0.73507000  1.0 0.1484149378
H  H25  1  0.81405000  0.58581000  0.29571000  1.0 0.1195909556
H  H26  1  0.18595000  0.41419000  0.70429000  1.0 0.1195909556
H  H27  1  0.74972000  0.69013000  0.73878000  1.0 0.1304145319
H  H28  1  0.25028000  0.30987000  0.26122000  1.0 0.1304145319
H  H29  1  0.26998000  0.00775000  0.26873000  1.0 0.1304145319
H  H30  1  0.73002000  0.99225000  0.73127000  1.0 0.1304145319
H  H31  1  0.48492000  0.27833000  0.51605000  1.0 0.1304145319
H  H32  1  0.51508000  0.72167000  0.48395000  1.0 0.1304145319
H  H33  1  0.92393000  0.48960000  0.26869000  1.0 0.2496346365
H  H34  1  0.07607000  0.51040000  0.73131000  1.0 0.2496346365
H  H35  1  0.63315000  0.22742000  0.62261000  1.0 0.1195909556
H  H36  1  0.36685000  0.77258000  0.37739000  1.0 0.1195909556
H  H37  1  0.80389000  0.39036000  0.24881000  1.0 0.1195909556
H  H38  1  0.19611000  0.60964000  0.75119000  1.0 0.1195909556
H  H39  1  0.25763000  0.80744000  0.23564000  1.0 0.1195909556
H  H40  1  0.74237000  0.19256000  0.76436000  1.0 0.1195909556
H  H41  1  0.61755000  0.19430000  0.44063000  1.0 0.1304145319
H  H42  1  0.38245000  0.80570000  0.55937000  1.0 0.1304145319
H  H43  1  0.38571000  0.27921000  0.11686000  1.0 0.1304145319
H  H44  1  0.61429000  0.72079000  0.88314000  1.0 0.1304145319
H  H45  1  0.71082000  0.17355000  0.50365000  1.0 0.2496346365
H  H46  1  0.28918000  0.82645000  0.49635000  1.0 0.2496346365
H  H47  1  0.07173000  0.94282000  0.75557000  1.0 0.2496346365
H  H48  1  0.92827000  0.05718000  0.24443000  1.0 0.2496346365
H  H49  1  0.19479000  0.11707000  0.72328000  1.0 0.1195909556
H  H50  1  0.80521000  0.88293000  0.27672000  1.0 0.1195909556
H  H51  1  0.39367000  0.31974000  0.93847000  1.0 0.1304145319
H  H52  1  0.60633000  0.68026000  0.06153000  1.0 0.1304145319
H  H53  1  0.96225000  0.61084000  0.32219000  1.0 0.1022885772
H  H54  1  0.03775000  0.38916000  0.67781000  1.0 0.1022885772
H  H55  1  0.93061000  0.62332000  0.25742000  1.0 0.1022885772
H  H56  1  0.06939000  0.37668000  0.74258000  1.0 0.1022885772
H  H57  1  0.86135000  0.54853000  0.70250000  1.0 0.1095675926
H  H58  1  0.13865000  0.45147000  0.29750000  1.0 0.1095675926
H  H59  1  0.86783000  0.54217000  0.77404000  1.0 0.1022885772
H  H60  1  0.13217000  0.45783000  0.22596000  1.0 0.1022885772
H  H61  1  0.18152000  0.91987000  0.76609000  1.0 0.1195909556
H  H62  1  0.81848000  0.08013000  0.23391000  1.0 0.1195909556
H  H63  1  0.17352000  0.75255000  0.76154000  1.0 0.1388601481
H  H64  1  0.82648000  0.24745000  0.23846000  1.0 0.1388601481
H  H65  1  0.69554000  0.15438000  0.62291000  1.0 0.1095675926
H  H66  1  0.30446000  0.84562000  0.37709000  1.0 0.1095675926
H  H67  1  0.76742000  0.22589000  0.61166000  1.0 0.1095675926
H  H68  1  0.23258000  0.77411000  0.38834000  1.0 0.1095675926
H  H69  1  0.87941000  0.76146000  0.32984000  1.0 0.1095675926
H  H70  1  0.12059000  0.23854000  0.67016000  1.0 0.1095675926
H  H71  1  0.22091000  0.65663000  0.19199000  1.0 0.1388601481
H  H72  1  0.77909000  0.34337000  0.80801000  1.0 0.1388601481
H  H73  1  0.09814000  0.78331000  0.28019000  1.0 0.1022885772
H  H74  1  0.90186000  0.21669000  0.71981000  1.0 0.1022885772
H  H75  1  0.14403000  0.77802000  0.22480000  1.0 0.1022885772
H  H76  1  0.85597000  0.22198000  0.77520000  1.0 0.1022885772
H  H77  1  0.30062000  0.33741000  0.99956000  1.0 0.2496346365
H  H78  1  0.69938000  0.66259000  0.00044000  1.0 0.2496346365
H  H79  1  0.89071000  0.76441000  0.07680000  1.0 0.1304145319
H  H80  1  0.10929000  0.23559000  0.92320000  1.0 0.1304145319
H  H81  1  0.06511000  0.05420000  0.69469000  1.0 0.1022885772
H  H82  1  0.93489000  0.94580000  0.30531000  1.0 0.1022885772
H  H83  1  0.05889000  0.06449000  0.76532000  1.0 0.1022885772
H  H84  1  0.94111000  0.93551000  0.23468000  1.0 0.1095675926
H  H85  1  0.34274000  0.38186000  0.11490000  1.0 0.1095675926
H  H86  1  0.65726000  0.61814000  0.88510000  1.0 0.1095675926
H  H87  1  0.28738000  0.29944000  0.11657000  1.0 0.1022885772
H  H88  1  0.71262000  0.70056000  0.88343000  1.0 0.1022885772
H  H89  1  0.07153000  0.26116000  0.55880000  1.0 0.1195909556
H  H90  1  0.92847000  0.73884000  0.44120000  1.0 0.1195909556
H  H91  1  0.99887000  0.78927000  0.30592000  1.0 0.1095675926
H  H92  1  0.00113000  0.21073000  0.69408000  1.0 0.1095675926
H  H93  1  0.77812000  0.73515000  0.25383000  1.0 0.1195909556
H  H94  1  0.22188000  0.26485000  0.74617000  1.0 0.1195909556
H  H95  1  0.03518000  0.57319000  0.36861000  1.0 0.1095675926
H  H96  1  0.96482000  0.42681000  0.63139000  1.0 0.1095675926
H  H97  1  0.19159000  0.69234000  0.85361000  1.0 0.1304145319
H  H98  1  0.80841000  0.30766000  0.14639000  1.0 0.1304145319
H  H99  1  0.94108000  0.52098000  0.83048000  1.0 0.1095675926
H  H100  1  0.05892000  0.47902000  0.16952000  1.0 0.1095675926
H  H101  1  0.80257000  0.73817000  0.15414000  1.0 0.1195909556
H  H102  1  0.19743000  0.26183000  0.84586000  1.0 0.1195909556
H  H103  1  0.02444000  0.51475000  0.90453000  1.0 0.1095675926
H  H104  1  0.97556000  0.48525000  0.09547000  1.0 0.1095675926
H  H105  1  0.15667000  0.80991000  0.66543000  1.0 0.1195909556
H  H106  1  0.84333000  0.19009000  0.33457000  1.0 0.1195909556
H  H107  1  0.25767000  0.60760000  0.38982000  1.0 0.1195909556
H  H108  1  0.74233000  0.39240000  0.61018000  1.0 0.1195909556
H  H109  1  0.63076000  0.04521000  0.58631000  1.0 0.1022885772
H  H110  1  0.36924000  0.95479000  0.41369000  1.0 0.1022885772
H  H111  1  0.98002000  0.29247000  0.10606000  1.0 0.1095675926
H  H112  1  0.01998000  0.70753000  0.89394000  1.0 0.1095675926
H  H113  1  0.01633000  0.14154000  0.56414000  1.0 0.1195909556
H  H114  1  0.98367000  0.85846000  0.43586000  1.0 0.1195909556
H  H115  1  0.27246000  0.63855000  0.29260000  1.0 0.1388601481
H  H116  1  0.72754000  0.36145000  0.70740000  1.0 0.1388601481
H  H117  1  0.93321000  0.61163000  0.16586000  1.0 0.1022885772
H  H118  1  0.06679000  0.38837000  0.83414000  1.0 0.1022885772
H  H119  1  0.74431000  0.86643000  0.81477000  1.0 0.1304145319
H  H120  1  0.25569000  0.13357000  0.18523000  1.0 0.1304145319
H  H121  1  0.89628000  0.02762000  0.57288000  1.0 0.1304145319
H  H122  1  0.10372000  0.97238000  0.42712000  1.0 0.1304145319
H  H123  1  0.90041000  0.65473000  0.64504000  1.0 0.1095675926
H  H124  1  0.09959000  0.34527000  0.35496000  1.0 0.1095675926
H  H125  1  0.76376000  0.83424000  0.72274000  1.0 0.1388601481
H  H126  1  0.23624000  0.16576000  0.27726000  1.0 0.1388601481
H  H127  1  0.14678000  0.59735000  0.91719000  1.0 0.1195909556
H  H128  1  0.85322000  0.40265000  0.08281000  1.0 0.1195909556
H  H129  1  0.36307000  0.47712000  0.06663000  1.0 0.1095675926
H  H130  1  0.63693000  0.52288000  0.93337000  1.0 0.1095675926
H  H131  1  0.94220000  0.62289000  0.06039000  1.0 0.1095675926
H  H132  1  0.05780000  0.37711000  0.93961000  1.0 0.1095675926
H  H133  1  0.17056000  0.67145000  0.09066000  1.0 0.1195909556
H  H134  1  0.82944000  0.32855000  0.90934000  1.0 0.1195909556
H  H135  1  0.06839000  0.40926000  0.06097000  1.0 0.1195909556
H  H136  1  0.93161000  0.59074000  0.93903000  1.0 0.1195909556
H  H137  1  0.57504000  0.92362000  0.57826000  1.0 0.1095675926
H  H138  1  0.42496000  0.07638000  0.42174000  1.0 0.1095675926
H  H139  1  0.65154000  0.85615000  0.56862000  1.0 0.1095675926
H  H140  1  0.34846000  0.14385000  0.43138000  1.0 0.1095675926
H  H141  1  0.78277000  0.91384000  0.57549000  1.0 0.1095675926
H  H142  1  0.21723000  0.08616000  0.42451000  1.0 0.1095675926
H  H143  1  0.08350000  0.81754000  0.58437000  1.0 0.1095675926
H  H144  1  0.91650000  0.18246000  0.41563000  1.0 0.1095675926
H  H145  1  0.96878000  0.18348000  0.14657000  1.0 0.1095675926
H  H146  1  0.03122000  0.81652000  0.85343000  1.0 0.1095675926
H  H147  1  0.87131000  0.27731000  0.57614000  1.0 0.1095675926
H  H148  1  0.12869000  0.72269000  0.42386000  1.0 0.1095675926
H  H149  1  0.03871000  0.97066000  0.62455000  1.0 0.1022885772
H  H150  1  0.96129000  0.02934000  0.37545000  1.0 0.1022885772
H  H151  1  0.00089000  0.32677000  0.56005000  1.0 0.1195909556
H  H152  1  0.99911000  0.67323000  0.43995000  1.0 0.1195909556
H  H153  1  0.06266000  0.64842000  0.02391000  1.0 0.1022885772
H  H154  1  0.93734000  0.35158000  0.97609000  1.0 0.1022885772
H  H155  1  0.20581000  0.86015000  0.04175000  1.0 0.1095675926
H  H156  1  0.79419000  0.13985000  0.95825000  1.0 0.1095675926
H  H157  1  0.13751000  0.56803000  0.42963000  1.0 0.1095675926
H  H158  1  0.86249000  0.43197000  0.57037000  1.0 0.1095675926
H  H159  1  0.18400000  0.83960000  0.14362000  1.0 0.1022885772
H  H160  1  0.81600000  0.16040000  0.85638000  1.0 0.1022885772
H  H161  1  0.18438000  0.22388000  0.12535000  1.0 0.1095675926
H  H162  1  0.81562000  0.77612000  0.87465000  1.0 0.1095675926
H  H163  1  0.78322000  0.95375000  0.89004000  1.0 0.1195909556
H  H164  1  0.21678000  0.04625000  0.10996000  1.0 0.1195909556
H  H165  1  0.09995000  0.83765000  0.96677000  1.0 0.1095675926
H  H166  1  0.90005000  0.16235000  0.03323000  1.0 0.1022885772
H  H167  1  0.99655000  0.05160000  0.83760000  1.0 0.1095675926
H  H168  1  0.00345000  0.94840000  0.16240000  1.0 0.1095675926
H  H169  1  0.85600000  0.79868000  0.54134000  1.0 0.1022885772
H  H170  1  0.14400000  0.20132000  0.45866000  1.0 0.1022885772
H  H171  1  0.95705000  0.72559000  0.56636000  1.0 0.1022885772
H  H172  1  0.04295000  0.27441000  0.43364000  1.0 0.1022885772
H  H173  1  0.06747000  0.14907000  0.15504000  1.0 0.1095675926
H  H174  1  0.93253000  0.85093000  0.84496000  1.0 0.1095675926
H  H175  1  0.97890000  0.79768000  0.99660000  1.0 0.1095675926
H  H176  1  0.02110000  0.20232000  0.00340000  1.0 0.1095675926
H  H177  1  0.27193000  0.61852000  0.03378000  1.0 0.1195909556
H  H178  1  0.72807000  0.38148000  0.96622000  1.0 0.1195909556
H  H179  1  0.97358000  0.88335000  0.54024000  1.0 0.1022885772
H  H180  1  0.02642000  0.11665000  0.45976000  1.0 0.1022885772
H  H181  1  0.90522000  0.03620000  0.90724000  1.0 0.1095675926
H  H182  1  0.09478000  0.96380000  0.09276000  1.0 0.1095675926
H  H183  1  0.15015000  0.53448000  0.03863000  1.0 0.1095675926
H  H184  1  0.84985000  0.46552000  0.96137000  1.0 0.1095675926
H  H185  1  0.37890000  0.59283000  0.04974000  1.0 0.1195909556
H  H186  1  0.62110000  0.40717000  0.95026000  1.0 0.1195909556
H  H187  1  0.77551000  0.77594000  0.62257000  1.0 0.1304145319
H  H188  1  0.22449000  0.22406000  0.37743000  1.0 0.1304145319
C  C1  1  0.66710000  0.55810000  0.29170000  1.0 0.568348011
C  C2  1  0.33290000  0.44190000  0.70830000  1.0 0.568348011
C  C3  1  0.60500000  0.66510000  0.73200000  1.0 0.5519580201
C  C4  1  0.39500000  0.33490000  0.26800000  1.0 0.5519580201
C  C5  1  0.40970000  0.96000000  0.24510000  1.0 -0.1410996076
C  C6  1  0.59030000  0.04000000  0.75490000  1.0 -0.1410996076
C  C7  1  0.60000000  0.54080000  0.75100000  1.0 -0.1410996076
C  C8  1  0.40000000  0.45920000  0.24900000  1.0 -0.1410996076
C  C9  1  0.63710000  0.49510000  0.75950000  1.0 -0.0026517185
C  C10  1  0.36290000  0.50490000  0.24050000  1.0 -0.0026517185
C  C11  1  0.59210000  0.41510000  0.76930000  1.0 0.6143306848
C  C12  1  0.40790000  0.58490000  0.23070000  1.0 0.6143306848
C  C13  1  0.70690000  0.50920000  0.28070000  1.0 0.002617633
C  C14  1  0.29310000  0.49080000  0.71930000  1.0 0.002617633
C  C15  1  0.37070000  0.00460000  0.25620000  1.0 -0.0093300325
C  C16  1  0.62930000  0.99540000  0.74380000  1.0 -0.0093300325
C  C17  1  0.46070000  0.27170000  0.96800000  1.0 0.007046836
C  C18  1  0.53930000  0.72830000  0.03200000  1.0 0.007046836
C  C19  1  0.76020000  0.59490000  0.75110000  1.0 0.2087167706
C  C20  1  0.23980000  0.40510000  0.24890000  1.0 0.2087167706
C  C21  1  0.65860000  0.31320000  0.24090000  1.0 0.631542271
C  C22  1  0.34140000  0.68680000  0.75910000  1.0 0.631542271
C  C23  1  0.33370000  0.06540000  0.74610000  1.0 -0.1193916787
C  C24  1  0.66630000  0.93460000  0.25390000  1.0 -0.1193916787
C  C25  1  0.54700000  0.23690000  0.46940000  1.0 -0.0093300325
C  C26  1  0.45300000  0.76310000  0.53060000  1.0 -0.0093300325
C  C27  1  0.64270000  0.61490000  0.74240000  1.0 -0.0093300325
C  C28  1  0.35730000  0.38510000  0.25760000  1.0 -0.0093300325
C  C29  1  0.51540000  0.24200000  0.40670000  1.0 0.5519580201
C  C30  1  0.48460000  0.75800000  0.59330000  1.0 0.5519580201
C  C31  1  0.40210000  0.83600000  0.22320000  1.0 0.5602210518
C  C32  1  0.59790000  0.16400000  0.77680000  1.0 0.5602210518
C  C33  1  0.41310000  0.08510000  0.26420000  1.0 0.6247566696
C  C34  1  0.58690000  0.91490000  0.73580000  1.0 0.6247566696
C  C35  1  0.48520000  0.24470000  0.01850000  1.0 -0.1193916787
C  C36  1  0.51480000  0.75530000  0.98150000  1.0 -0.1193916787
C  C37  1  0.71570000  0.52170000  0.76030000  1.0 -0.2001627591
C  C38  1  0.28430000  0.47830000  0.23970000  1.0 -0.2001627591
C  C39  1  0.34280000  0.18880000  0.72040000  1.0 0.631542271
C  C40  1  0.65720000  0.81120000  0.27960000  1.0 0.631542271
C  C41  1  0.36460000  0.88620000  0.23720000  1.0 0.007046836
C  C42  1  0.63540000  0.11380000  0.76280000  1.0 0.007046836
C  C43  1  0.32750000  0.94200000  0.76560000  1.0 0.568348011
C  C44  1  0.67250000  0.05800000  0.23440000  1.0 0.568348011
C  C45  1  0.66400000  0.43630000  0.26720000  1.0 -0.1193916787
C  C46  1  0.33600000  0.56370000  0.73280000  1.0 -0.1193916787
C  C47  1  0.48180000  0.22300000  0.13160000  1.0 0.6474067327
C  C48  1  0.51820000  0.77700000  0.86840000  1.0 0.6474067327
C  C49  1  0.78600000  0.53690000  0.28490000  1.0 -0.2001627591
C  C50  1  0.21400000  0.46310000  0.71510000  1.0 -0.2001627591
C  C51  1  0.49100000  0.26780000  0.90580000  1.0 0.5519580201
C  C52  1  0.50900000  0.73220000  0.09420000  1.0 0.5519580201
C  C53  1  0.70150000  0.39210000  0.25710000  1.0 -0.0093300325
C  C54  1  0.29850000  0.60790000  0.74290000  1.0 -0.0093300325
C  C55  1  0.72130000  0.64080000  0.74340000  1.0 -0.2001627591
C  C56  1  0.27870000  0.35920000  0.25660000  1.0 -0.2001627591
C  C57  1  0.29330000  0.97670000  0.26030000  1.0 -0.2001627591
C  C58  1  0.70670000  0.02330000  0.73970000  1.0 -0.2001627591
C  C59  1  0.55560000  0.25720000  0.57890000  1.0 -0.0368748437
C  C60  1  0.44440000  0.74280000  0.42110000  1.0 -0.0368748437
C  C61  1  0.52260000  0.26060000  0.52050000  1.0 -0.1288429805
C  C62  1  0.47740000  0.73940000  0.47950000  1.0 -0.1288429805
C  C63  1  0.28960000  0.99276000  0.75570000  1.0 -0.0026517185
C  C64  1  0.71040000  0.00724000  0.24430000  1.0 -0.0026517185
C  C65  1  0.52900000  0.27710000  0.63500000  1.0 0.6383107658
C  C66  1  0.47100000  0.72290000  0.36500000  1.0 0.6383107658
C  C67  1  0.29790000  0.11177000  0.73410000  1.0 -0.0197156494
C  C68  1  0.70210000  0.88823000  0.26590000  1.0 -0.0197156494
C  C69  1  0.45820000  0.24810000  0.07430000  1.0 -0.0284203856
C  C70  1  0.54180000  0.75190000  0.92570000  1.0 -0.0284203856
C  C71  1  0.82460000  0.49370000  0.27330000  1.0 0.2223436094
C  C72  1  0.17540000  0.50630000  0.72670000  1.0 0.2223436094
C  C73  1  0.24840000  0.90200000  0.25200000  1.0 0.2046602722
C  C74  1  0.75160000  0.09800000  0.74800000  1.0 0.2046602722
C  C75  1  0.61260000  0.23120000  0.58380000  1.0 -0.2001627591
C  C76  1  0.38740000  0.76880000  0.41620000  1.0 -0.2001627591
C  C77  1  0.77990000  0.42050000  0.25830000  1.0 -0.2001627591
C  C78  1  0.22010000  0.57950000  0.74170000  1.0 -0.2001627591
C  C79  1  0.28590000  0.85730000  0.24080000  1.0 -0.2266958523
C  C80  1  0.71410000  0.14270000  0.75920000  1.0 -0.2266958523
C  C81  1  0.60350000  0.21130000  0.47530000  1.0 -0.2001627591
C  C82  1  0.39650000  0.78870000  0.52470000  1.0 -0.2001627591
C  C83  1  0.40470000  0.27740000  0.07910000  1.0 -0.2001627591
C  C84  1  0.59530000  0.72260000  0.92090000  1.0 -0.2001627591
C  C85  1  0.63990000  0.21050000  0.53240000  1.0 0.2223436094
C  C86  1  0.36010000  0.78950000  0.46760000  1.0 0.2223436094
C  C87  1  0.21858000  0.08616000  0.73250000  1.0 -0.2001627591
C  C88  1  0.78142000  0.91384000  0.26750000  1.0 -0.2001627591
C  C89  1  0.40910000  0.30110000  0.97290000  1.0 -0.2001627591
C  C90  1  0.59090000  0.69890000  0.02710000  1.0 -0.2001627591
C  C91  1  0.95410000  0.59530000  0.27920000  1.0 -0.1288429805
C  C92  1  0.04590000  0.40470000  0.72080000  1.0 -0.1288429805
C  C93  1  0.17493000  0.01422000  0.74480000  1.0 0.2223436094
C  C94  1  0.82507000  0.98578000  0.25520000  1.0 0.2223436094
C  C95  1  0.09140000  0.60680000  0.29160000  1.0 0.0200583555
C  C96  1  0.90860000  0.39320000  0.70840000  1.0 0.0200583555
C  C97  1  0.87900000  0.57600000  0.74130000  1.0 -0.1193916787
C  C98  1  0.12100000  0.42400000  0.25870000  1.0 -0.1193916787
C  C99  1  0.09350000  0.66490000  0.79800000  1.0 0.071049219
C  C100  1  0.90650000  0.33510000  0.20200000  1.0 0.071049219
C  C101  1  0.77880000  0.13500000  0.58370000  1.0 -0.0284203856
C  C102  1  0.22120000  0.86500000  0.41630000  1.0 -0.0284203856
C  C103  1  0.21059000  0.96778000  0.75700000  1.0 -0.2187546883
C  C104  1  0.78941000  0.03222000  0.24300000  1.0 -0.2124784563
C  C105  1  0.03030000  0.60970000  0.25430000  1.0 -0.0197156494
C  C106  1  0.96970000  0.39030000  0.74570000  1.0 -0.0197156494
C  C107  1  0.12280000  0.71890000  0.75620000  1.0 -0.2124784563
C  C108  1  0.87720000  0.28110000  0.24380000  1.0 -0.2124784563
C  C109  1  0.23280000  0.36160000  0.08680000  1.0 -0.0284203856
C  C110  1  0.76720000  0.63840000  0.91320000  1.0 -0.0284203856
C  C111  1  0.73370000  0.17830000  0.59420000  1.0 -0.1288429805
C  C112  1  0.26630000  0.82170000  0.40580000  1.0 -0.1288429805
C  C113  1  0.37910000  0.30390000  0.02840000  1.0 0.2275069785
C  C114  1  0.62090000  0.69610000  0.97160000  1.0 0.2275069785
C  C115  1  0.88970000  0.76350000  0.28880000  1.0 -0.1002758676
C  C116  1  0.11030000  0.23650000  0.71120000  1.0 -0.1002758676
C  C117  1  0.01360000  0.61210000  0.79120000  1.0 0.0200583555
C  C118  1  0.98640000  0.38790000  0.20880000  1.0 0.0200583555
C  C119  1  0.17280000  0.64290000  0.20690000  1.0 -0.2124784563
C  C120  1  0.82720000  0.35710000  0.79310000  1.0 -0.2124784563
C  C121  1  0.16360000  0.62580000  0.26880000  1.0 0.0787053015
C  C122  1  0.83640000  0.37420000  0.73120000  1.0 0.0787053015
C  C123  1  0.96480000  0.62210000  0.74300000  1.0 -0.0093300325
C  C124  1  0.03520000  0.37790000  0.25700000  1.0 -0.0093300325
C  C125  1  0.11830000  0.80530000  0.24240000  1.0 -0.1002758676
C  C126  1  0.88170000  0.19470000  0.75760000  1.0 -0.1002758676
C  C127  1  0.91660000  0.77240000  0.16720000  1.0 0.071049219
C  C128  1  0.08340000  0.22760000  0.83280000  1.0 0.071049219
C  C129  1  0.93140000  0.77790000  0.10660000  1.0 -0.2001627591
C  C130  1  0.06860000  0.22210000  0.89340000  1.0 -0.2001627591
C  C131  1  0.05060000  0.02900000  0.73240000  1.0 -0.1193916787
C  C132  1  0.94940000  0.97100000  0.26760000  1.0 -0.1193916787
C  C133  1  0.97770000  0.78710000  0.21330000  1.0 0.0200583555
C  C134  1  0.02230000  0.21290000  0.78670000  1.0 0.0200583555
C  C135  1  0.30000000  0.34260000  0.09290000  1.0 -0.1288429805
C  C136  1  0.70000000  0.65740000  0.90710000  1.0 -0.1288429805
C  C137  1  0.01900000  0.23790000  0.56260000  1.0 -0.1002758676
C  C138  1  0.98100000  0.76210000  0.43740000  1.0 -0.1002758676
C  C139  1  0.74370000  0.05990000  0.58080000  1.0 0.0200583555
C  C140  1  0.25630000  0.94010000  0.41920000  1.0 0.0200583555
C  C141  1  0.96660000  0.97470000  0.72570000  1.0 -0.0197156494
C  C142  1  0.03340000  0.02530000  0.27430000  1.0 -0.0197156494
C  C143  1  0.96030000  0.78100000  0.27500000  1.0 -0.1490183417
C  C144  1  0.03970000  0.21900000  0.72500000  1.0 -0.1490183417
C  C145  1  0.82780000  0.74760000  0.24290000  1.0 -0.0889001656
C  C146  1  0.17220000  0.25240000  0.75710000  1.0 -0.0889001656
C  C147  1  0.84120000  0.91740000  0.77070000  1.0 0.0517700184
C  C148  1  0.15880000  0.08260000  0.22930000  1.0 0.0517700184
C  C149  1  0.11090000  0.63960000  0.16710000  1.0 0.071049219
C  C150  1  0.88910000  0.36040000  0.83290000  1.0 0.071049219
C  C151  1  0.99710000  0.67440000  0.69970000  1.0 0.0200583555
C  C152  1  0.00290000  0.32560000  0.30030000  1.0 0.0200583555
C  C153  1  0.05110000  0.80220000  0.19680000  1.0 -0.0026517185
C  C154  1  0.94890000  0.19780000  0.80320000  1.0 -0.0026517185
C  C155  1  0.07570000  0.72230000  0.70610000  1.0 0.0850514974
C  C156  1  0.92430000  0.27770000  0.29390000  1.0 0.0850514974
C  C157  1  0.92080000  0.96980000  0.77560000  1.0 0.0200583555
C  C158  1  0.07920000  0.03020000  0.22440000  1.0 0.0200583555
C  C159  1  0.85870000  0.17130000  0.57590000  1.0 0.0200583555
C  C160  1  0.14130000  0.82870000  0.42410000  1.0 0.0200583555
C  C161  1  0.24640000  0.43350000  0.06990000  1.0 0.0200583555
C  C162  1  0.75360000  0.56650000  0.93010000  1.0 0.0200583555
C  C163  1  0.08250000  0.58590000  0.35260000  1.0 -0.1688255426
C  C164  1  0.91750000  0.41410000  0.64740000  1.0 -0.1688255426
C  C165  1  0.14120000  0.65810000  0.84730000  1.0 -0.1490183417
C  C166  1  0.85880000  0.34190000  0.15270000  1.0 -0.1490183417
C  C167  1  0.99130000  0.55610000  0.83350000  1.0 -0.1584810191
C  C168  1  0.00870000  0.44390000  0.16650000  1.0 -0.1584810191
C  C169  1  0.15950000  0.30910000  0.10040000  1.0 0.0200583555
C  C170  1  0.84050000  0.69090000  0.89960000  1.0 0.0200583555
C  C171  1  0.78860000  0.01860000  0.57740000  1.0 0.0787053015
C  C172  1  0.21140000  0.98140000  0.42260000  1.0 0.0787053015
C  C173  1  0.90390000  0.12880000  0.57310000  1.0 0.071049219
C  C174  1  0.09610000  0.87120000  0.42690000  1.0 0.071049219
C  C175  1  0.00490000  0.80280000  0.08900000  1.0 0.0787053015
C  C176  1  0.99510000  0.19720000  0.91100000  1.0 0.0787053015
C  C177  1  0.84280000  0.75080000  0.18430000  1.0 -0.1410996076
C  C178  1  0.15720000  0.24920000  0.81570000  1.0 -0.1410996076
C  C179  1  0.04120000  0.55270000  0.87790000  1.0 -0.1002758676
C  C180  1  0.95880000  0.44730000  0.12210000  1.0 -0.1002758676
C  C181  1  0.04040000  0.62410000  0.19210000  1.0 0.0200583555
C  C182  1  0.95960000  0.37590000  0.80790000  1.0 0.0200583555
C  C183  1  0.10570000  0.77690000  0.66030000  1.0 -0.1490183417
C  C184  1  0.89430000  0.22310000  0.33970000  1.0 -0.1490183417
C  C185  1  0.21570000  0.60620000  0.36520000  1.0 -0.1002758676
C  C186  1  0.78430000  0.39380000  0.63480000  1.0 -0.1002758676
C  C187  1  0.66110000  0.01970000  0.58230000  1.0 -0.1410996076
C  C188  1  0.33890000  0.98030000  0.41770000  1.0 -0.1410996076
C  C189  1  0.02210000  0.28080000  0.11020000  1.0 -0.1688255426
C  C190  1  0.97790000  0.71920000  0.88980000  1.0 -0.1688255426
C  C191  1  0.98650000  0.16780000  0.56610000  1.0 -0.1584810191
C  C192  1  0.01350000  0.83220000  0.43390000  1.0 -0.1584810191
C  C193  1  0.22450000  0.62520000  0.30770000  1.0 -0.1288429805
C  C194  1  0.77550000  0.37480000  0.69230000  1.0 -0.1288429805
C  C195  1  0.09610000  0.32980000  0.09250000  1.0 0.071049219
C  C196  1  0.90390000  0.67020000  0.90750000  1.0 0.071049219
C  C197  1  0.98000000  0.62020000  0.15020000  1.0 -0.1584810191
C  C198  1  0.02000000  0.37980000  0.84980000  1.0 -0.1584810191
C  C199  1  0.79190000  0.90560000  0.81610000  1.0 -0.1410996076
C  C200  1  0.20810000  0.09440000  0.18390000  1.0 -0.1410996076
C  C201  1  0.18140000  0.45100000  0.06310000  1.0 0.071049219
C  C202  1  0.81860000  0.54900000  0.93690000  1.0 0.071049219
C  C203  1  0.86720000  0.05480000  0.57430000  1.0 -0.2187546883
C  C204  1  0.13280000  0.94520000  0.42570000  1.0 -0.2187546883
C  C205  1  0.95310000  0.68210000  0.64830000  1.0 -0.1410996076
C  C206  1  0.04690000  0.31790000  0.35170000  1.0 -0.1410996076
C  C207  1  0.93480000  0.92380000  0.67380000  1.0 0.0200583555
C  C208  1  0.06520000  0.07620000  0.32620000  1.0 0.0200583555
C  C209  1  0.81380000  0.86930000  0.72330000  1.0 -0.2001627591
C  C210  1  0.18620000  0.13070000  0.27670000  1.0 -0.2001627591
C  C211  1  0.11430000  0.60180000  0.88560000  1.0 -0.1087372173
C  C212  1  0.88570000  0.39820000  0.11440000  1.0 -0.1087372173
C  C213  1  0.06820000  0.81220000  0.13490000  1.0 0.0381146874
C  C214  1  0.93180000  0.18780000  0.86510000  1.0 0.0381146874
C  C215  1  0.32070000  0.48850000  0.06310000  1.0 -0.1410996076
C  C216  1  0.67930000  0.51150000  0.93690000  1.0 -0.1410996076
C  C217  1  0.98440000  0.62810000  0.08670000  1.0 -0.1288429805
C  C218  1  0.01560000  0.37190000  0.91330000  1.0 -0.1288429805
C  C219  1  0.85800000  0.86980000  0.67430000  1.0 0.0787053015
C  C220  1  0.14200000  0.13020000  0.32570000  1.0 0.0787053015
C  C221  1  0.12200000  0.65490000  0.10510000  1.0 -0.1584810191
C  C222  1  0.87800000  0.34510000  0.89490000  1.0 -0.1584810191
C  C223  1  0.11040000  0.39850000  0.07080000  1.0 -0.2187546883
C  C224  1  0.88960000  0.60150000  0.92920000  1.0 -0.2187546883
C  C225  1  0.62800000  0.94780000  0.57810000  1.0 -0.0799855758
C  C226  1  0.37200000  0.05220000  0.42190000  1.0 -0.0799855758
C  C227  1  0.67530000  0.90650000  0.57320000  1.0 -0.0683988016
C  C228  1  0.32470000  0.09350000  0.42680000  1.0 -0.0683988016
C  C229  1  0.75310000  0.94050000  0.57530000  1.0 -0.1584810191
C  C230  1  0.24690000  0.05950000  0.42470000  1.0 -0.1584810191
C  C231  1  0.06340000  0.78110000  0.61200000  1.0 -0.0889001656
C  C232  1  0.93660000  0.21890000  0.38800000  1.0 -0.0889001656
C  C233  1  0.01600000  0.21490000  0.13390000  1.0 -0.1193916787
C  C234  1  0.98400000  0.78510000  0.86610000  1.0 -0.1193916787
C  C235  1  0.89730000  0.24760000  0.57280000  1.0 -0.1584810191
C  C236  1  0.10270000  0.75240000  0.42720000  1.0 -0.1584810191
C  C237  1  0.98870000  0.93560000  0.62410000  1.0 -0.1809425708
C  C238  1  0.01130000  0.06440000  0.37590000  1.0 -0.1809425708
C  C239  1  0.97630000  0.27700000  0.56450000  1.0 -0.1193916787
C  C240  1  0.02370000  0.72300000  0.43550000  1.0 -0.1193916787
C  C241  1  0.05710000  0.64440000  0.06580000  1.0 -0.1087372173
C  C242  1  0.94290000  0.35560000  0.93420000  1.0 -0.1087372173
C  C243  1  0.15620000  0.84430000  0.05410000  1.0 -0.1087372173
C  C244  1  0.84380000  0.15570000  0.94590000  1.0 -0.1087372173
C  C245  1  0.14400000  0.58380000  0.38980000  1.0 -0.1193916787
C  C246  1  0.85600000  0.41620000  0.61020000  1.0 -0.1193916787
C  C247  1  0.14340000  0.83330000  0.11520000  1.0 -0.1410996076
C  C248  1  0.85660000  0.16670000  0.88480000  1.0 -0.1410996076
C  C249  1  0.14470000  0.23920000  0.12250000  1.0 -0.1688255426
C  C250  1  0.85530000  0.76080000  0.87750000  1.0 -0.1688255426
C  C251  1  0.81780000  0.95450000  0.86190000  1.0 -0.1087372173
C  C252  1  0.18220000  0.04550000  0.13810000  1.0 -0.1087372173
C  C253  1  0.09130000  0.83090000  0.00800000  1.0 -0.1002758676
C  C254  1  0.90870000  0.16910000  0.99200000  1.0 -0.1002758676
C  C255  1  0.94650000  0.01690000  0.83060000  1.0 -0.1809425708
C  C256  1  0.05350000  0.98310000  0.16940000  1.0 -0.1809425708
C  C257  1  0.87460000  0.82900000  0.57630000  1.0 -0.1193916787
C  C258  1  0.12540000  0.17100000  0.42370000  1.0 -0.1193916787
C  C259  1  0.98550000  0.72830000  0.60310000  1.0 -0.1087372173
C  C260  1  0.01450000  0.27170000  0.39690000  1.0 -0.1087372173
C  C261  1  0.07490000  0.19390000  0.13960000  1.0 -0.1087372173
C  C262  1  0.92510000  0.80610000  0.86040000  1.0 -0.1002758676
C  C263  1  0.01970000  0.80900000  0.02610000  1.0 -0.1584810191
C  C264  1  0.98030000  0.19100000  0.97390000  1.0 -0.1584810191
C  C265  1  0.26430000  0.57130000  0.04280000  1.0 -0.0889001656
C  C266  1  0.73570000  0.42870000  0.95720000  1.0 -0.0889001656
C  C267  1  0.94800000  0.88190000  0.57520000  1.0 -0.1288429805
C  C268  1  0.05200000  0.11810000  0.42480000  1.0 -0.1288429805
C  C269  1  0.89180000  0.00670000  0.87170000  1.0 -0.1002758676
C  C270  1  0.10820000  0.99330000  0.12830000  1.0 -0.1002758676
C  C271  1  0.19160000  0.52240000  0.04650000  1.0 -0.1688255426
C  C272  1  0.80840000  0.47760000  0.95350000  1.0 -0.1688255426
C  C273  1  0.33010000  0.55620000  0.05180000  1.0 -0.0683988016
C  C274  1  0.66990000  0.44380000  0.94820000  1.0 -0.0683988016
C  C275  1  0.82350000  0.81450000  0.62340000  1.0 -0.1490183417
C  C276  1  0.17650000  0.18550000  0.37660000  1.0 -0.1584810191
N  N1  1  0.84070000  0.62350000  0.74850000  1.0 -0.3617573026
N  N2  1  0.15930000  0.37650000  0.25150000  1.0 -0.3617573026
N  N3  1  0.17010000  0.87640000  0.25480000  1.0 -0.3132331018
N  N4  1  0.82990000  0.12360000  0.74520000  1.0 -0.3132331018
N  N5  1  0.90400000  0.52030000  0.27300000  1.0 -0.3307909164
N  N6  1  0.09600000  0.47970000  0.72700000  1.0 -0.3307909164
N  N7  1  0.69660000  0.18550000  0.53700000  1.0 -0.3132331018
N  N8  1  0.30340000  0.81450000  0.46300000  1.0 -0.3132331018
N  N9  1  0.09580000  0.98720000  0.74610000  1.0 -0.3369015697
N  N10  1  0.90420000  0.01280000  0.25390000  1.0 -0.3369015697
N  N11  1  0.32260000  0.32930000  0.03240000  1.0 -0.320813382
N  N12  1  0.67740000  0.67070000  0.96760000  1.0 -0.320813382
O  O1  1  0.52230000  0.38380000  0.75170000  1.0 -0.7089334968
O  O2  1  0.47770000  0.61620000  0.24830000  1.0 -0.7089334968
O  O3  1  0.48330000  0.11750000  0.25190000  1.0 -0.7301248852
O  O4  1  0.51670000  0.88250000  0.74810000  1.0 -0.7301248852
O  O5  1  0.58850000  0.28190000  0.25420000  1.0 -0.7301248852
O  O6  1  0.41150000  0.71810000  0.74580000  1.0 -0.7301248852
O  O7  1  0.64400000  0.73000000  0.72350000  1.0 -0.6003264133
O  O8  1  0.35600000  0.27000000  0.27650000  1.0 -0.6003264133
O  O9  1  0.35920000  0.77030000  0.20740000  1.0 -0.6297236327
O  O10  1  0.64080000  0.22970000  0.79260000  1.0 -0.6297236327
O  O11  1  0.56080000  0.27410000  0.68490000  1.0 -0.6218902314
O  O12  1  0.43920000  0.72590000  0.31510000  1.0 -0.6218902314
O  O13  1  0.41150000  0.22010000  0.74280000  1.0 -0.7089334968
O  O14  1  0.58850000  0.77990000  0.25720000  1.0 -0.7089334968
O  O15  1  0.62840000  0.38230000  0.79370000  1.0 -0.5925511066
O  O16  1  0.37160000  0.61770000  0.20630000  1.0 -0.5925511066
O  O17  1  0.70270000  0.61890000  0.32040000  1.0 -0.6675028149
O  O18  1  0.29730000  0.38110000  0.67960000  1.0 -0.6675028149
O  O19  1  0.53390000  0.64150000  0.73260000  1.0 -0.5925511066
O  O20  1  0.46610000  0.35850000  0.26740000  1.0 -0.5925511066
O  O21  1  0.37700000  0.12070000  0.28200000  1.0 -0.6114343647
O  O22  1  0.62300000  0.87930000  0.71800000  1.0 -0.6114343647
O  O23  1  0.31280000  0.22280000  0.68790000  1.0 -0.6218902314
O  O24  1  0.68720000  0.77720000  0.31210000  1.0 -0.6218902314
O  O25  1  0.59890000  0.53940000  0.27180000  1.0 -0.6003264133
O  O26  1  0.40110000  0.46060000  0.72820000  1.0 -0.6003264133
O  O27  1  0.47190000  0.29420000  0.62780000  1.0 -0.6805448178
O  O28  1  0.52810000  0.70580000  0.37220000  1.0 -0.6805448178
O  O29  1  0.68880000  0.27870000  0.21490000  1.0 -0.5800517146
O  O30  1  0.31120000  0.72130000  0.78510000  1.0 -0.5800517146
O  O31  1  0.44800000  0.22240000  0.17800000  1.0 -0.6406657043
O  O32  1  0.55200000  0.77760000  0.82200000  1.0 -0.6406657043
O  O33  1  0.47270000  0.85740000  0.22760000  1.0 -0.5800517146
O  O34  1  0.52730000  0.14260000  0.77240000  1.0 -0.5800517146
O  O35  1  0.53800000  0.20470000  0.13040000  1.0 -0.6675028149
O  O36  1  0.46200000  0.79530000  0.86960000  1.0 -0.6675028149
O  O37  1  0.39720000  0.96120000  0.75850000  1.0 -0.6114343647
O  O38  1  0.60280000  0.03880000  0.24150000  1.0 -0.6114343647
O  O39  1  0.53730000  0.24220000  0.89950000  1.0 -0.5690953973
O  O40  1  0.46270000  0.75780000  0.10050000  1.0 -0.5690953973
O  O41  1  0.28850000  0.87780000  0.78400000  1.0 -0.6901164297
O  O42  1  0.71150000  0.12220000  0.21600000  1.0 -0.6901164297
O  O43  1  0.46910000  0.26770000  0.39510000  1.0 -0.5622766856
O  O44  1  0.53090000  0.73230000  0.60490000  1.0 -0.5622766856
O  O45  1  0.46860000  0.29610000  0.86230000  1.0 -0.6218902314
O  O46  1  0.53140000  0.70390000  0.13770000  1.0 -0.6218902314
O  O47  1  0.53250000  0.21010000  0.36310000  1.0 -0.6297236327
O  O48  1  0.46750000  0.78990000  0.63690000  1.0 -0.6297236327
O  O49  1  0.34110000  0.31550000  0.58310000  1.0 -0.8081431631
O  O50  1  0.65890000  0.68450000  0.41690000  1.0 -0.8081431631
O  O51  1  0.66830000  0.17790000  0.10920000  1.0 -0.8152138237
O  O52  1  0.33170000  0.82210000  0.89080000  1.0 -0.8152138237
