# DDEC6 charges by PACMAN v1.1 (https://github.com/mtap-research/PACMAN-charge/)
data_DIFMAK_ASR_pacman
_symmetry_space_group_name_H-M   'P 1'
_cell_length_a   19.09010000
_cell_length_b   20.12090000
_cell_length_c   21.75860000
_cell_angle_alpha   90.43500000
_cell_angle_beta   93.62000000
_cell_angle_gamma   114.02300000
_symmetry_Int_Tables_number   1
_chemical_formula_structural   Y2H45C69(NO4)3
_chemical_formula_sum   'Y8 H180 C276 N12 O48'
_cell_volume   7613.45445207
_cell_formula_units_Z   4
loop_
 _symmetry_equiv_pos_site_id
 _symmetry_equiv_pos_as_xyz
  1  'x, y, z'
loop_
 _atom_site_type_symbol
 _atom_site_label
 _atom_site_symmetry_multiplicity
 _atom_site_fract_x
 _atom_site_fract_y
 _atom_site_fract_z
 _atom_site_occupancy
 _atom_site_charge
Y  Y1  1  0.96592000  0.23806000  0.21408000  1.0 1.7001359099
Y  Y2  1  0.03408000  0.76194000  0.78592000  1.0 1.7001359099
Y  Y3  1  0.10002000  0.65272000  0.20202000  1.0 1.726114326
Y  Y4  1  0.89998000  0.34728000  0.79798000  1.0 1.726114326
Y  Y5  1  0.96608000  0.74086000  0.28118000  1.0 1.7001359099
Y  Y6  1  0.03392000  0.25914000  0.71882000  1.0 1.7001359099
Y  Y7  1  0.09394000  0.15240000  0.31356000  1.0 1.7649798327
Y  Y8  1  0.90606000  0.84760000  0.68644000  1.0 1.7649798327
H  H1  1  0.65354000  0.40641000  0.26753000  1.0 0.2694487208
H  H2  1  0.34646000  0.59359000  0.73247000  1.0 0.2694487208
H  H3  1  0.43001000  0.56148000  0.24729000  1.0 0.2528870039
H  H4  1  0.56999000  0.43852000  0.75271000  1.0 0.2528870039
H  H5  1  0.20781000  0.67253000  0.50223000  1.0 0.2528870039
H  H6  1  0.79219000  0.32747000  0.49777000  1.0 0.2528870039
H  H7  1  0.42124000  0.98867000  0.26898000  1.0 0.2528870039
H  H8  1  0.57876000  0.01133000  0.73102000  1.0 0.2528870039
H  H9  1  0.63603000  0.83230000  0.24180000  1.0 0.2635472649
H  H10  1  0.36397000  0.16770000  0.75820000  1.0 0.2635472649
H  H11  1  0.20247000  0.16752000  0.00184000  1.0 0.2635472649
H  H12  1  0.79753000  0.83248000  0.99816000  1.0 0.2635472649
H  H13  1  0.96537000  0.47889000  0.24294000  1.0 0.1381896714
H  H14  1  0.03463000  0.52111000  0.75706000  1.0 0.1381896714
H  H15  1  0.77275000  0.51025000  0.26518000  1.0 0.1295062631
H  H16  1  0.22725000  0.48975000  0.73482000  1.0 0.1295062631
H  H17  1  0.76028000  0.30869000  0.22904000  1.0 0.1295062631
H  H18  1  0.23972000  0.69131000  0.77096000  1.0 0.1295062631
H  H19  1  0.59569000  0.28520000  0.28156000  1.0 0.1016875177
H  H20  1  0.40431000  0.71480000  0.71844000  1.0 0.1016875177
H  H21  1  0.64076000  0.27712000  0.22644000  1.0 0.1016875177
H  H22  1  0.35924000  0.72288000  0.77356000  1.0 0.1016875177
H  H23  1  0.50174000  0.29651000  0.30714000  1.0 0.1087193009
H  H24  1  0.49826000  0.70349000  0.69286000  1.0 0.1087193009
H  H25  1  0.37811000  0.26697000  0.33269000  1.0 0.120617286
H  H26  1  0.62189000  0.73303000  0.66731000  1.0 0.120617286
H  H27  1  0.28298000  0.23714000  0.25711000  1.0 0.1295062631
H  H28  1  0.71702000  0.76286000  0.74289000  1.0 0.1295062631
H  H29  1  0.29910000  0.23366000  0.15610000  1.0 0.1295062631
H  H30  1  0.70090000  0.76634000  0.84390000  1.0 0.1295062631
H  H31  1  0.38809000  0.26269000  0.07659000  1.0 0.120617286
H  H32  1  0.61191000  0.73731000  0.92341000  1.0 0.120617286
H  H33  1  0.47518000  0.28264000  0.99851000  1.0 0.1016875177
H  H34  1  0.52482000  0.71736000  0.00149000  1.0 0.1016875177
H  H35  1  0.60480000  0.34140000  0.96796000  1.0 0.1016875177
H  H36  1  0.39520000  0.65860000  0.03204000  1.0 0.1016875177
H  H37  1  0.71014000  0.34634000  0.03847000  1.0 0.1087193009
H  H38  1  0.28986000  0.65366000  0.96153000  1.0 0.1087193009
H  H39  1  0.68681000  0.35314000  0.14750000  1.0 0.1016875177
H  H40  1  0.31319000  0.64686000  0.85250000  1.0 0.1016875177
H  H41  1  0.30556000  0.38789000  0.28119000  1.0 0.120617286
H  H42  1  0.69444000  0.61211000  0.71881000  1.0 0.120617286
H  H43  1  0.31822000  0.58337000  0.23663000  1.0 0.1295062631
H  H44  1  0.68178000  0.41663000  0.76337000  1.0 0.1295062631
H  H45  1  0.11043000  0.41888000  0.24966000  1.0 0.1466237141
H  H46  1  0.88957000  0.58112000  0.75034000  1.0 0.1466237141
H  H47  1  0.44351000  0.43735000  0.23804000  1.0 0.1087193009
H  H48  1  0.55649000  0.56265000  0.76196000  1.0 0.1087193009
H  H49  1  0.43960000  0.45163000  0.30872000  1.0 0.1087193009
H  H50  1  0.56040000  0.54837000  0.69128000  1.0 0.1087193009
H  H51  1  0.50478000  0.45034000  0.17153000  1.0 0.1087193009
H  H52  1  0.49522000  0.54966000  0.82847000  1.0 0.1087193009
H  H53  1  0.58351000  0.45593000  0.09410000  1.0 0.1087193009
H  H54  1  0.41649000  0.54407000  0.90590000  1.0 0.1087193009
H  H55  1  0.70861000  0.54180000  0.10042000  1.0 0.120617286
H  H56  1  0.29139000  0.45820000  0.89958000  1.0 0.120617286
H  H57  1  0.75484000  0.62181000  0.18431000  1.0 0.1381896714
H  H58  1  0.24516000  0.37819000  0.81569000  1.0 0.1381896714
H  H59  1  0.73814000  0.66916000  0.28003000  1.0 0.1381896714
H  H60  1  0.26186000  0.33084000  0.71997000  1.0 0.1381896714
H  H61  1  0.72282000  0.71261000  0.37323000  1.0 0.1295062631
H  H62  1  0.27718000  0.28739000  0.62677000  1.0 0.1295062631
H  H63  1  0.65066000  0.70777000  0.45786000  1.0 0.1087193009
H  H64  1  0.34934000  0.29223000  0.54214000  1.0 0.1087193009
H  H65  1  0.52397000  0.61965000  0.45862000  1.0 0.1016875177
H  H66  1  0.47603000  0.38035000  0.54138000  1.0 0.1016875177
H  H67  1  0.46960000  0.53615000  0.37502000  1.0 0.1087193009
H  H68  1  0.53040000  0.46385000  0.62498000  1.0 0.1087193009
H  H69  1  0.11743000  0.69588000  0.44123000  1.0 0.1295062631
H  H70  1  0.88257000  0.30412000  0.55877000  1.0 0.1295062631
H  H71  1  0.13440000  0.73080000  0.62256000  1.0 0.120617286
H  H72  1  0.86560000  0.26920000  0.37744000  1.0 0.120617286
H  H73  1  0.98491000  0.78124000  0.51507000  1.0 0.1295062631
H  H74  1  0.01509000  0.21876000  0.48493000  1.0 0.1295062631
H  H75  1  0.19384000  0.65306000  0.62223000  1.0 0.1087193009
H  H76  1  0.80616000  0.34694000  0.37777000  1.0 0.1087193009
H  H77  1  0.26351000  0.72689000  0.61133000  1.0 0.1087193009
H  H78  1  0.73649000  0.27311000  0.38867000  1.0 0.1087193009
H  H79  1  0.13528000  0.54776000  0.58588000  1.0 0.1016875177
H  H80  1  0.86472000  0.45224000  0.41412000  1.0 0.1016875177
H  H81  1  0.07756000  0.41997000  0.57904000  1.0 0.1087193009
H  H82  1  0.92244000  0.58003000  0.42096000  1.0 0.1087193009
H  H83  1  0.15377000  0.35403000  0.57234000  1.0 0.120617286
H  H84  1  0.84623000  0.64597000  0.42766000  1.0 0.120617286
H  H85  1  0.28786000  0.41571000  0.57217000  1.0 0.1016875177
H  H86  1  0.71214000  0.58429000  0.42783000  1.0 0.1016875177
H  H87  1  0.39971000  0.53185000  0.57147000  1.0 0.1295062631
H  H88  1  0.60029000  0.46815000  0.42853000  1.0 0.1295062631
H  H89  1  0.51274000  0.63935000  0.56568000  1.0 0.120617286
H  H90  1  0.48726000  0.36065000  0.43432000  1.0 0.120617286
H  H91  1  0.57468000  0.76031000  0.55950000  1.0 0.120617286
H  H92  1  0.42532000  0.23969000  0.44050000  1.0 0.120617286
H  H93  1  0.50430000  0.83037000  0.56318000  1.0 0.120617286
H  H94  1  0.49570000  0.16963000  0.43682000  1.0 0.120617286
H  H95  1  0.37277000  0.78022000  0.57637000  1.0 0.1087193009
H  H96  1  0.62723000  0.21978000  0.42363000  1.0 0.1087193009
H  H97  1  0.30245000  0.88835000  0.25329000  1.0 0.120617286
H  H98  1  0.69755000  0.11165000  0.74671000  1.0 0.120617286
H  H99  1  0.31526000  0.08863000  0.29646000  1.0 0.1295062631
H  H100  1  0.68474000  0.91137000  0.70354000  1.0 0.1295062631
H  H101  1  0.10993000  0.91835000  0.26888000  1.0 0.1466237141
H  H102  1  0.89007000  0.08165000  0.73112000  1.0 0.1466237141
H  H103  1  0.46356000  0.11417000  0.32129000  1.0 0.1016875177
H  H104  1  0.53644000  0.88583000  0.67871000  1.0 0.1016875177
H  H105  1  0.43387000  0.12651000  0.25535000  1.0 0.1016875177
H  H106  1  0.56613000  0.87349000  0.74465000  1.0 0.1016875177
H  H107  1  0.53691000  0.07089000  0.36924000  1.0 0.1087193009
H  H108  1  0.46309000  0.92911000  0.63076000  1.0 0.1087193009
H  H109  1  0.64260000  0.07285000  0.42965000  1.0 0.1087193009
H  H110  1  0.35740000  0.92715000  0.57035000  1.0 0.1087193009
H  H111  1  0.76119000  0.10859000  0.38808000  1.0 0.120617286
H  H112  1  0.23881000  0.89141000  0.61192000  1.0 0.120617286
H  H113  1  0.77410000  0.14237000  0.28609000  1.0 0.1381896714
H  H114  1  0.22590000  0.85763000  0.71391000  1.0 0.1381896714
H  H115  1  0.71822000  0.15221000  0.18742000  1.0 0.1466237141
H  H116  1  0.28178000  0.84779000  0.81258000  1.0 0.1466237141
H  H117  1  0.66874000  0.16581000  0.08209000  1.0 0.120617286
H  H118  1  0.33126000  0.83419000  0.91791000  1.0 0.120617286
H  H119  1  0.56776000  0.15377000  0.02374000  1.0 0.1087193009
H  H120  1  0.43224000  0.84623000  0.97626000  1.0 0.1087193009
H  H121  1  0.44283000  0.12771000  0.05431000  1.0 0.1087193009
H  H122  1  0.55717000  0.87229000  0.94569000  1.0 0.1087193009
H  H123  1  0.43361000  0.10895000  0.16441000  1.0 0.1087193009
H  H124  1  0.56639000  0.89105000  0.83559000  1.0 0.1087193009
H  H125  1  0.95556000  0.97696000  0.25096000  1.0 0.1381896714
H  H126  1  0.04444000  0.02304000  0.74904000  1.0 0.1381896714
H  H127  1  0.76534000  0.01293000  0.23893000  1.0 0.1295062631
H  H128  1  0.23466000  0.98707000  0.76107000  1.0 0.1295062631
H  H129  1  0.75258000  0.80972000  0.25843000  1.0 0.1295062631
H  H130  1  0.24742000  0.19028000  0.74157000  1.0 0.1295062631
H  H131  1  0.63238000  0.95987000  0.22826000  1.0 0.1087193009
H  H132  1  0.36762000  0.04013000  0.77174000  1.0 0.1087193009
H  H133  1  0.63776000  0.94751000  0.29912000  1.0 0.1087193009
H  H134  1  0.36224000  0.05249000  0.70088000  1.0 0.1016875177
H  H135  1  0.60282000  0.85767000  0.35815000  1.0 0.1087193009
H  H136  1  0.39718000  0.14233000  0.64185000  1.0 0.1087193009
H  H137  1  0.55059000  0.77466000  0.43567000  1.0 0.1016875177
H  H138  1  0.44941000  0.22534000  0.56433000  1.0 0.1016875177
H  H139  1  0.42037000  0.69308000  0.42560000  1.0 0.1016875177
H  H140  1  0.57963000  0.30692000  0.57440000  1.0 0.1016875177
H  H141  1  0.34246000  0.69433000  0.33789000  1.0 0.120617286
H  H142  1  0.65754000  0.30567000  0.66211000  1.0 0.120617286
H  H143  1  0.32895000  0.74688000  0.24121000  1.0 0.1295062631
H  H144  1  0.67105000  0.25312000  0.75879000  1.0 0.1295062631
H  H145  1  0.30685000  0.80171000  0.14390000  1.0 0.1381896714
H  H146  1  0.69315000  0.19829000  0.85610000  1.0 0.1295062631
H  H147  1  0.34869000  0.90268000  0.08208000  1.0 0.120617286
H  H148  1  0.65131000  0.09732000  0.91792000  1.0 0.120617286
H  H149  1  0.47705000  0.98647000  0.09388000  1.0 0.1087193009
H  H150  1  0.52295000  0.01353000  0.90612000  1.0 0.1087193009
H  H151  1  0.55941000  0.98001000  0.16934000  1.0 0.1087193009
H  H152  1  0.44059000  0.01999000  0.83066000  1.0 0.1087193009
H  H153  1  0.97722000  0.27810000  0.98408000  1.0 0.1295062631
H  H154  1  0.02278000  0.72190000  0.01592000  1.0 0.1295062631
H  H155  1  0.10480000  0.18233000  0.06650000  1.0 0.1381896714
H  H156  1  0.89520000  0.81767000  0.93350000  1.0 0.1381896714
H  H157  1  0.11564000  0.22258000  0.88372000  1.0 0.1295062631
H  H158  1  0.88436000  0.77742000  0.11628000  1.0 0.1295062631
H  H159  1  0.20777000  0.19860000  0.88273000  1.0 0.1016875177
H  H160  1  0.79223000  0.80140000  0.11727000  1.0 0.1016875177
H  H161  1  0.15428000  0.11576000  0.88816000  1.0 0.1087193009
H  H162  1  0.84572000  0.88424000  0.11184000  1.0 0.1087193009
H  H163  1  0.31166000  0.27266000  0.87262000  1.0 0.1087193009
H  H164  1  0.68834000  0.72734000  0.12738000  1.0 0.1087193009
H  H165  1  0.43244000  0.35189000  0.84330000  1.0 0.1087193009
H  H166  1  0.56756000  0.64811000  0.15670000  1.0 0.1087193009
H  H167  1  0.53621000  0.31829000  0.85352000  1.0 0.1087193009
H  H168  1  0.46379000  0.68171000  0.14648000  1.0 0.1087193009
H  H169  1  0.51937000  0.20542000  0.89329000  1.0 0.1087193009
H  H170  1  0.48063000  0.79458000  0.10671000  1.0 0.1087193009
H  H171  1  0.43340000  0.08826000  0.93570000  1.0 0.1087193009
H  H172  1  0.56660000  0.91174000  0.06430000  1.0 0.1087193009
H  H173  1  0.34730000  0.96278000  0.95719000  1.0 0.1087193009
H  H174  1  0.65270000  0.03722000  0.04281000  1.0 0.1087193009
H  H175  1  0.22205000  0.87282000  0.96311000  1.0 0.1087193009
H  H176  1  0.77795000  0.12718000  0.03689000  1.0 0.1087193009
H  H177  1  0.11589000  0.90355000  0.94945000  1.0 0.1087193009
H  H178  1  0.88411000  0.09645000  0.05055000  1.0 0.1087193009
H  H179  1  0.13497000  0.02433000  0.93017000  1.0 0.1087193009
H  H180  1  0.86503000  0.97567000  0.06983000  1.0 0.1087193009
C  C1  1  0.90440000  0.33550000  0.22100000  1.0 0.5614506834
C  C2  1  0.09560000  0.66450000  0.77900000  1.0 0.5614506834
C  C3  1  0.86580000  0.38680000  0.23500000  1.0 0.0195403753
C  C4  1  0.13420000  0.61320000  0.76500000  1.0 0.0195403753
C  C5  1  0.91210000  0.46040000  0.24340000  1.0 -0.1387369922
C  C6  1  0.08790000  0.53960000  0.75660000  1.0 -0.1387369922
C  C7  1  0.87240000  0.50570000  0.25300000  1.0 -0.005664812
C  C8  1  0.12760000  0.49430000  0.74700000  1.0 -0.005664812
C  C9  1  0.79570000  0.47830000  0.25810000  1.0 -0.200769771
C  C10  1  0.20430000  0.52170000  0.74190000  1.0 -0.200769771
C  C11  1  0.74880000  0.40230000  0.25290000  1.0 0.2223266763
C  C12  1  0.25120000  0.59770000  0.74710000  1.0 0.2223266763
C  C13  1  0.78840000  0.35820000  0.23750000  1.0 -0.2178465343
C  C14  1  0.21160000  0.64180000  0.76250000  1.0 -0.2178465343
C  C15  1  0.91500000  0.58680000  0.26080000  1.0 0.6208172493
C  C16  1  0.08500000  0.41320000  0.73920000  1.0 0.6208172493
C  C17  1  0.61610000  0.30620000  0.24320000  1.0 -0.110538205
C  C18  1  0.38390000  0.69380000  0.75680000  1.0 -0.110538205
C  C19  1  0.55240000  0.30070000  0.20050000  1.0 -0.0182028613
C  C20  1  0.44760000  0.69930000  0.79950000  1.0 -0.0182028613
C  C21  1  0.46220000  0.28450000  0.27620000  1.0 -0.1705461221
C  C22  1  0.53780000  0.71550000  0.72380000  1.0 -0.1705461221
C  C23  1  0.38920000  0.26710000  0.29170000  1.0 -0.1006317968
C  C24  1  0.61080000  0.73290000  0.70830000  1.0 -0.1006317968
C  C25  1  0.33270000  0.24990000  0.24540000  1.0 -0.1006317968
C  C26  1  0.66730000  0.75010000  0.75460000  1.0 -0.1006317968
C  C27  1  0.34090000  0.24940000  0.18520000  1.0 -0.1525007724
C  C28  1  0.65910000  0.75060000  0.81480000  1.0 -0.1525007724
C  C29  1  0.41710000  0.27430000  0.16850000  1.0 0.0623165675
C  C30  1  0.58290000  0.72570000  0.83150000  1.0 0.0623165675
C  C31  1  0.42860000  0.27660000  0.10680000  1.0 -0.200769771
C  C32  1  0.57140000  0.72340000  0.89320000  1.0 -0.200769771
C  C33  1  0.50480000  0.30110000  0.09240000  1.0 0.070558271
C  C34  1  0.49520000  0.69890000  0.90760000  1.0 0.0777802012
C  C35  1  0.51680000  0.30060000  0.02780000  1.0 -0.159971101
C  C36  1  0.48320000  0.69940000  0.97220000  1.0 -0.159971101
C  C37  1  0.59630000  0.32930000  0.00880000  1.0 -0.110538205
C  C38  1  0.40370000  0.67070000  0.99120000  1.0 -0.110538205
C  C39  1  0.66220000  0.33930000  0.05150000  1.0 -0.1387369922
C  C40  1  0.33780000  0.66070000  0.94850000  1.0 -0.1387369922
C  C41  1  0.64630000  0.33750000  0.11720000  1.0 -0.1525007724
C  C42  1  0.35370000  0.66250000  0.88280000  1.0 -0.1525007724
C  C43  1  0.56770000  0.31120000  0.13470000  1.0 0.0370666617
C  C44  1  0.43230000  0.68880000  0.86530000  1.0 0.0370666617
C  C45  1  0.00840000  0.23280000  0.09130000  1.0 0.5176916652
C  C46  1  0.99160000  0.76720000  0.90870000  1.0 0.5176916652
C  C47  1  0.15500000  0.31260000  0.27690000  1.0 0.6208172493
C  C48  1  0.84500000  0.68740000  0.72310000  1.0 0.6208172493
C  C49  1  0.20240000  0.39050000  0.26530000  1.0 -0.0182028613
C  C50  1  0.79760000  0.60950000  0.73470000  1.0 -0.0182028613
C  C51  1  0.28150000  0.41760000  0.26760000  1.0 -0.200769771
C  C52  1  0.71850000  0.58240000  0.73240000  1.0 -0.200769771
C  C53  1  0.32650000  0.48760000  0.25060000  1.0 0.2223266763
C  C54  1  0.67350000  0.51240000  0.74940000  1.0 0.2223266763
C  C55  1  0.28940000  0.53440000  0.24330000  1.0 -0.200769771
C  C56  1  0.71060000  0.46560000  0.75670000  1.0 -0.200769771
C  C57  1  0.16370000  0.43600000  0.25290000  1.0 -0.1295607147
C  C58  1  0.83630000  0.56400000  0.74710000  1.0 -0.1295607147
C  C59  1  0.45280000  0.47480000  0.26970000  1.0 -0.1195407679
C  C60  1  0.54720000  0.52520000  0.73030000  1.0 -0.1195407679
C  C61  1  0.53670000  0.52840000  0.27360000  1.0 -0.0182028613
C  C62  1  0.46330000  0.47160000  0.72640000  1.0 -0.0182028613
C  C63  1  0.58290000  0.53270000  0.22400000  1.0 0.0195403753
C  C64  1  0.41710000  0.46730000  0.77600000  1.0 0.0195403753
C  C65  1  0.55530000  0.48500000  0.17410000  1.0 -0.159971101
C  C66  1  0.44470000  0.51500000  0.82590000  1.0 -0.159971101
C  C67  1  0.60220000  0.48830000  0.12790000  1.0 -0.0916950312
C  C68  1  0.39780000  0.51170000  0.87210000  1.0 -0.0916950312
C  C69  1  0.67680000  0.53950000  0.13170000  1.0 -0.1006317968
C  C70  1  0.32320000  0.46050000  0.86830000  1.0 -0.1006317968
C  C71  1  0.70430000  0.58720000  0.18170000  1.0 -0.1295607147
C  C72  1  0.29570000  0.41280000  0.81830000  1.0 -0.1295607147
C  C73  1  0.65740000  0.58390000  0.22780000  1.0 0.0623165675
C  C74  1  0.34260000  0.41610000  0.77220000  1.0 0.0623165675
C  C75  1  0.68800000  0.63380000  0.27780000  1.0 -0.1920233009
C  C76  1  0.31200000  0.36620000  0.72220000  1.0 -0.1920233009
C  C77  1  0.63980000  0.62730000  0.32310000  1.0 0.0777802012
C  C78  1  0.36020000  0.37270000  0.67690000  1.0 0.0777802012
C  C79  1  0.67260000  0.67760000  0.37360000  1.0 -0.159971101
C  C80  1  0.32740000  0.32240000  0.62640000  1.0 -0.159971101
C  C81  1  0.62910000  0.67470000  0.42470000  1.0 -0.110538205
C  C82  1  0.37090000  0.32530000  0.57530000  1.0 -0.110538205
C  C83  1  0.55260000  0.62150000  0.42510000  1.0 -0.110538205
C  C84  1  0.44740000  0.37850000  0.57490000  1.0 -0.110538205
C  C85  1  0.51980000  0.57110000  0.37460000  1.0 -0.159971101
C  C86  1  0.48020000  0.42890000  0.62540000  1.0 -0.159971101
C  C87  1  0.56330000  0.57400000  0.32360000  1.0 0.0195403753
C  C88  1  0.43670000  0.42600000  0.67640000  1.0 0.0195403753
C  C89  1  0.17160000  0.55770000  0.23450000  1.0 0.5521273547
C  C90  1  0.82840000  0.44230000  0.76550000  1.0 0.5521273547
C  C91  1  0.01260000  0.74050000  0.40670000  1.0 0.535679304
C  C92  1  0.98740000  0.25950000  0.59330000  1.0 0.535679304
C  C93  1  0.04340000  0.73630000  0.46920000  1.0 -0.0274276352
C  C94  1  0.95660000  0.26370000  0.53080000  1.0 -0.0274276352
C  C95  1  0.10180000  0.71150000  0.47610000  1.0 -0.200769771
C  C96  1  0.89820000  0.28850000  0.52390000  1.0 -0.200769771
C  C97  1  0.13870000  0.70930000  0.53560000  1.0 0.2223266763
C  C98  1  0.86130000  0.29070000  0.46440000  1.0 0.2223266763
C  C99  1  0.11210000  0.73180000  0.58350000  1.0 -0.1920233009
C  C100  1  0.88790000  0.26820000  0.41650000  1.0 -0.1920233009
C  C101  1  0.05350000  0.75680000  0.57940000  1.0 -0.1006317968
C  C102  1  0.94650000  0.24320000  0.42060000  1.0 -0.1006317968
C  C103  1  0.02110000  0.76130000  0.51970000  1.0 -0.0916950312
C  C104  1  0.97890000  0.23870000  0.48030000  1.0 -0.0916950312
C  C105  1  0.02520000  0.77100000  0.63300000  1.0 0.5876604252
C  C106  1  0.97480000  0.22900000  0.36700000  1.0 0.5876604252
C  C107  1  0.23210000  0.67870000  0.59360000  1.0 -0.1295607147
C  C108  1  0.76790000  0.32130000  0.40640000  1.0 -0.1295607147
C  C109  1  0.28260000  0.63730000  0.58370000  1.0 -0.0274276352
C  C110  1  0.71740000  0.36270000  0.41630000  1.0 -0.0274276352
C  C111  1  0.24650000  0.55880000  0.58330000  1.0 0.0287834568
C  C112  1  0.75350000  0.44120000  0.41670000  1.0 0.0287834568
C  C113  1  0.16550000  0.52160000  0.58320000  1.0 -0.1705461221
C  C114  1  0.83450000  0.47840000  0.41680000  1.0 -0.1705461221
C  C115  1  0.13070000  0.44440000  0.57910000  1.0 -0.0777419909
C  C116  1  0.86930000  0.55560000  0.42090000  1.0 -0.0777419909
C  C117  1  0.17670000  0.40460000  0.57500000  1.0 -0.0777419909
C  C118  1  0.82330000  0.59540000  0.42500000  1.0 -0.0777419909
C  C119  1  0.25760000  0.44190000  0.57500000  1.0 -0.1525007724
C  C120  1  0.74240000  0.55810000  0.42500000  1.0 -0.1525007724
C  C121  1  0.29250000  0.51890000  0.57920000  1.0 0.070558271
C  C122  1  0.70750000  0.48110000  0.42080000  1.0 0.070558271
C  C123  1  0.36940000  0.55800000  0.57400000  1.0 -0.2069701499
C  C124  1  0.63060000  0.44200000  0.42600000  1.0 -0.2069701499
C  C125  1  0.40560000  0.63180000  0.57240000  1.0 0.0623165675
C  C126  1  0.59440000  0.36820000  0.42760000  1.0 0.0623165675
C  C127  1  0.48450000  0.66760000  0.56700000  1.0 -0.159971101
C  C128  1  0.51550000  0.33240000  0.43300000  1.0 -0.159971101
C  C129  1  0.52200000  0.73880000  0.56350000  1.0 -0.110538205
C  C130  1  0.47800000  0.26120000  0.43650000  1.0 -0.110538205
C  C131  1  0.47900000  0.78020000  0.56610000  1.0 -0.1195407679
C  C132  1  0.52100000  0.21980000  0.43390000  1.0 -0.110538205
C  C133  1  0.39890000  0.75030000  0.57280000  1.0 -0.159971101
C  C134  1  0.60110000  0.24970000  0.42720000  1.0 -0.159971101
C  C135  1  0.15460000  0.81150000  0.24330000  1.0 0.6208172493
C  C136  1  0.84540000  0.18850000  0.75670000  1.0 0.6208172493
C  C137  1  0.20250000  0.89520000  0.25630000  1.0 0.0089489491
C  C138  1  0.79750000  0.10480000  0.74370000  1.0 0.0089489491
C  C139  1  0.27890000  0.91990000  0.25990000  1.0 -0.200769771
C  C140  1  0.72110000  0.08010000  0.74010000  1.0 -0.200769771
C  C141  1  0.32240000  0.99240000  0.27350000  1.0 0.2223266763
C  C142  1  0.67760000  0.00760000  0.72650000  1.0 0.2223266763
C  C143  1  0.28630000  0.03970000  0.28610000  1.0 -0.200769771
C  C144  1  0.71370000  0.96030000  0.71390000  1.0 -0.200769771
C  C145  1  0.20810000  0.01140000  0.28260000  1.0 0.0089489491
C  C146  1  0.79190000  0.98860000  0.71740000  1.0 0.0089489491
C  C147  1  0.16330000  0.93780000  0.26920000  1.0 -0.1195407679
C  C148  1  0.83670000  0.06220000  0.73080000  1.0 -0.1195407679
C  C149  1  0.16840000  0.06270000  0.28940000  1.0 0.5614506834
C  C150  1  0.83160000  0.93730000  0.71060000  1.0 0.5614506834
C  C151  1  0.45610000  0.09780000  0.27840000  1.0 -0.1195407679
C  C152  1  0.54390000  0.90220000  0.72160000  1.0 -0.1195407679
C  C153  1  0.53450000  0.11090000  0.25430000  1.0 -0.0182028613
C  C154  1  0.46550000  0.88910000  0.74570000  1.0 -0.0182028613
C  C155  1  0.59210000  0.10550000  0.29140000  1.0 0.0195403753
C  C156  1  0.40790000  0.89450000  0.70860000  1.0 0.0195403753
C  C157  1  0.58440000  0.08520000  0.35260000  1.0 -0.159971101
C  C158  1  0.41560000  0.91480000  0.64740000  1.0 -0.159971101
C  C159  1  0.64780000  0.08640000  0.38880000  1.0 -0.1195407679
C  C160  1  0.35220000  0.91360000  0.61120000  1.0 -0.1195407679
C  C161  1  0.71890000  0.10780000  0.36390000  1.0 -0.1006317968
C  C162  1  0.28110000  0.89220000  0.63610000  1.0 -0.1006317968
C  C163  1  0.72670000  0.12810000  0.30270000  1.0 -0.1387369922
C  C164  1  0.27330000  0.87190000  0.69730000  1.0 -0.1387369922
C  C165  1  0.66330000  0.12700000  0.26640000  1.0 0.070558271
C  C166  1  0.33670000  0.87300000  0.73360000  1.0 0.070558271
C  C167  1  0.67130000  0.14290000  0.20370000  1.0 -0.1705461221
C  C168  1  0.32870000  0.85710000  0.79630000  1.0 -0.1705461221
C  C169  1  0.61620000  0.14490000  0.16830000  1.0 0.070558271
C  C170  1  0.38380000  0.85510000  0.83170000  1.0 0.070558271
C  C171  1  0.62220000  0.15470000  0.09950000  1.0 -0.1387369922
C  C172  1  0.37780000  0.84530000  0.90050000  1.0 -0.1387369922
C  C173  1  0.56060000  0.14730000  0.06550000  1.0 -0.0916950312
C  C174  1  0.43940000  0.85270000  0.93450000  1.0 -0.0916950312
C  C175  1  0.48380000  0.13100000  0.08150000  1.0 -0.1006317968
C  C176  1  0.51620000  0.86900000  0.91850000  1.0 -0.1006317968
C  C177  1  0.48100000  0.12030000  0.14840000  1.0 -0.1525007724
C  C178  1  0.51900000  0.87970000  0.85160000  1.0 -0.1525007724
C  C179  1  0.54160000  0.12530000  0.19070000  1.0 0.0195403753
C  C180  1  0.45840000  0.87470000  0.80930000  1.0 0.0195403753
C  C181  1  0.89680000  0.83470000  0.26880000  1.0 0.5667123132
C  C182  1  0.10320000  0.16530000  0.73120000  1.0 0.5667123132
C  C183  1  0.85670000  0.88500000  0.25710000  1.0 0.0195403753
C  C184  1  0.14330000  0.11500000  0.74290000  1.0 0.0195403753
C  C185  1  0.90230000  0.95930000  0.25030000  1.0 -0.1525007724
C  C186  1  0.09770000  0.04070000  0.74970000  1.0 -0.1525007724
C  C187  1  0.86430000  0.00600000  0.24250000  1.0 0.0025631223
C  C188  1  0.13570000  0.99400000  0.75750000  1.0 0.0025631223
C  C189  1  0.78820000  0.98010000  0.24270000  1.0 -0.200769771
C  C190  1  0.21180000  0.01990000  0.75730000  1.0 -0.1920233009
C  C191  1  0.73960000  0.90540000  0.24820000  1.0 0.2371237212
C  C192  1  0.26040000  0.09460000  0.75180000  1.0 0.2371237212
C  C193  1  0.78060000  0.85950000  0.25520000  1.0 -0.2069701499
C  C194  1  0.21940000  0.14050000  0.74480000  1.0 -0.2069701499
C  C195  1  0.35990000  0.67400000  0.57410000  1.0 0.0287834568
C  C196  1  0.64010000  0.32600000  0.42590000  1.0 0.0287834568
C  C197  1  0.62050000  0.92290000  0.25900000  1.0 -0.110538205
C  C198  1  0.37950000  0.07710000  0.74100000  1.0 -0.110538205
C  C199  1  0.53310000  0.87900000  0.25630000  1.0 -0.0182028613
C  C200  1  0.46690000  0.12100000  0.74370000  1.0 -0.0182028613
C  C201  1  0.50420000  0.82610000  0.30110000  1.0 0.0195403753
C  C202  1  0.49580000  0.17390000  0.69890000  1.0 0.0195403753
C  C203  1  0.55130000  0.82530000  0.35410000  1.0 -0.1705461221
C  C204  1  0.44870000  0.17470000  0.64590000  1.0 -0.1705461221
C  C205  1  0.51970000  0.77520000  0.40100000  1.0 -0.1006317968
C  C206  1  0.48030000  0.22480000  0.59900000  1.0 -0.1006317968
C  C207  1  0.44110000  0.72590000  0.39490000  1.0 -0.110538205
C  C208  1  0.55890000  0.27410000  0.60510000  1.0 -0.110538205
C  C209  1  0.39400000  0.72660000  0.34190000  1.0 -0.1525007724
C  C210  1  0.60600000  0.27340000  0.65810000  1.0 -0.1525007724
C  C211  1  0.42550000  0.77670000  0.29510000  1.0 0.0854498082
C  C212  1  0.57450000  0.22330000  0.70490000  1.0 0.0854498082
C  C213  1  0.37950000  0.78140000  0.24550000  1.0 -0.1920233009
C  C214  1  0.62050000  0.21860000  0.75450000  1.0 -0.1920233009
C  C215  1  0.40370000  0.83490000  0.20100000  1.0 0.0777802012
C  C216  1  0.59630000  0.16510000  0.79900000  1.0 0.0777802012
C  C217  1  0.35590000  0.83840000  0.15130000  1.0 -0.159971101
C  C218  1  0.64410000  0.16160000  0.84870000  1.0 -0.1525007724
C  C219  1  0.38190000  0.89710000  0.11280000  1.0 -0.110538205
C  C220  1  0.61810000  0.10290000  0.88720000  1.0 -0.110538205
C  C221  1  0.45960000  0.94850000  0.12090000  1.0 -0.110538205
C  C222  1  0.54040000  0.05150000  0.87910000  1.0 -0.110538205
C  C223  1  0.50930000  0.94450000  0.16630000  1.0 -0.159971101
C  C224  1  0.49070000  0.05550000  0.83370000  1.0 -0.159971101
C  C225  1  0.48790000  0.88720000  0.21030000  1.0 0.0195403753
C  C226  1  0.51210000  0.11280000  0.78970000  1.0 0.0195403753
C  C227  1  0.01500000  0.27230000  0.86740000  1.0 0.6208172493
C  C228  1  0.98500000  0.72770000  0.13260000  1.0 0.6208172493
C  C229  1  0.03970000  0.25070000  0.92520000  1.0 -0.0575575839
C  C230  1  0.96030000  0.74930000  0.07480000  1.0 -0.0575575839
C  C231  1  0.01170000  0.25640000  0.98100000  1.0 -0.0916950312
C  C232  1  0.98830000  0.74360000  0.01900000  1.0 -0.0916950312
C  C233  1  0.03710000  0.22790000  0.03440000  1.0 -0.0575575839
C  C234  1  0.96290000  0.77210000  0.96560000  1.0 -0.0575575839
C  C235  1  0.08900000  0.19920000  0.03090000  1.0 -0.1812843224
C  C236  1  0.91100000  0.80080000  0.96910000  1.0 -0.1812843224
C  C237  1  0.12110000  0.19360000  0.97420000  1.0 0.2694487208
C  C238  1  0.87890000  0.80640000  0.02580000  1.0 0.2694487208
C  C239  1  0.09500000  0.22270000  0.92130000  1.0 -0.2069701499
C  C240  1  0.90500000  0.77730000  0.07870000  1.0 -0.200769771
C  C241  1  0.19730000  0.15670000  0.90820000  1.0 -0.1295607147
C  C242  1  0.80270000  0.84330000  0.09180000  1.0 -0.1295607147
C  C243  1  0.26900000  0.13870000  0.91450000  1.0 -0.0182028613
C  C244  1  0.73100000  0.86130000  0.08550000  1.0 -0.0182028613
C  C245  1  0.34280000  0.19130000  0.90070000  1.0 0.0195403753
C  C246  1  0.65720000  0.80870000  0.09930000  1.0 0.0195403753
C  C247  1  0.35290000  0.25930000  0.87670000  1.0 -0.1705461221
C  C248  1  0.64710000  0.74070000  0.12330000  1.0 -0.1705461221
C  C249  1  0.42570000  0.30700000  0.85910000  1.0 -0.1195407679
C  C250  1  0.57430000  0.69300000  0.14090000  1.0 -0.1195407679
C  C251  1  0.48820000  0.28680000  0.86520000  1.0 -0.1195407679
C  C252  1  0.51180000  0.71320000  0.13480000  1.0 -0.1195407679
C  C253  1  0.47810000  0.21880000  0.88920000  1.0 -0.159971101
C  C254  1  0.52190000  0.78120000  0.11080000  1.0 -0.159971101
C  C255  1  0.40530000  0.17100000  0.90690000  1.0 0.0777802012
C  C256  1  0.59470000  0.82900000  0.09310000  1.0 0.0777802012
C  C257  1  0.39170000  0.10060000  0.92870000  1.0 -0.2462672657
C  C258  1  0.60830000  0.89940000  0.07130000  1.0 -0.2462672657
C  C259  1  0.31680000  0.04790000  0.94020000  1.0 0.0777802012
C  C260  1  0.68320000  0.95210000  0.05980000  1.0 0.0777802012
C  C261  1  0.30530000  0.97500000  0.95190000  1.0 -0.1705461221
C  C262  1  0.69470000  0.02500000  0.04810000  1.0 -0.1705461221
C  C263  1  0.22960000  0.92060000  0.95540000  1.0 -0.1006317968
C  C264  1  0.77040000  0.07940000  0.04460000  1.0 -0.1006317968
C  C265  1  0.16540000  0.93920000  0.94720000  1.0 -0.0777419909
C  C266  1  0.83460000  0.06080000  0.05280000  1.0 -0.0777419909
C  C267  1  0.17700000  0.01220000  0.93550000  1.0 -0.1705461221
C  C268  1  0.82300000  0.98780000  0.06450000  1.0 -0.1705461221
C  C269  1  0.25270000  0.06650000  0.93200000  1.0 0.0195403753
C  C270  1  0.74730000  0.93350000  0.06800000  1.0 0.0195403753
C  C271  1  0.90900000  0.08590000  0.23030000  1.0 0.6208172493
C  C272  1  0.09100000  0.91410000  0.76970000  1.0 0.6208172493
C  C273  1  0.47850000  0.28450000  0.21580000  1.0 0.0195403753
C  C274  1  0.52150000  0.71550000  0.78420000  1.0 0.0195403753
C  C275  1  0.21290000  0.51010000  0.24570000  1.0 -0.0012326854
C  C276  1  0.78710000  0.48990000  0.75430000  1.0 -0.0012326854
N  N1  1  0.67080000  0.37530000  0.25590000  1.0 -0.2828230626
N  N2  1  0.32920000  0.62470000  0.74410000  1.0 -0.2828230626
N  N3  1  0.40600000  0.51600000  0.25440000  1.0 -0.3316896028
N  N4  1  0.59400000  0.48400000  0.74560000  1.0 -0.3316896028
N  N5  1  0.19470000  0.68460000  0.53620000  1.0 -0.2828230626
N  N6  1  0.80530000  0.31540000  0.46380000  1.0 -0.2828230626
N  N7  1  0.40150000  0.01990000  0.27290000  1.0 -0.3419414527
N  N8  1  0.59850000  0.98010000  0.72710000  1.0 -0.3419414527
N  N9  1  0.66190000  0.87840000  0.24840000  1.0 -0.292708642
N  N10  1  0.33810000  0.12160000  0.75160000  1.0 -0.292708642
N  N11  1  0.17730000  0.17230000  0.96920000  1.0 -0.2668910391
N  N12  1  0.82270000  0.82770000  0.03080000  1.0 -0.2668910391
O  O1  1  0.88030000  0.62340000  0.28050000  1.0 -0.5814938089
O  O2  1  0.11970000  0.37660000  0.71950000  1.0 -0.5814938089
O  O3  1  0.98440000  0.61710000  0.24770000  1.0 -0.6373597847
O  O4  1  0.01560000  0.38290000  0.75230000  1.0 -0.6373597847
O  O5  1  0.97460000  0.35740000  0.22720000  1.0 -0.5302032596
O  O6  1  0.02540000  0.64260000  0.77280000  1.0 -0.5302032596
O  O7  1  0.85930000  0.26750000  0.20870000  1.0 -0.6215995914
O  O8  1  0.14070000  0.73250000  0.79130000  1.0 -0.6215995914
O  O9  1  0.96300000  0.25800000  0.10250000  1.0 -0.4913697904
O  O10  1  0.03700000  0.74200000  0.89750000  1.0 -0.4913697904
O  O11  1  0.02790000  0.20310000  0.14000000  1.0 -0.5987321801
O  O12  1  0.97210000  0.79690000  0.86000000  1.0 -0.5987321801
O  O13  1  0.08570000  0.28250000  0.25310000  1.0 -0.6476531393
O  O14  1  0.91430000  0.71750000  0.74690000  1.0 -0.6476531393
O  O15  1  0.18380000  0.27810000  0.31250000  1.0 -0.6109230286
O  O16  1  0.81620000  0.72190000  0.68750000  1.0 -0.6109230286
O  O17  1  0.10210000  0.53860000  0.24110000  1.0 -0.5637155837
O  O18  1  0.89790000  0.46140000  0.75890000  1.0 -0.5637155837
O  O19  1  0.21230000  0.62510000  0.21670000  1.0 -0.668862573
O  O20  1  0.78770000  0.37490000  0.78330000  1.0 -0.668862573
O  O21  1  0.02810000  0.70460000  0.36280000  1.0 -0.6109230286
O  O22  1  0.97190000  0.29540000  0.63720000  1.0 -0.6109230286
O  O23  1  0.96860000  0.76680000  0.39510000  1.0 -0.5093516774
O  O24  1  0.03140000  0.23320000  0.60490000  1.0 -0.5093516774
O  O25  1  0.96740000  0.79130000  0.62920000  1.0 -0.6373597847
O  O26  1  0.03260000  0.20870000  0.37080000  1.0 -0.6373597847
O  O27  1  0.05710000  0.77260000  0.68420000  1.0 -0.5689169234
O  O28  1  0.94290000  0.22740000  0.31580000  1.0 -0.5689169234
O  O29  1  0.08450000  0.78520000  0.25850000  1.0 -0.6476531393
O  O30  1  0.91550000  0.21480000  0.74150000  1.0 -0.6476531393
O  O31  1  0.18540000  0.77780000  0.21600000  1.0 -0.5689169234
O  O32  1  0.81460000  0.22220000  0.78400000  1.0 -0.5689169234
O  O33  1  0.09870000  0.04210000  0.27230000  1.0 -0.5814938089
O  O34  1  0.90130000  0.95790000  0.72770000  1.0 -0.5814938089
O  O35  1  0.20430000  0.12230000  0.32150000  1.0 -0.6373597847
O  O36  1  0.79570000  0.87770000  0.67850000  1.0 -0.6373597847
O  O37  1  0.98080000  0.11800000  0.25080000  1.0 -0.668862573
O  O38  1  0.01920000  0.88200000  0.74920000  1.0 -0.668862573
O  O39  1  0.87330000  0.12140000  0.20590000  1.0 -0.5814938089
O  O40  1  0.12670000  0.87860000  0.79410000  1.0 -0.5814938089
O  O41  1  0.96880000  0.85750000  0.26830000  1.0 -0.5689169234
O  O42  1  0.03120000  0.14250000  0.73170000  1.0 -0.5689169234
O  O43  1  0.85530000  0.76830000  0.27530000  1.0 -0.5877814359
O  O44  1  0.14470000  0.23170000  0.72470000  1.0 -0.5877814359
O  O45  1  0.05090000  0.27520000  0.82210000  1.0 -0.5814938089
O  O46  1  0.94910000  0.72480000  0.17790000  1.0 -0.5814938089
O  O47  1  0.95960000  0.29300000  0.86910000  1.0 -0.6215995914
O  O48  1  0.04040000  0.70700000  0.13090000  1.0 -0.6215995914
