# DDEC6 charges by PACMAN v1.1 (https://github.com/mtap-research/PACMAN-charge/)
data_DIKJUD_ion_pacman
_symmetry_space_group_name_H-M   'P 1'
_cell_length_a   9.38200000
_cell_length_b   18.80300000
_cell_length_c   21.29600000
_cell_angle_alpha   90.00000000
_cell_angle_beta   90.00000000
_cell_angle_gamma   90.00000000
_symmetry_Int_Tables_number   1
_chemical_formula_structural   CuP2H28C28N8O5F12
_chemical_formula_sum   'Cu4 P8 H112 C112 N32 O20 F48'
_cell_volume   3756.82195082
_cell_formula_units_Z   4
loop_
 _symmetry_equiv_pos_site_id
 _symmetry_equiv_pos_as_xyz
  1  'x, y, z'
loop_
 _atom_site_type_symbol
 _atom_site_label
 _atom_site_symmetry_multiplicity
 _atom_site_fract_x
 _atom_site_fract_y
 _atom_site_fract_z
 _atom_site_occupancy
 _atom_site_charge
Cu  Cu1  1  0.01883000  0.88200000  0.88791000  1.0 0.5893303126
Cu  Cu2  1  0.98117000  0.38200000  0.11209000  1.0 0.5893303126
Cu  Cu3  1  0.98117000  0.88200000  0.38791000  1.0 0.5893303126
Cu  Cu4  1  0.01883000  0.38200000  0.61209000  1.0 0.5893303126
P  P1  1  0.89300000  0.19780000  0.90787000  1.0 1.4105726301
P  P2  1  0.10700000  0.69780000  0.09213000  1.0 1.4105726301
P  P3  1  0.10700000  0.19780000  0.40787000  1.0 1.4105726301
P  P4  1  0.89300000  0.69780000  0.59213000  1.0 1.4105726301
P  P5  1  0.98380000  0.08991000  0.67366000  1.0 1.4016936242
P  P6  1  0.01620000  0.58991000  0.32634000  1.0 1.4105726301
P  P7  1  0.01620000  0.08991000  0.17366000  1.0 1.4105726301
P  P8  1  0.98380000  0.58991000  0.82634000  1.0 1.4016936242
H  H1  1  0.75380000  0.97090000  0.89130000  1.0 0.1028709506
H  H2  1  0.24620000  0.47090000  0.10870000  1.0 0.1028709506
H  H3  1  0.24620000  0.97090000  0.39130000  1.0 0.1028709506
H  H4  1  0.75380000  0.47090000  0.60870000  1.0 0.1028709506
H  H5  1  0.95120000  0.86890000  0.02590000  1.0 0.1028709506
H  H6  1  0.04880000  0.36890000  0.97410000  1.0 0.1028709506
H  H7  1  0.04880000  0.86890000  0.52590000  1.0 0.1028709506
H  H8  1  0.95120000  0.36890000  0.47410000  1.0 0.1028709506
H  H9  1  0.81240000  0.91960000  0.09900000  1.0 0.1417993078
H  H10  1  0.18760000  0.41960000  0.90100000  1.0 0.1417993078
H  H11  1  0.18760000  0.91960000  0.59900000  1.0 0.1417993078
H  H12  1  0.81240000  0.41960000  0.40100000  1.0 0.1417993078
H  H13  1  0.64360000  0.00370000  0.07130000  1.0 0.1215950866
H  H14  1  0.35640000  0.50370000  0.92870000  1.0 0.1215950866
H  H15  1  0.35640000  0.00370000  0.57130000  1.0 0.1215950866
H  H16  1  0.64360000  0.50370000  0.42870000  1.0 0.1215950866
H  H17  1  0.71980000  0.30900000  0.06210000  1.0 0.1028709506
H  H18  1  0.28020000  0.80900000  0.93790000  1.0 0.1028709506
H  H19  1  0.28020000  0.30900000  0.56210000  1.0 0.1028709506
H  H20  1  0.71980000  0.80900000  0.43790000  1.0 0.1028709506
H  H21  1  0.88270000  0.49350000  0.02100000  1.0 0.1078595773
H  H22  1  0.11730000  0.99350000  0.97900000  1.0 0.1078595773
H  H23  1  0.11730000  0.49350000  0.52100000  1.0 0.1078595773
H  H24  1  0.88270000  0.99350000  0.47900000  1.0 0.1078595773
H  H25  1  0.72230000  0.51040000  0.94320000  1.0 0.1417993078
H  H26  1  0.27770000  0.01040000  0.05680000  1.0 0.1417993078
H  H27  1  0.27770000  0.51040000  0.44320000  1.0 0.1417993078
H  H28  1  0.72230000  0.01040000  0.55680000  1.0 0.1417993078
H  H29  1  0.57350000  0.41880000  0.91720000  1.0 0.1215950866
H  H30  1  0.42650000  0.91880000  0.08280000  1.0 0.1215950866
H  H31  1  0.42650000  0.41880000  0.41720000  1.0 0.1215950866
H  H32  1  0.57350000  0.91880000  0.58280000  1.0 0.1215950866
H  H33  1  0.56710000  0.10900000  0.01670000  1.0 0.2935068428
H  H34  1  0.43290000  0.60900000  0.98330000  1.0 0.2935068428
H  H35  1  0.43290000  0.10900000  0.51670000  1.0 0.2935068428
H  H36  1  0.56710000  0.60900000  0.48330000  1.0 0.2935068428
H  H37  1  0.52860000  0.25270000  0.05340000  1.0 0.2935068428
H  H38  1  0.47140000  0.75270000  0.94660000  1.0 0.2935068428
H  H39  1  0.47140000  0.25270000  0.55340000  1.0 0.2935068428
H  H40  1  0.52860000  0.75270000  0.44660000  1.0 0.2935068428
H  H41  1  0.31930000  0.11280000  0.95480000  1.0 0.1028709506
H  H42  1  0.68070000  0.61280000  0.04520000  1.0 0.1028709506
H  H43  1  0.68070000  0.11280000  0.45480000  1.0 0.1028709506
H  H44  1  0.31930000  0.61280000  0.54520000  1.0 0.1028709506
H  H45  1  0.42860000  0.16430000  0.92250000  1.0 0.1028709506
H  H46  1  0.57140000  0.66430000  0.07750000  1.0 0.1028709506
H  H47  1  0.57140000  0.16430000  0.42250000  1.0 0.1028709506
H  H48  1  0.42860000  0.66430000  0.57750000  1.0 0.1028709506
H  H49  1  0.28100000  0.22340000  0.99630000  1.0 0.1078595773
H  H50  1  0.71900000  0.72340000  0.00370000  1.0 0.1078595773
H  H51  1  0.71900000  0.22340000  0.49630000  1.0 0.1078595773
H  H52  1  0.28100000  0.72340000  0.50370000  1.0 0.1078595773
H  H53  1  0.34720000  0.17660000  0.04970000  1.0 0.1078595773
H  H54  1  0.65280000  0.67660000  0.95030000  1.0 0.1078595773
H  H55  1  0.65280000  0.17660000  0.54970000  1.0 0.1078595773
H  H56  1  0.34720000  0.67660000  0.45030000  1.0 0.1078595773
H  H57  1  0.27630000  0.94860000  0.82880000  1.0 0.1028709506
H  H58  1  0.72370000  0.44860000  0.17120000  1.0 0.1078595773
H  H59  1  0.72370000  0.94860000  0.32880000  1.0 0.1028709506
H  H60  1  0.27630000  0.44860000  0.67120000  1.0 0.1078595773
H  H61  1  0.07900000  0.76850000  0.79320000  1.0 0.1078595773
H  H62  1  0.92100000  0.26850000  0.20680000  1.0 0.1078595773
H  H63  1  0.92100000  0.76850000  0.29320000  1.0 0.1078595773
H  H64  1  0.07900000  0.26850000  0.70680000  1.0 0.1078595773
H  H65  1  0.21330000  0.75090000  0.70460000  1.0 0.1417993078
H  H66  1  0.78670000  0.25090000  0.29540000  1.0 0.1417993078
H  H67  1  0.78670000  0.75090000  0.20460000  1.0 0.1417993078
H  H68  1  0.21330000  0.25090000  0.79540000  1.0 0.1417993078
H  H69  1  0.36450000  0.84200000  0.67200000  1.0 0.1215950866
H  H70  1  0.63550000  0.34200000  0.32800000  1.0 0.1215950866
H  H71  1  0.63550000  0.84200000  0.17200000  1.0 0.1215950866
H  H72  1  0.36450000  0.34200000  0.82800000  1.0 0.1215950866
H  H73  1  0.75440000  0.29410000  0.63780000  1.0 0.1028709506
H  H74  1  0.24560000  0.79410000  0.36220000  1.0 0.1028709506
H  H75  1  0.24560000  0.29410000  0.13780000  1.0 0.1028709506
H  H76  1  0.75440000  0.79410000  0.86220000  1.0 0.1028709506
H  H77  1  0.94180000  0.44400000  0.73690000  1.0 0.1028709506
H  H78  1  0.05820000  0.94400000  0.26310000  1.0 0.1028709506
H  H79  1  0.05820000  0.44400000  0.23690000  1.0 0.1028709506
H  H80  1  0.94180000  0.94400000  0.76310000  1.0 0.1028709506
H  H81  1  0.80150000  0.41680000  0.82120000  1.0 0.1331754446
H  H82  1  0.19850000  0.91680000  0.17880000  1.0 0.1331754446
H  H83  1  0.19850000  0.41680000  0.32120000  1.0 0.1331754446
H  H84  1  0.80150000  0.91680000  0.67880000  1.0 0.1331754446
H  H85  1  0.63900000  0.32510000  0.81690000  1.0 0.1078595773
H  H86  1  0.36100000  0.82510000  0.18310000  1.0 0.1078595773
H  H87  1  0.36100000  0.32510000  0.31690000  1.0 0.1078595773
H  H88  1  0.63900000  0.82510000  0.68310000  1.0 0.1078595773
H  H89  1  0.48280000  0.99130000  0.81170000  1.0 0.2725305378
H  H90  1  0.51720000  0.49130000  0.18830000  1.0 0.2725305378
H  H91  1  0.51720000  0.99130000  0.31170000  1.0 0.2725305378
H  H92  1  0.48280000  0.49130000  0.68830000  1.0 0.2725305378
H  H93  1  0.60890000  0.20850000  0.80180000  1.0 0.283125107
H  H94  1  0.39110000  0.70850000  0.19820000  1.0 0.283125107
H  H95  1  0.39110000  0.20850000  0.30180000  1.0 0.283125107
H  H96  1  0.60890000  0.70850000  0.69820000  1.0 0.283125107
H  H97  1  0.65770000  0.06880000  0.78720000  1.0 0.1028709506
H  H98  1  0.34230000  0.56880000  0.21280000  1.0 0.1028709506
H  H99  1  0.34230000  0.06880000  0.28720000  1.0 0.1028709506
H  H100  1  0.65770000  0.56880000  0.71280000  1.0 0.1028709506
H  H101  1  0.60850000  0.06570000  0.71670000  1.0 0.1028709506
H  H102  1  0.39150000  0.56570000  0.28330000  1.0 0.1028709506
H  H103  1  0.39150000  0.06570000  0.21670000  1.0 0.1028709506
H  H104  1  0.60850000  0.56570000  0.78330000  1.0 0.1028709506
H  H105  1  0.43440000  0.12850000  0.81100000  1.0 0.1028709506
H  H106  1  0.56560000  0.62850000  0.18900000  1.0 0.1028709506
H  H107  1  0.56560000  0.12850000  0.31100000  1.0 0.1028709506
H  H108  1  0.43440000  0.62850000  0.68900000  1.0 0.1028709506
H  H109  1  0.40720000  0.13380000  0.73840000  1.0 0.1028709506
H  H110  1  0.59280000  0.63380000  0.26160000  1.0 0.1028709506
H  H111  1  0.59280000  0.13380000  0.23840000  1.0 0.1028709506
H  H112  1  0.40720000  0.63380000  0.76160000  1.0 0.1028709506
C  C1  1  0.67870000  0.99460000  0.97670000  1.0 -0.0719685417
C  C2  1  0.32130000  0.49460000  0.02330000  1.0 -0.0719685417
C  C3  1  0.32130000  0.99460000  0.47670000  1.0 -0.0719685417
C  C4  1  0.67870000  0.49460000  0.52330000  1.0 -0.0719685417
C  C5  1  0.76600000  0.96110000  0.93380000  1.0 0.0589553041
C  C6  1  0.23400000  0.46110000  0.06620000  1.0 0.0589553041
C  C7  1  0.23400000  0.96110000  0.43380000  1.0 0.0589553041
C  C8  1  0.76600000  0.46110000  0.56620000  1.0 0.0589553041
C  C9  1  0.88160000  0.90110000  0.01330000  1.0 0.0539281462
C  C10  1  0.11840000  0.40110000  0.98670000  1.0 0.0539281462
C  C11  1  0.11840000  0.90110000  0.51330000  1.0 0.0539281462
C  C12  1  0.88160000  0.40110000  0.48670000  1.0 0.0539281462
C  C13  1  0.79990000  0.93170000  0.05710000  1.0 -0.0988697142
C  C14  1  0.20010000  0.43170000  0.94290000  1.0 -0.0988697142
C  C15  1  0.20010000  0.93170000  0.55710000  1.0 -0.0988697142
C  C16  1  0.79990000  0.43170000  0.44290000  1.0 -0.0988697142
C  C17  1  0.69790000  0.98070000  0.04090000  1.0 -0.0491332274
C  C18  1  0.30210000  0.48070000  0.95910000  1.0 -0.0491332274
C  C19  1  0.30210000  0.98070000  0.54090000  1.0 -0.0491332274
C  C20  1  0.69790000  0.48070000  0.45910000  1.0 -0.0491332274
C  C21  1  0.55830000  0.03740000  0.95280000  1.0 0.4575054516
C  C22  1  0.44170000  0.53740000  0.04720000  1.0 0.4575054516
C  C23  1  0.44170000  0.03740000  0.45280000  1.0 0.4575054516
C  C24  1  0.55830000  0.53740000  0.54720000  1.0 0.4575054516
C  C25  1  0.62530000  0.35460000  0.99060000  1.0 -0.0609436845
C  C26  1  0.37470000  0.85460000  0.00940000  1.0 -0.0609436845
C  C27  1  0.37470000  0.35460000  0.49060000  1.0 -0.0609436845
C  C28  1  0.62530000  0.85460000  0.50940000  1.0 -0.0609436845
C  C29  1  0.72150000  0.34960000  0.03720000  1.0 0.0139975741
C  C30  1  0.27850000  0.84960000  0.96280000  1.0 0.0139975741
C  C31  1  0.27850000  0.34960000  0.53720000  1.0 0.0139975741
C  C32  1  0.72150000  0.84960000  0.46280000  1.0 0.0139975741
C  C33  1  0.81650000  0.45770000  0.01340000  1.0 0.0589553041
C  C34  1  0.18350000  0.95770000  0.98660000  1.0 0.0589553041
C  C35  1  0.18350000  0.45770000  0.51340000  1.0 0.0589553041
C  C36  1  0.81650000  0.95770000  0.48660000  1.0 0.0589553041
C  C37  1  0.72320000  0.46810000  0.96580000  1.0 -0.1229086847
C  C38  1  0.27680000  0.96810000  0.03420000  1.0 -0.1229086847
C  C39  1  0.27680000  0.46810000  0.46580000  1.0 -0.1229086847
C  C40  1  0.72320000  0.96810000  0.53420000  1.0 -0.1229086847
C  C41  1  0.63230000  0.41530000  0.95220000  1.0 -0.0491332274
C  C42  1  0.36770000  0.91530000  0.04780000  1.0 -0.0491332274
C  C43  1  0.36770000  0.41530000  0.45220000  1.0 -0.0491332274
C  C44  1  0.63230000  0.91530000  0.54780000  1.0 -0.0491332274
C  C45  1  0.51190000  0.30030000  0.97560000  1.0 0.4575054516
C  C46  1  0.48810000  0.80030000  0.02440000  1.0 0.4575054516
C  C47  1  0.48810000  0.30030000  0.47560000  1.0 0.4575054516
C  C48  1  0.51190000  0.80030000  0.52440000  1.0 0.4575054516
C  C49  1  0.40270000  0.14210000  0.96200000  1.0 -0.0919907831
C  C50  1  0.59730000  0.64210000  0.03800000  1.0 -0.0919907831
C  C51  1  0.59730000  0.14210000  0.46200000  1.0 -0.0919907831
C  C52  1  0.40270000  0.64210000  0.53800000  1.0 -0.0919907831
C  C53  1  0.36710000  0.19920000  0.00970000  1.0 -0.0919907831
C  C54  1  0.63290000  0.69920000  0.99030000  1.0 -0.0919907831
C  C55  1  0.63290000  0.19920000  0.50970000  1.0 -0.0919907831
C  C56  1  0.36710000  0.69920000  0.49030000  1.0 -0.0919907831
C  C57  1  0.33890000  0.90270000  0.74890000  1.0 -0.0609436845
C  C58  1  0.66110000  0.40270000  0.25110000  1.0 -0.0609436845
C  C59  1  0.66110000  0.90270000  0.24890000  1.0 -0.0609436845
C  C60  1  0.33890000  0.40270000  0.75110000  1.0 -0.0609436845
C  C61  1  0.26220000  0.90910000  0.80320000  1.0 0.0388357758
C  C62  1  0.73780000  0.40910000  0.19680000  1.0 0.0388357758
C  C63  1  0.73780000  0.90910000  0.30320000  1.0 0.0388357758
C  C64  1  0.26220000  0.40910000  0.69680000  1.0 0.0388357758
C  C65  1  0.14730000  0.80210000  0.78220000  1.0 0.0718160092
C  C66  1  0.85270000  0.30210000  0.21780000  1.0 0.0718160092
C  C67  1  0.85270000  0.80210000  0.28220000  1.0 0.0718160092
C  C68  1  0.14730000  0.30210000  0.71780000  1.0 0.0718160092
C  C69  1  0.22370000  0.79210000  0.72830000  1.0 -0.1092685725
C  C70  1  0.77630000  0.29210000  0.27170000  1.0 -0.1092685725
C  C71  1  0.77630000  0.79210000  0.22830000  1.0 -0.1092685725
C  C72  1  0.22370000  0.29210000  0.77170000  1.0 -0.1092685725
C  C73  1  0.31690000  0.84520000  0.71020000  1.0 -0.0406865843
C  C74  1  0.68310000  0.34520000  0.28980000  1.0 -0.0406865843
C  C75  1  0.68310000  0.84520000  0.21020000  1.0 -0.0406865843
C  C76  1  0.31690000  0.34520000  0.78980000  1.0 -0.0406865843
C  C77  1  0.43360000  0.96130000  0.72820000  1.0 0.4526091038
C  C78  1  0.56640000  0.46130000  0.27180000  1.0 0.4526091038
C  C79  1  0.56640000  0.96130000  0.22820000  1.0 0.4526091038
C  C80  1  0.43360000  0.46130000  0.77180000  1.0 0.4526091038
C  C81  1  0.68400000  0.29900000  0.72600000  1.0 -0.0609436845
C  C82  1  0.31600000  0.79900000  0.27400000  1.0 -0.0609436845
C  C83  1  0.31600000  0.29900000  0.22600000  1.0 -0.0609436845
C  C84  1  0.68400000  0.79900000  0.77400000  1.0 -0.0609436845
C  C85  1  0.76730000  0.31770000  0.67570000  1.0 0.0539281462
C  C86  1  0.23270000  0.81770000  0.32430000  1.0 0.0539281462
C  C87  1  0.23270000  0.31770000  0.17570000  1.0 0.0539281462
C  C88  1  0.76730000  0.81770000  0.82430000  1.0 0.0539281462
C  C89  1  0.87700000  0.40680000  0.73390000  1.0 0.0539281462
C  C90  1  0.12300000  0.90680000  0.26610000  1.0 0.0539281462
C  C91  1  0.12300000  0.40680000  0.23390000  1.0 0.0539281462
C  C92  1  0.87700000  0.90680000  0.76610000  1.0 0.0539281462
C  C93  1  0.79240000  0.39040000  0.78450000  1.0 -0.1092685725
C  C94  1  0.20760000  0.89040000  0.21550000  1.0 -0.1092685725
C  C95  1  0.20760000  0.39040000  0.28450000  1.0 -0.1092685725
C  C96  1  0.79240000  0.89040000  0.71550000  1.0 -0.1092685725
C  C97  1  0.69520000  0.33640000  0.78230000  1.0 -0.0719685417
C  C98  1  0.30480000  0.83640000  0.21770000  1.0 -0.0719685417
C  C99  1  0.30480000  0.33640000  0.28230000  1.0 -0.0719685417
C  C100  1  0.69520000  0.83640000  0.71770000  1.0 -0.0719685417
C  C101  1  0.58510000  0.23720000  0.71720000  1.0 0.4575054516
C  C102  1  0.41490000  0.73720000  0.28280000  1.0 0.4575054516
C  C103  1  0.41490000  0.23720000  0.21720000  1.0 0.4575054516
C  C104  1  0.58510000  0.73720000  0.78280000  1.0 0.4575054516
C  C105  1  0.57520000  0.06660000  0.75980000  1.0 -0.07717443
C  C106  1  0.42480000  0.56660000  0.24020000  1.0 -0.07717443
C  C107  1  0.42480000  0.06660000  0.25980000  1.0 -0.07717443
C  C108  1  0.57520000  0.56660000  0.74020000  1.0 -0.07717443
C  C109  1  0.48070000  0.13190000  0.77040000  1.0 -0.07717443
C  C110  1  0.51930000  0.63190000  0.22960000  1.0 -0.07717443
C  C111  1  0.51930000  0.13190000  0.27040000  1.0 -0.07717443
C  C112  1  0.48070000  0.63190000  0.72960000  1.0 -0.07717443
N  N1  1  0.86700000  0.91520000  0.95100000  1.0 -0.2313879609
N  N2  1  0.13300000  0.41520000  0.04900000  1.0 -0.2313879609
N  N3  1  0.13300000  0.91520000  0.45100000  1.0 -0.2313879609
N  N4  1  0.86700000  0.41520000  0.54900000  1.0 -0.2313879609
N  N5  1  0.82140000  0.40030000  0.05060000  1.0 -0.2313879609
N  N6  1  0.17860000  0.90030000  0.94940000  1.0 -0.2313879609
N  N7  1  0.17860000  0.40030000  0.55060000  1.0 -0.2313879609
N  N8  1  0.82140000  0.90030000  0.44940000  1.0 -0.2313879609
N  N9  1  0.52070000  0.09700000  0.98360000  1.0 -0.3181870189
N  N10  1  0.47930000  0.59700000  0.01640000  1.0 -0.3181870189
N  N11  1  0.47930000  0.09700000  0.48360000  1.0 -0.3181870189
N  N12  1  0.52070000  0.59700000  0.51640000  1.0 -0.3181870189
N  N13  1  0.48120000  0.25270000  0.01880000  1.0 -0.3181870189
N  N14  1  0.51880000  0.75270000  0.98120000  1.0 -0.3181870189
N  N15  1  0.51880000  0.25270000  0.51880000  1.0 -0.3181870189
N  N16  1  0.48120000  0.75270000  0.48120000  1.0 -0.3181870189
N  N17  1  0.16710000  0.85950000  0.82050000  1.0 -0.2225945175
N  N18  1  0.83290000  0.35950000  0.17950000  1.0 -0.2225945175
N  N19  1  0.83290000  0.85950000  0.32050000  1.0 -0.2225945175
N  N20  1  0.16710000  0.35950000  0.67950000  1.0 -0.2225945175
N  N21  1  0.86720000  0.36910000  0.67940000  1.0 -0.2429825955
N  N22  1  0.13280000  0.86910000  0.32060000  1.0 -0.2429825955
N  N23  1  0.13280000  0.36910000  0.17940000  1.0 -0.2429825955
N  N24  1  0.86720000  0.86910000  0.82060000  1.0 -0.2429825955
N  N25  1  0.49390000  0.00330000  0.77300000  1.0 -0.3404901952
N  N26  1  0.50610000  0.50330000  0.22700000  1.0 -0.3404901952
N  N27  1  0.50610000  0.00330000  0.27300000  1.0 -0.3404901952
N  N28  1  0.49390000  0.50330000  0.72700000  1.0 -0.3404901952
N  N29  1  0.56630000  0.19590000  0.76780000  1.0 -0.3181870189
N  N30  1  0.43370000  0.69590000  0.23220000  1.0 -0.3181870189
N  N31  1  0.43370000  0.19590000  0.26780000  1.0 -0.3181870189
N  N32  1  0.56630000  0.69590000  0.73220000  1.0 -0.3181870189
O  O1  1  0.99550000  0.76450000  0.92410000  1.0 -0.1799499832
O  O2  1  0.00450000  0.26450000  0.07590000  1.0 -0.1799499832
O  O3  1  0.00450000  0.76450000  0.42410000  1.0 -0.1799499832
O  O4  1  0.99550000  0.26450000  0.57590000  1.0 -0.1799499832
O  O5  1  0.49600000  0.02130000  0.90320000  1.0 -0.497197497
O  O6  1  0.50400000  0.52130000  0.09680000  1.0 -0.497197497
O  O7  1  0.50400000  0.02130000  0.40320000  1.0 -0.497197497
O  O8  1  0.49600000  0.52130000  0.59680000  1.0 -0.497197497
O  O9  1  0.45010000  0.30060000  0.92470000  1.0 -0.4661091448
O  O10  1  0.54990000  0.80060000  0.07530000  1.0 -0.4661091448
O  O11  1  0.54990000  0.30060000  0.42470000  1.0 -0.4661091448
O  O12  1  0.45010000  0.80060000  0.57530000  1.0 -0.4661091448
O  O13  1  0.46210000  0.96950000  0.67160000  1.0 -0.487780086
O  O14  1  0.53790000  0.46950000  0.32840000  1.0 -0.487780086
O  O15  1  0.53790000  0.96950000  0.17160000  1.0 -0.487780086
O  O16  1  0.46210000  0.46950000  0.82840000  1.0 -0.487780086
O  O17  1  0.52220000  0.22880000  0.66750000  1.0 -0.487780086
O  O18  1  0.47780000  0.72880000  0.33250000  1.0 -0.487780086
O  O19  1  0.47780000  0.22880000  0.16750000  1.0 -0.487780086
O  O20  1  0.52220000  0.72880000  0.83250000  1.0 -0.487780086
F  F1  1  0.94000000  0.20150000  0.83840000  1.0 -0.3605382622
F  F2  1  0.83570000  0.19790000  0.97560000  1.0 -0.3096720789
F  F3  1  0.85600000  0.12150000  0.90320000  1.0 -0.3404901952
F  F4  1  0.04210000  0.18560000  0.92590000  1.0 -0.3276500807
F  F5  1  0.74230000  0.21150000  0.88990000  1.0 -0.3181870189
F  F6  1  0.92000000  0.27640000  0.91500000  1.0 -0.3276500807
F  F7  1  0.06000000  0.70150000  0.16160000  1.0 -0.3605382622
F  F8  1  0.16430000  0.69790000  0.02440000  1.0 -0.3181870189
F  F9  1  0.14400000  0.62150000  0.09680000  1.0 -0.3404901952
F  F10  1  0.95790000  0.68560000  0.07410000  1.0 -0.3276500807
F  F11  1  0.25770000  0.71150000  0.11010000  1.0 -0.3181870189
F  F12  1  0.08000000  0.77640000  0.08500000  1.0 -0.3276500807
F  F13  1  0.06000000  0.20150000  0.33840000  1.0 -0.3605382622
F  F14  1  0.16430000  0.19790000  0.47560000  1.0 -0.3181870189
F  F15  1  0.14400000  0.12150000  0.40320000  1.0 -0.3404901952
F  F16  1  0.95790000  0.18560000  0.42590000  1.0 -0.3276500807
F  F17  1  0.25770000  0.21150000  0.38990000  1.0 -0.3181870189
F  F18  1  0.08000000  0.27640000  0.41500000  1.0 -0.3276500807
F  F19  1  0.94000000  0.70150000  0.66160000  1.0 -0.3605382622
F  F20  1  0.83570000  0.69790000  0.52440000  1.0 -0.3181870189
F  F21  1  0.85600000  0.62150000  0.59680000  1.0 -0.3404901952
F  F22  1  0.04210000  0.68560000  0.57410000  1.0 -0.3276500807
F  F23  1  0.74230000  0.71150000  0.61010000  1.0 -0.3181870189
F  F24  1  0.92000000  0.77640000  0.58500000  1.0 -0.3276500807
F  F25  1  0.92430000  0.07560000  0.74180000  1.0 -0.3528720767
F  F26  1  0.04130000  0.09590000  0.60690000  1.0 -0.3096720789
F  F27  1  0.85460000  0.05430000  0.65010000  1.0 -0.3181870189
F  F28  1  0.91840000  0.16270000  0.67570000  1.0 -0.3404901952
F  F29  1  0.05700000  0.02120000  0.67410000  1.0 -0.2697218985
F  F30  1  0.11570000  0.12220000  0.70230000  1.0 -0.3096720789
F  F31  1  0.07570000  0.57560000  0.25820000  1.0 -0.3528720767
F  F32  1  0.95870000  0.59590000  0.39310000  1.0 -0.3096720789
F  F33  1  0.14540000  0.55430000  0.34990000  1.0 -0.3181870189
F  F34  1  0.08160000  0.66270000  0.32430000  1.0 -0.3404901952
F  F35  1  0.94300000  0.52120000  0.32590000  1.0 -0.2697218985
F  F36  1  0.88430000  0.62220000  0.29770000  1.0 -0.3096720789
F  F37  1  0.07570000  0.07560000  0.24180000  1.0 -0.3528720767
F  F38  1  0.95870000  0.09590000  0.10690000  1.0 -0.3096720789
F  F39  1  0.14540000  0.05430000  0.15010000  1.0 -0.3181870189
F  F40  1  0.08160000  0.16270000  0.17570000  1.0 -0.3404901952
F  F41  1  0.94300000  0.02120000  0.17410000  1.0 -0.2697218985
F  F42  1  0.88430000  0.12220000  0.20230000  1.0 -0.3096720789
F  F43  1  0.92430000  0.57560000  0.75820000  1.0 -0.3528720767
F  F44  1  0.04130000  0.59590000  0.89310000  1.0 -0.3096720789
F  F45  1  0.85460000  0.55430000  0.84990000  1.0 -0.3181870189
F  F46  1  0.91840000  0.66270000  0.82430000  1.0 -0.3404901952
F  F47  1  0.05700000  0.52120000  0.82590000  1.0 -0.2697218985
F  F48  1  0.11570000  0.62220000  0.79770000  1.0 -0.3096720789
