# DDEC6 charges by PACMAN v1.1 (https://github.com/mtap-research/PACMAN-charge/)
data_DILFUD_ASR_pacman
_symmetry_space_group_name_H-M   'P 1'
_cell_length_a   22.33700000
_cell_length_b   22.33700000
_cell_length_c   22.33700000
_cell_angle_alpha   114.27300000
_cell_angle_beta   114.15100000
_cell_angle_gamma   100.35700000
_symmetry_Int_Tables_number   1
_chemical_formula_structural   Zn2H20C44N5O16
_chemical_formula_sum   'Zn16 H160 C352 N40 O128'
_cell_volume   8420.19383946
_cell_formula_units_Z   8
loop_
 _symmetry_equiv_pos_site_id
 _symmetry_equiv_pos_as_xyz
  1  'x, y, z'
loop_
 _atom_site_type_symbol
 _atom_site_label
 _atom_site_symmetry_multiplicity
 _atom_site_fract_x
 _atom_site_fract_y
 _atom_site_fract_z
 _atom_site_occupancy
 _atom_site_charge
Zn  Zn1  1  0.92688000  0.67688000  0.25000000  1.0 0.6917788915
Zn  Zn2  1  0.57312000  0.82312000  0.75000000  1.0 0.6917788915
Zn  Zn3  1  0.07312000  0.32312000  0.75000000  1.0 0.6917788915
Zn  Zn4  1  0.42688000  0.17688000  0.25000000  1.0 0.6917788915
Zn  Zn5  1  0.82369000  0.57369000  0.25000000  1.0 0.7535943024
Zn  Zn6  1  0.67631000  0.92631000  0.75000000  1.0 0.7535943024
Zn  Zn7  1  0.17631000  0.42631000  0.75000000  1.0 0.7535943024
Zn  Zn8  1  0.32369000  0.07369000  0.25000000  1.0 0.7535943024
Zn  Zn9  1  0.57036000  0.42994000  0.24992000  1.0 0.5784231208
Zn  Zn10  1  0.68002000  0.32044000  0.25008000  1.0 0.5784231208
Zn  Zn11  1  0.92964000  0.17956000  0.85958000  1.0 0.5784231208
Zn  Zn12  1  0.81998000  0.07006000  0.64042000  1.0 0.5784231208
Zn  Zn13  1  0.42964000  0.57006000  0.75008000  1.0 0.5784231208
Zn  Zn14  1  0.31998000  0.67956000  0.74992000  1.0 0.5784231208
Zn  Zn15  1  0.07036000  0.82044000  0.14042000  1.0 0.5784231208
Zn  Zn16  1  0.18002000  0.92994000  0.35958000  1.0 0.5784231208
H  H1  1  0.95497000  0.71203000  0.13594000  1.0 0.1277489688
H  H2  1  0.07609000  0.81903000  0.36406000  1.0 0.1277489688
H  H3  1  0.54503000  0.68097000  0.75706000  1.0 0.1277489688
H  H4  1  0.42391000  0.78797000  0.74294000  1.0 0.1277489688
H  H5  1  0.04503000  0.28797000  0.86406000  1.0 0.1277489688
H  H6  1  0.92391000  0.18097000  0.63594000  1.0 0.1277489688
H  H7  1  0.45497000  0.31903000  0.24294000  1.0 0.1277489688
H  H8  1  0.57609000  0.21203000  0.25706000  1.0 0.1277489688
H  H9  1  0.68251000  0.54693000  0.25992000  1.0 0.1277489688
H  H10  1  0.78701000  0.42259000  0.24008000  1.0 0.1277489688
H  H11  1  0.81749000  0.07741000  0.86442000  1.0 0.1277489688
H  H12  1  0.71299000  0.95307000  0.63558000  1.0 0.1277489688
H  H13  1  0.31749000  0.45307000  0.74008000  1.0 0.1277489688
H  H14  1  0.21299000  0.57741000  0.75992000  1.0 0.1277489688
H  H15  1  0.18251000  0.92259000  0.13558000  1.0 0.1277489688
H  H16  1  0.28701000  0.04693000  0.36442000  1.0 0.1277489688
H  H17  1  0.96814000  0.94880000  0.57648000  1.0 0.1096027702
H  H18  1  0.87232000  0.39166000  0.92352000  1.0 0.1096027702
H  H19  1  0.53186000  0.10834000  0.98066000  1.0 0.1096027702
H  H20  1  0.62768000  0.55120000  0.51934000  1.0 0.1096027702
H  H21  1  0.03186000  0.05120000  0.42352000  1.0 0.1096027702
H  H22  1  0.12768000  0.60834000  0.07648000  1.0 0.1096027702
H  H23  1  0.46814000  0.89166000  0.01934000  1.0 0.1096027702
H  H24  1  0.37232000  0.44880000  0.48066000  1.0 0.1096027702
H  H25  1  0.75019000  0.84013000  0.44900000  1.0 0.1001391734
H  H26  1  0.89112000  0.30118000  0.05100000  1.0 0.1001391734
H  H27  1  0.74982000  0.19881000  0.08994000  1.0 0.1001391734
H  H28  1  0.60888000  0.65987000  0.41006000  1.0 0.1001391734
H  H29  1  0.24982000  0.15988000  0.55100000  1.0 0.1001391734
H  H30  1  0.10887000  0.69881000  0.94900000  1.0 0.1001391734
H  H31  1  0.25018000  0.80119000  0.91006000  1.0 0.1001391734
H  H32  1  0.39113000  0.34013000  0.58994000  1.0 0.1001391734
H  H33  1  0.75730000  0.74534000  0.35820000  1.0 0.1001391734
H  H34  1  0.88714000  0.39910000  0.14180000  1.0 0.1001391734
H  H35  1  0.74270000  0.10090000  0.98804000  1.0 0.1001391734
H  H36  1  0.61286000  0.75466000  0.51196000  1.0 0.1001391734
H  H37  1  0.24270000  0.25466000  0.64180000  1.0 0.1001391734
H  H38  1  0.11286000  0.60090000  0.85820000  1.0 0.1001391734
H  H39  1  0.25730000  0.89910000  0.01196000  1.0 0.1001391734
H  H40  1  0.38714000  0.24534000  0.48804000  1.0 0.1001391734
H  H41  1  0.01690000  0.56044000  0.41202000  1.0 0.1001391734
H  H42  1  0.64842000  0.60488000  0.08798000  1.0 0.1001391734
H  H43  1  0.48310000  0.89512000  0.54354000  1.0 0.1001391734
H  H44  1  0.85158000  0.93956000  0.95646000  1.0 0.1001391734
H  H45  1  0.98310000  0.43956000  0.58798000  1.0 0.1001391734
H  H46  1  0.35158000  0.39512000  0.91202000  1.0 0.1001391734
H  H47  1  0.51690000  0.10488000  0.45646000  1.0 0.1001391734
H  H48  1  0.14842000  0.06044000  0.04354000  1.0 0.1001391734
H  H49  1  0.11762000  0.58123000  0.52199000  1.0 0.1001391734
H  H50  1  0.55924000  0.59563000  0.97801000  1.0 0.1001391734
H  H51  1  0.38238000  0.90437000  0.46361000  1.0 0.1001391734
H  H52  1  0.94076000  0.91877000  0.03639000  1.0 0.1001391734
H  H53  1  0.88238000  0.41877000  0.47801000  1.0 0.1001391734
H  H54  1  0.44076000  0.40437000  0.02199000  1.0 0.1001391734
H  H55  1  0.61762000  0.09563000  0.53639000  1.0 0.1001391734
H  H56  1  0.05924000  0.08123000  0.96361000  1.0 0.1001391734
H  H57  1  0.18506000  0.79729000  0.61635000  1.0 0.0901659976
H  H58  1  0.68094000  0.56871000  0.88365000  1.0 0.0901659976
H  H59  1  0.31494000  0.93129000  0.61223000  1.0 0.0901659976
H  H60  1  0.81906000  0.70271000  0.88777000  1.0 0.0901659976
H  H61  1  0.81494000  0.20271000  0.38365000  1.0 0.0901659976
H  H62  1  0.31906000  0.43129000  0.11635000  1.0 0.0901659976
H  H63  1  0.68506000  0.06871000  0.38777000  1.0 0.0901659976
H  H64  1  0.18094000  0.29729000  0.11223000  1.0 0.0901659976
H  H65  1  0.17733000  0.85619000  0.54338000  1.0 0.1096027702
H  H66  1  0.81281000  0.63395000  0.95662000  1.0 0.1096027702
H  H67  1  0.32267000  0.86605000  0.67886000  1.0 0.1096027702
H  H68  1  0.68719000  0.64381000  0.82114000  1.0 0.1096027702
H  H69  1  0.82267000  0.14381000  0.45662000  1.0 0.1096027702
H  H70  1  0.18719000  0.36605000  0.04338000  1.0 0.1096027702
H  H71  1  0.67733000  0.13395000  0.32114000  1.0 0.1096027702
H  H72  1  0.31281000  0.35619000  0.17886000  1.0 0.1096027702
H  H73  1  0.15466000  0.95636000  0.55020000  1.0 0.1212680636
H  H74  1  0.90616000  0.60446000  0.94980000  1.0 0.1212680636
H  H75  1  0.34534000  0.89554000  0.80170000  1.0 0.1212680636
H  H76  1  0.59384000  0.54364000  0.69830000  1.0 0.1212680636
H  H77  1  0.84534000  0.04364000  0.44980000  1.0 0.1212680636
H  H78  1  0.09384000  0.39554000  0.05020000  1.0 0.1212680636
H  H79  1  0.65466000  0.10446000  0.19830000  1.0 0.1212680636
H  H80  1  0.40616000  0.45636000  0.30170000  1.0 0.1212680636
H  H81  1  0.03964000  0.95290000  0.51680000  1.0 0.1212680636
H  H82  1  0.93610000  0.52284000  0.98320000  1.0 0.1212680636
H  H83  1  0.46036000  0.97716000  0.91326000  1.0 0.1212680636
H  H84  1  0.56390000  0.54710000  0.58674000  1.0 0.1212680636
H  H85  1  0.96036000  0.04710000  0.48320000  1.0 0.1212680636
H  H86  1  0.06390000  0.47716000  0.01680000  1.0 0.1212680636
H  H87  1  0.53964000  0.02284000  0.08674000  1.0 0.1212680636
H  H88  1  0.43610000  0.45290000  0.41326000  1.0 0.1212680636
H  H89  1  0.87796000  0.34607000  0.29559000  1.0 0.1096027702
H  H90  1  0.55048000  0.58237000  0.20441000  1.0 0.1096027702
H  H91  1  0.62204000  0.91763000  0.46811000  1.0 0.1096027702
H  H92  1  0.94952000  0.15393000  0.03189000  1.0 0.1096027702
H  H93  1  0.12204000  0.65393000  0.70441000  1.0 0.1096027702
H  H94  1  0.44952000  0.41763000  0.79559000  1.0 0.1096027702
H  H95  1  0.37796000  0.08237000  0.53189000  1.0 0.1096027702
H  H96  1  0.05048000  0.84607000  0.96811000  1.0 0.1096027702
H  H97  1  0.96396000  0.45781000  0.41031000  1.0 0.1212680636
H  H98  1  0.54750000  0.55365000  0.08969000  1.0 0.1212680636
H  H99  1  0.53604000  0.94635000  0.49385000  1.0 0.1212680636
H  H100  1  0.95250000  0.04219000  0.00615000  1.0 0.1212680636
H  H101  1  0.03604000  0.54219000  0.58969000  1.0 0.1212680636
H  H102  1  0.45250000  0.44635000  0.91031000  1.0 0.1212680636
H  H103  1  0.46396000  0.05365000  0.50615000  1.0 0.1212680636
H  H104  1  0.04750000  0.95781000  0.99385000  1.0 0.1212680636
H  H105  1  0.85725000  0.32446000  0.17557000  1.0 0.1212680636
H  H106  1  0.64889000  0.68168000  0.32443000  1.0 0.1212680636
H  H107  1  0.64275000  0.81832000  0.46721000  1.0 0.1212680636
H  H108  1  0.85111000  0.17554000  0.03279000  1.0 0.1212680636
H  H109  1  0.14275000  0.67554000  0.82443000  1.0 0.1212680636
H  H110  1  0.35111000  0.31832000  0.67557000  1.0 0.1212680636
H  H111  1  0.35725000  0.18168000  0.53279000  1.0 0.1212680636
H  H112  1  0.14889000  0.82446000  0.96721000  1.0 0.1212680636
H  H113  1  0.11382000  0.53976000  0.48420000  1.0 0.1001391734
H  H114  1  0.55556000  0.62962000  0.01580000  1.0 0.1001391734
H  H115  1  0.38618000  0.87038000  0.42594000  1.0 0.1001391734
H  H116  1  0.94444000  0.96024000  0.07406000  1.0 0.1001391734
H  H117  1  0.88618000  0.46024000  0.51580000  1.0 0.1001391734
H  H118  1  0.44444000  0.37038000  0.98420000  1.0 0.1001391734
H  H119  1  0.61382000  0.12962000  0.57406000  1.0 0.1001391734
H  H120  1  0.05556000  0.03976000  0.92594000  1.0 0.1001391734
H  H121  1  0.19361000  0.75780000  0.59155000  1.0 0.1001391734
H  H122  1  0.66625000  0.60206000  0.90845000  1.0 0.1001391734
H  H123  1  0.30639000  0.89794000  0.56419000  1.0 0.1001391734
H  H124  1  0.83375000  0.74220000  0.93581000  1.0 0.1001391734
H  H125  1  0.80639000  0.24220000  0.40845000  1.0 0.1001391734
H  H126  1  0.33375000  0.39794000  0.09155000  1.0 0.1001391734
H  H127  1  0.69361000  0.10206000  0.43581000  1.0 0.1001391734
H  H128  1  0.16625000  0.25780000  0.06419000  1.0 0.1001391734
H  H129  1  0.09320000  0.74605000  0.48831000  1.0 0.1001391734
H  H130  1  0.75774000  0.60489000  0.01168000  1.0 0.1001391734
H  H131  1  0.40680000  0.89511000  0.65285000  1.0 0.1001391734
H  H132  1  0.74226000  0.75395000  0.84715000  1.0 0.1001391734
H  H133  1  0.90680000  0.25395000  0.51168000  1.0 0.1001391734
H  H134  1  0.24227000  0.39511000  0.98832000  1.0 0.1001391734
H  H135  1  0.59320000  0.10489000  0.34715000  1.0 0.1001391734
H  H136  1  0.25773000  0.24605000  0.15285000  1.0 0.1001391734
H  H137  1  0.93491000  0.31822000  0.11099000  1.0 0.0901659976
H  H138  1  0.70723000  0.82392000  0.38901000  1.0 0.0901659976
H  H139  1  0.56509000  0.67608000  0.38331000  1.0 0.0901659976
H  H140  1  0.79277000  0.18178000  0.11669000  1.0 0.0901659976
H  H141  1  0.06509000  0.68178000  0.88901000  1.0 0.0901659976
H  H142  1  0.29277000  0.17608000  0.61099000  1.0 0.0901659976
H  H143  1  0.43491000  0.32392000  0.61669000  1.0 0.0901659976
H  H144  1  0.20723000  0.81822000  0.88331000  1.0 0.0901659976
H  H145  1  0.88995000  0.37716000  0.95401000  1.0 0.1001391734
H  H146  1  0.92315000  0.93594000  0.54599000  1.0 0.1001391734
H  H147  1  0.61005000  0.56406000  0.48721000  1.0 0.1001391734
H  H148  1  0.57685000  0.12284000  0.01279000  1.0 0.1001391734
H  H149  1  0.11005000  0.62284000  0.04599000  1.0 0.1001391734
H  H150  1  0.07685000  0.06406000  0.45401000  1.0 0.1001391734
H  H151  1  0.38995000  0.43594000  0.51279000  1.0 0.1001391734
H  H152  1  0.42315000  0.87716000  0.98721000  1.0 0.1001391734
H  H153  1  0.88125000  0.47796000  0.03499000  1.0 0.1096027702
H  H154  1  0.94297000  0.84626000  0.46501000  1.0 0.1096027702
H  H155  1  0.61875000  0.65374000  0.59671000  1.0 0.1096027702
H  H156  1  0.55703000  0.02204000  0.90329000  1.0 0.1096027702
H  H157  1  0.11875000  0.52204000  0.96501000  1.0 0.1096027702
H  H158  1  0.05703000  0.15374000  0.53499000  1.0 0.1096027702
H  H159  1  0.38125000  0.34626000  0.40329000  1.0 0.1096027702
H  H160  1  0.44297000  0.97796000  0.09671000  1.0 0.1096027702
C  C1  1  0.99280000  0.74620000  0.18880000  1.0 0.0901659976
C  C2  1  0.05740000  0.80400000  0.31120000  1.0 0.0901659976
C  C3  1  0.50720000  0.69600000  0.75340000  1.0 0.0901659976
C  C4  1  0.44260000  0.75380000  0.74660000  1.0 0.0901659976
C  C5  1  0.00720000  0.25380000  0.81120000  1.0 0.0901659976
C  C6  1  0.94260000  0.19600000  0.68880000  1.0 0.0901659976
C  C7  1  0.49280000  0.30400000  0.24660000  1.0 0.0901659976
C  C8  1  0.55740000  0.24620000  0.25340000  1.0 0.0901659976
C  C9  1  0.87140000  0.73040000  0.35560000  1.0 0.2988412424
C  C10  1  0.87480000  0.51580000  0.14440000  1.0 0.2988412424
C  C11  1  0.62860000  0.98420000  0.85900000  1.0 0.2988412424
C  C12  1  0.62520000  0.76960000  0.64100000  1.0 0.2988412424
C  C13  1  0.12860000  0.26960000  0.64440000  1.0 0.2988412424
C  C14  1  0.12520000  0.48420000  0.85560000  1.0 0.2988412424
C  C15  1  0.37140000  0.01580000  0.14100000  1.0 0.2988412424
C  C16  1  0.37480000  0.23040000  0.35900000  1.0 0.2988412424
C  C17  1  0.97960000  0.64910000  0.37450000  1.0 0.3607054062
C  C18  1  0.77460000  0.60510000  0.12550000  1.0 0.3607054062
C  C19  1  0.52040000  0.89490000  0.66950000  1.0 0.3607054062
C  C20  1  0.72540000  0.85090000  0.83050000  1.0 0.3607054062
C  C21  1  0.02040000  0.35090000  0.62550000  1.0 0.3607054062
C  C22  1  0.22540000  0.39490000  0.87450000  1.0 0.3607054062
C  C23  1  0.47960000  0.10510000  0.33050000  1.0 0.3607054062
C  C24  1  0.27460000  0.14910000  0.16950000  1.0 0.3607054062
C  C25  1  0.69650000  0.50820000  0.25470000  1.0 0.1001391734
C  C26  1  0.75350000  0.44180000  0.24530000  1.0 0.1001391734
C  C27  1  0.80350000  0.05820000  0.81170000  1.0 0.1001391734
C  C28  1  0.74650000  0.99180000  0.68830000  1.0 0.1001391734
C  C29  1  0.30350000  0.49180000  0.74530000  1.0 0.1001391734
C  C30  1  0.24650000  0.55820000  0.75470000  1.0 0.1001391734
C  C31  1  0.19650000  0.94180000  0.18830000  1.0 0.1001391734
C  C32  1  0.25350000  0.00820000  0.31170000  1.0 0.1001391734
C  C33  1  0.86700000  0.79080000  0.41340000  1.0 0.0219783889
C  C34  1  0.87740000  0.45360000  0.08660000  1.0 0.0219783889
C  C35  1  0.63300000  0.04640000  0.92380000  1.0 0.0219783889
C  C36  1  0.62260000  0.70920000  0.57620000  1.0 0.0219783889
C  C37  1  0.13300000  0.20920000  0.58660000  1.0 0.0219783889
C  C38  1  0.12260000  0.54640000  0.91340000  1.0 0.0219783889
C  C39  1  0.36700000  0.95360000  0.07620000  1.0 0.0219783889
C  C40  1  0.37740000  0.29080000  0.42380000  1.0 0.0219783889
C  C41  1  0.92960000  0.85120000  0.47820000  1.0 0.0097888153
C  C42  1  0.87300000  0.45140000  0.02180000  1.0 0.0097888153
C  C43  1  0.57040000  0.04860000  0.92160000  1.0 0.0097888153
C  C44  1  0.62700000  0.64880000  0.57840000  1.0 0.0097888153
C  C45  1  0.07040000  0.14880000  0.52180000  1.0 0.0097888153
C  C46  1  0.12700000  0.54860000  0.97820000  1.0 0.0097888153
C  C47  1  0.42960000  0.95140000  0.07840000  1.0 0.0097888153
C  C48  1  0.37300000  0.35120000  0.42160000  1.0 0.0097888153
C  C49  1  0.92530000  0.90750000  0.53220000  1.0 -0.0986806457
C  C50  1  0.87530000  0.39310000  0.96780000  1.0 -0.0986806457
C  C51  1  0.57470000  0.10690000  0.98220000  1.0 -0.0986806457
C  C52  1  0.62470000  0.59250000  0.51780000  1.0 -0.0986806457
C  C53  1  0.07470000  0.09250000  0.46780000  1.0 -0.0986806457
C  C54  1  0.12470000  0.60690000  0.03220000  1.0 -0.0986806457
C  C55  1  0.42530000  0.89310000  0.01780000  1.0 -0.0986806457
C  C56  1  0.37530000  0.40750000  0.48220000  1.0 -0.0986806457
C  C57  1  0.85850000  0.90340000  0.52130000  1.0 -0.0291290458
C  C58  1  0.88210000  0.33720000  0.97870000  1.0 -0.0291290458
C  C59  1  0.64150000  0.16280000  0.04490000  1.0 -0.0291290458
C  C60  1  0.61790000  0.59660000  0.45510000  1.0 -0.0291290458
C  C61  1  0.14150000  0.09660000  0.47870000  1.0 -0.0291290458
C  C62  1  0.11790000  0.66280000  0.02130000  1.0 -0.0291290458
C  C63  1  0.35850000  0.83720000  0.95510000  1.0 -0.0291290458
C  C64  1  0.38210000  0.40340000  0.54490000  1.0 -0.0291290458
C  C65  1  0.79590000  0.84300000  0.45650000  1.0 -0.0494375485
C  C66  1  0.88650000  0.33940000  0.04350000  1.0 -0.0494375485
C  C67  1  0.70410000  0.16060000  0.04710000  1.0 -0.0494375485
C  C68  1  0.61350000  0.65700000  0.45290000  1.0 -0.0494375485
C  C69  1  0.20410000  0.15700000  0.54350000  1.0 -0.0494375485
C  C70  1  0.11350000  0.66060000  0.95650000  1.0 -0.0494375485
C  C71  1  0.29590000  0.83940000  0.95290000  1.0 -0.0494375485
C  C72  1  0.38650000  0.34300000  0.54710000  1.0 -0.0494375485
C  C73  1  0.80010000  0.78660000  0.40250000  1.0 -0.0291290458
C  C74  1  0.88410000  0.39760000  0.09750000  1.0 -0.0291290458
C  C75  1  0.69990000  0.10240000  0.98650000  1.0 -0.0291290458
C  C76  1  0.61590000  0.71340000  0.51350000  1.0 -0.0291290458
C  C77  1  0.19990000  0.21340000  0.59750000  1.0 -0.0291290458
C  C78  1  0.11590000  0.60240000  0.90250000  1.0 -0.0291290458
C  C79  1  0.30010000  0.89760000  0.01350000  1.0 -0.0291290458
C  C80  1  0.38410000  0.28660000  0.48650000  1.0 -0.0291290458
C  C81  1  0.04110000  0.66650000  0.44880000  1.0 0.0323365385
C  C82  1  0.71770000  0.59230000  0.05120000  1.0 0.0323365385
C  C83  1  0.45890000  0.90770000  0.62540000  1.0 0.0323365385
C  C84  1  0.78230000  0.83350000  0.87460000  1.0 0.0323365385
C  C85  1  0.95890000  0.33350000  0.55120000  1.0 0.0323365385
C  C86  1  0.28230000  0.40770000  0.94880000  1.0 0.0323365385
C  C87  1  0.54110000  0.09230000  0.37460000  1.0 0.0323365385
C  C88  1  0.21770000  0.16650000  0.12540000  1.0 0.0323365385
C  C89  1  0.05100000  0.60850000  0.45350000  1.0 -0.0120889308
C  C90  1  0.65500000  0.59750000  0.04650000  1.0 -0.0120889308
C  C91  1  0.44900000  0.90250000  0.55750000  1.0 -0.0120889308
C  C92  1  0.84500000  0.89150000  0.94250000  1.0 -0.0120889308
C  C93  1  0.94900000  0.39150000  0.54650000  1.0 -0.0120889308
C  C94  1  0.34500000  0.40250000  0.95350000  1.0 -0.0120889308
C  C95  1  0.55100000  0.09750000  0.44250000  1.0 -0.0120889308
C  C96  1  0.15500000  0.10850000  0.05750000  1.0 -0.0120889308
C  C97  1  0.11090000  0.62090000  0.51880000  1.0 -0.0494375485
C  C98  1  0.60210000  0.59210000  0.98120000  1.0 -0.0494375485
C  C99  1  0.38910000  0.90790000  0.51000000  1.0 -0.0494375485
C  C100  1  0.89790000  0.87910000  0.99000000  1.0 -0.0494375485
C  C101  1  0.88910000  0.37910000  0.48120000  1.0 -0.0494375485
C  C102  1  0.39790000  0.40790000  0.01880000  1.0 -0.0494375485
C  C103  1  0.61090000  0.09210000  0.49000000  1.0 -0.0494375485
C  C104  1  0.10210000  0.12090000  0.01000000  1.0 -0.0494375485
C  C105  1  0.16090000  0.69130000  0.57960000  1.0 -0.0627157066
C  C106  1  0.61170000  0.58130000  0.92040000  1.0 -0.0627157066
C  C107  1  0.33910000  0.91870000  0.53040000  1.0 -0.0627157066
C  C108  1  0.88830000  0.80870000  0.96960000  1.0 -0.0627157066
C  C109  1  0.83910000  0.30870000  0.42040000  1.0 -0.0627157066
C  C110  1  0.38830000  0.41870000  0.07960000  1.0 -0.0627157066
C  C111  1  0.66090000  0.08130000  0.46960000  1.0 -0.0627157066
C  C112  1  0.11170000  0.19130000  0.03040000  1.0 -0.0627157066
C  C113  1  0.15090000  0.74920000  0.57490000  1.0 -0.0986806457
C  C114  1  0.67430000  0.57600000  0.92510000  1.0 -0.0986806457
C  C115  1  0.34910000  0.92400000  0.59830000  1.0 -0.0986806457
C  C116  1  0.82570000  0.75080000  0.90170000  1.0 -0.0986806457
C  C117  1  0.84910000  0.25080000  0.42510000  1.0 -0.0986806457
C  C118  1  0.32570000  0.42400000  0.07490000  1.0 -0.0986806457
C  C119  1  0.65090000  0.07600000  0.40170000  1.0 -0.0986806457
C  C120  1  0.17430000  0.24920000  0.09830000  1.0 -0.0986806457
C  C121  1  0.09110000  0.73690000  0.50960000  1.0 -0.0024965125
C  C122  1  0.72730000  0.58150000  0.99040000  1.0 -0.0024965125
C  C123  1  0.40890000  0.91850000  0.64580000  1.0 -0.0024965125
C  C124  1  0.77270000  0.76310000  0.85420000  1.0 -0.0024965125
C  C125  1  0.90890000  0.26310000  0.49040000  1.0 -0.0024965125
C  C126  1  0.27270000  0.41850000  0.00960000  1.0 -0.0024965125
C  C127  1  0.59110000  0.08150000  0.35420000  1.0 -0.0024965125
C  C128  1  0.22730000  0.23690000  0.14580000  1.0 -0.0024965125
C  C129  1  0.99400000  0.85070000  0.49010000  1.0 0.0620156962
C  C130  1  0.86060000  0.50390000  0.00990000  1.0 0.0620156962
C  C131  1  0.50600000  0.99610000  0.85670000  1.0 0.0620156962
C  C132  1  0.63940000  0.64930000  0.64330000  1.0 0.0620156962
C  C133  1  0.00600000  0.14930000  0.50990000  1.0 0.0620156962
C  C134  1  0.13940000  0.49610000  0.99010000  1.0 0.0620156962
C  C135  1  0.49400000  0.00390000  0.14330000  1.0 0.0620156962
C  C136  1  0.36060000  0.35070000  0.35670000  1.0 0.0620156962
C  C137  1  0.07570000  0.79320000  0.50590000  1.0 0.081457637
C  C138  1  0.78730000  0.56980000  0.99410000  1.0 0.081457637
C  C139  1  0.42430000  0.93020000  0.71750000  1.0 0.081457637
C  C140  1  0.71270000  0.70680000  0.78250000  1.0 0.081457637
C  C141  1  0.92430000  0.20680000  0.49410000  1.0 0.081457637
C  C142  1  0.21270000  0.43020000  0.00590000  1.0 0.081457637
C  C143  1  0.57570000  0.06980000  0.28250000  1.0 0.081457637
C  C144  1  0.28730000  0.29320000  0.21750000  1.0 0.081457637
C  C145  1  0.13060000  0.85480000  0.52980000  1.0 -0.2304012731
C  C146  1  0.82500000  0.60080000  0.97020000  1.0 -0.2304012731
C  C147  1  0.36940000  0.89920000  0.72420000  1.0 -0.2304012731
C  C148  1  0.67500000  0.64520000  0.77580000  1.0 -0.2304012731
C  C149  1  0.86940000  0.14520000  0.47020000  1.0 -0.2304012731
C  C150  1  0.17500000  0.39920000  0.02980000  1.0 -0.2304012731
C  C151  1  0.63060000  0.10080000  0.27580000  1.0 -0.2304012731
C  C152  1  0.32500000  0.35480000  0.22420000  1.0 -0.2304012731
C  C153  1  0.11720000  0.91430000  0.53390000  1.0 -0.159887911
C  C154  1  0.88040000  0.58330000  0.96610000  1.0 -0.159887911
C  C155  1  0.38280000  0.91670000  0.79710000  1.0 -0.159887911
C  C156  1  0.61960000  0.58570000  0.70290000  1.0 -0.159887911
C  C157  1  0.88280000  0.08570000  0.46610000  1.0 -0.159887911
C  C158  1  0.11960000  0.41670000  0.03390000  1.0 -0.159887911
C  C159  1  0.61720000  0.08330000  0.20290000  1.0 -0.159887911
C  C160  1  0.38040000  0.41430000  0.29710000  1.0 -0.159887911
C  C161  1  0.04880000  0.91220000  0.51400000  1.0 -0.2304012731
C  C162  1  0.89820000  0.53480000  0.98600000  1.0 -0.2304012731
C  C163  1  0.45120000  0.96520000  0.86340000  1.0 -0.2304012731
C  C164  1  0.60180000  0.58780000  0.63660000  1.0 -0.2304012731
C  C165  1  0.95120000  0.08780000  0.48600000  1.0 -0.2304012731
C  C166  1  0.10180000  0.46520000  0.01400000  1.0 -0.2304012731
C  C167  1  0.54880000  0.03480000  0.13660000  1.0 -0.2304012731
C  C168  1  0.39820000  0.41220000  0.36340000  1.0 -0.2304012731
C  C169  1  0.84140000  0.96490000  0.56870000  1.0 0.2681092701
C  C170  1  0.89620000  0.27270000  0.93130000  1.0 0.2681092701
C  C171  1  0.65860000  0.22730000  0.12350000  1.0 0.2681092701
C  C172  1  0.60380000  0.53510000  0.37650000  1.0 0.2681092701
C  C173  1  0.15860000  0.03510000  0.43130000  1.0 0.2681092701
C  C174  1  0.10380000  0.72730000  0.06870000  1.0 0.2681092701
C  C175  1  0.34140000  0.77270000  0.87650000  1.0 0.2681092701
C  C176  1  0.39620000  0.46490000  0.62350000  1.0 0.2681092701
C  C177  1  0.22640000  0.70470000  0.64730000  1.0 0.2609505884
C  C178  1  0.55740000  0.57910000  0.85270000  1.0 0.2609505884
C  C179  1  0.27360000  0.92090000  0.47830000  1.0 0.2609505884
C  C180  1  0.94260000  0.79530000  0.02170000  1.0 0.2609505884
C  C181  1  0.77360000  0.29530000  0.35270000  1.0 0.2609505884
C  C182  1  0.44260000  0.42090000  0.14730000  1.0 0.2609505884
C  C183  1  0.72640000  0.07910000  0.52170000  1.0 0.2609505884
C  C184  1  0.05740000  0.20470000  0.97830000  1.0 0.2609505884
C  C185  1  0.90440000  0.38260000  0.29340000  1.0 -0.1533641566
C  C186  1  0.58920000  0.61100000  0.20660000  1.0 -0.1533641566
C  C187  1  0.59560000  0.88900000  0.47820000  1.0 -0.1533641566
C  C188  1  0.91080000  0.11740000  0.02180000  1.0 -0.1533641566
C  C189  1  0.09560000  0.61740000  0.70660000  1.0 -0.1533641566
C  C190  1  0.41080000  0.38900000  0.79340000  1.0 -0.1533641566
C  C191  1  0.40440000  0.11100000  0.52180000  1.0 -0.1533641566
C  C192  1  0.08920000  0.88260000  0.97820000  1.0 -0.1533641566
C  C193  1  0.95560000  0.44900000  0.36160000  1.0 -0.221663465
C  C194  1  0.58740000  0.59400000  0.13840000  1.0 -0.221663465
C  C195  1  0.54440000  0.90600000  0.49340000  1.0 -0.221663465
C  C196  1  0.91260000  0.05100000  0.00660000  1.0 -0.221663465
C  C197  1  0.04440000  0.55100000  0.63840000  1.0 -0.221663465
C  C198  1  0.41260000  0.40600000  0.86160000  1.0 -0.221663465
C  C199  1  0.45560000  0.09400000  0.50660000  1.0 -0.221663465
C  C200  1  0.08740000  0.94900000  0.99340000  1.0 -0.221663465
C  C201  1  0.99430000  0.50250000  0.35840000  1.0 0.1096027702
C  C202  1  0.64410000  0.63590000  0.14160000  1.0 0.1096027702
C  C203  1  0.50570000  0.86410000  0.50820000  1.0 0.1096027702
C  C204  1  0.85590000  0.99750000  0.99180000  1.0 0.1096027702
C  C205  1  0.00570000  0.49750000  0.64160000  1.0 0.1096027702
C  C206  1  0.35590000  0.36410000  0.85840000  1.0 0.1096027702
C  C207  1  0.49430000  0.13590000  0.49180000  1.0 0.1096027702
C  C208  1  0.14410000  0.00250000  0.00820000  1.0 0.1096027702
C  C209  1  0.93100000  0.42340000  0.21900000  1.0 0.1001391734
C  C210  1  0.70440000  0.71200000  0.28100000  1.0 0.1001391734
C  C211  1  0.56900000  0.78800000  0.49240000  1.0 0.1001391734
C  C212  1  0.79560000  0.07660000  0.00760000  1.0 0.1001391734
C  C213  1  0.06900000  0.57660000  0.78100000  1.0 0.1001391734
C  C214  1  0.29560000  0.28800000  0.71900000  1.0 0.1001391734
C  C215  1  0.43100000  0.21200000  0.50760000  1.0 0.1001391734
C  C216  1  0.20440000  0.92340000  0.99240000  1.0 0.1001391734
C  C217  1  0.89210000  0.36980000  0.22210000  1.0 -0.2382846349
C  C218  1  0.64770000  0.67000000  0.27790000  1.0 -0.2382846349
C  C219  1  0.60790000  0.83000000  0.47770000  1.0 -0.2382846349
C  C220  1  0.85230000  0.13020000  0.02230000  1.0 -0.2382846349
C  C221  1  0.10790000  0.63020000  0.77790000  1.0 -0.2382846349
C  C222  1  0.35230000  0.33000000  0.72210000  1.0 -0.2382846349
C  C223  1  0.39210000  0.17000000  0.52230000  1.0 -0.2382846349
C  C224  1  0.14770000  0.86980000  0.97770000  1.0 -0.2382846349
C  C225  1  0.05000000  0.57470000  0.42370000  1.0 0.0097888153
C  C226  1  0.65100000  0.62630000  0.07630000  1.0 0.0097888153
C  C227  1  0.45000000  0.87370000  0.52470000  1.0 0.0097888153
C  C228  1  0.84900000  0.92530000  0.97530000  1.0 0.0097888153
C  C229  1  0.95000000  0.42530000  0.57630000  1.0 0.0097888153
C  C230  1  0.34900000  0.37370000  0.92370000  1.0 0.0097888153
C  C231  1  0.55000000  0.12630000  0.47530000  1.0 0.0097888153
C  C232  1  0.15100000  0.07470000  0.02470000  1.0 0.0097888153
C  C233  1  0.10960000  0.58160000  0.48500000  1.0 -0.0935006796
C  C234  1  0.59660000  0.62460000  0.01500000  1.0 -0.0935006796
C  C235  1  0.39040000  0.87540000  0.47200000  1.0 -0.0935006796
C  C236  1  0.90340000  0.91840000  0.02800000  1.0 -0.0935006796
C  C237  1  0.89040000  0.41840000  0.51500000  1.0 -0.0935006796
C  C238  1  0.40340000  0.37540000  0.98500000  1.0 -0.0935006796
C  C239  1  0.60960000  0.12460000  0.52800000  1.0 -0.0935006796
C  C240  1  0.09660000  0.08160000  0.97200000  1.0 -0.0935006796
C  C241  1  0.16310000  0.64990000  0.54760000  1.0 -0.0382309977
C  C242  1  0.60230000  0.61550000  0.95240000  1.0 -0.0382309977
C  C243  1  0.33690000  0.88450000  0.48680000  1.0 -0.0382309977
C  C244  1  0.89770000  0.85010000  0.01320000  1.0 -0.0382309977
C  C245  1  0.83690000  0.35010000  0.45240000  1.0 -0.0382309977
C  C246  1  0.39770000  0.38450000  0.04760000  1.0 -0.0382309977
C  C247  1  0.66310000  0.11550000  0.51320000  1.0 -0.0382309977
C  C248  1  0.10230000  0.14990000  0.98680000  1.0 -0.0382309977
C  C249  1  0.15700000  0.71120000  0.54880000  1.0 -0.0494375485
C  C250  1  0.66240000  0.60820000  0.95120000  1.0 -0.0494375485
C  C251  1  0.34300000  0.89180000  0.55420000  1.0 -0.0494375485
C  C252  1  0.83760000  0.78880000  0.94580000  1.0 -0.0494375485
C  C253  1  0.84300000  0.28880000  0.45120000  1.0 -0.0494375485
C  C254  1  0.33760000  0.39180000  0.04880000  1.0 -0.0494375485
C  C255  1  0.65700000  0.10820000  0.44580000  1.0 -0.0494375485
C  C256  1  0.16240000  0.21120000  0.05420000  1.0 -0.0494375485
C  C257  1  0.09730000  0.70410000  0.48740000  1.0 -0.0207046383
C  C258  1  0.71670000  0.60990000  0.01260000  1.0 -0.0207046383
C  C259  1  0.40270000  0.89010000  0.60680000  1.0 -0.0207046383
C  C260  1  0.78330000  0.79590000  0.89320000  1.0 -0.0207046383
C  C261  1  0.90270000  0.29590000  0.51260000  1.0 -0.0207046383
C  C262  1  0.28330000  0.39010000  0.98740000  1.0 -0.0207046383
C  C263  1  0.59730000  0.10990000  0.39320000  1.0 -0.0207046383
C  C264  1  0.21670000  0.20410000  0.10680000  1.0 -0.0207046383
C  C265  1  0.04380000  0.63590000  0.42490000  1.0 0.0370288855
C  C266  1  0.71100000  0.61890000  0.07510000  1.0 0.0370288855
C  C267  1  0.45620000  0.88110000  0.59210000  1.0 0.0370288855
C  C268  1  0.78900000  0.86410000  0.90790000  1.0 0.0370288855
C  C269  1  0.95620000  0.36410000  0.57510000  1.0 0.0370288855
C  C270  1  0.28900000  0.38110000  0.92490000  1.0 0.0370288855
C  C271  1  0.54380000  0.11890000  0.40790000  1.0 0.0370288855
C  C272  1  0.21100000  0.13590000  0.09210000  1.0 0.0370288855
C  C273  1  0.97970000  0.63030000  0.35640000  1.0 0.3709865034
C  C274  1  0.77390000  0.62330000  0.14360000  1.0 0.3709865034
C  C275  1  0.52030000  0.87670000  0.65060000  1.0 0.3709865034
C  C276  1  0.72610000  0.86970000  0.84940000  1.0 0.3709865034
C  C277  1  0.02030000  0.36970000  0.64360000  1.0 0.3709865034
C  C278  1  0.22610000  0.37670000  0.85640000  1.0 0.3709865034
C  C279  1  0.47970000  0.12330000  0.34940000  1.0 0.3709865034
C  C280  1  0.27390000  0.13030000  0.15060000  1.0 0.3709865034
C  C281  1  0.91890000  0.41060000  0.14370000  1.0 -0.0207046383
C  C282  1  0.76690000  0.77520000  0.35630000  1.0 -0.0207046383
C  C283  1  0.58110000  0.72480000  0.49170000  1.0 -0.0207046383
C  C284  1  0.73310000  0.08940000  0.00830000  1.0 -0.0207046383
C  C285  1  0.08110000  0.58940000  0.85630000  1.0 -0.0207046383
C  C286  1  0.23310000  0.22480000  0.64370000  1.0 -0.0207046383
C  C287  1  0.41890000  0.27520000  0.50830000  1.0 -0.0207046383
C  C288  1  0.26690000  0.91060000  0.99170000  1.0 -0.0207046383
C  C289  1  0.92400000  0.35060000  0.09560000  1.0 -0.0986806457
C  C290  1  0.75500000  0.82840000  0.40440000  1.0 -0.0986806457
C  C291  1  0.57600000  0.67160000  0.42660000  1.0 -0.0986806457
C  C292  1  0.74500000  0.14940000  0.07340000  1.0 -0.0986806457
C  C293  1  0.07600000  0.64940000  0.90440000  1.0 -0.0986806457
C  C294  1  0.24500000  0.17160000  0.59560000  1.0 -0.0986806457
C  C295  1  0.42400000  0.32840000  0.57340000  1.0 -0.0986806457
C  C296  1  0.25500000  0.85060000  0.92660000  1.0 -0.0986806457
C  C297  1  0.91330000  0.33820000  0.02490000  1.0 -0.0627157066
C  C298  1  0.81330000  0.88840000  0.47510000  1.0 -0.0627157066
C  C299  1  0.58670000  0.61160000  0.42490000  1.0 -0.0627157066
C  C300  1  0.68670000  0.16180000  0.07510000  1.0 -0.0627157066
C  C301  1  0.08670000  0.66180000  0.97510000  1.0 -0.0627157066
C  C302  1  0.18670000  0.11160000  0.52490000  1.0 -0.0627157066
C  C303  1  0.41330000  0.38840000  0.57510000  1.0 -0.0627157066
C  C304  1  0.31330000  0.83820000  0.92490000  1.0 -0.0627157066
C  C305  1  0.89730000  0.38560000  0.00230000  1.0 -0.0291290458
C  C306  1  0.88330000  0.89500000  0.49770000  1.0 -0.0291290458
C  C307  1  0.60270000  0.60500000  0.48830000  1.0 -0.0291290458
C  C308  1  0.61670000  0.11440000  0.01170000  1.0 -0.0291290458
C  C309  1  0.10270000  0.61440000  0.99770000  1.0 -0.0291290458
C  C310  1  0.11670000  0.10500000  0.50230000  1.0 -0.0291290458
C  C311  1  0.39730000  0.39500000  0.51170000  1.0 -0.0291290458
C  C312  1  0.38330000  0.88560000  0.98830000  1.0 -0.0291290458
C  C313  1  0.89210000  0.44550000  0.05040000  1.0 -0.0024965125
C  C314  1  0.89510000  0.84170000  0.44960000  1.0 -0.0024965125
C  C315  1  0.60790000  0.65830000  0.55340000  1.0 -0.0024965125
C  C316  1  0.60490000  0.05450000  0.94660000  1.0 -0.0024965125
C  C317  1  0.10790000  0.55450000  0.94960000  1.0 -0.0024965125
C  C318  1  0.10490000  0.15830000  0.55040000  1.0 -0.0024965125
C  C319  1  0.39210000  0.34170000  0.44660000  1.0 -0.0024965125
C  C320  1  0.39510000  0.94550000  0.05340000  1.0 -0.0024965125
C  C321  1  0.90290000  0.45800000  0.12110000  1.0 0.0219783889
C  C322  1  0.83690000  0.78180000  0.37890000  1.0 0.0219783889
C  C323  1  0.59710000  0.71820000  0.55510000  1.0 0.0219783889
C  C324  1  0.66310000  0.04200000  0.94490000  1.0 0.0219783889
C  C325  1  0.09710000  0.54200000  0.87890000  1.0 0.0219783889
C  C326  1  0.16310000  0.21820000  0.62110000  1.0 0.0219783889
C  C327  1  0.40290000  0.28180000  0.44490000  1.0 0.0219783889
C  C328  1  0.33690000  0.95800000  0.05510000  1.0 0.0219783889
C  C329  1  0.89710000  0.52170000  0.17200000  1.0 0.3096457802
C  C330  1  0.84970000  0.72510000  0.32800000  1.0 0.3096457802
C  C331  1  0.60290000  0.77490000  0.62460000  1.0 0.3096457802
C  C332  1  0.65030000  0.97830000  0.87540000  1.0 0.3096457802
C  C333  1  0.10290000  0.47830000  0.82800000  1.0 0.3096457802
C  C334  1  0.15030000  0.27490000  0.67200000  1.0 0.3096457802
C  C335  1  0.39710000  0.22510000  0.37540000  1.0 0.3096457802
C  C336  1  0.34970000  0.02170000  0.12460000  1.0 0.3096457802
C  C337  1  0.22310000  0.65760000  0.61850000  1.0 0.2681092701
C  C338  1  0.53910000  0.60460000  0.88150000  1.0 0.2681092701
C  C339  1  0.27690000  0.89540000  0.43450000  1.0 0.2681092701
C  C340  1  0.96090000  0.84240000  0.06550000  1.0 0.2681092701
C  C341  1  0.77690000  0.34240000  0.38150000  1.0 0.2681092701
C  C342  1  0.46090000  0.39540000  0.11850000  1.0 0.2681092701
C  C343  1  0.72310000  0.10460000  0.56550000  1.0 0.2681092701
C  C344  1  0.03910000  0.15760000  0.93450000  1.0 0.2681092701
C  C345  1  0.91410000  0.27280000  0.97030000  1.0 0.2502770432
C  C346  1  0.80250000  0.94380000  0.52970000  1.0 0.2502770432
C  C347  1  0.58590000  0.55620000  0.35870000  1.0 0.2502770432
C  C348  1  0.69750000  0.22720000  0.14130000  1.0 0.2502770432
C  C349  1  0.08590000  0.72720000  0.02970000  1.0 0.2502770432
C  C350  1  0.19750000  0.05620000  0.47030000  1.0 0.2502770432
C  C351  1  0.41410000  0.44380000  0.64130000  1.0 0.2502770432
C  C352  1  0.30250000  0.77280000  0.85870000  1.0 0.2502770432
N  N1  1  0.99560000  0.74560000  0.25000000  1.0 -0.3330037959
N  N2  1  0.50440000  0.75440000  0.75000000  1.0 -0.3330037959
N  N3  1  0.00440000  0.25440000  0.75000000  1.0 -0.3330037959
N  N4  1  0.49560000  0.24560000  0.25000000  1.0 -0.3330037959
N  N5  1  0.75430000  0.50430000  0.25000000  1.0 -0.3053289123
N  N6  1  0.74570000  0.99570000  0.75000000  1.0 -0.3053289123
N  N7  1  0.24570000  0.49570000  0.75000000  1.0 -0.3053289123
N  N8  1  0.25430000  0.00430000  0.25000000  1.0 -0.3053289123
N  N9  1  0.66220000  0.45080000  0.25080000  1.0 -0.2592709802
N  N10  1  0.70000000  0.41140000  0.24920000  1.0 -0.2592709802
N  N11  1  0.83780000  0.08860000  0.78860000  1.0 -0.2592709802
N  N12  1  0.80000000  0.04920000  0.71140000  1.0 -0.2592709802
N  N13  1  0.33780000  0.54920000  0.74920000  1.0 -0.2592709802
N  N14  1  0.30000000  0.58860000  0.75080000  1.0 -0.2592709802
N  N15  1  0.16220000  0.91140000  0.21140000  1.0 -0.2592709802
N  N16  1  0.20000000  0.95080000  0.28860000  1.0 -0.2592709802
N  N17  1  0.04945000  0.80055000  0.21210000  1.0 -0.2382846349
N  N18  1  0.08845000  0.83735000  0.28790000  1.0 -0.2382846349
N  N19  1  0.45055000  0.66265000  0.75110000  1.0 -0.2382846349
N  N20  1  0.41155000  0.69945000  0.74890000  1.0 -0.2382846349
N  N21  1  0.95055000  0.19945000  0.78790000  1.0 -0.2382846349
N  N22  1  0.91155000  0.16265000  0.71210000  1.0 -0.2382846349
N  N23  1  0.54945000  0.33735000  0.24890000  1.0 -0.2382846349
N  N24  1  0.58845000  0.30055000  0.25110000  1.0 -0.2382846349
N  N25  1  0.00750000  0.79120000  0.48610000  1.0 -0.2702068574
N  N26  1  0.80510000  0.52140000  0.01390000  1.0 -0.2702068574
N  N27  1  0.49250000  0.97860000  0.78370000  1.0 -0.2702068574
N  N28  1  0.69490000  0.70880000  0.71630000  1.0 -0.2702068574
N  N29  1  0.99250000  0.20880000  0.51390000  1.0 -0.2702068574
N  N30  1  0.19490000  0.47860000  0.98610000  1.0 -0.2702068574
N  N31  1  0.50750000  0.02140000  0.21630000  1.0 -0.2702068574
N  N32  1  0.30510000  0.29120000  0.28370000  1.0 -0.2702068574
N  N33  1  0.98200000  0.48970000  0.28710000  1.0 -0.2702068574
N  N34  1  0.70260000  0.69490000  0.21290000  1.0 -0.2702068574
N  N35  1  0.51800000  0.80510000  0.50770000  1.0 -0.2702068574
N  N36  1  0.79740000  0.01030000  0.99230000  1.0 -0.2702068574
N  N37  1  0.01800000  0.51030000  0.71290000  1.0 -0.2702068574
N  N38  1  0.29740000  0.30510000  0.78710000  1.0 -0.2702068574
N  N39  1  0.48200000  0.19490000  0.49230000  1.0 -0.2702068574
N  N40  1  0.20260000  0.98970000  0.00770000  1.0 -0.2702068574
O  O1  1  0.91950000  0.60320000  0.34490000  1.0 -0.4088044234
O  O2  1  0.75830000  0.57460000  0.15510000  1.0 -0.4088044234
O  O3  1  0.58050000  0.92540000  0.68370000  1.0 -0.4088044234
O  O4  1  0.74170000  0.89680000  0.81630000  1.0 -0.4088044234
O  O5  1  0.08050000  0.39680000  0.65510000  1.0 -0.4088044234
O  O6  1  0.24170000  0.42540000  0.84490000  1.0 -0.4088044234
O  O7  1  0.41950000  0.07460000  0.31630000  1.0 -0.4088044234
O  O8  1  0.25830000  0.10320000  0.18370000  1.0 -0.4088044234
O  O9  1  0.83350000  0.67030000  0.33420000  1.0 -0.2382846349
O  O10  1  0.83610000  0.49930000  0.16580000  1.0 -0.2382846349
O  O11  1  0.66650000  0.00070000  0.83680000  1.0 -0.2382846349
O  O12  1  0.66390000  0.82970000  0.66320000  1.0 -0.2382846349
O  O13  1  0.16650000  0.32970000  0.66580000  1.0 -0.2382846349
O  O14  1  0.16390000  0.50070000  0.83420000  1.0 -0.2382846349
O  O15  1  0.33350000  0.99930000  0.16320000  1.0 -0.2382846349
O  O16  1  0.33610000  0.17030000  0.33680000  1.0 -0.2382846349
O  O17  1  0.99480000  0.68350000  0.34850000  1.0 -0.2702068574
O  O18  1  0.83500000  0.64630000  0.15150000  1.0 -0.2702068574
O  O19  1  0.50520000  0.85370000  0.68870000  1.0 -0.2702068574
O  O20  1  0.66500000  0.81650000  0.81130000  1.0 -0.2702068574
O  O21  1  0.00520000  0.31650000  0.65150000  1.0 -0.2702068574
O  O22  1  0.16500000  0.35370000  0.84850000  1.0 -0.2702068574
O  O23  1  0.49480000  0.14630000  0.31130000  1.0 -0.2702068574
O  O24  1  0.33500000  0.18350000  0.18870000  1.0 -0.2702068574
O  O25  1  0.91240000  0.75080000  0.33540000  1.0 -0.280018688
O  O26  1  0.91540000  0.57700000  0.16460000  1.0 -0.280018688
O  O27  1  0.58760000  0.92300000  0.83840000  1.0 -0.280018688
O  O28  1  0.58460000  0.74920000  0.66160000  1.0 -0.280018688
O  O29  1  0.08760000  0.24920000  0.66460000  1.0 -0.280018688
O  O30  1  0.08460000  0.42300000  0.83540000  1.0 -0.280018688
O  O31  1  0.41240000  0.07700000  0.16160000  1.0 -0.280018688
O  O32  1  0.41540000  0.25080000  0.33840000  1.0 -0.280018688
O  O33  1  0.23490000  0.65850000  0.65820000  1.0 0.0219783889
O  O34  1  0.50030000  0.57670000  0.84180000  1.0 0.0219783889
O  O35  1  0.26510000  0.92330000  0.42360000  1.0 0.0219783889
O  O36  1  0.99970000  0.84150000  0.07640000  1.0 0.0219783889
O  O37  1  0.76510000  0.34150000  0.34180000  1.0 0.0219783889
O  O38  1  0.49970000  0.42330000  0.15820000  1.0 0.0219783889
O  O39  1  0.73490000  0.07670000  0.57640000  1.0 0.0219783889
O  O40  1  0.00030000  0.15850000  0.92360000  1.0 0.0219783889
O  O41  1  0.27310000  0.76620000  0.69330000  1.0 -0.221663465
O  O42  1  0.57290000  0.57980000  0.80670000  1.0 -0.221663465
O  O43  1  0.22690000  0.92020000  0.49310000  1.0 -0.221663465
O  O44  1  0.92710000  0.73380000  0.00690000  1.0 -0.221663465
O  O45  1  0.72690000  0.23380000  0.30670000  1.0 -0.221663465
O  O46  1  0.42710000  0.42020000  0.19330000  1.0 -0.221663465
O  O47  1  0.77310000  0.07980000  0.50690000  1.0 -0.221663465
O  O48  1  0.07290000  0.26620000  0.99310000  1.0 -0.221663465
O  O49  1  0.89850000  0.01470000  0.62160000  1.0 -0.1802620359
O  O50  1  0.89310000  0.27690000  0.87840000  1.0 -0.1802620359
O  O51  1  0.60150000  0.22310000  0.11620000  1.0 -0.1802620359
O  O52  1  0.60690000  0.48530000  0.38380000  1.0 -0.1802620359
O  O53  1  0.10150000  0.98530000  0.37840000  1.0 -0.1802620359
O  O54  1  0.10690000  0.72310000  0.12160000  1.0 -0.1802620359
O  O55  1  0.39850000  0.77690000  0.88380000  1.0 -0.1802620359
O  O56  1  0.39310000  0.51470000  0.61620000  1.0 -0.1802620359
O  O57  1  0.78700000  0.97160000  0.56320000  1.0 0.0323365385
O  O58  1  0.90840000  0.22380000  0.93680000  1.0 0.0323365385
O  O59  1  0.71300000  0.27620000  0.18460000  1.0 0.0323365385
O  O60  1  0.59160000  0.52840000  0.31540000  1.0 0.0323365385
O  O61  1  0.21300000  0.02840000  0.43680000  1.0 0.0323365385
O  O62  1  0.09160000  0.77620000  0.06320000  1.0 0.0370288855
O  O63  1  0.28700000  0.72380000  0.81540000  1.0 0.0323365385
O  O64  1  0.40840000  0.47160000  0.68460000  1.0 0.0323365385
O  O65  1  0.92000000  0.59040000  0.33480000  1.0 -0.4310468503
O  O66  1  0.75560000  0.58520000  0.16520000  1.0 -0.4310468503
O  O67  1  0.58000000  0.91480000  0.67040000  1.0 -0.4310468503
O  O68  1  0.74440000  0.90960000  0.82960000  1.0 -0.4310468503
O  O69  1  0.08000000  0.40960000  0.66520000  1.0 -0.4310468503
O  O70  1  0.24440000  0.41480000  0.83480000  1.0 -0.4310468503
O  O71  1  0.42000000  0.08520000  0.32960000  1.0 -0.4310468503
O  O72  1  0.25560000  0.09040000  0.17040000  1.0 -0.4310468503
O  O73  1  0.99750000  0.66640000  0.33310000  1.0 -0.280018688
O  O74  1  0.83330000  0.66440000  0.16690000  1.0 -0.280018688
O  O75  1  0.50250000  0.83560000  0.66890000  1.0 -0.280018688
O  O76  1  0.66666667  0.83360000  0.83110000  1.0 -0.280018688
O  O77  1  0.00250000  0.33360000  0.66690000  1.0 -0.280018688
O  O78  1  0.16670000  0.33560000  0.83310000  1.0 -0.280018688
O  O79  1  0.49750000  0.16440000  0.33110000  1.0 -0.280018688
O  O80  1  0.33333333  0.16640000  0.16890000  1.0 -0.2702068574
O  O81  1  0.85360000  0.50650000  0.18950000  1.0 -0.25398115
O  O82  1  0.81700000  0.66410000  0.31050000  1.0 -0.25398115
O  O83  1  0.64640000  0.83590000  0.65290000  1.0 -0.25398115
O  O84  1  0.68300000  0.99350000  0.84710000  1.0 -0.25398115
O  O85  1  0.14640000  0.49350000  0.81050000  1.0 -0.25398115
O  O86  1  0.18300000  0.33590000  0.68950000  1.0 -0.25398115
O  O87  1  0.35360000  0.16410000  0.34710000  1.0 -0.25398115
O  O88  1  0.31700000  0.00650000  0.15290000  1.0 -0.25398115
O  O89  1  0.92790000  0.58260000  0.18830000  1.0 -0.2702068574
O  O90  1  0.89430000  0.73960000  0.31170000  1.0 -0.2702068574
O  O91  1  0.57210000  0.76040000  0.65470000  1.0 -0.2702068574
O  O92  1  0.60570000  0.91740000  0.84530000  1.0 -0.2702068574
O  O93  1  0.07210000  0.41740000  0.81170000  1.0 -0.2702068574
O  O94  1  0.10570000  0.26040000  0.68830000  1.0 -0.2702068574
O  O95  1  0.42790000  0.23960000  0.34530000  1.0 -0.2702068574
O  O96  1  0.39430000  0.08260000  0.15470000  1.0 -0.2702068574
O  O97  1  0.22340000  0.60790000  0.62690000  1.0 -0.1868538104
O  O98  1  0.48100000  0.59650000  0.87310000  1.0 -0.1868538104
O  O99  1  0.27660000  0.90350000  0.38450000  1.0 -0.1868538104
O  O100  1  0.01900000  0.89210000  0.11550000  1.0 -0.1868538104
O  O101  1  0.77660000  0.39210000  0.37310000  1.0 -0.1868538104
O  O102  1  0.51900000  0.40350000  0.12690000  1.0 -0.1868538104
O  O103  1  0.72340000  0.09650000  0.61550000  1.0 -0.1868538104
O  O104  1  0.98100000  0.10790000  0.88450000  1.0 -0.1868538104
O  O105  1  0.91930000  0.26260000  0.91610000  1.0 0.0370288855
O  O106  1  0.84650000  0.00320000  0.58390000  1.0 0.0370288855
O  O107  1  0.58070000  0.49680000  0.34330000  1.0 0.0370288855
O  O108  1  0.65350000  0.23740000  0.15670000  1.0 0.0370288855
O  O109  1  0.08070000  0.73740000  0.08390000  1.0 0.0370288855
O  O110  1  0.15350000  0.99680000  0.41610000  1.0 0.0370288855
O  O111  1  0.41930000  0.50320000  0.65670000  1.0 0.0370288855
O  O112  1  0.34650000  0.76260000  0.84330000  1.0 0.0370288855
O  O113  1  0.90880000  0.22470000  0.98210000  1.0 -0.1958855756
O  O114  1  0.74260000  0.92670000  0.51790000  1.0 -0.1958855756
O  O115  1  0.59120000  0.57330000  0.31590000  1.0 -0.1958855756
O  O116  1  0.75740000  0.27530000  0.18410000  1.0 -0.1958855756
O  O117  1  0.09120000  0.77530000  0.01790000  1.0 -0.1958855756
O  O118  1  0.25740000  0.07330000  0.48210000  1.0 -0.1958855756
O  O119  1  0.40880000  0.42670000  0.68410000  1.0 -0.1958855756
O  O120  1  0.24260000  0.72470000  0.81590000  1.0 -0.1958855756
O  O121  1  0.27280000  0.71660000  0.66900000  1.0 0.0370288855
O  O122  1  0.54760000  0.60380000  0.83100000  1.0 0.0370288855
O  O123  1  0.22720000  0.89620000  0.44380000  1.0 0.0370288855
O  O124  1  0.95240000  0.78340000  0.05620000  1.0 0.0370288855
O  O125  1  0.72720000  0.28340000  0.33100000  1.0 0.0370288855
O  O126  1  0.45240000  0.39620000  0.16900000  1.0 0.0370288855
O  O127  1  0.77280000  0.10380000  0.55620000  1.0 0.0370288855
O  O128  1  0.04760000  0.21660000  0.94380000  1.0 0.0370288855
