# DDEC6 charges by PACMAN v1.1 (https://github.com/mtap-research/PACMAN-charge/)
data_DINJOD_FSR_pacman
_symmetry_space_group_name_H-M   'P 1'
_cell_length_a   21.72750000
_cell_length_b   21.72750000
_cell_length_c   25.08820000
_cell_angle_alpha   56.84840000
_cell_angle_beta   123.15200000
_cell_angle_gamma   127.52100000
_symmetry_Int_Tables_number   1
_chemical_formula_structural   Zr6H55C26S11O78
_chemical_formula_sum   'Zr24 H220 C104 S44 O312'
_cell_volume   7445.80457423
_cell_formula_units_Z   4
loop_
 _symmetry_equiv_pos_site_id
 _symmetry_equiv_pos_as_xyz
  1  'x, y, z'
loop_
 _atom_site_type_symbol
 _atom_site_label
 _atom_site_symmetry_multiplicity
 _atom_site_fract_x
 _atom_site_fract_y
 _atom_site_fract_z
 _atom_site_occupancy
 _atom_site_charge
Zr  Zr1  1  0.80791000  0.29407000  0.03646000  1.0 2.1189061855
Zr  Zr2  1  0.29407000  0.80791000  0.46354000  1.0 2.1189061855
Zr  Zr3  1  0.19209000  0.70593000  0.96354000  1.0 2.1189061855
Zr  Zr4  1  0.70593000  0.19209000  0.53646000  1.0 2.1189061855
Zr  Zr5  1  0.73966000  0.10694000  0.16013000  1.0 2.0250661229
Zr  Zr6  1  0.10694000  0.73966000  0.33987000  1.0 2.0250661229
Zr  Zr7  1  0.26034000  0.89306000  0.83987000  1.0 2.0250661229
Zr  Zr8  1  0.89306000  0.26034000  0.66013000  1.0 2.0250661229
Zr  Zr9  1  0.61929000  0.21747000  0.04913000  1.0 1.9314925526
Zr  Zr10  1  0.21747000  0.61929000  0.45087000  1.0 1.9314925526
Zr  Zr11  1  0.38071000  0.78253000  0.95087000  1.0 1.9314925526
Zr  Zr12  1  0.78253000  0.38071000  0.54913000  1.0 1.9314925526
Zr  Zr13  1  0.90596000  0.28136000  0.20838000  1.0 2.0773146008
Zr  Zr14  1  0.28136000  0.90596000  0.29162000  1.0 2.0773146008
Zr  Zr15  1  0.09404000  0.71864000  0.79162000  1.0 2.0773146008
Zr  Zr16  1  0.71864000  0.09404000  0.70838000  1.0 2.0773146008
Zr  Zr17  1  0.78768000  0.39128000  0.09873000  1.0 2.2099050139
Zr  Zr18  1  0.39128000  0.78768000  0.40127000  1.0 2.2099050139
Zr  Zr19  1  0.21232000  0.60872000  0.90127000  1.0 2.2099050139
Zr  Zr20  1  0.60872000  0.21232000  0.59873000  1.0 2.2099050139
Zr  Zr21  1  0.71566000  0.20242000  0.22051000  1.0 2.1415537451
Zr  Zr22  1  0.20242000  0.71566000  0.27949000  1.0 2.1415537451
Zr  Zr23  1  0.28434000  0.79758000  0.77949000  1.0 2.1415537451
Zr  Zr24  1  0.79758000  0.28434000  0.72051000  1.0 2.1415537451
H  H1  1  0.89863000  0.20071000  0.14609000  1.0 0.3827576195
H  H2  1  0.20071000  0.89863000  0.35391000  1.0 0.3827576195
H  H3  1  0.10137000  0.79929000  0.85391000  1.0 0.3827576195
H  H4  1  0.79929000  0.10137000  0.64609000  1.0 0.3827576195
H  H5  1  0.70559000  0.37521000  0.96894000  1.0 0.3516183314
H  H6  1  0.37521000  0.70559000  0.53106000  1.0 0.3516183314
H  H7  1  0.29441000  0.62479000  0.03106000  1.0 0.3516183314
H  H8  1  0.62479000  0.29441000  0.46894000  1.0 0.3516183314
H  H9  1  0.79552000  0.41794000  0.92996000  1.0 0.2805629862
H  H10  1  0.41794000  0.79552000  0.57004000  1.0 0.2805629862
H  H11  1  0.20448000  0.58206000  0.07004000  1.0 0.2805629862
H  H12  1  0.58206000  0.20448000  0.42996000  1.0 0.2805629862
H  H13  1  0.87436000  0.46020000  0.93268000  1.0 0.269322068
H  H14  1  0.46020000  0.87436000  0.56732000  1.0 0.269322068
H  H15  1  0.12564000  0.53980000  0.06732000  1.0 0.269322068
H  H16  1  0.53980000  0.12564000  0.43268000  1.0 0.269322068
H  H17  1  0.85144000  0.05414000  0.21107000  1.0 0.269322068
H  H18  1  0.05414000  0.85144000  0.28893000  1.0 0.269322068
H  H19  1  0.14856000  0.94586000  0.78893000  1.0 0.269322068
H  H20  1  0.94586000  0.14856000  0.71107000  1.0 0.269322068
H  H21  1  0.83124000  0.01764000  0.26737000  1.0 0.2213443175
H  H22  1  0.01764000  0.83124000  0.23263000  1.0 0.2213443175
H  H23  1  0.16876000  0.98236000  0.73263000  1.0 0.2213443175
H  H24  1  0.98236000  0.16876000  0.76737000  1.0 0.2213443175
H  H25  1  0.58957000  0.07261000  0.16173000  1.0 0.3599813734
H  H26  1  0.07261000  0.58957000  0.33827000  1.0 0.3599813734
H  H27  1  0.41043000  0.92739000  0.83827000  1.0 0.3599813734
H  H28  1  0.92739000  0.41043000  0.66173000  1.0 0.3599813734
H  H29  1  0.57978000  0.97948000  0.12869000  1.0 0.2509270191
H  H30  1  0.97948000  0.57978000  0.37131000  1.0 0.2509270191
H  H31  1  0.42022000  0.02052000  0.87131000  1.0 0.2509270191
H  H32  1  0.02052000  0.42022000  0.62869000  1.0 0.2509270191
H  H33  1  0.63135000  0.96309000  0.13026000  1.0 0.2908256673
H  H34  1  0.96309000  0.63135000  0.36974000  1.0 0.2908256673
H  H35  1  0.36865000  0.03691000  0.86974000  1.0 0.2908256673
H  H36  1  0.03691000  0.36865000  0.63026000  1.0 0.2908256673
H  H37  1  0.54134000  0.30990000  0.93495000  1.0 0.2805629862
H  H38  1  0.30990000  0.54134000  0.56505000  1.0 0.2805629862
H  H39  1  0.45866000  0.69010000  0.06505000  1.0 0.2805629862
H  H40  1  0.69010000  0.45866000  0.43495000  1.0 0.2805629862
H  H41  1  0.53660000  0.31748000  0.98230000  1.0 0.2296728073
H  H42  1  0.31748000  0.53660000  0.51770000  1.0 0.2296728073
H  H43  1  0.46340000  0.68252000  0.01770000  1.0 0.2296728073
H  H44  1  0.68252000  0.46340000  0.48230000  1.0 0.2296728073
H  H45  1  0.86227000  0.35515000  0.23721000  1.0 0.3276175414
H  H46  1  0.35515000  0.86227000  0.26280000  1.0 0.3276175414
H  H47  1  0.13773000  0.64485000  0.76280000  1.0 0.3276175414
H  H48  1  0.64485000  0.13773000  0.73720000  1.0 0.3276175414
H  H49  1  0.99320000  0.19590000  0.26303000  1.0 0.2407607561
H  H50  1  0.19590000  0.99320000  0.23697000  1.0 0.2296728073
H  H51  1  0.00680000  0.80410000  0.73697000  1.0 0.2407607561
H  H52  1  0.80410000  0.00680000  0.76303000  1.0 0.2407607561
H  H53  1  0.01030000  0.21822000  0.31186000  1.0 0.2908256673
H  H54  1  0.21822000  0.01030000  0.18814000  1.0 0.2908256673
H  H55  1  0.98970000  0.78178000  0.68814000  1.0 0.2908256673
H  H56  1  0.78178000  0.98970000  0.81186000  1.0 0.2908256673
H  H57  1  0.04605000  0.38023000  0.27315000  1.0 0.2908256673
H  H58  1  0.38023000  0.04605000  0.22685000  1.0 0.2908256673
H  H59  1  0.95395000  0.61977000  0.72685000  1.0 0.2908256673
H  H60  1  0.61977000  0.95395000  0.77315000  1.0 0.2908256673
H  H61  1  0.02863000  0.42843000  0.20865000  1.0 0.269322068
H  H62  1  0.42843000  0.02863000  0.29135000  1.0 0.269322068
H  H63  1  0.97137000  0.57157000  0.79135000  1.0 0.269322068
H  H64  1  0.57157000  0.97137000  0.70865000  1.0 0.269322068
H  H65  1  0.87936000  0.50382000  0.15779000  1.0 0.2978482499
H  H66  1  0.50382000  0.87936000  0.34221000  1.0 0.2978482499
H  H67  1  0.12064000  0.49618000  0.84221000  1.0 0.2978482499
H  H68  1  0.49618000  0.12064000  0.65779000  1.0 0.2978482499
H  H69  1  0.93211000  0.48473000  0.16433000  1.0 0.2978482499
H  H70  1  0.48473000  0.93211000  0.33567000  1.0 0.2978482499
H  H71  1  0.06789000  0.51527000  0.83567000  1.0 0.2978482499
H  H72  1  0.51527000  0.06789000  0.66433000  1.0 0.2978482499
H  H73  1  0.71085000  0.49349000  0.02920000  1.0 0.3246996333
H  H74  1  0.49349000  0.71085000  0.47080000  1.0 0.3246996333
H  H75  1  0.28915000  0.50651000  0.97080000  1.0 0.3246996333
H  H76  1  0.50651000  0.28915000  0.52920000  1.0 0.3246996333
H  H77  1  0.68944000  0.46076000  0.98557000  1.0 0.2587913577
H  H78  1  0.46076000  0.68944000  0.51443000  1.0 0.2587913577
H  H79  1  0.31056000  0.53924000  0.01443000  1.0 0.2587913577
H  H80  1  0.53924000  0.31056000  0.48557000  1.0 0.2587913577
H  H81  1  0.88770000  0.51012000  0.00688000  1.0 0.269322068
H  H82  1  0.51012000  0.88770000  0.49312000  1.0 0.269322068
H  H83  1  0.11230000  0.48988000  0.99312000  1.0 0.269322068
H  H84  1  0.48988000  0.11230000  0.50688000  1.0 0.269322068
H  H85  1  0.82904000  0.53338000  0.98678000  1.0 0.3516183314
H  H86  1  0.53338000  0.82904000  0.51322000  1.0 0.3516183314
H  H87  1  0.17096000  0.46662000  0.01322000  1.0 0.3516183314
H  H88  1  0.46662000  0.17096000  0.48678000  1.0 0.3516183314
H  H89  1  0.38688000  0.01900000  0.09175000  1.0 0.2407607561
H  H90  1  0.01900000  0.38688000  0.40825000  1.0 0.2407607561
H  H91  1  0.61312000  0.98100000  0.90825000  1.0 0.2407607561
H  H92  1  0.98100000  0.61312000  0.59175000  1.0 0.2407607561
H  H93  1  0.72252000  0.30572000  0.33009000  1.0 0.1094175425
H  H94  1  0.30572000  0.72252000  0.16991000  1.0 0.1094175425
H  H95  1  0.27748000  0.69428000  0.66991000  1.0 0.1094175425
H  H96  1  0.69428000  0.27748000  0.83009000  1.0 0.1094175425
H  H97  1  0.75770000  0.51508000  0.17181000  1.0 0.1094175425
H  H98  1  0.51508000  0.75770000  0.32819000  1.0 0.1094175425
H  H99  1  0.24230000  0.48492000  0.82819000  1.0 0.1094175425
H  H100  1  0.48492000  0.24230000  0.67181000  1.0 0.1094175425
H  H101  1  0.77274000  0.51268000  0.34148000  1.0 0.1007715818
H  H102  1  0.51268000  0.77274000  0.15852000  1.0 0.1007715818
H  H103  1  0.22726000  0.48732000  0.65852000  1.0 0.1007715818
H  H104  1  0.48732000  0.22726000  0.84148000  1.0 0.1007715818
H  H105  1  0.69520000  0.59947000  0.12657000  1.0 0.1154906009
H  H106  1  0.59947000  0.69520000  0.37343000  1.0 0.1154906009
H  H107  1  0.30480000  0.40053000  0.87343000  1.0 0.1154906009
H  H108  1  0.40054000  0.30480000  0.62657000  1.0 0.1154906009
H  H109  1  0.86350000  0.65344000  0.29837000  1.0 0.1007715818
H  H110  1  0.65344000  0.86350000  0.20163000  1.0 0.1007715818
H  H111  1  0.13650000  0.34656000  0.70163000  1.0 0.1007715818
H  H112  1  0.34656000  0.13650000  0.79837000  1.0 0.1007715818
H  H113  1  0.87575000  0.78621000  0.24812000  1.0 0.1007715818
H  H114  1  0.78621000  0.87575000  0.25188000  1.0 0.1007715818
H  H115  1  0.12425000  0.21379000  0.75188000  1.0 0.1007715818
H  H116  1  0.21379000  0.12425000  0.74812000  1.0 0.1007715818
H  H117  1  0.65538000  0.70426000  0.02526000  1.0 0.0919005205
H  H118  1  0.70426000  0.65538000  0.47474000  1.0 0.0919005205
H  H119  1  0.34462000  0.29574000  0.97474000  1.0 0.0919005205
H  H120  1  0.29574000  0.34462000  0.52526000  1.0 0.0919005205
H  H121  1  0.83012000  0.89194000  0.14475000  1.0 0.1094175425
H  H122  1  0.89194000  0.83012000  0.35525000  1.0 0.1094175425
H  H123  1  0.16988000  0.10806000  0.85525000  1.0 0.1094175425
H  H124  1  0.10806000  0.16988000  0.64475000  1.0 0.1094175425
H  H125  1  0.67363000  0.83977000  0.97070000  1.0 0.1007715818
H  H126  1  0.83977000  0.67363000  0.52930000  1.0 0.1007715818
H  H127  1  0.32637000  0.16023000  0.02930000  1.0 0.1007715818
H  H128  1  0.16023000  0.32637000  0.47070000  1.0 0.1007715818
H  H129  1  0.77222000  0.98154000  0.09305000  1.0 0.1094175425
H  H130  1  0.98154000  0.77222000  0.40696000  1.0 0.1094175425
H  H131  1  0.22778000  0.01846000  0.90695000  1.0 0.1094175425
H  H132  1  0.01846000  0.22778000  0.59305000  1.0 0.1094175425
H  H133  1  0.75711000  0.97477000  0.92837000  1.0 0.1094175425
H  H134  1  0.97477000  0.75711000  0.57163000  1.0 0.1094175425
H  H135  1  0.24289000  0.02523000  0.07163000  1.0 0.1094175425
H  H136  1  0.02523000  0.24289000  0.42837000  1.0 0.1094175425
H  H137  1  0.79058000  0.17980000  0.92437000  1.0 0.128652141
H  H138  1  0.17980000  0.79058000  0.57563000  1.0 0.128652141
H  H139  1  0.20942000  0.82020000  0.07563000  1.0 0.128652141
H  H140  1  0.82020000  0.20942000  0.42437000  1.0 0.128652141
H  H141  1  0.67877000  0.55933000  0.77948000  1.0 0.269322068
H  H142  1  0.55933000  0.67877000  0.72052000  1.0 0.269322068
H  H143  1  0.32123000  0.44067000  0.22052000  1.0 0.269322068
H  H144  1  0.44067000  0.32123000  0.27948000  1.0 0.269322068
H  H145  1  0.86320000  0.93602000  0.38739000  1.0 0.2978482499
H  H146  1  0.93602000  0.86320000  0.11261000  1.0 0.2978482499
H  H147  1  0.13680000  0.06398000  0.61261000  1.0 0.2978482499
H  H148  1  0.06398000  0.13680000  0.88739000  1.0 0.2978482499
H  H149  1  0.90981000  0.00663000  0.34721000  1.0 0.1800199155
H  H150  1  0.00663000  0.90981000  0.15279000  1.0 0.1800199155
H  H151  1  0.09019000  0.99337000  0.65279000  1.0 0.1800199155
H  H152  1  0.99337000  0.09019000  0.84721000  1.0 0.1800199155
H  H153  1  0.49714000  0.38720000  0.99469000  1.0 0.2509270191
H  H154  1  0.38720000  0.49714000  0.50531000  1.0 0.2509270191
H  H155  1  0.50286000  0.61280000  0.00531000  1.0 0.2509270191
H  H156  1  0.61280000  0.50286000  0.49469000  1.0 0.2509270191
H  H157  1  0.51605000  0.33671000  0.05755000  1.0 0.2805629862
H  H158  1  0.33671000  0.51605000  0.44245000  1.0 0.2805629862
H  H159  1  0.48395000  0.66329000  0.94245000  1.0 0.2805629862
H  H160  1  0.66329000  0.48395000  0.55755000  1.0 0.2805629862
H  H161  1  0.45386000  0.94348000  0.10568000  1.0 0.2296728073
H  H162  1  0.94348000  0.45386000  0.39432000  1.0 0.2296728073
H  H163  1  0.54614000  0.05652000  0.89432000  1.0 0.2296728073
H  H164  1  0.05652000  0.54614000  0.60568000  1.0 0.2296728073
H  H165  1  0.43300000  0.88614000  0.22522000  1.0 0.2213443175
H  H166  1  0.88614000  0.43300000  0.27478000  1.0 0.2213443175
H  H167  1  0.56700000  0.11386000  0.77478000  1.0 0.2213443175
H  H168  1  0.11386000  0.56700000  0.72522000  1.0 0.2213443175
H  H169  1  0.39755000  0.93693000  0.18850000  1.0 0.2213443175
H  H170  1  0.93693000  0.39755000  0.31150000  1.0 0.2213443175
H  H171  1  0.60245000  0.06307000  0.81150000  1.0 0.2213443175
H  H172  1  0.06307000  0.60245000  0.68850000  1.0 0.2213443175
H  H173  1  0.56546000  0.15754000  0.18428000  1.0 0.1616697577
H  H174  1  0.15754000  0.56546000  0.31572000  1.0 0.1616697577
H  H175  1  0.43454000  0.84246000  0.81572000  1.0 0.1616697577
H  H176  1  0.84246000  0.43454000  0.68428000  1.0 0.1616697577
H  H177  1  0.58434000  0.10846000  0.24779000  1.0 0.2908256673
H  H178  1  0.10846000  0.58434000  0.25221000  1.0 0.2908256673
H  H179  1  0.41566000  0.89154000  0.75221000  1.0 0.2908256673
H  H180  1  0.89154000  0.41566000  0.74779000  1.0 0.2908256673
H  H181  1  0.48985000  0.15003000  0.09076000  1.0 0.1871590508
H  H182  1  0.15003000  0.48985000  0.40924000  1.0 0.1871590508
H  H183  1  0.51015000  0.84997000  0.90924000  1.0 0.1871590508
H  H184  1  0.84997000  0.51015000  0.59076000  1.0 0.1871590508
H  H185  1  0.52093000  0.23439000  0.05636000  1.0 0.2587913577
H  H186  1  0.23439000  0.52093000  0.44364000  1.0 0.2587913577
H  H187  1  0.47907000  0.76561000  0.94364000  1.0 0.2587913577
H  H188  1  0.76561000  0.47907000  0.55636000  1.0 0.2587913577
H  H189  1  0.95870000  0.31784000  0.05948000  1.0 0.2805629862
H  H190  1  0.31784000  0.95870000  0.44052000  1.0 0.2805629862
H  H191  1  0.04130000  0.68216000  0.94052000  1.0 0.2805629862
H  H192  1  0.68216000  0.04130000  0.55948000  1.0 0.2805629862
H  H193  1  0.98166000  0.39622000  0.05055000  1.0 0.2509270191
H  H194  1  0.39622000  0.98166000  0.44945000  1.0 0.2509270191
H  H195  1  0.01834000  0.60378000  0.94945000  1.0 0.2509270191
H  H196  1  0.60378000  0.01834000  0.55055000  1.0 0.2509270191
H  H197  1  0.01988000  0.39592000  0.15254000  1.0 0.2073926092
H  H198  1  0.39592000  0.01988000  0.34746000  1.0 0.2073926092
H  H199  1  0.98012000  0.60408000  0.84746000  1.0 0.2073926092
H  H200  1  0.60408000  0.98012000  0.65254000  1.0 0.2073926092
H  H201  1  0.03723000  0.33747000  0.16736000  1.0 0.2296728073
H  H202  1  0.33747000  0.03723000  0.33264000  1.0 0.2296728073
H  H203  1  0.96277000  0.66253000  0.83264000  1.0 0.2296728073
H  H204  1  0.66253000  0.96277000  0.66736000  1.0 0.2296728073
H  H205  1  0.49572000  0.06576000  0.05574000  1.0 0.2407607561
H  H206  1  0.06576000  0.49572000  0.44426000  1.0 0.2407607561
H  H207  1  0.50428000  0.93424000  0.94426000  1.0 0.2407607561
H  H208  1  0.93424000  0.50428000  0.55574000  1.0 0.2407607561
H  H209  1  0.68341000  0.48311000  0.79102000  1.0 0.2073926092
H  H210  1  0.48311000  0.68341000  0.70898000  1.0 0.2073926092
H  H211  1  0.31659000  0.51689000  0.20898000  1.0 0.2073926092
H  H212  1  0.51689000  0.31659000  0.29102000  1.0 0.2073926092
H  H213  1  0.62106000  0.42390000  0.81599000  1.0 0.1800199155
H  H214  1  0.42390000  0.62106000  0.68401000  1.0 0.1800199155
H  H215  1  0.37894000  0.57610000  0.18401000  1.0 0.1800199155
H  H216  1  0.57610000  0.37894000  0.31599000  1.0 0.1800199155
H  H217  1  0.52783000  0.08689000  0.00827000  1.0 0.2407607561
H  H218  1  0.08689000  0.52783000  0.49173000  1.0 0.2407607561
H  H219  1  0.47217000  0.91311000  0.99173000  1.0 0.2407607561
H  H220  1  0.91311000  0.47217000  0.50827000  1.0 0.2407607561
C  C1  1  0.73490000  0.36610000  0.21040000  1.0 0.5083593657
C  C2  1  0.36610000  0.73490000  0.28960000  1.0 0.5083593657
C  C3  1  0.26510000  0.63390000  0.78960000  1.0 0.5083593657
C  C4  1  0.63390000  0.26510000  0.71040000  1.0 0.5083593657
C  C5  1  0.73710000  0.40570000  0.24420000  1.0 -0.0521900559
C  C6  1  0.40570000  0.73710000  0.25580000  1.0 -0.0521900559
C  C7  1  0.26290000  0.59430000  0.75580000  1.0 -0.0521900559
C  C8  1  0.59430000  0.26290000  0.74420000  1.0 -0.0521900559
C  C9  1  0.73380000  0.36200000  0.31020000  1.0 -0.190897547
C  C10  1  0.36200000  0.73380000  0.18980000  1.0 -0.190897547
C  C11  1  0.26620000  0.63800000  0.68980000  1.0 -0.190897547
C  C12  1  0.63800000  0.26620000  0.81020000  1.0 -0.190897547
C  C13  1  0.75380000  0.48640000  0.21590000  1.0 -0.1417451645
C  C14  1  0.48640000  0.75380000  0.28410000  1.0 -0.1417451645
C  C15  1  0.24620000  0.51360000  0.78410000  1.0 -0.1417451645
C  C16  1  0.51360000  0.24620000  0.71590000  1.0 -0.1417451645
C  C17  1  0.74750000  0.40310000  0.34570000  1.0 -0.096156239
C  C18  1  0.40310000  0.74750000  0.15430000  1.0 -0.096156239
C  C19  1  0.25250000  0.59690000  0.65430000  1.0 -0.096156239
C  C20  1  0.59690000  0.25250000  0.84570000  1.0 -0.096156239
C  C21  1  0.76550000  0.52830000  0.25000000  1.0 0.0585835479
C  C22  1  0.52830000  0.76550000  0.25000000  1.0 0.0585835479
C  C23  1  0.23450000  0.47170000  0.75000000  1.0 0.0585835479
C  C24  1  0.47170000  0.23450000  0.75000000  1.0 0.0585835479
C  C25  1  0.74380000  0.36120000  0.41490000  1.0 0.4022061979
C  C26  1  0.36120000  0.74380000  0.08510000  1.0 0.4022061979
C  C27  1  0.25620000  0.63880000  0.58510000  1.0 0.4022061979
C  C28  1  0.63880000  0.25620000  0.91490000  1.0 0.4022061979
C  C29  1  0.76340000  0.48540000  0.31660000  1.0 -0.2914616312
C  C30  1  0.48540000  0.76340000  0.18340000  1.0 -0.2914616312
C  C31  1  0.23660000  0.51460000  0.68340000  1.0 -0.2914616312
C  C32  1  0.51460000  0.23660000  0.81660000  1.0 -0.2914616312
C  C33  1  0.77500000  0.61360000  0.21640000  1.0 0.0919005205
C  C34  1  0.61360000  0.77500000  0.28360000  1.0 0.0919005205
C  C35  1  0.22500000  0.38640000  0.78360000  1.0 0.0919005205
C  C36  1  0.38640000  0.22500000  0.71640000  1.0 0.0919005205
C  C37  1  0.73240000  0.63760000  0.15060000  1.0 -0.190897547
C  C38  1  0.63760000  0.73240000  0.34940000  1.0 -0.190897547
C  C39  1  0.26760000  0.36240000  0.84940000  1.0 -0.190897547
C  C40  1  0.36240000  0.26760000  0.65060000  1.0 -0.190897547
C  C41  1  0.83130000  0.67010000  0.25310000  1.0 -0.1703283467
C  C42  1  0.67010000  0.83130000  0.24690000  1.0 -0.1703283467
C  C43  1  0.16870000  0.32990000  0.74690000  1.0 -0.1703283467
C  C44  1  0.32990000  0.16870000  0.75310000  1.0 -0.1703283467
C  C45  1  0.74310000  0.71970000  0.11750000  1.0 0.0717350398
C  C46  1  0.71970000  0.74310000  0.38250000  1.0 0.0717350398
C  C47  1  0.25690000  0.28030000  0.88250000  1.0 0.0717350398
C  C48  1  0.28030000  0.25690000  0.61750000  1.0 0.0717350398
C  C49  1  0.83920000  0.74900000  0.22320000  1.0 -0.1785867905
C  C50  1  0.74900000  0.83920000  0.27680000  1.0 -0.1785867905
C  C51  1  0.16080000  0.25100000  0.77680000  1.0 -0.1785867905
C  C52  1  0.25100000  0.16080000  0.72320000  1.0 -0.1785867905
C  C53  1  0.79160000  0.77440000  0.15420000  1.0 0.0585835479
C  C54  1  0.77440000  0.79160000  0.34580000  1.0 0.0585835479
C  C55  1  0.20840000  0.22560000  0.84580000  1.0 0.0585835479
C  C56  1  0.22560000  0.20840000  0.65420000  1.0 0.0585835479
C  C57  1  0.69380000  0.74300000  0.04880000  1.0 -0.1703283467
C  C58  1  0.74300000  0.69380000  0.45120000  1.0 -0.1703283467
C  C59  1  0.30620000  0.25700000  0.95120000  1.0 -0.1703283467
C  C60  1  0.25700000  0.30620000  0.54880000  1.0 -0.1703283467
C  C61  1  0.79690000  0.85470000  0.12020000  1.0 -0.2212508714
C  C62  1  0.85470000  0.79690000  0.37980000  1.0 -0.2212508714
C  C63  1  0.20310000  0.14530000  0.87980000  1.0 -0.2212508714
C  C64  1  0.14530000  0.20310000  0.62020000  1.0 -0.2212508714
C  C65  1  0.70290000  0.82290000  0.01710000  1.0 -0.1785867905
C  C66  1  0.82290000  0.70290000  0.48290000  1.0 -0.1785867905
C  C67  1  0.29710000  0.17710000  0.98290000  1.0 -0.1785867905
C  C68  1  0.17710000  0.29710000  0.51710000  1.0 -0.1785867905
C  C69  1  0.75550000  0.87990000  0.05330000  1.0 0.0760421907
C  C70  1  0.87990000  0.75550000  0.44670000  1.0 0.0760421907
C  C71  1  0.24450000  0.12010000  0.94670000  1.0 0.0760421907
C  C72  1  0.12010000  0.24450000  0.55330000  1.0 0.0760421907
C  C73  1  0.76650000  0.96490000  0.01750000  1.0 0.0760421907
C  C74  1  0.96490000  0.76650000  0.48250000  1.0 0.0760421907
C  C75  1  0.23350000  0.03510000  0.98250000  1.0 0.0760421907
C  C76  1  0.03510000  0.23350000  0.51750000  1.0 0.0760421907
C  C77  1  0.77300000  0.00720000  0.04820000  1.0 -0.1510419282
C  C78  1  0.00720000  0.77300000  0.45180000  1.0 -0.1510419282
C  C79  1  0.22700000  0.99280000  0.95180000  1.0 -0.1510419282
C  C80  1  0.99280000  0.22700000  0.54820000  1.0 -0.1510419282
C  C81  1  0.76530000  0.00410000  0.95090000  1.0 -0.1572584822
C  C82  1  0.00410000  0.76530000  0.54910000  1.0 -0.1572584822
C  C83  1  0.23470000  0.99590000  0.04910000  1.0 -0.1572584822
C  C84  1  0.99590000  0.23470000  0.45090000  1.0 -0.1572584822
C  C85  1  0.78050000  0.08570000  0.01400000  1.0 -0.0208483463
C  C86  1  0.08570000  0.78050000  0.48600000  1.0 -0.0208483463
C  C87  1  0.21950000  0.91430000  0.98600000  1.0 -0.0208483463
C  C88  1  0.91430000  0.21950000  0.51400000  1.0 -0.0208483463
C  C89  1  0.77530000  0.08290000  0.91650000  1.0 -0.0349075007
C  C90  1  0.08290000  0.77530000  0.58350000  1.0 -0.0349075007
C  C91  1  0.22470000  0.91710000  0.08350000  1.0 -0.0358546465
C  C92  1  0.91710000  0.22470000  0.41650000  1.0 -0.0358546465
C  C93  1  0.78400000  0.12900000  0.04560000  1.0 0.5083593657
C  C94  1  0.12900000  0.78400000  0.45440000  1.0 0.5083593657
C  C95  1  0.21600000  0.87100000  0.95440000  1.0 0.5083593657
C  C96  1  0.87100000  0.21600000  0.54560000  1.0 0.5083593657
C  C97  1  0.78320000  0.12480000  0.94750000  1.0 -0.1510419282
C  C98  1  0.12480000  0.78320000  0.55250000  1.0 -0.1510419282
C  C99  1  0.21680000  0.87520000  0.05250000  1.0 -0.1510419282
C  C100  1  0.87520000  0.21680000  0.44750000  1.0 -0.1510419282
C  C101  1  0.77170000  0.12330000  0.84510000  1.0 0.4897725736
C  C102  1  0.12330000  0.77170000  0.65490000  1.0 0.4897725736
C  C103  1  0.22830000  0.87670000  0.15490000  1.0 0.4897725736
C  C104  1  0.87670000  0.22830000  0.34510000  1.0 0.4897725736
S  S1  1  0.01462000  0.39158000  0.09835000  1.0 0.4990890627
S  S2  1  0.39158000  0.01462000  0.40165000  1.0 0.4990890627
S  S3  1  0.98538000  0.60842000  0.90165000  1.0 0.4990890627
S  S4  1  0.60842000  0.98538000  0.59835000  1.0 0.4990890627
S  S5  1  0.66550000  0.99630000  0.29600000  1.0 0.6633831416
S  S6  1  0.99630000  0.66550000  0.20400000  1.0 0.6633831416
S  S7  1  0.33450000  0.00370000  0.70400000  1.0 0.6633831416
S  S8  1  0.00370000  0.33450000  0.79600000  1.0 0.6633831416
S  S9  1  0.50995000  0.16095000  0.14423000  1.0 0.5700627868
S  S10  1  0.16095000  0.50995000  0.35577000  1.0 0.5700627868
S  S11  1  0.49005000  0.83905000  0.85577000  1.0 0.5700627868
S  S12  1  0.83905000  0.49005000  0.64423000  1.0 0.5700627868
S  S13  1  0.45320000  0.01460000  0.05380000  1.0 0.4897725736
S  S14  1  0.01460000  0.45320000  0.44620000  1.0 0.4897725736
S  S15  1  0.54680000  0.98540000  0.94620000  1.0 0.4897725736
S  S16  1  0.98540000  0.54680000  0.55380000  1.0 0.4897725736
S  S17  1  0.63270000  0.47010000  0.84940000  1.0 0.700146616
S  S18  1  0.47010000  0.63270000  0.65060000  1.0 0.700146616
S  S19  1  0.36730000  0.52990000  0.15060000  1.0 0.700146616
S  S20  1  0.52990000  0.36730000  0.34940000  1.0 0.700146616
S  S21  1  0.69990000  0.00830000  0.31040000  1.0 0.5925343786
S  S22  1  0.00830000  0.69990000  0.18960000  1.0 0.5957010244
S  S23  1  0.30010000  0.99170000  0.68960000  1.0 0.5957010244
S  S24  1  0.99170000  0.30010000  0.81040000  1.0 0.5925343786
S  S25  1  0.44080000  0.95880000  0.16600000  1.0 0.4467689027
S  S26  1  0.95880000  0.44080000  0.33400000  1.0 0.4467689027
S  S27  1  0.55920000  0.04120000  0.83400000  1.0 0.4467689027
S  S28  1  0.04120000  0.55920000  0.66600000  1.0 0.4467689027
S  S29  1  0.60990000  0.39910000  0.99520000  1.0 0.6633831416
S  S30  1  0.39910000  0.60990000  0.50480000  1.0 0.6633831416
S  S31  1  0.39010000  0.60090000  0.00480000  1.0 0.6633831416
S  S32  1  0.60090000  0.39010000  0.49520000  1.0 0.6633831416
S  S33  1  0.57010000  0.03650000  0.05330000  1.0 0.4990890627
S  S34  1  0.03650000  0.57010000  0.44670000  1.0 0.4990890627
S  S35  1  0.42990000  0.96350000  0.94670000  1.0 0.4990890627
S  S36  1  0.96350000  0.42990000  0.55330000  1.0 0.4990890627
S  S37  1  0.88815000  0.50285000  0.98378000  1.0 0.8112031524
S  S38  1  0.50285000  0.88815000  0.51622000  1.0 0.8112031524
S  S39  1  0.11185000  0.49715000  0.01622000  1.0 0.8112031524
S  S40  1  0.49715000  0.11185000  0.48378000  1.0 0.8112031524
S  S41  1  0.91730000  0.10050000  0.28810000  1.0 0.868927524
S  S42  1  0.10050000  0.91730000  0.21190000  1.0 0.8865373586
S  S43  1  0.08270000  0.89950000  0.71190000  1.0 0.8837867235
S  S44  1  0.89950000  0.08270000  0.78810000  1.0 0.868927524
O  O1  1  0.71090000  0.19430000  0.07070000  1.0 -0.9028108413
O  O2  1  0.19430000  0.71090000  0.42930000  1.0 -0.9028108413
O  O3  1  0.28910000  0.80570000  0.92930000  1.0 -0.9028108413
O  O4  1  0.80570000  0.28910000  0.57070000  1.0 -0.9028108413
O  O5  1  0.85940000  0.21440000  0.14180000  1.0 -0.9340889796
O  O6  1  0.21440000  0.85940000  0.35820000  1.0 -0.9385435129
O  O7  1  0.14060000  0.78560000  0.85820000  1.0 -0.9340889796
O  O8  1  0.78560000  0.14060000  0.64180000  1.0 -0.9340889796
O  O9  1  0.85640000  0.34520000  0.10980000  1.0 -0.9601427938
O  O10  1  0.34520000  0.85640000  0.39020000  1.0 -0.9601427938
O  O11  1  0.14360000  0.65480000  0.89020000  1.0 -0.9601427938
O  O12  1  0.65480000  0.14360000  0.60980000  1.0 -0.9601427938
O  O13  1  0.72180000  0.33860000  0.01560000  1.0 -0.8859335924
O  O14  1  0.33860000  0.72180000  0.48440000  1.0 -0.8859335924
O  O15  1  0.27820000  0.66140000  0.98440000  1.0 -0.8859335924
O  O16  1  0.66140000  0.27820000  0.51560000  1.0 -0.8859335924
O  O17  1  0.93240000  0.33640000  0.04030000  1.0 -0.3792230035
O  O18  1  0.33640000  0.93240000  0.45970000  1.0 -0.3792230035
O  O19  1  0.06760000  0.66360000  0.95970000  1.0 -0.3792230035
O  O20  1  0.66360000  0.06760000  0.54030000  1.0 -0.3792230035
O  O21  1  0.84300000  0.42080000  0.95620000  1.0 -0.4222232583
O  O22  1  0.42080000  0.84300000  0.54380000  1.0 -0.4222232583
O  O23  1  0.15700000  0.57920000  0.04380000  1.0 -0.4222232583
O  O24  1  0.57920000  0.15700000  0.45620000  1.0 -0.4222232583
O  O25  1  0.71580000  0.28320000  0.43750000  1.0 -0.6013686801
O  O26  1  0.28320000  0.71580000  0.06250000  1.0 -0.6013686801
O  O27  1  0.28420000  0.71680000  0.56250000  1.0 -0.6013686801
O  O28  1  0.71680000  0.28420000  0.93750000  1.0 -0.6013686801
O  O29  1  0.80620000  0.20520000  0.01870000  1.0 -0.5900964509
O  O30  1  0.20520000  0.80620000  0.48130000  1.0 -0.5900964509
O  O31  1  0.19380000  0.79480000  0.98130000  1.0 -0.5900964509
O  O32  1  0.79480000  0.19380000  0.51870000  1.0 -0.5900964509
O  O33  1  0.79350000  0.18170000  0.21500000  1.0 -0.9694718096
O  O34  1  0.18170000  0.79350000  0.28500000  1.0 -0.9694718096
O  O35  1  0.20650000  0.81830000  0.78500000  1.0 -0.9694718096
O  O36  1  0.81830000  0.20650000  0.71500000  1.0 -0.9694718096
O  O37  1  0.81980000  0.04800000  0.22600000  1.0 -0.3038882757
O  O38  1  0.04800000  0.81980000  0.27400000  1.0 -0.3057380463
O  O39  1  0.18020000  0.95200000  0.77400000  1.0 -0.3057380463
O  O40  1  0.95200000  0.18020000  0.72600000  1.0 -0.3038882757
O  O41  1  0.63950000  0.12370000  0.15170000  1.0 -0.8716967548
O  O42  1  0.12370000  0.63950000  0.34830000  1.0 -0.8716967548
O  O43  1  0.36050000  0.87630000  0.84830000  1.0 -0.8716967548
O  O44  1  0.87630000  0.36050000  0.65170000  1.0 -0.8716967548
O  O45  1  0.68730000  0.00710000  0.24630000  1.0 -0.3409599508
O  O46  1  0.00710000  0.68730000  0.25370000  1.0 -0.3409599508
O  O47  1  0.31270000  0.99290000  0.75370000  1.0 -0.3409599508
O  O48  1  0.99290000  0.31270000  0.74630000  1.0 -0.3409599508
O  O49  1  0.62560000  0.00240000  0.12350000  1.0 -0.4763256604
O  O50  1  0.00240000  0.62560000  0.37650000  1.0 -0.4763256604
O  O51  1  0.37440000  0.99760000  0.87650000  1.0 -0.4763256604
O  O52  1  0.99760000  0.37440000  0.62350000  1.0 -0.4763256604
O  O53  1  0.76230000  0.08470000  0.09760000  1.0 -0.639616623
O  O54  1  0.08470000  0.76230000  0.40240000  1.0 -0.639616623
O  O55  1  0.23770000  0.91530000  0.90240000  1.0 -0.639616623
O  O56  1  0.91530000  0.23770000  0.59760000  1.0 -0.639616623
O  O57  1  0.69080000  0.27540000  0.12030000  1.0 -0.9601427938
O  O58  1  0.27540000  0.69080000  0.37970000  1.0 -0.9694718096
O  O59  1  0.30920000  0.72460000  0.87970000  1.0 -0.9694718096
O  O60  1  0.72460000  0.30920000  0.62030000  1.0 -0.9694718096
O  O61  1  0.51390000  0.17250000  0.08110000  1.0 -0.3308347124
O  O62  1  0.17250000  0.51390000  0.41890000  1.0 -0.3308347124
O  O63  1  0.48610000  0.82750000  0.91890000  1.0 -0.3308347124
O  O64  1  0.82750000  0.48610000  0.58110000  1.0 -0.3308347124
O  O65  1  0.55380000  0.29500000  0.97750000  1.0 -0.2212508714
O  O66  1  0.29500000  0.55380000  0.52250000  1.0 -0.2212508714
O  O67  1  0.44620000  0.70500000  0.02250000  1.0 -0.2212508714
O  O68  1  0.70500000  0.44620000  0.47750000  1.0 -0.2212508714
O  O69  1  0.51550000  0.11050000  0.02050000  1.0 -0.3481154089
O  O70  1  0.11050000  0.51550000  0.47950000  1.0 -0.3481154089
O  O71  1  0.48450000  0.88950000  0.97950000  1.0 -0.3481154089
O  O72  1  0.88950000  0.48450000  0.52050000  1.0 -0.3481154089
O  O73  1  0.76580000  0.40460000  0.44620000  1.0 -0.6189353387
O  O74  1  0.40460000  0.76580000  0.05380000  1.0 -0.6189353387
O  O75  1  0.23420000  0.59540000  0.55380000  1.0 -0.6189353387
O  O76  1  0.59540000  0.23420000  0.94620000  1.0 -0.6189353387
O  O77  1  0.83400000  0.32520000  0.20500000  1.0 -0.9028108413
O  O78  1  0.32520000  0.83400000  0.29500000  1.0 -0.9028108413
O  O79  1  0.16600000  0.67480000  0.79500000  1.0 -0.9028108413
O  O80  1  0.67480000  0.16600000  0.70500000  1.0 -0.9028108413
O  O81  1  0.97590000  0.21230000  0.27380000  1.0 -0.3481154089
O  O82  1  0.21230000  0.97590000  0.22620000  1.0 -0.3554794188
O  O83  1  0.02410000  0.78770000  0.72620000  1.0 -0.3554794188
O  O84  1  0.78770000  0.02410000  0.77380000  1.0 -0.3481154089
O  O85  1  0.00720000  0.39180000  0.23980000  1.0 -0.7491323198
O  O86  1  0.39180000  0.00720000  0.26020000  1.0 -0.7491323198
O  O87  1  0.99280000  0.60820000  0.76020000  1.0 -0.7491323198
O  O88  1  0.60820000  0.99280000  0.73980000  1.0 -0.7491323198
O  O89  1  0.01330000  0.34030000  0.17360000  1.0 -0.4084815974
O  O90  1  0.34030000  0.01330000  0.32640000  1.0 -0.4084815974
O  O91  1  0.98670000  0.65970000  0.82640000  1.0 -0.4084815974
O  O92  1  0.65970000  0.98670000  0.67360000  1.0 -0.4084815974
O  O93  1  0.75090000  0.07730000  0.81540000  1.0 -0.6291988785
O  O94  1  0.07730000  0.75090000  0.68460000  1.0 -0.6291988785
O  O95  1  0.24910000  0.92270000  0.18460000  1.0 -0.6291988785
O  O96  1  0.92270000  0.24910000  0.31540000  1.0 -0.6291988785
O  O97  1  0.75110000  0.40830000  0.15560000  1.0 -0.6291988785
O  O98  1  0.40830000  0.75110000  0.34440000  1.0 -0.6291988785
O  O99  1  0.24890000  0.59170000  0.84440000  1.0 -0.6291988785
O  O100  1  0.59170000  0.24890000  0.65560000  1.0 -0.6291988785
O  O101  1  0.89230000  0.49690000  0.13560000  1.0 -0.7491323198
O  O102  1  0.49690000  0.89230000  0.36440000  1.0 -0.7491323198
O  O103  1  0.10770000  0.50310000  0.86440000  1.0 -0.7491323198
O  O104  1  0.50310000  0.10770000  0.63560000  1.0 -0.7491323198
O  O105  1  0.70800000  0.45380000  0.02740000  1.0 -0.5292683239
O  O106  1  0.45380000  0.70800000  0.47260000  1.0 -0.5292683239
O  O107  1  0.29200000  0.54620000  0.97260000  1.0 -0.5292683239
O  O108  1  0.54620000  0.29200000  0.52740000  1.0 -0.5292683239
O  O109  1  0.84640000  0.49500000  0.01780000  1.0 -0.6013686801
O  O110  1  0.49500000  0.84640000  0.48220000  1.0 -0.6013686801
O  O111  1  0.15360000  0.50500000  0.98220000  1.0 -0.6013686801
O  O112  1  0.50500000  0.15360000  0.51780000  1.0 -0.6013686801
O  O113  1  0.08510000  0.39890000  0.09700000  1.0 -0.1703283467
O  O114  1  0.39890000  0.08510000  0.40300000  1.0 -0.1785867905
O  O115  1  0.91490000  0.60110000  0.90300000  1.0 -0.1785867905
O  O116  1  0.60110000  0.91490000  0.59700000  1.0 -0.1785867905
O  O117  1  0.02260000  0.47080000  0.07800000  1.0 -0.3308347124
O  O118  1  0.47080000  0.02260000  0.42200000  1.0 -0.3308347124
O  O119  1  0.97740000  0.52920000  0.92200000  1.0 -0.3308347124
O  O120  1  0.52920000  0.97740000  0.57800000  1.0 -0.3308347124
O  O121  1  0.58030000  0.15290000  0.20180000  1.0 -0.190897547
O  O122  1  0.15290000  0.58030000  0.29820000  1.0 -0.190897547
O  O123  1  0.41970000  0.84710000  0.79820000  1.0 -0.190897547
O  O124  1  0.84710000  0.41970000  0.70180000  1.0 -0.190897547
O  O125  1  0.71090000  0.28710000  0.23700000  1.0 -0.639616623
O  O126  1  0.28710000  0.71090000  0.26300000  1.0 -0.639616623
O  O127  1  0.28910000  0.71290000  0.76300000  1.0 -0.639616623
O  O128  1  0.71290000  0.28910000  0.73700000  1.0 -0.639616623
O  O129  1  0.67580000  0.07140000  0.29000000  1.0 -0.5710616256
O  O130  1  0.07140000  0.67580000  0.21000000  1.0 -0.5710616256
O  O131  1  0.32420000  0.92860000  0.71000000  1.0 -0.5710616256
O  O132  1  0.92860000  0.32420000  0.79000000  1.0 -0.5710616256
O  O133  1  0.79370000  0.19850000  0.81920000  1.0 -0.5562326755
O  O134  1  0.19850000  0.79370000  0.68080000  1.0 -0.5562326755
O  O135  1  0.20630000  0.80150000  0.18080000  1.0 -0.5562326755
O  O136  1  0.80150000  0.20630000  0.31920000  1.0 -0.5562326755
O  O137  1  0.56890000  0.92850000  0.28230000  1.0 -0.3792230035
O  O138  1  0.92850000  0.56890000  0.21770000  1.0 -0.3792230035
O  O139  1  0.43110000  0.07150000  0.71770000  1.0 -0.3792230035
O  O140  1  0.07150000  0.43110000  0.78230000  1.0 -0.3792230035
O  O141  1  0.71670000  0.96270000  0.36370000  1.0 0.0502833952
O  O142  1  0.96270000  0.71670000  0.13630000  1.0 0.0502833952
O  O143  1  0.28330000  0.03730000  0.63630000  1.0 0.0502833952
O  O144  1  0.03730000  0.28330000  0.86370000  1.0 0.0502833952
O  O145  1  0.50140000  0.22420000  0.13740000  1.0 -0.5507198642
O  O146  1  0.22420000  0.50140000  0.36260000  1.0 -0.5507198642
O  O147  1  0.49860000  0.77580000  0.86260000  1.0 -0.5507198642
O  O148  1  0.77580000  0.49860000  0.63740000  1.0 -0.5507198642
O  O149  1  0.43640000  0.08260000  0.15300000  1.0 -0.2669134657
O  O150  1  0.08260000  0.43640000  0.34700000  1.0 -0.2669134657
O  O151  1  0.56360000  0.91740000  0.84700000  1.0 -0.2669134657
O  O152  1  0.91740000  0.56360000  0.65300000  1.0 -0.2669134657
O  O153  1  0.41220000  0.96720000  0.00730000  1.0 -0.0521900559
O  O154  1  0.96720000  0.41220000  0.49270000  1.0 -0.0521900559
O  O155  1  0.58780000  0.03280000  0.99270000  1.0 -0.0521900559
O  O156  1  0.03280000  0.58780000  0.50730000  1.0 -0.0521900559
O  O157  1  0.39340000  0.02740000  0.05870000  1.0 -0.4222232583
O  O158  1  0.02740000  0.39340000  0.44130000  1.0 -0.4222232583
O  O159  1  0.60660000  0.97260000  0.94130000  1.0 -0.4222232583
O  O160  1  0.97260000  0.60660000  0.55870000  1.0 -0.4222232583
O  O161  1  0.48420000  0.97080000  0.11960000  1.0 -0.0208483463
O  O162  1  0.97080000  0.48420000  0.38040000  1.0 -0.0208483463
O  O163  1  0.51580000  0.02920000  0.88040000  1.0 -0.0208483463
O  O164  1  0.02920000  0.51580000  0.61960000  1.0 -0.0208483463
O  O165  1  0.54050000  0.39670000  0.84930000  1.0 -0.6189353387
O  O166  1  0.39670000  0.54050000  0.65070000  1.0 -0.6189353387
O  O167  1  0.45950000  0.60330000  0.15070000  1.0 -0.6189353387
O  O168  1  0.60330000  0.45950000  0.34930000  1.0 -0.6189353387
O  O169  1  0.63470000  0.52230000  0.78530000  1.0 -0.2669134657
O  O170  1  0.52230000  0.63470000  0.71470000  1.0 -0.2669134657
O  O171  1  0.36530000  0.47770000  0.21470000  1.0 -0.2669134657
O  O172  1  0.47770000  0.36530000  0.28530000  1.0 -0.2669134657
O  O173  1  0.68030000  0.42950000  0.88580000  1.0 -0.2771387095
O  O174  1  0.42950000  0.68030000  0.61420000  1.0 -0.2771387095
O  O175  1  0.31970000  0.57050000  0.11420000  1.0 -0.2771387095
O  O176  1  0.57050000  0.31970000  0.38580000  1.0 -0.2771387095
O  O177  1  0.67250000  0.53030000  0.89310000  1.0 -0.3904912566
O  O178  1  0.53030000  0.67250000  0.60690000  1.0 -0.3904912566
O  O179  1  0.32750000  0.46970000  0.10690000  1.0 -0.3904912566
O  O180  1  0.46970000  0.32750000  0.39310000  1.0 -0.3904912566
O  O181  1  0.87690000  0.98710000  0.36690000  1.0 -0.2637934606
O  O182  1  0.98710000  0.87690000  0.13310000  1.0 -0.2637934606
O  O183  1  0.12310000  0.01290000  0.63310000  1.0 -0.2637934606
O  O184  1  0.01290000  0.12310000  0.86690000  1.0 -0.2637934606
O  O185  1  0.52930000  0.36470000  0.02180000  1.0 -0.1417451645
O  O186  1  0.36470000  0.52930000  0.47820000  1.0 -0.1417451645
O  O187  1  0.47070000  0.63530000  0.97820000  1.0 -0.1417451645
O  O188  1  0.63530000  0.47070000  0.52180000  1.0 -0.1417451645
O  O189  1  0.42170000  0.92350000  0.21380000  1.0 -0.0208483463
O  O190  1  0.92350000  0.42170000  0.28620000  1.0 -0.0208483463
O  O191  1  0.57830000  0.07650000  0.78620000  1.0 -0.0208483463
O  O192  1  0.07650000  0.57830000  0.71380000  1.0 -0.0208483463
O  O193  1  0.71100000  0.01220000  0.24880000  1.0 -0.3904912566
O  O194  1  0.01220000  0.71100000  0.25120000  1.0 -0.3904912566
O  O195  1  0.28900000  0.98780000  0.75120000  1.0 -0.3904912566
O  O196  1  0.98780000  0.28900000  0.74880000  1.0 -0.3904912566
O  O197  1  0.63450000  0.92690000  0.33450000  1.0 -0.1510419282
O  O198  1  0.92690000  0.63450000  0.16550000  1.0 -0.1510419282
O  O199  1  0.36550000  0.07310000  0.66550000  1.0 -0.1510419282
O  O200  1  0.07310000  0.36550000  0.83450000  1.0 -0.1510419282
O  O201  1  0.77630000  0.01590000  0.36250000  1.0 -0.1785867905
O  O202  1  0.01590000  0.77630000  0.13750000  1.0 -0.1785867905
O  O203  1  0.22370000  0.98410000  0.63750000  1.0 -0.1785867905
O  O204  1  0.98410000  0.22370000  0.86250000  1.0 -0.1785867905
O  O205  1  0.68160000  0.07280000  0.29010000  1.0 -0.5507198642
O  O206  1  0.07280000  0.68160000  0.20990000  1.0 -0.5507198642
O  O207  1  0.31840000  0.92720000  0.70990000  1.0 -0.5507198642
O  O208  1  0.92720000  0.31840000  0.79010000  1.0 -0.5507198642
O  O209  1  0.41440000  0.92960000  0.11360000  1.0 -0.1177041079
O  O210  1  0.92960000  0.41440000  0.38640000  1.0 -0.1177041079
O  O211  1  0.58560000  0.07040000  0.88640000  1.0 -0.1177041079
O  O212  1  0.07040000  0.58560000  0.61360000  1.0 -0.1177041079
O  O213  1  0.38680000  0.88640000  0.20760000  1.0 -0.190897547
O  O214  1  0.88640000  0.38680000  0.29240000  1.0 -0.190897547
O  O215  1  0.61320000  0.11360000  0.79240000  1.0 -0.190897547
O  O216  1  0.11360000  0.61320000  0.70760000  1.0 -0.190897547
O  O217  1  0.51590000  0.97590000  0.18310000  1.0 -0.2495184964
O  O218  1  0.97590000  0.51590000  0.31690000  1.0 -0.2495184964
O  O219  1  0.48410000  0.02410000  0.81690000  1.0 -0.2495184964
O  O220  1  0.02410000  0.48410000  0.68310000  1.0 -0.2495184964
O  O221  1  0.42900000  0.02500000  0.15150000  1.0 -0.110173265
O  O222  1  0.02500000  0.42900000  0.34850000  1.0 -0.110173265
O  O223  1  0.57100000  0.97500000  0.84850000  1.0 -0.110173265
O  O224  1  0.97500000  0.57100000  0.65150000  1.0 -0.110173265
O  O225  1  0.59210000  0.46590000  0.92030000  1.0 -0.320374995
O  O226  1  0.46590000  0.59210000  0.57970000  1.0 -0.320374995
O  O227  1  0.40790000  0.53410000  0.07970000  1.0 -0.320374995
O  O228  1  0.53410000  0.40790000  0.42030000  1.0 -0.320374995
O  O229  1  0.58420000  0.32120000  0.98970000  1.0 -0.190897547
O  O230  1  0.32120000  0.58420000  0.51030000  1.0 -0.190897547
O  O231  1  0.41580000  0.67880000  0.01030000  1.0 -0.190897547
O  O232  1  0.67880000  0.41580000  0.48970000  1.0 -0.190897547
O  O233  1  0.69640000  0.43620000  0.02430000  1.0 -0.5034304108
O  O234  1  0.43620000  0.69640000  0.47570000  1.0 -0.5034304108
O  O235  1  0.30360000  0.56380000  0.97570000  1.0 -0.5034304108
O  O236  1  0.56380000  0.30360000  0.52430000  1.0 -0.5034304108
O  O237  1  0.56870000  0.38330000  0.03380000  1.0 -0.110173265
O  O238  1  0.38330000  0.56870000  0.46620000  1.0 -0.110173265
O  O239  1  0.43130000  0.61670000  0.96620000  1.0 -0.110173265
O  O240  1  0.61670000  0.43130000  0.53380000  1.0 -0.110173265
O  O241  1  0.84070000  0.06130000  0.24080000  1.0 -0.2495184964
O  O242  1  0.06130000  0.84070000  0.25920000  1.0 -0.2495184964
O  O243  1  0.15930000  0.93870000  0.75920000  1.0 -0.2495184964
O  O244  1  0.93870000  0.15930000  0.74080000  1.0 -0.2495184964
O  O245  1  0.91750000  0.07250000  0.35990000  1.0 -0.2669134657
O  O246  1  0.07250000  0.91750000  0.14010000  1.0 -0.2669134657
O  O247  1  0.08250000  0.92750000  0.64010000  1.0 -0.2669134657
O  O248  1  0.92750000  0.08250000  0.85990000  1.0 -0.2669134657
O  O249  1  0.97850000  0.07350000  0.30490000  1.0 -0.5900964509
O  O250  1  0.07350000  0.97850000  0.19510000  1.0 -0.5900964509
O  O251  1  0.02150000  0.92650000  0.69510000  1.0 -0.5900964509
O  O252  1  0.92650000  0.02150000  0.80490000  1.0 -0.5900964509
O  O253  1  0.96310000  0.19110000  0.26860000  1.0 -0.2914616312
O  O254  1  0.19110000  0.96310000  0.23140000  1.0 -0.2914616312
O  O255  1  0.03690000  0.80890000  0.73140000  1.0 -0.2914616312
O  O256  1  0.80890000  0.03690000  0.76860000  1.0 -0.2914616312
O  O257  1  0.60860000  0.06760000  0.99720000  1.0 -0.0718865288
O  O258  1  0.06760000  0.60860000  0.50280000  1.0 -0.0718865288
O  O259  1  0.39140000  0.93240000  0.00280000  1.0 -0.0718865288
O  O260  1  0.93240000  0.39140000  0.49720000  1.0 -0.0718865288
O  O261  1  0.49580000  0.95640000  0.05270000  1.0 -0.2212508714
O  O262  1  0.95640000  0.49580000  0.44730000  1.0 -0.2212508714
O  O263  1  0.50420000  0.04360000  0.94730000  1.0 -0.2212508714
O  O264  1  0.04360000  0.50420000  0.55270000  1.0 -0.2212508714
O  O265  1  0.63250000  0.02450000  0.11580000  1.0 -0.4737680103
O  O266  1  0.02450000  0.63250000  0.38420000  1.0 -0.4737680103
O  O267  1  0.36750000  0.97550000  0.88420000  1.0 -0.4737680103
O  O268  1  0.97550000  0.36750000  0.61580000  1.0 -0.4737680103
O  O269  1  0.55110000  0.09650000  0.04170000  1.0 -0.0521900559
O  O270  1  0.09650000  0.55110000  0.45830000  1.0 -0.0521900559
O  O271  1  0.44890000  0.90350000  0.95830000  1.0 -0.0521900559
O  O272  1  0.90350000  0.44890000  0.54170000  1.0 -0.0521900559
O  O273  1  0.60130000  0.15870000  0.22310000  1.0 -0.2375920857
O  O274  1  0.15870000  0.60130000  0.27690000  1.0 -0.2375920857
O  O275  1  0.39870000  0.84130000  0.77690000  1.0 -0.2375920857
O  O276  1  0.84130000  0.39870000  0.72310000  1.0 -0.2375920857
O  O277  1  0.53710000  0.19390000  0.08360000  1.0 -0.3792230035
O  O278  1  0.19390000  0.53710000  0.41640000  1.0 -0.3792230035
O  O279  1  0.46290000  0.80610000  0.91640000  1.0 -0.3792230035
O  O280  1  0.80610000  0.46290000  0.58360000  1.0 -0.3792230035
O  O281  1  0.93950000  0.34850000  0.05160000  1.0 -0.3725819956
O  O282  1  0.34850000  0.93950000  0.44840000  1.0 -0.3725819956
O  O283  1  0.06050000  0.65150000  0.94840000  1.0 -0.3725819956
O  O284  1  0.65150000  0.06050000  0.55160000  1.0 -0.3725819956
O  O285  1  0.99790000  0.34610000  0.15640000  1.0 -0.3904912566
O  O286  1  0.34610000  0.99790000  0.34360000  1.0 -0.3904912566
O  O287  1  0.00210000  0.65390000  0.84360000  1.0 -0.3904912566
O  O288  1  0.65390000  0.00210000  0.65640000  1.0 -0.3904912566
O  O289  1  0.85410000  0.41630000  0.97550000  1.0 -0.4305489357
O  O290  1  0.41630000  0.85410000  0.52450000  1.0 -0.4305489357
O  O291  1  0.14590000  0.58370000  0.02450000  1.0 -0.4305489357
O  O292  1  0.58370000  0.14590000  0.47550000  1.0 -0.4305489357
O  O293  1  0.84130000  0.49150000  0.01740000  1.0 -0.6291988785
O  O294  1  0.49150000  0.84130000  0.48260000  1.0 -0.6291988785
O  O295  1  0.15870000  0.50850000  0.98260000  1.0 -0.6291988785
O  O296  1  0.50850000  0.15870000  0.51740000  1.0 -0.6291988785
O  O297  1  0.97030000  0.52030000  0.02740000  1.0 -0.320374995
O  O298  1  0.52030000  0.97030000  0.47260000  1.0 -0.320374995
O  O299  1  0.02970000  0.47970000  0.97260000  1.0 -0.320374995
O  O300  1  0.47970000  0.02970000  0.52740000  1.0 -0.320374995
O  O301  1  0.88370000  0.56650000  0.91990000  1.0 -0.1572584822
O  O302  1  0.56650000  0.88370000  0.58010000  1.0 -0.1572584822
O  O303  1  0.11630000  0.43350000  0.08010000  1.0 -0.1572584822
O  O304  1  0.43350000  0.11630000  0.41990000  1.0 -0.1572584822
O  O305  1  0.51600000  0.09600000  0.02900000  1.0 -0.2669134657
O  O306  1  0.09600000  0.51600000  0.47100000  1.0 -0.2669134657
O  O307  1  0.48400000  0.90400000  0.97100000  1.0 -0.2669134657
O  O308  1  0.90400000  0.48400000  0.52900000  1.0 -0.2669134657
O  O309  1  0.66770000  0.46430000  0.82370000  1.0 -0.0107483565
O  O310  1  0.46430000  0.66770000  0.67630000  1.0 -0.0107483565
O  O311  1  0.33230000  0.53570000  0.17630000  1.0 -0.0107483565
O  O312  1  0.53570000  0.33230000  0.32370000  1.0 -0.0107483565
