# DDEC6 charges by PACMAN v1.1 (https://github.com/mtap-research/PACMAN-charge/)
data_DIRPIF_ASR_pacman
_symmetry_space_group_name_H-M   'P 1'
_cell_length_a   16.15800000
_cell_length_b   18.17100000
_cell_length_c   18.95500000
_cell_angle_alpha   99.19000000
_cell_angle_beta   106.28000000
_cell_angle_gamma   116.34000000
_symmetry_Int_Tables_number   1
_chemical_formula_structural   Zn5H72C132(NO6)4
_chemical_formula_sum   'Zn5 H72 C132 N4 O24'
_cell_volume   4518.92528115
_cell_formula_units_Z   1
loop_
 _symmetry_equiv_pos_site_id
 _symmetry_equiv_pos_as_xyz
  1  'x, y, z'
loop_
 _atom_site_type_symbol
 _atom_site_label
 _atom_site_symmetry_multiplicity
 _atom_site_fract_x
 _atom_site_fract_y
 _atom_site_fract_z
 _atom_site_occupancy
 _atom_site_charge
Zn  Zn1  1  0.30431000  0.87873000  0.21282000  1.0 0.9429237391
Zn  Zn2  1  0.69569000  0.12127000  0.78718000  1.0 0.9429237391
Zn  Zn3  1  0.15344000  0.86212000  0.01036000  1.0 0.9588557924
Zn  Zn4  1  0.84656000  0.13788000  0.98964000  1.0 0.9588557924
Zn  Zn5  1  0.00000000  0.00000000  0.00000000  1.0 1.0364167238
H  H1  1  0.63950000  0.63120000  0.06550000  1.0 0.1290277178
H  H2  1  0.36050000  0.36880000  0.93450000  1.0 0.1290277178
H  H3  1  0.44290000  0.81900000  0.14120000  1.0 0.1290277178
H  H4  1  0.55710000  0.18100000  0.85880000  1.0 0.1290277178
H  H5  1  0.00540000  0.68780000  0.19940000  1.0 0.1363269334
H  H6  1  0.99460000  0.31220000  0.80060000  1.0 0.1363269334
H  H7  1  0.37470000  0.69300000  0.28760000  1.0 0.1290277178
H  H8  1  0.62530000  0.30700000  0.71240000  1.0 0.1290277178
H  H9  1  0.38500000  0.50470000  0.04350000  1.0 0.1290277178
H  H10  1  0.61500000  0.49530000  0.95650000  1.0 0.1290277178
H  H11  1  0.57990000  0.79350000  0.20570000  1.0 0.1290277178
H  H12  1  0.42010000  0.20650000  0.79430000  1.0 0.1290277178
H  H13  1  0.25150000  0.53340000  0.97440000  1.0 0.1211686358
H  H14  1  0.74850000  0.46660000  0.02560000  1.0 0.1211686358
H  H15  1  0.77320000  0.72640000  0.02770000  1.0 0.1211686358
H  H16  1  0.22680000  0.27360000  0.97230000  1.0 0.1211686358
H  H17  1  0.56860000  0.42000000  0.50050000  1.0 0.1211686358
H  H18  1  0.43140000  0.58000000  0.49950000  1.0 0.1211686358
H  H19  1  0.64050000  0.66120000  0.55210000  1.0 0.1290277178
H  H20  1  0.35950000  0.33880000  0.44790000  1.0 0.1290277178
H  H21  1  0.40700000  0.46580000  0.18070000  1.0 0.1290277178
H  H22  1  0.59300000  0.53420000  0.81930000  1.0 0.1290277178
H  H23  1  0.94540000  0.69820000  0.78200000  1.0 0.1290277178
H  H24  1  0.05460000  0.30180000  0.21800000  1.0 0.1290277178
H  H25  1  0.93640000  0.79750000  0.04310000  1.0 0.1290277178
H  H26  1  0.06360000  0.20250000  0.95690000  1.0 0.1290277178
H  H27  1  0.86560000  0.58020000  0.22890000  1.0 0.1211686358
H  H28  1  0.13440000  0.41980000  0.77110000  1.0 0.1211686358
H  H29  1  0.36190000  0.55590000  0.30530000  1.0 0.1290277178
H  H30  1  0.63810000  0.44410000  0.69470000  1.0 0.1290277178
H  H31  1  0.48510000  0.26650000  0.50250000  1.0 0.1211686358
H  H32  1  0.51490000  0.73350000  0.49750000  1.0 0.1211686358
H  H33  1  0.29830000  0.32500000  0.15580000  1.0 0.1290277178
H  H34  1  0.70170000  0.67500000  0.84420000  1.0 0.1290277178
H  H35  1  0.18980000  0.62470000  0.96300000  1.0 0.1290277178
H  H36  1  0.81020000  0.37530000  0.03700000  1.0 0.1290277178
H  H37  1  0.56030000  0.40420000  0.07210000  1.0 0.1290277178
H  H38  1  0.43970000  0.59580000  0.92790000  1.0 0.1290277178
H  H39  1  0.70920000  0.77290000  0.68080000  1.0 0.1211686358
H  H40  1  0.29080000  0.22710000  0.31920000  1.0 0.1211686358
H  H41  1  0.63670000  0.70080000  0.22020000  1.0 0.1290277178
H  H42  1  0.36330000  0.29920000  0.77980000  1.0 0.1290277178
H  H43  1  0.43480000  0.15960000  0.24730000  1.0 0.1290277178
H  H44  1  0.56520000  0.84040000  0.75270000  1.0 0.1290277178
H  H45  1  0.23490000  0.17170000  0.09600000  1.0 0.1211686358
H  H46  1  0.76510000  0.82830000  0.90400000  1.0 0.1211686358
H  H47  1  0.70420000  0.51750000  0.21990000  1.0 0.1363269334
H  H48  1  0.29580000  0.48250000  0.78010000  1.0 0.1363269334
H  H49  1  0.40790000  0.12030000  0.44240000  1.0 0.1290277178
H  H50  1  0.59210000  0.87970000  0.55760000  1.0 0.1290277178
H  H51  1  0.82480000  0.84490000  0.80740000  1.0 0.1211686358
H  H52  1  0.17520000  0.15510000  0.19260000  1.0 0.1211686358
H  H53  1  0.58720000  0.46060000  0.30240000  1.0 0.1211686358
H  H54  1  0.41280000  0.53940000  0.69760000  1.0 0.1211686358
H  H55  1  0.43570000  0.48300000  0.35630000  1.0 0.1290277178
H  H56  1  0.56430000  0.51700000  0.64370000  1.0 0.1290277178
H  H57  1  0.70710000  0.70080000  0.43820000  1.0 0.1363269334
H  H58  1  0.29290000  0.29920000  0.56180000  1.0 0.1363269334
H  H59  1  0.87690000  0.58580000  0.64960000  1.0 0.1211686358
H  H60  1  0.12310000  0.41420000  0.35040000  1.0 0.1211686358
H  H61  1  0.51530000  0.31500000  0.24290000  1.0 0.1211686358
H  H62  1  0.48470000  0.68500000  0.75710000  1.0 0.1211686358
H  H63  1  0.76630000  0.51890000  0.52360000  1.0 0.1290277178
H  H64  1  0.23370000  0.48110000  0.47640000  1.0 0.1290277178
H  H65  1  0.72190000  0.83640000  0.42030000  1.0 0.1290277178
H  H66  1  0.27810000  0.16360000  0.57970000  1.0 0.1290277178
H  H67  1  0.38820000  0.10050000  0.00000000  1.0 0.1290277178
H  H68  1  0.61180000  0.89950000  0.00000000  1.0 0.1290277178
H  H69  1  0.64540000  0.91270000  0.37840000  1.0 0.1211686358
H  H70  1  0.35460000  0.08730000  0.62160000  1.0 0.1211686358
H  H71  1  0.50150000  0.24380000  0.01730000  1.0 0.1211686358
H  H72  1  0.49850000  0.75620000  0.98270000  1.0 0.1211686358
C  C1  1  0.96470000  0.82080000  0.89230000  1.0 0.5985786314
C  C2  1  0.03530000  0.17920000  0.10770000  1.0 0.5985786314
C  C3  1  0.26960000  0.79080000  0.05120000  1.0 0.5908716763
C  C4  1  0.73040000  0.20920000  0.94880000  1.0 0.5908716763
C  C5  1  0.36300000  0.02890000  0.29880000  1.0 0.5511482502
C  C6  1  0.63700000  0.97110000  0.70120000  1.0 0.5511482502
C  C7  1  0.22900000  0.03130000  0.03460000  1.0 0.5985786314
C  C8  1  0.77100000  0.96870000  0.96540000  1.0 0.5985786314
C  C9  1  0.68580000  0.62290000  0.09990000  1.0 -0.2463350674
C  C10  1  0.31420000  0.37710000  0.90010000  1.0 -0.2463350674
C  C11  1  0.40400000  0.76130000  0.10870000  1.0 -0.1312072058
C  C12  1  0.59600000  0.23870000  0.89130000  1.0 -0.1312072058
C  C13  1  0.95820000  0.69530000  0.16520000  1.0 -0.1392899071
C  C14  1  0.04180000  0.30470000  0.83480000  1.0 -0.1392899071
C  C15  1  0.44400000  0.72140000  0.31460000  1.0 -0.1392899071
C  C16  1  0.55600000  0.27860000  0.68540000  1.0 -0.1392899071
C  C17  1  0.38310000  0.61800000  0.06640000  1.0 0.0892784889
C  C18  1  0.61690000  0.38200000  0.93360000  1.0 0.0892784889
C  C19  1  0.85550000  0.64920000  0.15670000  1.0 0.0590235269
C  C20  1  0.14450000  0.35080000  0.84330000  1.0 0.0590235269
C  C21  1  0.78660000  0.66370000  0.10540000  1.0 0.0892784889
C  C22  1  0.21340000  0.33630000  0.89460000  1.0 0.0892784889
C  C23  1  0.65570000  0.57230000  0.14340000  1.0 0.1764028564
C  C24  1  0.34430000  0.42770000  0.85660000  1.0 0.1764028564
C  C25  1  0.42300000  0.56240000  0.07590000  1.0 -0.2463350674
C  C26  1  0.57700000  0.43760000  0.92410000  1.0 -0.2463350674
C  C27  1  0.51130000  0.30630000  0.41210000  1.0 0.0800030823
C  C28  1  0.48870000  0.69370000  0.58790000  1.0 0.0800030823
C  C29  1  0.44200000  0.70550000  0.11640000  1.0 0.0590235269
C  C30  1  0.55800000  0.29450000  0.88360000  1.0 0.0590235269
C  C31  1  0.53980000  0.73560000  0.17370000  1.0 -0.0992417238
C  C32  1  0.46020000  0.26440000  0.82630000  1.0 -0.0992417238
C  C33  1  0.28950000  0.59020000  0.00880000  1.0 -0.1690627639
C  C34  1  0.71050000  0.40980000  0.99120000  1.0 -0.1690627639
C  C35  1  0.51560000  0.59220000  0.13160000  1.0 0.1705321714
C  C36  1  0.48440000  0.40780000  0.86840000  1.0 0.1705321714
C  C37  1  0.81940000  0.71870000  0.06290000  1.0 -0.1498685435
C  C38  1  0.18060000  0.28130000  0.93710000  1.0 -0.1498685435
C  C39  1  0.55740000  0.39840000  0.44870000  1.0 -0.2324172822
C  C40  1  0.44260000  0.60160000  0.55130000  1.0 -0.2324172822
C  C41  1  0.49460000  0.44940000  0.12660000  1.0 0.1764028564
C  C42  1  0.50540000  0.55060000  0.87340000  1.0 0.1764028564
C  C43  1  0.98760000  0.74960000  0.12440000  1.0 -0.0119690246
C  C44  1  0.01240000  0.25040000  0.87560000  1.0 -0.0119690246
C  C45  1  0.68930000  0.64740000  0.57190000  1.0 -0.2324172822
C  C46  1  0.31070000  0.35260000  0.42810000  1.0 -0.2324172822
C  C47  1  0.09590000  0.80290000  0.13750000  1.0 0.5908716763
C  C48  1  0.90410000  0.19710000  0.86250000  1.0 0.5908716763
C  C49  1  0.41440000  0.42360000  0.15310000  1.0 -0.1802036599
C  C50  1  0.58560000  0.57640000  0.84690000  1.0 -0.1802036599
C  C51  1  0.49410000  0.27410000  0.33470000  1.0 0.0590235269
C  C52  1  0.50590000  0.72590000  0.66530000  1.0 0.0590235269
C  C53  1  0.45530000  0.85610000  0.29330000  1.0 0.5511482502
C  C54  1  0.54470000  0.14390000  0.70670000  1.0 0.5511482502
C  C55  1  0.89750000  0.71250000  0.76120000  1.0 -0.1392899071
C  C56  1  0.10250000  0.28750000  0.23880000  1.0 -0.1392899071
C  C57  1  0.75790000  0.69150000  0.65110000  1.0 0.0954197491
C  C58  1  0.24210000  0.30850000  0.34890000  1.0 0.0954197491
C  C59  1  0.58440000  0.45370000  0.40880000  1.0 0.1705321714
C  C60  1  0.41560000  0.54630000  0.59120000  1.0 0.1705321714
C  C61  1  0.91630000  0.76090000  0.07170000  1.0 -0.090868969
C  C62  1  0.08370000  0.23910000  0.92830000  1.0 -0.090868969
C  C63  1  0.82120000  0.59250000  0.19730000  1.0 -0.1221944322
C  C64  1  0.17880000  0.40750000  0.80270000  1.0 -0.1221944322
C  C65  1  0.43130000  0.58560000  0.33290000  1.0 -0.1392899071
C  C66  1  0.56870000  0.41440000  0.66710000  1.0 -0.1392899071
C  C67  1  0.35940000  0.27520000  0.09890000  1.0 0.0590235269
C  C68  1  0.64060000  0.72480000  0.90110000  1.0 0.0590235269
C  C69  1  0.47600000  0.24590000  0.45110000  1.0 -0.1613120789
C  C70  1  0.52400000  0.75410000  0.54890000  1.0 -0.1613120789
C  C71  1  0.35040000  0.34010000  0.13870000  1.0 -0.1113920403
C  C72  1  0.64960000  0.65990000  0.86130000  1.0 -0.1113920403
C  C73  1  0.89450000  0.77540000  0.80680000  1.0 -0.0236627781
C  C74  1  0.10550000  0.22460000  0.19320000  1.0 -0.0236627781
C  C75  1  0.25240000  0.64470000  0.00170000  1.0 -0.0992417238
C  C76  1  0.74760000  0.35530000  0.99830000  1.0 -0.0992417238
C  C77  1  0.50770000  0.38750000  0.08870000  1.0 -0.2406076235
C  C78  1  0.49230000  0.61250000  0.91130000  1.0 -0.2406076235
C  C79  1  0.44210000  0.29820000  0.07440000  1.0 0.0892784889
C  C80  1  0.55790000  0.70180000  0.92560000  1.0 0.0892784889
C  C81  1  0.69300000  0.58620000  0.52500000  1.0 0.1705321714
C  C82  1  0.30700000  0.41380000  0.47500000  1.0 0.1705321714
C  C83  1  0.75670000  0.75760000  0.70020000  1.0 -0.1498685435
C  C84  1  0.24330000  0.24240000  0.29980000  1.0 -0.1498685435
C  C85  1  0.82900000  0.66760000  0.68180000  1.0 0.0590235269
C  C86  1  0.17100000  0.33240000  0.31820000  1.0 0.0590235269
C  C87  1  0.30970000  0.73170000  0.05350000  1.0 -0.0236627781
C  C88  1  0.69030000  0.26830000  0.94650000  1.0 -0.0283975097
C  C89  1  0.57400000  0.68070000  0.18160000  1.0 -0.1690627639
C  C90  1  0.42600000  0.31930000  0.81840000  1.0 -0.1690627639
C  C91  1  0.44470000  0.18140000  0.29870000  1.0 -0.1392899071
C  C92  1  0.55530000  0.81860000  0.70130000  1.0 -0.1392899071
C  C93  1  0.29010000  0.18730000  0.08270000  1.0 -0.1498685435
C  C94  1  0.70990000  0.81270000  0.91730000  1.0 -0.1498685435
C  C95  1  0.49990000  0.80710000  0.32630000  1.0 -0.0283975097
C  C96  1  0.50010000  0.19290000  0.67370000  1.0 -0.0283975097
C  C97  1  0.72500000  0.55480000  0.19200000  1.0 -0.1802036599
C  C98  1  0.27500000  0.44520000  0.80800000  1.0 -0.1802036599
C  C99  1  0.42890000  0.15820000  0.41490000  1.0 -0.0992417238
C  C100  1  0.57110000  0.84180000  0.58510000  1.0 -0.0992417238
C  C101  1  0.41190000  0.12480000  0.33710000  1.0 0.0007581871
C  C102  1  0.58810000  0.87520000  0.66290000  1.0 0.0007581871
C  C103  1  0.30400000  0.12460000  0.04740000  1.0 -0.0119690246
C  C104  1  0.69600000  0.87540000  0.95260000  1.0 -0.0119690246
C  C105  1  0.82490000  0.79990000  0.77620000  1.0 -0.1113920403
C  C106  1  0.17510000  0.20010000  0.22380000  1.0 -0.1113920403
C  C107  1  0.56830000  0.42220000  0.32980000  1.0 -0.1802036599
C  C108  1  0.43170000  0.57780000  0.67020000  1.0 -0.1802036599
C  C109  1  0.47510000  0.54180000  0.36340000  1.0 -0.19649078
C  C110  1  0.52490000  0.45820000  0.63660000  1.0 -0.19649078
C  C111  1  0.63750000  0.67230000  0.41300000  1.0 -0.2406076235
C  C112  1  0.36250000  0.32770000  0.58700000  1.0 -0.2406076235
C  C113  1  0.82990000  0.60180000  0.63070000  1.0 -0.1312072058
C  C114  1  0.17010000  0.39820000  0.36930000  1.0 -0.1312072058
C  C115  1  0.59430000  0.71950000  0.38350000  1.0 0.0892784889
C  C116  1  0.40570000  0.28050000  0.61650000  1.0 0.0892784889
C  C117  1  0.52510000  0.33530000  0.29450000  1.0 -0.1312072058
C  C118  1  0.47490000  0.66470000  0.70550000  1.0 -0.1312072058
C  C119  1  0.58180000  0.58700000  0.40640000  1.0 0.1764028564
C  C120  1  0.41820000  0.41300000  0.59360000  1.0 0.1764028564
C  C121  1  0.76460000  0.56220000  0.55550000  1.0 -0.1690627639
C  C122  1  0.23540000  0.43780000  0.44450000  1.0 -0.1690627639
C  C123  1  0.48770000  0.67300000  0.34200000  1.0 0.0535949613
C  C124  1  0.51230000  0.32700000  0.65800000  1.0 0.0535949613
C  C125  1  0.65220000  0.80770000  0.39490000  1.0 -0.1802036599
C  C126  1  0.34780000  0.19230000  0.60510000  1.0 -0.1802036599
C  C127  1  0.38120000  0.14500000  0.02410000  1.0 -0.0992417238
C  C128  1  0.61880000  0.85500000  0.97590000  1.0 -0.0992417238
C  C129  1  0.60690000  0.85320000  0.36860000  1.0 -0.090868969
C  C130  1  0.39310000  0.14680000  0.63140000  1.0 -0.090868969
C  C131  1  0.45060000  0.23110000  0.03540000  1.0 -0.1613120789
C  C132  1  0.54940000  0.76890000  0.96460000  1.0 -0.1613120789
N  N1  1  0.55840000  0.53900000  0.14270000  1.0 -0.1613120789
N  N2  1  0.44160000  0.46100000  0.85730000  1.0 -0.1613120789
N  N3  1  0.62760000  0.54550000  0.44420000  1.0 -0.1690627639
N  N4  1  0.37240000  0.45450000  0.55580000  1.0 -0.1690627639
O  O1  1  0.31520000  0.86159000  0.10803000  1.0 -0.5643285965
O  O2  1  0.68480000  0.13841000  0.89197000  1.0 -0.5657988643
O  O3  1  0.11800000  0.85430000  0.10080000  1.0 -0.5469054436
O  O4  1  0.88200000  0.14570000  0.89920000  1.0 -0.5469054436
O  O5  1  0.19220000  0.77144000  0.99398000  1.0 -0.5196520542
O  O6  1  0.80780000  0.22856000  0.00602000  1.0 -0.5196520542
O  O7  1  0.94870000  0.86600000  0.93638000  1.0 -0.5657988643
O  O8  1  0.05130000  0.13400000  0.06362000  1.0 -0.5657988643
O  O9  1  0.15970000  0.79779000  0.18820000  1.0 -0.4979753003
O  O10  1  0.84030000  0.20221000  0.81180000  1.0 -0.4979753003
O  O11  1  0.35910000  0.00470000  0.23280000  1.0 -0.4979753003
O  O12  1  0.64090000  0.99530000  0.76720000  1.0 -0.4979753003
O  O13  1  0.03700000  0.80540000  0.91172000  1.0 -0.5405249898
O  O14  1  0.96300000  0.19460000  0.08828000  1.0 -0.5405249898
O  O15  1  0.35780000  0.81680000  0.26639000  1.0 -0.5405249898
O  O16  1  0.64220000  0.18320000  0.73361000  1.0 -0.5405249898
O  O17  1  0.14930000  0.01120000  0.04520000  1.0 -0.5827439283
O  O18  1  0.85070000  0.98880000  0.95480000  1.0 -0.5827439283
O  O19  1  0.50620000  0.92680000  0.28810000  1.0 -0.468534336
O  O20  1  0.49380000  0.07320000  0.71190000  1.0 -0.468534336
O  O21  1  0.25500000  0.97670000  0.01990000  1.0 -0.4979753003
O  O22  1  0.74500000  0.02330000  0.98010000  1.0 -0.4979753003
O  O23  1  0.32770000  0.97970000  0.33360000  1.0 -0.4834495788
O  O24  1  0.67230000  0.02030000  0.66640000  1.0 -0.4834495788
