# DDEC6 charges by PACMAN v1.1 (https://github.com/mtap-research/PACMAN-charge/)
data_DIRYIP_FSR_pacman
_symmetry_space_group_name_H-M   'P 1'
_cell_length_a   20.70990000
_cell_length_b   20.70990000
_cell_length_c   20.70990000
_cell_angle_alpha   132.25100000
_cell_angle_beta   103.07200000
_cell_angle_gamma   95.82210000
_symmetry_Int_Tables_number   1
_chemical_formula_structural   U2SiH17C27O8
_chemical_formula_sum   'U16 Si8 H136 C216 O64'
_cell_volume   5995.55253712
_cell_formula_units_Z   8
loop_
 _symmetry_equiv_pos_site_id
 _symmetry_equiv_pos_as_xyz
  1  'x, y, z'
loop_
 _atom_site_type_symbol
 _atom_site_label
 _atom_site_symmetry_multiplicity
 _atom_site_fract_x
 _atom_site_fract_y
 _atom_site_fract_z
 _atom_site_occupancy
 _atom_site_charge
U  U1  1  0.08251000  0.59313000  0.46018000  1.0 1.1475253522
U  U2  1  0.08280000  0.55840000  0.42840000  1.0 0.9995741239
U  U3  1  0.86705000  0.90687000  0.98938000  1.0 1.1447401633
U  U4  1  0.87000000  0.94160000  0.02440000  1.0 0.9995741239
U  U5  1  0.36705000  0.37767000  0.96018000  1.0 1.1475253522
U  U6  1  0.37000000  0.34560000  0.92840000  1.0 0.9995741239
U  U7  1  0.58251000  0.12233000  0.48938000  1.0 1.1475253522
U  U8  1  0.58280000  0.15440000  0.52440000  1.0 0.9995741239
U  U9  1  0.63295000  0.62233000  0.03982000  1.0 1.1475253522
U  U10  1  0.63000000  0.65440000  0.07160000  1.0 0.9995741239
U  U11  1  0.41749000  0.87767000  0.51062000  1.0 1.1475253522
U  U12  1  0.41720000  0.84560000  0.47560000  1.0 0.9995741239
U  U13  1  0.91749000  0.40687000  0.53982000  1.0 1.1475253522
U  U14  1  0.91720000  0.44160000  0.57160000  1.0 0.9995741239
U  U15  1  0.13295000  0.09313000  0.01062000  1.0 1.1475253522
U  U16  1  0.13000000  0.05840000  0.97560000  1.0 0.9995741239
Si  Si1  1  0.65079000  0.15206000  0.10207000  1.0 0.6743600359
Si  Si2  1  0.95001000  0.34794000  0.99873000  1.0 0.6752628079
Si  Si3  1  0.45001000  0.45128000  0.60207000  1.0 0.6752628079
Si  Si4  1  0.15079000  0.04872000  0.49873000  1.0 0.6743600359
Si  Si5  1  0.54999000  0.54872000  0.39793000  1.0 0.6743600359
Si  Si6  1  0.84921000  0.95128000  0.50127000  1.0 0.6752628079
Si  Si7  1  0.34921000  0.84794000  0.89793000  1.0 0.6752628079
Si  Si8  1  0.04999000  0.65206000  0.00127000  1.0 0.6743600359
H  H1  1  0.90750000  0.27910000  0.24060000  1.0 0.1198366753
H  H2  1  0.79770000  0.16150000  0.14240000  1.0 0.1093418688
H  H3  1  0.70750000  0.35750000  0.23560000  1.0 0.1093418688
H  H4  1  0.81720000  0.47150000  0.32730000  1.0 0.1198366753
H  H5  1  0.45250000  0.26380000  0.10230000  1.0 0.1198366753
H  H6  1  0.54460000  0.22010000  0.93150000  1.0 0.1328968471
H  H7  1  0.61930000  0.16900000  0.97590000  1.0 0.1198366753
H  H8  1  0.53040000  0.21620000  0.14740000  1.0 0.1198366753
H  H9  1  0.51470000  0.02350000  0.18000000  1.0 0.1198366753
H  H10  1  0.52850000  0.04710000  0.08980000  1.0 0.1093418688
H  H11  1  0.73230000  0.20900000  0.27630000  1.0 0.1198366753
H  H12  1  0.71750000  0.17990000  0.36120000  1.0 0.1328968471
H  H13  1  0.59720000  0.95210000  0.98570000  1.0 0.102971076
H  H14  1  0.60830000  0.82020000  0.85470000  1.0 0.1093418688
H  H15  1  0.67010000  0.82840000  0.77850000  1.0 0.1093418688
H  H16  1  0.72710000  0.97340000  0.84230000  1.0 0.1198366753
H  H17  1  0.71800000  0.10530000  0.97330000  1.0 0.1093418688
H  H18  1  0.96150000  0.22090000  0.12840000  1.0 0.1198366753
H  H19  1  0.98090000  0.33850000  0.13620000  1.0 0.1093418688
H  H20  1  0.87810000  0.14250000  0.85000000  1.0 0.1093418688
H  H21  1  0.85580000  0.02850000  0.84570000  1.0 0.1198366753
H  H22  1  0.83850000  0.23620000  0.68870000  1.0 0.1198366753
H  H23  1  0.71140000  0.27990000  0.82450000  1.0 0.1328968471
H  H24  1  0.80690000  0.33100000  0.95030000  1.0 0.1198366753
H  H25  1  0.93120000  0.28380000  0.81420000  1.0 0.1198366753
H  H26  1  0.15650000  0.47650000  0.99120000  1.0 0.1198366753
H  H27  1  0.04270000  0.45290000  0.98140000  1.0 0.1093418688
H  H28  1  0.06730000  0.29100000  0.02330000  1.0 0.1198366753
H  H29  1  0.18130000  0.32010000  0.03760000  1.0 0.1328968471
H  H30  1  0.03360000  0.54790000  0.14510000  1.0 0.102971076
H  H31  1  0.03450000  0.67980000  0.28810000  1.0 0.1093418688
H  H32  1  0.95010000  0.67160000  0.34170000  1.0 0.1093418688
H  H33  1  0.86890000  0.52660000  0.25370000  1.0 0.1198366753
H  H34  1  0.86800000  0.39470000  0.11270000  1.0 0.1093418688
H  H35  1  0.46150000  0.33310000  0.74060000  1.0 0.1198366753
H  H36  1  0.48090000  0.34470000  0.64240000  1.0 0.1093418688
H  H37  1  0.37810000  0.52810000  0.73560000  1.0 0.1093418688
H  H38  1  0.35580000  0.51010000  0.82730000  1.0 0.1198366753
H  H39  1  0.33850000  0.64980000  0.60230000  1.0 0.1198366753
H  H40  1  0.21140000  0.38690000  0.43150000  1.0 0.1328968471
H  H41  1  0.30690000  0.35660000  0.47590000  1.0 0.1198366753
H  H42  1  0.43120000  0.61700000  0.64740000  1.0 0.1198366753
H  H43  1  0.65650000  0.66530000  0.68000000  1.0 0.1198366753
H  H44  1  0.54270000  0.56130000  0.58980000  1.0 0.1093418688
H  H45  1  0.56730000  0.54400000  0.77630000  1.0 0.1198366753
H  H46  1  0.68130000  0.64370000  0.86120000  1.0 0.1328968471
H  H47  1  0.53360000  0.38850000  0.48570000  1.0 0.102971076
H  H48  1  0.53450000  0.24640000  0.35470000  1.0 0.1093418688
H  H49  1  0.45010000  0.10840000  0.27850000  1.0 0.1093418688
H  H50  1  0.36890000  0.11520000  0.34230000  1.0 0.1198366753
H  H51  1  0.36800000  0.25530000  0.47330000  1.0 0.1093418688
H  H52  1  0.40750000  0.16690000  0.62840000  1.0 0.1198366753
H  H53  1  0.29770000  0.15530000  0.63620000  1.0 0.1093418688
H  H54  1  0.20750000  0.97190000  0.35000000  1.0 0.1093418688
H  H55  1  0.31720000  0.98990000  0.34570000  1.0 0.1198366753
H  H56  1  0.95250000  0.85020000  0.18870000  1.0 0.1198366753
H  H57  1  0.04460000  0.11310000  0.32450000  1.0 0.1328968471
H  H58  1  0.11930000  0.14340000  0.45030000  1.0 0.1198366753
H  H59  1  0.03040000  0.88300000  0.31420000  1.0 0.1198366753
H  H60  1  0.01470000  0.83470000  0.49120000  1.0 0.1198366753
H  H61  1  0.02850000  0.93870000  0.48140000  1.0 0.1093418688
H  H62  1  0.23230000  0.95600000  0.52330000  1.0 0.1198366753
H  H63  1  0.21750000  0.85630000  0.53760000  1.0 0.1328968471
H  H64  1  0.09720000  0.11150000  0.64510000  1.0 0.102971076
H  H65  1  0.10830000  0.25360000  0.78810000  1.0 0.1093418688
H  H66  1  0.17010000  0.39160000  0.84170000  1.0 0.1093418688
H  H67  1  0.22710000  0.38480000  0.75370000  1.0 0.1198366753
H  H68  1  0.21800000  0.24470000  0.61270000  1.0 0.1093418688
H  H69  1  0.53850000  0.66690000  0.25940000  1.0 0.1198366753
H  H70  1  0.51910000  0.65530000  0.35760000  1.0 0.1093418688
H  H71  1  0.62190000  0.47190000  0.26440000  1.0 0.1093418688
H  H72  1  0.64420000  0.48990000  0.17270000  1.0 0.1198366753
H  H73  1  0.66150000  0.35020000  0.39770000  1.0 0.1198366753
H  H74  1  0.78860000  0.61310000  0.56850000  1.0 0.1328968471
H  H75  1  0.69310000  0.64340000  0.52410000  1.0 0.1198366753
H  H76  1  0.56880000  0.38300000  0.35260000  1.0 0.1198366753
H  H77  1  0.34350000  0.33470000  0.32000000  1.0 0.1198366753
H  H78  1  0.45730000  0.43870000  0.41020000  1.0 0.1093418688
H  H79  1  0.43270000  0.45600000  0.22370000  1.0 0.1198366753
H  H80  1  0.31870000  0.35630000  0.13880000  1.0 0.1328968471
H  H81  1  0.46640000  0.61150000  0.51430000  1.0 0.102971076
H  H82  1  0.46550000  0.75360000  0.64530000  1.0 0.1093418688
H  H83  1  0.54990000  0.89160000  0.72150000  1.0 0.1093418688
H  H84  1  0.63110000  0.88480000  0.65770000  1.0 0.1198366753
H  H85  1  0.63200000  0.74470000  0.52670000  1.0 0.1093418688
H  H86  1  0.59250000  0.83310000  0.37160000  1.0 0.1198366753
H  H87  1  0.70230000  0.84470000  0.36380000  1.0 0.1093418688
H  H88  1  0.79250000  0.02810000  0.65000000  1.0 0.1093418688
H  H89  1  0.68280000  0.01010000  0.65430000  1.0 0.1198366753
H  H90  1  0.04750000  0.14980000  0.81130000  1.0 0.1198366753
H  H91  1  0.95540000  0.88690000  0.67550000  1.0 0.1328968471
H  H92  1  0.88070000  0.85660000  0.54970000  1.0 0.1198366753
H  H93  1  0.96960000  0.11700000  0.68580000  1.0 0.1198366753
H  H94  1  0.98530000  0.16530000  0.50880000  1.0 0.1198366753
H  H95  1  0.97150000  0.06130000  0.51860000  1.0 0.1093418688
H  H96  1  0.76770000  0.04400000  0.47670000  1.0 0.1198366753
H  H97  1  0.78250000  0.14370000  0.46240000  1.0 0.1328968471
H  H98  1  0.90280000  0.88850000  0.35490000  1.0 0.102971076
H  H99  1  0.89170000  0.74640000  0.21190000  1.0 0.1093418688
H  H100  1  0.82990000  0.60840000  0.15830000  1.0 0.1093418688
H  H101  1  0.77290000  0.61520000  0.24630000  1.0 0.1198366753
H  H102  1  0.78200000  0.75530000  0.38730000  1.0 0.1093418688
H  H103  1  0.09250000  0.72090000  0.75940000  1.0 0.1198366753
H  H104  1  0.20230000  0.83850000  0.85760000  1.0 0.1093418688
H  H105  1  0.29250000  0.64250000  0.76440000  1.0 0.1093418688
H  H106  1  0.18280000  0.52850000  0.67270000  1.0 0.1198366753
H  H107  1  0.54750000  0.73620000  0.89770000  1.0 0.1198366753
H  H108  1  0.45540000  0.77990000  0.06850000  1.0 0.1328968471
H  H109  1  0.38070000  0.83100000  0.02410000  1.0 0.1198366753
H  H110  1  0.46960000  0.78380000  0.85260000  1.0 0.1198366753
H  H111  1  0.48530000  0.97650000  0.82000000  1.0 0.1198366753
H  H112  1  0.47150000  0.95290000  0.91020000  1.0 0.1093418688
H  H113  1  0.26770000  0.79100000  0.72370000  1.0 0.1198366753
H  H114  1  0.28250000  0.82010000  0.63880000  1.0 0.1328968471
H  H115  1  0.40280000  0.04790000  0.01430000  1.0 0.102971076
H  H116  1  0.39170000  0.17980000  0.14530000  1.0 0.1093418688
H  H117  1  0.32990000  0.17160000  0.22150000  1.0 0.1093418688
H  H118  1  0.27290000  0.02660000  0.15770000  1.0 0.1198366753
H  H119  1  0.28200000  0.89470000  0.02670000  1.0 0.1093418688
H  H120  1  0.03850000  0.77910000  0.87160000  1.0 0.1198366753
H  H121  1  0.01910000  0.66150000  0.86380000  1.0 0.1093418688
H  H122  1  0.12190000  0.85750000  0.15000000  1.0 0.1093418688
H  H123  1  0.14420000  0.97150000  0.15430000  1.0 0.1198366753
H  H124  1  0.16150000  0.76380000  0.31130000  1.0 0.1198366753
H  H125  1  0.28860000  0.72010000  0.17550000  1.0 0.1328968471
H  H126  1  0.19310000  0.66900000  0.04970000  1.0 0.1198366753
H  H127  1  0.06880000  0.71620000  0.18580000  1.0 0.1198366753
H  H128  1  0.84350000  0.52350000  0.00880000  1.0 0.1198366753
H  H129  1  0.95730000  0.54710000  0.01860000  1.0 0.1093418688
H  H130  1  0.93270000  0.70900000  0.97670000  1.0 0.1198366753
H  H131  1  0.81870000  0.67990000  0.96240000  1.0 0.1328968471
H  H132  1  0.96640000  0.45210000  0.85490000  1.0 0.102971076
H  H133  1  0.96550000  0.32020000  0.71190000  1.0 0.1093418688
H  H134  1  0.04990000  0.32840000  0.65830000  1.0 0.1093418688
H  H135  1  0.13110000  0.47340000  0.74630000  1.0 0.1198366753
H  H136  1  0.13200000  0.60530000  0.88730000  1.0 0.1093418688
C  C1  1  0.94520000  0.45790000  0.35770000  1.0 0.492204505
C  C2  1  0.87330000  0.38630000  0.29460000  1.0 -0.0095120892
C  C3  1  0.86670000  0.29410000  0.23860000  1.0 -0.0805621944
C  C4  1  0.80100000  0.22320000  0.17920000  1.0 -0.0805621944
C  C5  1  0.73880000  0.24680000  0.17580000  1.0 -0.2083325358
C  C6  1  0.74760000  0.34080000  0.23480000  1.0 -0.0882363665
C  C7  1  0.81330000  0.40990000  0.29160000  1.0 -0.099104234
C  C8  1  0.44340000  0.28160000  0.98540000  1.0 0.492204505
C  C9  1  0.49120000  0.25060000  0.01460000  1.0 -0.020271766
C  C10  1  0.48660000  0.24640000  0.07720000  1.0 -0.0805621944
C  C11  1  0.54120000  0.21980000  0.97540000  1.0 -0.0882363665
C  C12  1  0.58600000  0.18890000  0.00210000  1.0 -0.0805621944
C  C13  1  0.58190000  0.18720000  0.06650000  1.0 -0.1846611956
C  C14  1  0.53320000  0.21620000  0.10320000  1.0 -0.0882363665
C  C15  1  0.60410000  0.09470000  0.34620000  1.0 0.5692481389
C  C16  1  0.61340000  0.10240000  0.28180000  1.0 -0.0095120892
C  C17  1  0.55830000  0.06170000  0.19940000  1.0 -0.099104234
C  C18  1  0.56630000  0.07600000  0.14530000  1.0 -0.099104234
C  C19  1  0.63200000  0.13470000  0.17390000  1.0 -0.2083325358
C  C20  1  0.68790000  0.17190000  0.25660000  1.0 -0.0617623264
C  C21  1  0.67920000  0.15550000  0.30830000  1.0 -0.0805621944
C  C22  1  0.65710000  0.04400000  0.99470000  1.0 -0.2001906866
C  C23  1  0.62360000  0.95680000  0.95740000  1.0 -0.0805621944
C  C24  1  0.62980000  0.87770000  0.87810000  1.0 -0.0882363665
C  C25  1  0.66730000  0.88210000  0.83280000  1.0 -0.0617623264
C  C26  1  0.70080000  0.96890000  0.87090000  1.0 -0.0805621944
C  C27  1  0.69560000  0.04810000  0.94970000  1.0 -0.0805621944
C  C28  1  0.89980000  0.04210000  0.98730000  1.0 0.492204505
C  C29  1  0.90830000  0.11370000  0.98700000  1.0 -0.0095120892
C  C30  1  0.94450000  0.20590000  0.07260000  1.0 -0.0805621944
C  C31  1  0.95600000  0.27680000  0.07780000  1.0 -0.0805621944
C  C32  1  0.92900000  0.25320000  0.99200000  1.0 -0.2083325358
C  C33  1  0.89400000  0.15920000  0.90680000  1.0 -0.0882363665
C  C34  1  0.88170000  0.09010000  0.90340000  1.0 -0.099104234
C  C35  1  0.70380000  0.21840000  0.66180000  1.0 0.492204505
C  C36  1  0.76400000  0.24940000  0.74060000  1.0 -0.020271766
C  C37  1  0.83080000  0.25360000  0.74020000  1.0 -0.0805621944
C  C38  1  0.75560000  0.28020000  0.82140000  1.0 -0.0882363665
C  C39  1  0.81320000  0.31110000  0.89710000  1.0 -0.0805621944
C  C40  1  0.87930000  0.31280000  0.89470000  1.0 -0.1846611956
C  C41  1  0.88700000  0.28380000  0.81700000  1.0 -0.0882363665
C  C42  1  0.25150000  0.40530000  0.00940000  1.0 0.5692481389
C  C43  1  0.17940000  0.39760000  0.01100000  1.0 -0.0095120892
C  C44  1  0.13770000  0.43830000  0.99660000  1.0 -0.099104234
C  C45  1  0.06930000  0.42400000  0.99030000  1.0 -0.099104234
C  C46  1  0.03920000  0.36530000  0.99730000  1.0 -0.2083325358
C  C47  1  0.08470000  0.32810000  0.01600000  1.0 -0.0617623264
C  C48  1  0.15280000  0.34450000  0.02370000  1.0 -0.0805621944
C  C49  1  0.95070000  0.45600000  0.11310000  1.0 -0.2001906866
C  C50  1  0.00060000  0.54320000  0.16680000  1.0 -0.0805621944
C  C51  1  0.00040000  0.62230000  0.25210000  1.0 -0.0882363665
C  C52  1  0.95070000  0.61790000  0.28520000  1.0 -0.0617623264
C  C53  1  0.90200000  0.53110000  0.23190000  1.0 -0.0805621944
C  C54  1  0.90160000  0.45190000  0.14750000  1.0 -0.0805621944
C  C55  1  0.39980000  0.41250000  0.85770000  1.0 0.492204505
C  C56  1  0.40830000  0.42130000  0.79460000  1.0 -0.0095120892
C  C57  1  0.44450000  0.37190000  0.73860000  1.0 -0.0805621944
C  C58  1  0.45600000  0.37820000  0.67920000  1.0 -0.0805621944
C  C59  1  0.42900000  0.43700000  0.67580000  1.0 -0.2083325358
C  C60  1  0.39400000  0.48720000  0.73480000  1.0 -0.0882363665
C  C61  1  0.38170000  0.47830000  0.79160000  1.0 -0.099104234
C  C62  1  0.20380000  0.54200000  0.48540000  1.0 0.492204505
C  C63  1  0.26400000  0.52340000  0.51460000  1.0 -0.020271766
C  C64  1  0.33080000  0.59060000  0.57720000  1.0 -0.0805621944
C  C65  1  0.25560000  0.43420000  0.47540000  1.0 -0.0882363665
C  C66  1  0.31320000  0.41610000  0.50210000  1.0 -0.0805621944
C  C67  1  0.37930000  0.48460000  0.56650000  1.0 -0.1846611956
C  C68  1  0.38700000  0.57000000  0.60320000  1.0 -0.0882363665
C  C69  1  0.75150000  0.74210000  0.84620000  1.0 0.5692481389
C  C70  1  0.67940000  0.66840000  0.78180000  1.0 -0.0095120892
C  C71  1  0.63770000  0.64110000  0.69940000  1.0 -0.099104234
C  C72  1  0.56930000  0.57900000  0.64530000  1.0 -0.099104234
C  C73  1  0.53920000  0.54190000  0.67390000  1.0 -0.2083325358
C  C74  1  0.58470000  0.56870000  0.75660000  1.0 -0.0617623264
C  C75  1  0.65280000  0.62910000  0.80830000  1.0 -0.0805621944
C  C76  1  0.45070000  0.33760000  0.49470000  1.0 -0.2001906866
C  C77  1  0.50060000  0.33380000  0.45740000  1.0 -0.0805621944
C  C78  1  0.50040000  0.24830000  0.37810000  1.0 -0.0882363665
C  C79  1  0.45070000  0.16550000  0.33280000  1.0 -0.0617623264
C  C80  1  0.40200000  0.17010000  0.37090000  1.0 -0.0805621944
C  C81  1  0.40160000  0.25410000  0.44970000  1.0 -0.0805621944
C  C82  1  0.44520000  0.08750000  0.48730000  1.0 0.492204505
C  C83  1  0.37330000  0.07870000  0.48700000  1.0 -0.0095120892
C  C84  1  0.36670000  0.12810000  0.57260000  1.0 -0.0805621944
C  C85  1  0.30100000  0.12180000  0.57780000  1.0 -0.0805621944
C  C86  1  0.23880000  0.06300000  0.49200000  1.0 -0.2083325358
C  C87  1  0.24760000  0.01280000  0.40680000  1.0 -0.0882363665
C  C88  1  0.31330000  0.02170000  0.40340000  1.0 -0.099104234
C  C89  1  0.94340000  0.95800000  0.16180000  1.0 0.492204505
C  C90  1  0.99120000  0.97660000  0.24060000  1.0 -0.020271766
C  C91  1  0.98660000  0.90940000  0.24020000  1.0 -0.0805621944
C  C92  1  0.04120000  0.06580000  0.32140000  1.0 -0.0882363665
C  C93  1  0.08600000  0.08390000  0.39710000  1.0 -0.0805621944
C  C94  1  0.08190000  0.01540000  0.39470000  1.0 -0.1846611956
C  C95  1  0.03320000  0.93000000  0.31700000  1.0 -0.0882363665
C  C96  1  0.10410000  0.75790000  0.50940000  1.0 0.5692481389
C  C97  1  0.11340000  0.83160000  0.51100000  1.0 -0.0095120892
C  C98  1  0.05830000  0.85890000  0.49660000  1.0 -0.099104234
C  C99  1  0.06630000  0.92100000  0.49030000  1.0 -0.099104234
C  C100  1  0.13200000  0.95810000  0.49730000  1.0 -0.2083325358
C  C101  1  0.18790000  0.93130000  0.51600000  1.0 -0.0617623264
C  C102  1  0.17920000  0.87090000  0.52370000  1.0 -0.0805621944
C  C103  1  0.15710000  0.16240000  0.61310000  1.0 -0.2001906866
C  C104  1  0.12360000  0.16620000  0.66680000  1.0 -0.0805621944
C  C105  1  0.12980000  0.25170000  0.75210000  1.0 -0.0882363665
C  C106  1  0.16730000  0.33450000  0.78520000  1.0 -0.0617623264
C  C107  1  0.20080000  0.32990000  0.73190000  1.0 -0.0805621944
C  C108  1  0.19560000  0.24590000  0.64750000  1.0 -0.0805621944
C  C109  1  0.60020000  0.58750000  0.14230000  1.0 0.492204505
C  C110  1  0.59170000  0.57870000  0.20540000  1.0 -0.0095120892
C  C111  1  0.55550000  0.62810000  0.26140000  1.0 -0.0805621944
C  C112  1  0.54400000  0.62180000  0.32080000  1.0 -0.0805621944
C  C113  1  0.57100000  0.56300000  0.32420000  1.0 -0.2083325358
C  C114  1  0.60600000  0.51280000  0.26520000  1.0 -0.0882363665
C  C115  1  0.61830000  0.52170000  0.20840000  1.0 -0.099104234
C  C116  1  0.79620000  0.45800000  0.51460000  1.0 0.492204505
C  C117  1  0.73600000  0.47660000  0.48540000  1.0 -0.020271766
C  C118  1  0.66920000  0.40940000  0.42280000  1.0 -0.0805621944
C  C119  1  0.74440000  0.56580000  0.52460000  1.0 -0.0882363665
C  C120  1  0.68680000  0.58390000  0.49790000  1.0 -0.0805621944
C  C121  1  0.62070000  0.51540000  0.43350000  1.0 -0.1846611956
C  C122  1  0.61300000  0.43000000  0.39680000  1.0 -0.0882363665
C  C123  1  0.24850000  0.25790000  0.15380000  1.0 0.5692481389
C  C124  1  0.32060000  0.33160000  0.21820000  1.0 -0.0095120892
C  C125  1  0.36230000  0.35890000  0.30060000  1.0 -0.099104234
C  C126  1  0.43070000  0.42100000  0.35470000  1.0 -0.099104234
C  C127  1  0.46080000  0.45810000  0.32610000  1.0 -0.2083325358
C  C128  1  0.41530000  0.43130000  0.24340000  1.0 -0.0617623264
C  C129  1  0.34720000  0.37090000  0.19170000  1.0 -0.0805621944
C  C130  1  0.54930000  0.66240000  0.50530000  1.0 -0.2001906866
C  C131  1  0.49940000  0.66620000  0.54260000  1.0 -0.0805621944
C  C132  1  0.49960000  0.75170000  0.62190000  1.0 -0.0882363665
C  C133  1  0.54930000  0.83450000  0.66720000  1.0 -0.0617623264
C  C134  1  0.59800000  0.82990000  0.62910000  1.0 -0.0805621944
C  C135  1  0.59840000  0.74590000  0.55030000  1.0 -0.0805621944
C  C136  1  0.55480000  0.91250000  0.51270000  1.0 0.492204505
C  C137  1  0.62670000  0.92130000  0.51300000  1.0 -0.0095120892
C  C138  1  0.63330000  0.87190000  0.42740000  1.0 -0.0805621944
C  C139  1  0.69900000  0.87820000  0.42220000  1.0 -0.0805621944
C  C140  1  0.76120000  0.93700000  0.50800000  1.0 -0.2083325358
C  C141  1  0.75240000  0.98720000  0.59320000  1.0 -0.0882363665
C  C142  1  0.68670000  0.97830000  0.59660000  1.0 -0.099104234
C  C143  1  0.05660000  0.04200000  0.83820000  1.0 0.492204505
C  C144  1  0.00880000  0.02340000  0.75940000  1.0 -0.020271766
C  C145  1  0.01340000  0.09060000  0.75980000  1.0 -0.0805621944
C  C146  1  0.95880000  0.93420000  0.67860000  1.0 -0.0882363665
C  C147  1  0.91400000  0.91610000  0.60290000  1.0 -0.0805621944
C  C148  1  0.91810000  0.98460000  0.60530000  1.0 -0.1846611956
C  C149  1  0.96680000  0.07000000  0.68300000  1.0 -0.0882363665
C  C150  1  0.89590000  0.24210000  0.49060000  1.0 0.5692481389
C  C151  1  0.88660000  0.16840000  0.48900000  1.0 -0.0095120892
C  C152  1  0.94170000  0.14110000  0.50340000  1.0 -0.099104234
C  C153  1  0.93370000  0.07900000  0.50970000  1.0 -0.099104234
C  C154  1  0.86800000  0.04190000  0.50270000  1.0 -0.2083325358
C  C155  1  0.81210000  0.06870000  0.48400000  1.0 -0.0617623264
C  C156  1  0.82080000  0.12910000  0.47630000  1.0 -0.0805621944
C  C157  1  0.84290000  0.83760000  0.38690000  1.0 -0.2001906866
C  C158  1  0.87640000  0.83380000  0.33320000  1.0 -0.0805621944
C  C159  1  0.87020000  0.74830000  0.24790000  1.0 -0.0882363665
C  C160  1  0.83270000  0.66550000  0.21480000  1.0 -0.0617623264
C  C161  1  0.79920000  0.67010000  0.26810000  1.0 -0.0805621944
C  C162  1  0.80440000  0.75410000  0.35250000  1.0 -0.0805621944
C  C163  1  0.05480000  0.54210000  0.64230000  1.0 0.492204505
C  C164  1  0.12670000  0.61370000  0.70540000  1.0 -0.0095120892
C  C165  1  0.13330000  0.70590000  0.76140000  1.0 -0.0805621944
C  C166  1  0.19900000  0.77680000  0.82080000  1.0 -0.0805621944
C  C167  1  0.26120000  0.75320000  0.82420000  1.0 -0.2083325358
C  C168  1  0.25240000  0.65920000  0.76520000  1.0 -0.0882363665
C  C169  1  0.18670000  0.59010000  0.70840000  1.0 -0.099104234
C  C170  1  0.55660000  0.71840000  0.01460000  1.0 0.492204505
C  C171  1  0.50880000  0.74940000  0.98540000  1.0 -0.020271766
C  C172  1  0.51340000  0.75360000  0.92280000  1.0 -0.0805621944
C  C173  1  0.45880000  0.78020000  0.02460000  1.0 -0.0882363665
C  C174  1  0.41400000  0.81110000  0.99790000  1.0 -0.0882363665
C  C175  1  0.41810000  0.81280000  0.93350000  1.0 -0.1846611956
C  C176  1  0.46680000  0.78380000  0.89680000  1.0 -0.0882363665
C  C177  1  0.39590000  0.90530000  0.65380000  1.0 0.5692481389
C  C178  1  0.38660000  0.89760000  0.71820000  1.0 -0.0095120892
C  C179  1  0.44170000  0.93830000  0.80060000  1.0 -0.099104234
C  C180  1  0.43370000  0.92400000  0.85470000  1.0 -0.099104234
C  C181  1  0.36800000  0.86530000  0.82610000  1.0 -0.2083325358
C  C182  1  0.31210000  0.82810000  0.74340000  1.0 -0.0617623264
C  C183  1  0.32080000  0.84450000  0.69170000  1.0 -0.0805621944
C  C184  1  0.34290000  0.95600000  0.00530000  1.0 -0.2001906866
C  C185  1  0.37640000  0.04320000  0.04260000  1.0 -0.0805621944
C  C186  1  0.37020000  0.12230000  0.12190000  1.0 -0.0882363665
C  C187  1  0.33270000  0.11790000  0.16720000  1.0 -0.0617623264
C  C188  1  0.29920000  0.03110000  0.12910000  1.0 -0.0805621944
C  C189  1  0.30440000  0.95190000  0.05030000  1.0 -0.0805621944
C  C190  1  0.10020000  0.95790000  0.01270000  1.0 0.492204505
C  C191  1  0.09170000  0.88630000  0.01300000  1.0 -0.0095120892
C  C192  1  0.05550000  0.79410000  0.92740000  1.0 -0.0805621944
C  C193  1  0.04400000  0.72320000  0.92220000  1.0 -0.0805621944
C  C194  1  0.07100000  0.74680000  0.00800000  1.0 -0.2083325358
C  C195  1  0.10600000  0.84080000  0.09320000  1.0 -0.0882363665
C  C196  1  0.11830000  0.90990000  0.09660000  1.0 -0.099104234
C  C197  1  0.29620000  0.78160000  0.33820000  1.0 0.492204505
C  C198  1  0.23600000  0.75060000  0.25940000  1.0 -0.020271766
C  C199  1  0.16920000  0.74640000  0.25980000  1.0 -0.0805621944
C  C200  1  0.24440000  0.71980000  0.17860000  1.0 -0.0882363665
C  C201  1  0.18680000  0.68890000  0.10290000  1.0 -0.0805621944
C  C202  1  0.12070000  0.68720000  0.10530000  1.0 -0.1846611956
C  C203  1  0.11300000  0.71620000  0.18300000  1.0 -0.0882363665
C  C204  1  0.74850000  0.59470000  0.99060000  1.0 0.5692481389
C  C205  1  0.82060000  0.60240000  0.98900000  1.0 -0.0095120892
C  C206  1  0.86230000  0.56170000  0.00340000  1.0 -0.099104234
C  C207  1  0.93070000  0.57600000  0.00970000  1.0 -0.099104234
C  C208  1  0.96080000  0.63470000  0.00270000  1.0 -0.2083325358
C  C209  1  0.91530000  0.67190000  0.98400000  1.0 -0.0617623264
C  C210  1  0.84720000  0.65550000  0.97630000  1.0 -0.0805621944
C  C211  1  0.04930000  0.54400000  0.88690000  1.0 -0.2001906866
C  C212  1  0.99940000  0.45680000  0.83320000  1.0 -0.0805621944
C  C213  1  0.99960000  0.37770000  0.74790000  1.0 -0.0882363665
C  C214  1  0.04930000  0.38210000  0.71480000  1.0 -0.0617623264
C  C215  1  0.09800000  0.46890000  0.76810000  1.0 -0.0805621944
C  C216  1  0.09840000  0.54810000  0.85250000  1.0 -0.0805621944
O  O1  1  0.08060000  0.54290000  0.34770000  1.0 -0.4384120116
O  O2  1  0.08530000  0.63760000  0.56670000  1.0 -0.5863035629
O  O3  1  0.95360000  0.54190000  0.40050000  1.0 -0.5326051125
O  O4  1  0.99920000  0.43840000  0.36760000  1.0 -0.4806059907
O  O5  1  0.45880000  0.30490000  0.94590000  1.0 -0.4972387207
O  O6  1  0.39350000  0.30060000  0.01270000  1.0 -0.5089570516
O  O7  1  0.65530000  0.13820000  0.42670000  1.0 -0.5573155666
O  O8  1  0.54340000  0.05300000  0.32720000  1.0 -0.4972387207
O  O9  1  0.80480000  0.95710000  0.03770000  1.0 -0.4384120116
O  O10  1  0.92910000  0.86240000  0.94770000  1.0 -0.5863035629
O  O11  1  0.85860000  0.95810000  0.91170000  1.0 -0.5326051125
O  O12  1  0.92920000  0.06160000  0.06080000  1.0 -0.4806059907
O  O13  1  0.64100000  0.19510000  0.65390000  1.0 -0.4972387207
O  O14  1  0.71210000  0.19940000  0.59290000  1.0 -0.5089570516
O  O15  1  0.28850000  0.36180000  0.01710000  1.0 -0.5573155666
O  O16  1  0.27420000  0.44700000  0.99040000  1.0 -0.4972387207
O  O17  1  0.30480000  0.26710000  0.84770000  1.0 -0.4384120116
O  O18  1  0.42910000  0.48140000  0.06670000  1.0 -0.5863035629
O  O19  1  0.35860000  0.44690000  0.90050000  1.0 -0.5326051125
O  O20  1  0.42920000  0.36840000  0.86760000  1.0 -0.4806059907
O  O21  1  0.14100000  0.48710000  0.44590000  1.0 -0.4972387207
O  O22  1  0.21210000  0.61920000  0.51270000  1.0 -0.5089570516
O  O23  1  0.78850000  0.77140000  0.92670000  1.0 -0.5573155666
O  O24  1  0.77420000  0.78380000  0.82720000  1.0 -0.4972387207
O  O25  1  0.58060000  0.23290000  0.53770000  1.0 -0.4384120116
O  O26  1  0.58530000  0.01860000  0.44770000  1.0 -0.5863035629
O  O27  1  0.45360000  0.05310000  0.41170000  1.0 -0.5326051125
O  O28  1  0.49920000  0.13160000  0.56080000  1.0 -0.4806059907
O  O29  1  0.95880000  0.01290000  0.15390000  1.0 -0.4972387207
O  O30  1  0.89350000  0.88080000  0.09290000  1.0 -0.5089570516
O  O31  1  0.15530000  0.72860000  0.51710000  1.0 -0.5573155666
O  O32  1  0.04340000  0.71620000  0.49040000  1.0 -0.4972387207
O  O33  1  0.69520000  0.73290000  0.15230000  1.0 -0.4384120116
O  O34  1  0.57090000  0.51860000  0.93330000  1.0 -0.5863035629
O  O35  1  0.64140000  0.55310000  0.09950000  1.0 -0.5326051125
O  O36  1  0.57080000  0.63160000  0.13240000  1.0 -0.4806059907
O  O37  1  0.85900000  0.51290000  0.55410000  1.0 -0.4972387207
O  O38  1  0.78790000  0.38080000  0.48730000  1.0 -0.5089570516
O  O39  1  0.21150000  0.22860000  0.07330000  1.0 -0.5573155666
O  O40  1  0.22580000  0.21620000  0.17280000  1.0 -0.4972387207
O  O41  1  0.41940000  0.76710000  0.46230000  1.0 -0.4384120116
O  O42  1  0.41470000  0.98140000  0.55230000  1.0 -0.5863035629
O  O43  1  0.54640000  0.94690000  0.58830000  1.0 -0.5326051125
O  O44  1  0.50080000  0.86840000  0.43920000  1.0 -0.4806059907
O  O45  1  0.04120000  0.98710000  0.84610000  1.0 -0.4972387207
O  O46  1  0.10650000  0.11920000  0.90710000  1.0 -0.5089570516
O  O47  1  0.84470000  0.27140000  0.48290000  1.0 -0.5573155666
O  O48  1  0.95660000  0.28380000  0.50960000  1.0 -0.4972387207
O  O49  1  0.91940000  0.45710000  0.65230000  1.0 -0.4384120116
O  O50  1  0.91470000  0.36240000  0.43330000  1.0 -0.5863035629
O  O51  1  0.04640000  0.45810000  0.59950000  1.0 -0.5326051125
O  O52  1  0.00080000  0.56160000  0.63240000  1.0 -0.4806059907
O  O53  1  0.54120000  0.69510000  0.05410000  1.0 -0.4972387207
O  O54  1  0.60650000  0.69940000  0.98730000  1.0 -0.5089570516
O  O55  1  0.34470000  0.86180000  0.57330000  1.0 -0.5573155666
O  O56  1  0.45660000  0.94700000  0.67280000  1.0 -0.4972387207
O  O57  1  0.19520000  0.04290000  0.96230000  1.0 -0.4384120116
O  O58  1  0.07090000  0.13760000  0.05230000  1.0 -0.5863035629
O  O59  1  0.14140000  0.04190000  0.08830000  1.0 -0.5326051125
O  O60  1  0.07080000  0.93840000  0.93920000  1.0 -0.4806059907
O  O61  1  0.35900000  0.80490000  0.34610000  1.0 -0.4972387207
O  O62  1  0.28790000  0.80060000  0.40710000  1.0 -0.5089570516
O  O63  1  0.71150000  0.63820000  0.98290000  1.0 -0.5573155666
O  O64  1  0.72580000  0.55300000  0.00960000  1.0 -0.4972387207
