# DDEC6 charges by PACMAN v1.1 (https://github.com/mtap-research/PACMAN-charge/)
data_DIRYUB_FSR_pacman
_symmetry_space_group_name_H-M   'P 1'
_cell_length_a   20.68390000
_cell_length_b   20.68390000
_cell_length_c   20.68390000
_cell_angle_alpha   132.74400000
_cell_angle_beta   102.70600000
_cell_angle_gamma   95.81530000
_symmetry_Int_Tables_number   1
_chemical_formula_structural   NaU2Si2H34(C3O)18
_chemical_formula_sum   'Na4 U8 Si8 H136 C216 O72'
_cell_volume   5939.02666111
_cell_formula_units_Z   4
loop_
 _symmetry_equiv_pos_site_id
 _symmetry_equiv_pos_as_xyz
  1  'x, y, z'
loop_
 _atom_site_type_symbol
 _atom_site_label
 _atom_site_symmetry_multiplicity
 _atom_site_fract_x
 _atom_site_fract_y
 _atom_site_fract_z
 _atom_site_occupancy
 _atom_site_charge
Na  Na1  1  0.25000000  0.32945000  0.07945000  1.0 0.8527027731
Na  Na2  1  0.75000000  0.17055000  0.42055000  1.0 0.8527027731
Na  Na3  1  0.75000000  0.67055000  0.92055000  1.0 0.8527027731
Na  Na4  1  0.25000000  0.82945000  0.57945000  1.0 0.8527027731
U  U1  1  0.63414000  0.08371000  0.49721000  1.0 2.2786264186
U  U2  1  0.08650000  0.13693000  0.00279000  1.0 2.2786264186
U  U3  1  0.41350000  0.41629000  0.05043000  1.0 2.2786264186
U  U4  1  0.86586000  0.36307000  0.44957000  1.0 2.2786264186
U  U5  1  0.36586000  0.91629000  0.50279000  1.0 2.2786264186
U  U6  1  0.91350000  0.86307000  0.99721000  1.0 2.2786264186
U  U7  1  0.58650000  0.58371000  0.94957000  1.0 2.2786264186
U  U8  1  0.13414000  0.63693000  0.55043000  1.0 2.2786264186
Si  Si1  1  0.34481000  0.94835000  0.00018000  1.0 0.6588889574
Si  Si2  1  0.44817000  0.34463000  0.49982000  1.0 0.6588889574
Si  Si3  1  0.05183000  0.55165000  0.89646000  1.0 0.6588889574
Si  Si4  1  0.15519000  0.15537000  0.60354000  1.0 0.6588889574
Si  Si5  1  0.65519000  0.05165000  0.99982000  1.0 0.6588889574
Si  Si6  1  0.55183000  0.65537000  0.50018000  1.0 0.6588889574
Si  Si7  1  0.94817000  0.44835000  0.10354000  1.0 0.6588889574
Si  Si8  1  0.84481000  0.84463000  0.39646000  1.0 0.6588889574
H  H1  1  0.37230000  0.85280000  0.04930000  1.0 0.1197138412
H  H2  1  0.44780000  0.88720000  0.17800000  1.0 0.1404604809
H  H3  1  0.55430000  0.13870000  0.29840000  1.0 0.1197138412
H  H4  1  0.47170000  0.10910000  0.17660000  1.0 0.1197138412
H  H5  1  0.47910000  0.16440000  0.00690000  1.0 0.1197138412
H  H6  1  0.46350000  0.05550000  0.01280000  1.0 0.1077014645
H  H7  1  0.27740000  0.15320000  0.98020000  1.0 0.1197138412
H  H8  1  0.08890000  0.83360000  0.87090000  1.0 0.1404604809
H  H9  1  0.17550000  0.01470000  0.15240000  1.0 0.1328537266
H  H10  1  0.20060000  0.84400000  0.86620000  1.0 0.1328537266
H  H11  1  0.26400000  0.04230000  0.98330000  1.0 0.1197138412
H  H12  1  0.27420000  0.74820000  0.88380000  1.0 0.1077014645
H  H13  1  0.28860000  0.03080000  0.15280000  1.0 0.1197138412
H  H14  1  0.39910000  0.88360000  0.85470000  1.0 0.100056353
H  H15  1  0.39400000  0.74060000  0.71240000  1.0 0.1077014645
H  H16  1  0.32350000  0.60170000  0.65320000  1.0 0.1197138412
H  H17  1  0.26790000  0.60770000  0.74020000  1.0 0.1197138412
H  H18  1  0.30350000  0.32300000  0.45070000  1.0 0.1197138412
H  H19  1  0.20920000  0.26980000  0.32200000  1.0 0.1404604809
H  H20  1  0.34030000  0.25590000  0.20160000  1.0 0.1197138412
H  H21  1  0.43250000  0.29510000  0.32340000  1.0 0.1197138412
H  H22  1  0.65750000  0.47220000  0.49310000  1.0 0.1197138412
H  H23  1  0.54270000  0.45070000  0.48720000  1.0 0.1077014645
H  H24  1  0.67300000  0.29720000  0.51980000  1.0 0.1197138412
H  H25  1  0.46270000  0.21800000  0.62910000  1.0 0.1404604809
H  H26  1  0.36230000  0.02310000  0.34760000  1.0 0.1328537266
H  H27  1  0.47780000  0.33440000  0.63380000  1.0 0.1328537266
H  H28  1  0.55900000  0.28070000  0.51670000  1.0 0.1197138412
H  H29  1  0.36440000  0.39040000  0.61620000  1.0 0.1077014645
H  H30  1  0.37800000  0.13580000  0.34720000  1.0 0.1197138412
H  H31  1  0.52890000  0.54440000  0.64530000  1.0 0.100056353
H  H32  1  0.52820000  0.68160000  0.78760000  1.0 0.1077014645
H  H33  1  0.44850000  0.67030000  0.84680000  1.0 0.1197138412
H  H34  1  0.36750000  0.52770000  0.75980000  1.0 0.1197138412
H  H35  1  0.19650000  0.64720000  0.01950000  1.0 0.1197138412
H  H36  1  0.29080000  0.61280000  0.06060000  1.0 0.1404604809
H  H37  1  0.15970000  0.36130000  0.91560000  1.0 0.1197138412
H  H38  1  0.06750000  0.39090000  0.86260000  1.0 0.1197138412
H  H39  1  0.84250000  0.33560000  0.81470000  1.0 0.1197138412
H  H40  1  0.95730000  0.44450000  0.90800000  1.0 0.1077014645
H  H41  1  0.82700000  0.34680000  0.62420000  1.0 0.1197138412
H  H42  1  0.03730000  0.66640000  0.75530000  1.0 0.1404604809
H  H43  1  0.13770000  0.48530000  0.66080000  1.0 0.1328537266
H  H44  1  0.02220000  0.65600000  0.85660000  1.0 0.1328537266
H  H45  1  0.94100000  0.45770000  0.72170000  1.0 0.1197138412
H  H46  1  0.13560000  0.75180000  0.02600000  1.0 0.1077014645
H  H47  1  0.12200000  0.46920000  0.75780000  1.0 0.1197138412
H  H48  1  0.97110000  0.61640000  0.01550000  1.0 0.100056353
H  H49  1  0.97180000  0.75940000  0.15340000  1.0 0.1077014645
H  H50  1  0.05150000  0.89830000  0.22180000  1.0 0.1197138412
H  H51  1  0.13250000  0.89230000  0.16020000  1.0 0.1197138412
H  H52  1  0.12770000  0.17700000  0.48050000  1.0 0.1197138412
H  H53  1  0.05220000  0.23020000  0.43940000  1.0 0.1404604809
H  H54  1  0.94570000  0.24410000  0.58440000  1.0 0.1197138412
H  H55  1  0.02830000  0.20490000  0.63740000  1.0 0.1197138412
H  H56  1  0.02090000  0.02780000  0.68530000  1.0 0.1197138412
H  H57  1  0.03650000  0.04930000  0.59200000  1.0 0.1077014645
H  H58  1  0.22260000  0.20280000  0.87580000  1.0 0.1197138412
H  H59  1  0.41110000  0.28200000  0.74470000  1.0 0.1404604809
H  H60  1  0.32450000  0.47690000  0.83920000  1.0 0.1328537266
H  H61  1  0.29940000  0.16560000  0.64340000  1.0 0.1328537266
H  H62  1  0.23600000  0.21930000  0.77830000  1.0 0.1197138412
H  H63  1  0.22580000  0.10960000  0.47400000  1.0 0.1077014645
H  H64  1  0.21140000  0.36420000  0.74220000  1.0 0.1197138412
H  H65  1  0.10090000  0.95560000  0.48450000  1.0 0.100056353
H  H66  1  0.10600000  0.81840000  0.34660000  1.0 0.1077014645
H  H67  1  0.17650000  0.82970000  0.27820000  1.0 0.1197138412
H  H68  1  0.23210000  0.97230000  0.33980000  1.0 0.1197138412
H  H69  1  0.62770000  0.14720000  0.95070000  1.0 0.1197138412
H  H70  1  0.55220000  0.11280000  0.82200000  1.0 0.1404604809
H  H71  1  0.44570000  0.86130000  0.70160000  1.0 0.1197138412
H  H72  1  0.52830000  0.89090000  0.82340000  1.0 0.1197138412
H  H73  1  0.52090000  0.83560000  0.99310000  1.0 0.1197138412
H  H74  1  0.53650000  0.94450000  0.98720000  1.0 0.1077014645
H  H75  1  0.72260000  0.84680000  0.01980000  1.0 0.1197138412
H  H76  1  0.91110000  0.16640000  0.12910000  1.0 0.1404604809
H  H77  1  0.82450000  0.98530000  0.84760000  1.0 0.1328537266
H  H78  1  0.79940000  0.15600000  0.13380000  1.0 0.1328537266
H  H79  1  0.73600000  0.95770000  0.01670000  1.0 0.1197138412
H  H80  1  0.72580000  0.25180000  0.11620000  1.0 0.1077014645
H  H81  1  0.71140000  0.96920000  0.84720000  1.0 0.1197138412
H  H82  1  0.60090000  0.11640000  0.14530000  1.0 0.100056353
H  H83  1  0.60600000  0.25940000  0.28760000  1.0 0.1077014645
H  H84  1  0.67650000  0.39830000  0.34680000  1.0 0.1197138412
H  H85  1  0.73210000  0.39230000  0.25980000  1.0 0.1197138412
H  H86  1  0.69650000  0.67700000  0.54930000  1.0 0.1197138412
H  H87  1  0.79080000  0.73020000  0.67800000  1.0 0.1404604809
H  H88  1  0.65970000  0.74410000  0.79840000  1.0 0.1197138412
H  H89  1  0.56750000  0.70490000  0.67660000  1.0 0.1197138412
H  H90  1  0.34250000  0.52780000  0.50690000  1.0 0.1197138412
H  H91  1  0.45730000  0.54930000  0.51280000  1.0 0.1077014645
H  H92  1  0.32700000  0.70280000  0.48020000  1.0 0.1197138412
H  H93  1  0.53730000  0.78200000  0.37090000  1.0 0.1404604809
H  H94  1  0.63770000  0.97690000  0.65240000  1.0 0.1328537266
H  H95  1  0.52220000  0.66560000  0.36620000  1.0 0.1328537266
H  H96  1  0.44100000  0.71930000  0.48330000  1.0 0.1197138412
H  H97  1  0.63560000  0.60960000  0.38380000  1.0 0.1077014645
H  H98  1  0.62200000  0.86420000  0.65280000  1.0 0.1197138412
H  H99  1  0.47110000  0.45560000  0.35470000  1.0 0.100056353
H  H100  1  0.47180000  0.31840000  0.21240000  1.0 0.1077014645
H  H101  1  0.55150000  0.32970000  0.15320000  1.0 0.1197138412
H  H102  1  0.63250000  0.47230000  0.24020000  1.0 0.1197138412
H  H103  1  0.80350000  0.35280000  0.98050000  1.0 0.1197138412
H  H104  1  0.70920000  0.38720000  0.93940000  1.0 0.1404604809
H  H105  1  0.84030000  0.63870000  0.08440000  1.0 0.1197138412
H  H106  1  0.93250000  0.60910000  0.13740000  1.0 0.1197138412
H  H107  1  0.15750000  0.66440000  0.18530000  1.0 0.1197138412
H  H108  1  0.04270000  0.55550000  0.09200000  1.0 0.1077014645
H  H109  1  0.17300000  0.65320000  0.37580000  1.0 0.1197138412
H  H110  1  0.96270000  0.33360000  0.24470000  1.0 0.1404604809
H  H111  1  0.86230000  0.51470000  0.33920000  1.0 0.1328537266
H  H112  1  0.97780000  0.34400000  0.14340000  1.0 0.1328537266
H  H113  1  0.05900000  0.54230000  0.27830000  1.0 0.1197138412
H  H114  1  0.86440000  0.24820000  0.97400000  1.0 0.1077014645
H  H115  1  0.87800000  0.53080000  0.24220000  1.0 0.1197138412
H  H116  1  0.02890000  0.38360000  0.98450000  1.0 0.100056353
H  H117  1  0.02820000  0.24060000  0.84660000  1.0 0.1077014645
H  H118  1  0.94850000  0.10170000  0.77820000  1.0 0.1197138412
H  H119  1  0.86750000  0.10770000  0.83980000  1.0 0.1197138412
H  H120  1  0.87230000  0.82300000  0.51950000  1.0 0.1197138412
H  H121  1  0.94780000  0.76980000  0.56060000  1.0 0.1404604809
H  H122  1  0.05430000  0.75590000  0.41560000  1.0 0.1328537266
H  H123  1  0.97170000  0.79510000  0.36260000  1.0 0.1197138412
H  H124  1  0.97910000  0.97220000  0.31470000  1.0 0.1197138412
H  H125  1  0.96350000  0.95070000  0.40800000  1.0 0.1077014645
H  H126  1  0.77740000  0.79720000  0.12420000  1.0 0.1197138412
H  H127  1  0.58890000  0.71800000  0.25530000  1.0 0.1404604809
H  H128  1  0.67550000  0.52310000  0.16080000  1.0 0.1328537266
H  H129  1  0.70060000  0.83440000  0.35660000  1.0 0.1328537266
H  H130  1  0.76400000  0.78070000  0.22170000  1.0 0.1197138412
H  H131  1  0.77420000  0.89040000  0.52600000  1.0 0.1077014645
H  H132  1  0.78860000  0.63580000  0.25780000  1.0 0.1197138412
H  H133  1  0.89910000  0.04440000  0.51550000  1.0 0.100056353
H  H134  1  0.89400000  0.18160000  0.65340000  1.0 0.1077014645
H  H135  1  0.82350000  0.17030000  0.72180000  1.0 0.1197138412
H  H136  1  0.76790000  0.02770000  0.66020000  1.0 0.1197138412
C  C1  1  0.55899000  0.03150000  0.32629000  1.0 0.5624026274
C  C2  1  0.05027000  0.91806000  0.01281000  1.0 0.5680686301
C  C3  1  0.12235000  0.92415000  0.01218000  1.0 0.0005031949
C  C4  1  0.41539000  0.98095000  0.10364000  1.0 -0.1796272891
C  C5  1  0.40836000  0.91277000  0.10179000  1.0 -0.0888403426
C  C6  1  0.45450000  0.93263000  0.17707000  1.0 -0.0888403426
C  C7  1  0.51596000  0.08044000  0.24852000  1.0 -0.0888403426
C  C8  1  0.46729000  0.06184000  0.17509000  1.0 -0.0888403426
C  C9  1  0.50792000  0.01360000  0.24812000  1.0 -0.0021136489
C  C10  1  0.39027000  0.24623000  0.00118000  1.0 0.5624026274
C  C11  1  0.38121000  0.17377000  0.99736000  1.0 -0.0543969768
C  C12  1  0.43522000  0.14157000  0.00409000  1.0 -0.0888403426
C  C13  1  0.42536000  0.07557000  0.00679000  1.0 -0.1065456207
C  C14  1  0.31612000  0.13470000  0.98790000  1.0 -0.0793899671
C  C15  1  0.12979000  0.87376000  0.92883000  1.0 -0.0701294136
C  C16  1  0.18068000  0.97996000  0.09332000  1.0 -0.0952581624
C  C17  1  0.19637000  0.87947000  0.92588000  1.0 -0.0701294136
C  C18  1  0.36329000  0.03904000  0.00119000  1.0 -0.1796272891
C  C19  1  0.30857000  0.06847000  0.98994000  1.0 -0.0701294136
C  C20  1  0.33808000  0.83328000  0.88626000  1.0 -0.2107787924
C  C21  1  0.29839000  0.74812000  0.84969000  1.0 -0.0793899671
C  C22  1  0.25619000  0.93601000  0.00866000  1.0 -0.1891587778
C  C23  1  0.24826000  0.98872000  0.09394000  1.0 -0.0888403426
C  C24  1  0.37230000  0.82712000  0.83198000  1.0 -0.0701294136
C  C25  1  0.36890000  0.74242000  0.74668000  1.0 -0.0888403426
C  C26  1  0.32818000  0.66082000  0.71276000  1.0 -0.0589043587
C  C27  1  0.29484000  0.66485000  0.76419000  1.0 -0.0888403426
C  C28  1  0.20521000  0.23270000  0.17371000  1.0 0.5624026274
C  C29  1  0.40525000  0.03746000  0.48719000  1.0 0.5680686301
C  C30  1  0.41197000  0.11017000  0.48782000  1.0 0.0005031949
C  C31  1  0.37731000  0.31175000  0.39636000  1.0 -0.1796272891
C  C32  1  0.31098000  0.30657000  0.39821000  1.0 -0.0888403426
C  C33  1  0.25556000  0.27743000  0.32293000  1.0 -0.0888403426
C  C34  1  0.33192000  0.26744000  0.25148000  1.0 -0.0888403426
C  C35  1  0.38675000  0.29220000  0.32491000  1.0 -0.0888403426
C  C36  1  0.26548000  0.25980000  0.25188000  1.0 -0.0021136489
C  C37  1  0.74505000  0.38909000  0.49882000  1.0 0.5624026274
C  C38  1  0.67641000  0.38385000  0.50264000  1.0 -0.0589043587
C  C39  1  0.63748000  0.43113000  0.49591000  1.0 -0.0888403426
C  C40  1  0.56878000  0.41857000  0.49321000  1.0 -0.1065456207
C  C41  1  0.64680000  0.32822000  0.51210000  1.0 -0.0793899671
C  C42  1  0.44493000  0.20096000  0.57117000  1.0 -0.0589043587
C  C43  1  0.38664000  0.08736000  0.40668000  1.0 -0.0952581624
C  C44  1  0.45359000  0.27049000  0.57412000  1.0 -0.0701294136
C  C45  1  0.53785000  0.36210000  0.49881000  1.0 -0.1796272891
C  C46  1  0.57853000  0.31863000  0.51006000  1.0 -0.0701294136
C  C47  1  0.44702000  0.45182000  0.61374000  1.0 -0.2107787924
C  C48  1  0.39843000  0.44870000  0.65031000  1.0 -0.0793899671
C  C49  1  0.42735000  0.24753000  0.49134000  1.0 -0.1891587778
C  C50  1  0.39478000  0.15432000  0.40606000  1.0 -0.0888403426
C  C51  1  0.49514000  0.54032000  0.66802000  1.0 -0.0701294136
C  C52  1  0.49574000  0.62222000  0.75332000  1.0 -0.0888403426
C  C53  1  0.44806000  0.61542000  0.78724000  1.0 -0.0589043587
C  C54  1  0.40066000  0.53065000  0.73581000  1.0 -0.0888403426
C  C55  1  0.29479000  0.46850000  0.02749000  1.0 0.5624026274
C  C56  1  0.09475000  0.58194000  0.63221000  1.0 0.5680686301
C  C57  1  0.08803000  0.57585000  0.69820000  1.0 0.0005031949
C  C58  1  0.12269000  0.51905000  0.93444000  1.0 -0.1796272891
C  C59  1  0.18902000  0.58723000  0.99559000  1.0 -0.0888403426
C  C60  1  0.24444000  0.56737000  0.02187000  1.0 -0.0888403426
C  C61  1  0.16808000  0.41956000  0.93552000  1.0 -0.0888403426
C  C62  1  0.11325000  0.43816000  0.90545000  1.0 -0.0888403426
C  C63  1  0.23452000  0.48640000  0.99432000  1.0 -0.0021136489
C  C64  1  0.75495000  0.25377000  0.64404000  1.0 0.5624026274
C  C65  1  0.82359000  0.32623000  0.70744000  1.0 -0.0589043587
C  C66  1  0.86252000  0.35843000  0.79365000  1.0 -0.0888403426
C  C67  1  0.93122000  0.42443000  0.84979000  1.0 -0.1065456207
C  C68  1  0.85320000  0.36530000  0.68142000  1.0 -0.0793899671
C  C69  1  0.05507000  0.62624000  0.75603000  1.0 -0.0589043587
C  C70  1  0.11336000  0.52004000  0.70072000  1.0 -0.0952581624
C  C71  1  0.04641000  0.62053000  0.81690000  1.0 -0.0701294136
C  C72  1  0.96215000  0.46096000  0.82425000  1.0 -0.1796272891
C  C73  1  0.92147000  0.43153000  0.74010000  1.0 -0.0701294136
C  C74  1  0.05298000  0.66666667  0.00480000  1.0 -0.2107787924
C  C75  1  0.10157000  0.75188000  0.05027000  1.0 -0.0793899671
C  C76  1  0.07265000  0.56399000  0.82018000  1.0 -0.1891587778
C  C77  1  0.10522000  0.51128000  0.75954000  1.0 -0.0888403426
C  C78  1  0.00486000  0.67288000  0.04518000  1.0 -0.0701294136
C  C79  1  0.00426000  0.75758000  0.12648000  1.0 -0.0888403426
C  C80  1  0.05194000  0.83918000  0.16736000  1.0 -0.0589043587
C  C81  1  0.09934000  0.83515000  0.12999000  1.0 -0.0888403426
C  C82  1  0.94101000  0.26730000  0.47251000  1.0 0.5624026274
C  C83  1  0.44973000  0.46254000  0.86779000  1.0 0.5680686301
C  C84  1  0.37765000  0.38983000  0.80180000  1.0 0.0005031949
C  C85  1  0.08461000  0.18825000  0.56556000  1.0 -0.1796272891
C  C86  1  0.09164000  0.19343000  0.50441000  1.0 -0.0888403426
C  C87  1  0.04550000  0.22257000  0.47813000  1.0 -0.0888403426
C  C88  1  0.98404000  0.23256000  0.56448000  1.0 -0.0888403426
C  C89  1  0.03271000  0.20780000  0.59455000  1.0 -0.0888403426
C  C90  1  0.99208000  0.24020000  0.50568000  1.0 -0.0021136489
C  C91  1  0.10973000  0.11091000  0.85596000  1.0 0.5624026274
C  C92  1  0.11879000  0.11615000  0.79256000  1.0 -0.0589043587
C  C93  1  0.06478000  0.06887000  0.70635000  1.0 -0.0888403426
C  C94  1  0.07464000  0.08143000  0.65021000  1.0 -0.1065456207
C  C95  1  0.18388000  0.17178000  0.81858000  1.0 -0.0793899671
C  C96  1  0.37021000  0.29904000  0.74397000  1.0 -0.0701294136
C  C97  1  0.31932000  0.41264000  0.79928000  1.0 -0.0952581624
C  C98  1  0.30363000  0.22951000  0.68310000  1.0 -0.0701294136
C  C99  1  0.13671000  0.13790000  0.67575000  1.0 -0.1796272891
C  C100  1  0.19143000  0.18137000  0.75990000  1.0 -0.0701294136
C  C101  1  0.16192000  0.04818000  0.49520000  1.0 -0.2107787924
C  C102  1  0.20161000  0.05130000  0.44973000  1.0 -0.0793899671
C  C103  1  0.24381000  0.25247000  0.67982000  1.0 -0.1891587778
C  C104  1  0.25174000  0.34568000  0.74046000  1.0 -0.0888403426
C  C105  1  0.12770000  0.95968000  0.45482000  1.0 -0.0701294136
C  C106  1  0.13110000  0.87778000  0.37352000  1.0 -0.0888403426
C  C107  1  0.17182000  0.88458000  0.33264000  1.0 -0.0589043587
C  C108  1  0.20516000  0.96935000  0.37001000  1.0 -0.0888403426
C  C109  1  0.44101000  0.96850000  0.67371000  1.0 0.5624026274
C  C110  1  0.94973000  0.08194000  0.98719000  1.0 0.5680686301
C  C111  1  0.87765000  0.07585000  0.98782000  1.0 0.0005031949
C  C112  1  0.58461000  0.01905000  0.89636000  1.0 -0.1796272891
C  C113  1  0.59164000  0.08723000  0.89821000  1.0 -0.0888403426
C  C114  1  0.54550000  0.06737000  0.82293000  1.0 -0.0888403426
C  C115  1  0.48404000  0.91956000  0.75148000  1.0 -0.0888403426
C  C116  1  0.53271000  0.93816000  0.82491000  1.0 -0.0888403426
C  C117  1  0.49208000  0.98640000  0.75188000  1.0 -0.0021136489
C  C118  1  0.60973000  0.75377000  0.99882000  1.0 0.5624026274
C  C119  1  0.61879000  0.82623000  0.00264000  1.0 -0.0589043587
C  C120  1  0.56478000  0.85843000  0.99591000  1.0 -0.0888403426
C  C121  1  0.57464000  0.92443000  0.99321000  1.0 -0.1065456207
C  C122  1  0.68388000  0.86530000  0.01210000  1.0 -0.0793899671
C  C123  1  0.87021000  0.12624000  0.07117000  1.0 -0.0701294136
C  C124  1  0.81932000  0.02004000  0.90668000  1.0 -0.0952581624
C  C125  1  0.80363000  0.12053000  0.07412000  1.0 -0.0701294136
C  C126  1  0.63671000  0.96096000  0.99881000  1.0 -0.1796272891
C  C127  1  0.69143000  0.93153000  0.01006000  1.0 -0.0701294136
C  C128  1  0.66192000  0.16672000  0.11374000  1.0 -0.2107787924
C  C129  1  0.70161000  0.25188000  0.15031000  1.0 -0.0793899671
C  C130  1  0.74381000  0.06399000  0.99134000  1.0 -0.1891587778
C  C131  1  0.75174000  0.01128000  0.90606000  1.0 -0.0888403426
C  C132  1  0.62770000  0.17288000  0.16802000  1.0 -0.0701294136
C  C133  1  0.63110000  0.25758000  0.25332000  1.0 -0.0888403426
C  C134  1  0.67182000  0.33918000  0.28724000  1.0 -0.0589043587
C  C135  1  0.70516000  0.33515000  0.23581000  1.0 -0.0888403426
C  C136  1  0.79479000  0.76730000  0.82629000  1.0 0.5624026274
C  C137  1  0.59475000  0.96254000  0.51281000  1.0 0.5680686301
C  C138  1  0.58803000  0.88983000  0.51218000  1.0 0.0005031949
C  C139  1  0.62269000  0.68825000  0.60364000  1.0 -0.1796272891
C  C140  1  0.68902000  0.69343000  0.60179000  1.0 -0.0888403426
C  C141  1  0.74444000  0.72257000  0.67707000  1.0 -0.0888403426
C  C142  1  0.66808000  0.73256000  0.74852000  1.0 -0.0888403426
C  C143  1  0.61325000  0.70780000  0.67509000  1.0 -0.0888403426
C  C144  1  0.73452000  0.74020000  0.74812000  1.0 -0.0021136489
C  C145  1  0.25495000  0.61091000  0.50118000  1.0 0.5624026274
C  C146  1  0.32359000  0.61615000  0.49736000  1.0 -0.0543969768
C  C147  1  0.36252000  0.56887000  0.50409000  1.0 -0.0888403426
C  C148  1  0.43122000  0.58143000  0.50679000  1.0 -0.1065456207
C  C149  1  0.35320000  0.67178000  0.48790000  1.0 -0.0793899671
C  C150  1  0.55507000  0.79904000  0.42883000  1.0 -0.0589043587
C  C151  1  0.61336000  0.91264000  0.59332000  1.0 -0.0952581624
C  C152  1  0.54641000  0.72951000  0.42588000  1.0 -0.0701294136
C  C153  1  0.46215000  0.63790000  0.50119000  1.0 -0.1796272891
C  C154  1  0.42147000  0.68137000  0.48994000  1.0 -0.0701294136
C  C155  1  0.55298000  0.54818000  0.38626000  1.0 -0.2107787924
C  C156  1  0.60157000  0.55130000  0.34969000  1.0 -0.0793899671
C  C157  1  0.57265000  0.75247000  0.50866000  1.0 -0.1891587778
C  C158  1  0.60522000  0.84568000  0.59394000  1.0 -0.0888403426
C  C159  1  0.50486000  0.45968000  0.33198000  1.0 -0.0701294136
C  C160  1  0.50426000  0.37778000  0.24668000  1.0 -0.0888403426
C  C161  1  0.55194000  0.38458000  0.21276000  1.0 -0.0589043587
C  C162  1  0.59934000  0.46935000  0.26419000  1.0 -0.0888403426
C  C163  1  0.70521000  0.53150000  0.97251000  1.0 0.5624026274
C  C164  1  0.90525000  0.41806000  0.36779000  1.0 0.5680686301
C  C165  1  0.91197000  0.42415000  0.30180000  1.0 0.0005031949
C  C166  1  0.87731000  0.48095000  0.06556000  1.0 -0.1796272891
C  C167  1  0.81098000  0.41277000  0.00441000  1.0 -0.0888403426
C  C168  1  0.75556000  0.43263000  0.97813000  1.0 -0.0888403426
C  C169  1  0.83192000  0.58044000  0.06448000  1.0 -0.0888403426
C  C170  1  0.88675000  0.56184000  0.09455000  1.0 -0.0888403426
C  C171  1  0.76548000  0.51360000  0.00568000  1.0 -0.0021136489
C  C172  1  0.24505000  0.74623000  0.35596000  1.0 0.5624026274
C  C173  1  0.17641000  0.67377000  0.29256000  1.0 -0.0589043587
C  C174  1  0.13748000  0.64157000  0.20635000  1.0 -0.0888403426
C  C175  1  0.06878000  0.57557000  0.15021000  1.0 -0.1065456207
C  C176  1  0.14680000  0.63470000  0.31858000  1.0 -0.0793899671
C  C177  1  0.94493000  0.37376000  0.24397000  1.0 -0.0701294136
C  C178  1  0.88664000  0.47996000  0.29928000  1.0 -0.0952581624
C  C179  1  0.95359000  0.37947000  0.18310000  1.0 -0.0701294136
C  C180  1  0.03785000  0.53904000  0.17575000  1.0 -0.1796272891
C  C181  1  0.07853000  0.56847000  0.25990000  1.0 -0.0701294136
C  C182  1  0.94702000  0.33328000  0.99520000  1.0 -0.2107787924
C  C183  1  0.89843000  0.24812000  0.94973000  1.0 -0.0793899671
C  C184  1  0.92735000  0.43601000  0.17982000  1.0 -0.1891587778
C  C185  1  0.89478000  0.48872000  0.24046000  1.0 -0.0888403426
C  C186  1  0.99514000  0.32712000  0.95482000  1.0 -0.0701294136
C  C187  1  0.99574000  0.24242000  0.87352000  1.0 -0.0888403426
C  C188  1  0.94806000  0.16082000  0.83264000  1.0 -0.0589043587
C  C189  1  0.90066000  0.16485000  0.87001000  1.0 -0.0888403426
C  C190  1  0.05899000  0.73270000  0.52749000  1.0 0.5624026274
C  C191  1  0.55027000  0.53746000  0.13221000  1.0 0.5680686301
C  C192  1  0.62235000  0.61017000  0.19820000  1.0 0.0005031949
C  C193  1  0.91539000  0.81175000  0.43444000  1.0 -0.1796272891
C  C194  1  0.90836000  0.80657000  0.49559000  1.0 -0.0888403426
C  C195  1  0.95450000  0.77743000  0.52187000  1.0 -0.0888403426
C  C196  1  0.01596000  0.76744000  0.43552000  1.0 -0.0888403426
C  C197  1  0.96729000  0.79220000  0.40545000  1.0 -0.0888403426
C  C198  1  0.00792000  0.75980000  0.49432000  1.0 -0.0021136489
C  C199  1  0.89027000  0.88909000  0.14404000  1.0 0.5624026274
C  C200  1  0.88121000  0.88385000  0.20744000  1.0 -0.0543969768
C  C201  1  0.93522000  0.93113000  0.29365000  1.0 -0.0888403426
C  C202  1  0.92536000  0.91857000  0.34979000  1.0 -0.1065456207
C  C203  1  0.81612000  0.82822000  0.18142000  1.0 -0.0793899671
C  C204  1  0.62979000  0.70096000  0.25603000  1.0 -0.0589043587
C  C205  1  0.68068000  0.58736000  0.20072000  1.0 -0.0952581624
C  C206  1  0.69637000  0.77049000  0.31690000  1.0 -0.0701294136
C  C207  1  0.86329000  0.86210000  0.32425000  1.0 -0.1796272891
C  C208  1  0.80857000  0.81863000  0.24010000  1.0 -0.0701294136
C  C209  1  0.83808000  0.95182000  0.50480000  1.0 -0.2107787924
C  C210  1  0.79839000  0.94870000  0.55027000  1.0 -0.0793899671
C  C211  1  0.75619000  0.74753000  0.32018000  1.0 -0.1891587778
C  C212  1  0.74826000  0.65432000  0.25954000  1.0 -0.0888403426
C  C213  1  0.87230000  0.04032000  0.54518000  1.0 -0.0701294136
C  C214  1  0.86890000  0.12222000  0.62648000  1.0 -0.0888403426
C  C215  1  0.82818000  0.11542000  0.66736000  1.0 -0.0589043587
C  C216  1  0.79484000  0.03065000  0.62999000  1.0 -0.0888403426
O  O1  1  0.54200000  0.97939000  0.33617000  1.0 -0.5269314955
O  O2  1  0.57794000  0.14254000  0.54042000  1.0 -0.6062990884
O  O3  1  0.69123000  0.02503000  0.45236000  1.0 -0.6044659252
O  O4  1  0.34193000  0.28112000  0.00599000  1.0 -0.6166842366
O  O5  1  0.44853000  0.28621000  0.01242000  1.0 -0.5478718961
O  O6  1  0.04069000  0.95220000  0.08709000  1.0 -0.5478718961
O  O7  1  0.99782000  0.87532000  0.93712000  1.0 -0.5361400054
O  O8  1  0.61516000  0.10224000  0.38808000  1.0 -0.5883514965
O  O9  1  0.16788000  0.40045000  0.11183000  1.0 -0.309319024
O  O10  1  0.14322000  0.20583000  0.16383000  1.0 -0.5243733163
O  O11  1  0.10212000  0.03752000  0.95958000  1.0 -0.6062990884
O  O12  1  0.07267000  0.23887000  0.04764000  1.0 -0.6044659252
O  O13  1  0.77513000  0.33594000  0.49401000  1.0 -0.6166842366
O  O14  1  0.77379000  0.43611000  0.48758000  1.0 -0.5478718961
O  O15  1  0.36511000  0.95360000  0.41291000  1.0 -0.5478718961
O  O16  1  0.43820000  0.06070000  0.56288000  1.0 -0.5361400054
O  O17  1  0.21416000  0.22708000  0.11192000  1.0 -0.5883514965
O  O18  1  0.78862000  0.05605000  0.38817000  1.0 -0.309319024
O  O19  1  0.35678000  0.52061000  0.06261000  1.0 -0.5269314955
O  O20  1  0.39788000  0.35746000  0.93540000  1.0 -0.6062990884
O  O21  1  0.42733000  0.47497000  0.16620000  1.0 -0.6044659252
O  O22  1  0.72487000  0.21888000  0.56081000  1.0 -0.6166842366
O  O23  1  0.72621000  0.21379000  0.66232000  1.0 -0.5478718961
O  O24  1  0.13489000  0.54780000  0.58849000  1.0 -0.5478718961
O  O25  1  0.06180000  0.62468000  0.62250000  1.0 -0.5361400054
O  O26  1  0.28584000  0.39776000  0.01292000  1.0 -0.5883514965
O  O27  1  0.71138000  0.09955000  0.26743000  1.0 -0.309319024
O  O28  1  0.95800000  0.29417000  0.43739000  1.0 -0.5269314955
O  O29  1  0.92206000  0.46248000  0.56460000  1.0 -0.6062990884
O  O30  1  0.80877000  0.26113000  0.33380000  1.0 -0.6044659252
O  O31  1  0.15807000  0.16406000  0.93919000  1.0 -0.6166842366
O  O32  1  0.05147000  0.06389000  0.83768000  1.0 -0.5478718961
O  O33  1  0.45931000  0.54640000  0.91151000  1.0 -0.5478718961
O  O34  1  0.50218000  0.43930000  0.87750000  1.0 -0.5361400054
O  O35  1  0.88484000  0.27292000  0.48708000  1.0 -0.5883514965
O  O36  1  0.33212000  0.44395000  0.23257000  1.0 -0.309319024
O  O37  1  0.45800000  0.02061000  0.66383000  1.0 -0.5269314955
O  O38  1  0.42206000  0.85746000  0.45958000  1.0 -0.6062990884
O  O39  1  0.30877000  0.97497000  0.54764000  1.0 -0.6044659252
O  O40  1  0.65807000  0.71888000  0.99401000  1.0 -0.6166842366
O  O41  1  0.55147000  0.71379000  0.98758000  1.0 -0.5478718961
O  O42  1  0.95931000  0.04780000  0.91291000  1.0 -0.5478718961
O  O43  1  0.00218000  0.12468000  0.06288000  1.0 -0.5269314955
O  O44  1  0.38484000  0.89776000  0.61192000  1.0 -0.5883514965
O  O45  1  0.83212000  0.59955000  0.88817000  1.0 -0.309319024
O  O46  1  0.85678000  0.79417000  0.83617000  1.0 -0.5269314955
O  O47  1  0.89788000  0.96248000  0.04042000  1.0 -0.6062990884
O  O48  1  0.92733000  0.76113000  0.95236000  1.0 -0.6044659252
O  O49  1  0.22487000  0.66406000  0.50599000  1.0 -0.6166842366
O  O50  1  0.22621000  0.56389000  0.51242000  1.0 -0.5478718961
O  O51  1  0.63489000  0.04640000  0.58709000  1.0 -0.5478718961
O  O52  1  0.56180000  0.93930000  0.43712000  1.0 -0.5361400054
O  O53  1  0.78584000  0.77292000  0.88808000  1.0 -0.5883514965
O  O54  1  0.21138000  0.94395000  0.61183000  1.0 -0.309319024
O  O55  1  0.64322000  0.47939000  0.93739000  1.0 -0.5269314955
O  O56  1  0.60212000  0.64254000  0.06460000  1.0 -0.6062990884
O  O57  1  0.57267000  0.52503000  0.83380000  1.0 -0.6044659252
O  O58  1  0.27513000  0.78112000  0.43919000  1.0 -0.6166842366
O  O59  1  0.27379000  0.78621000  0.33768000  1.0 -0.5478718961
O  O60  1  0.86511000  0.45220000  0.41151000  1.0 -0.5478718961
O  O61  1  0.93820000  0.37532000  0.37750000  1.0 -0.5361400054
O  O62  1  0.71416000  0.60224000  0.98708000  1.0 -0.5883514965
O  O63  1  0.28862000  0.90045000  0.73257000  1.0 -0.309319024
O  O64  1  0.04200000  0.70583000  0.56261000  1.0 -0.5269314955
O  O65  1  0.07794000  0.53752000  0.43540000  1.0 -0.6062990884
O  O66  1  0.19123000  0.73887000  0.66620000  1.0 -0.6044659252
O  O67  1  0.84193000  0.83594000  0.06081000  1.0 -0.6166842366
O  O68  1  0.94853000  0.93611000  0.16232000  1.0 -0.5478718961
O  O69  1  0.54069000  0.45360000  0.08849000  1.0 -0.5478718961
O  O70  1  0.49782000  0.56070000  0.12250000  1.0 -0.5361400054
O  O71  1  0.11516000  0.72708000  0.51292000  1.0 -0.5883514965
O  O72  1  0.66788000  0.55605000  0.76743000  1.0 -0.309319024
