# DDEC6 charges by PACMAN v1.1 (https://github.com/mtap-research/PACMAN-charge/)
data_DIRZOW_ASR_pacman
_symmetry_space_group_name_H-M   'P 1'
_cell_length_a   15.96880000
_cell_length_b   26.04600000
_cell_length_c   27.90800000
_cell_angle_alpha   90.00000000
_cell_angle_beta   90.00000000
_cell_angle_gamma   90.00000000
_symmetry_Int_Tables_number   1
_chemical_formula_structural   Cs5U8Si4H66(C27O8)4
_chemical_formula_sum   'Cs20 U32 Si16 H264 C432 O128'
_cell_volume   11607.58926484
_cell_formula_units_Z   4
loop_
 _symmetry_equiv_pos_site_id
 _symmetry_equiv_pos_as_xyz
  1  'x, y, z'
loop_
 _atom_site_type_symbol
 _atom_site_label
 _atom_site_symmetry_multiplicity
 _atom_site_fract_x
 _atom_site_fract_y
 _atom_site_fract_z
 _atom_site_occupancy
 _atom_site_charge
Cs  Cs1  1  0.69697000  0.94656000  0.98264000  1.0 0.8779179397
Cs  Cs2  1  0.30303000  0.55344000  0.98264000  1.0 0.8779179397
Cs  Cs3  1  0.69697000  0.05344000  0.51736000  1.0 0.8779179397
Cs  Cs4  1  0.30303000  0.44656000  0.51736000  1.0 0.8779179397
Cs  Cs5  1  0.30303000  0.05344000  0.01736000  1.0 0.8779179397
Cs  Cs6  1  0.69697000  0.44656000  0.01736000  1.0 0.8779179397
Cs  Cs7  1  0.30303000  0.94656000  0.48264000  1.0 0.8779179397
Cs  Cs8  1  0.69697000  0.55344000  0.48264000  1.0 0.8779179397
Cs  Cs9  1  0.16513000  0.00000000  0.25000000  1.0 0.3327173335
Cs  Cs10  1  0.09400000  0.00000000  0.25000000  1.0 0.4309454653
Cs  Cs11  1  0.83487000  0.50000000  0.25000000  1.0 0.3375053813
Cs  Cs12  1  0.90600000  0.50000000  0.25000000  1.0 0.4309454653
Cs  Cs13  1  0.83487000  0.00000000  0.75000000  1.0 0.3327173335
Cs  Cs14  1  0.90600000  0.00000000  0.75000000  1.0 0.4309454653
Cs  Cs15  1  0.16513000  0.50000000  0.75000000  1.0 0.3327173335
Cs  Cs16  1  0.09400000  0.50000000  0.75000000  1.0 0.4309454653
Cs  Cs17  1  0.39662000  0.00000000  0.75000000  1.0 0.8576500509
Cs  Cs18  1  0.60338000  0.50000000  0.75000000  1.0 0.8576500509
Cs  Cs19  1  0.60338000  0.00000000  0.25000000  1.0 0.8576500509
Cs  Cs20  1  0.39662000  0.50000000  0.25000000  1.0 0.8576500509
U  U1  1  0.48659000  0.97739000  0.89076000  1.0 2.3821497354
U  U2  1  0.06476000  0.01200000  0.39052000  1.0 2.3647797647
U  U3  1  0.05370000  0.01210000  0.39150000  1.0 2.3505280557
U  U4  1  0.48350000  0.97870000  0.89150000  1.0 2.3821497354
U  U5  1  0.51341000  0.52261000  0.89076000  1.0 2.3821497354
U  U6  1  0.93524000  0.48800000  0.39052000  1.0 2.3647797647
U  U7  1  0.94630000  0.48790000  0.39150000  1.0 2.3505280557
U  U8  1  0.51650000  0.52130000  0.89150000  1.0 2.3821497354
U  U9  1  0.48659000  0.02261000  0.60924000  1.0 2.3821497354
U  U10  1  0.06476000  0.98800000  0.10948000  1.0 2.3647797647
U  U11  1  0.05370000  0.98790000  0.10850000  1.0 2.3505280557
U  U12  1  0.48350000  0.02130000  0.60850000  1.0 2.3821497354
U  U13  1  0.51341000  0.47739000  0.60924000  1.0 2.3821497354
U  U14  1  0.93524000  0.51200000  0.10948000  1.0 2.3647797647
U  U15  1  0.94630000  0.51210000  0.10850000  1.0 2.3505280557
U  U16  1  0.51650000  0.47870000  0.60850000  1.0 2.3821497354
U  U17  1  0.51341000  0.02261000  0.10924000  1.0 2.3821497354
U  U18  1  0.93524000  0.98800000  0.60948000  1.0 2.3647797647
U  U19  1  0.94630000  0.98790000  0.60850000  1.0 2.3505280557
U  U20  1  0.51650000  0.02130000  0.10850000  1.0 2.3821497354
U  U21  1  0.48659000  0.47739000  0.10924000  1.0 2.3821497354
U  U22  1  0.06476000  0.51200000  0.60948000  1.0 2.3647797647
U  U23  1  0.05370000  0.51210000  0.60850000  1.0 2.3505280557
U  U24  1  0.48350000  0.47870000  0.10850000  1.0 2.3821497354
U  U25  1  0.51341000  0.97739000  0.39076000  1.0 2.3821497354
U  U26  1  0.93524000  0.01200000  0.89052000  1.0 2.3647797647
U  U27  1  0.94630000  0.01210000  0.89150000  1.0 2.3505280557
U  U28  1  0.51650000  0.97870000  0.39150000  1.0 2.3821497354
U  U29  1  0.48659000  0.52261000  0.39076000  1.0 2.3821497354
U  U30  1  0.06476000  0.48800000  0.89052000  1.0 2.3647797647
U  U31  1  0.05370000  0.48790000  0.89150000  1.0 2.3505280557
U  U32  1  0.48350000  0.52130000  0.39150000  1.0 2.3821497354
Si  Si1  1  0.79440000  0.18271000  0.15622000  1.0 0.6266690287
Si  Si2  1  0.70440000  0.80198000  0.64571000  1.0 0.6195904332
Si  Si3  1  0.20560000  0.31729000  0.15622000  1.0 0.6266690287
Si  Si4  1  0.29560000  0.69802000  0.64571000  1.0 0.6195904332
Si  Si5  1  0.79440000  0.81729000  0.34378000  1.0 0.6266690287
Si  Si6  1  0.70440000  0.19802000  0.85429000  1.0 0.6195904332
Si  Si7  1  0.20560000  0.68271000  0.34378000  1.0 0.6266690287
Si  Si8  1  0.29560000  0.30198000  0.85429000  1.0 0.6195904332
Si  Si9  1  0.20560000  0.81729000  0.84378000  1.0 0.6266690287
Si  Si10  1  0.29560000  0.19802000  0.35429000  1.0 0.6195904332
Si  Si11  1  0.79440000  0.68271000  0.84378000  1.0 0.6266690287
Si  Si12  1  0.70440000  0.30198000  0.35429000  1.0 0.6195904332
Si  Si13  1  0.20560000  0.18271000  0.65622000  1.0 0.6266690287
Si  Si14  1  0.29560000  0.80198000  0.14571000  1.0 0.6195904332
Si  Si15  1  0.79440000  0.31729000  0.65622000  1.0 0.6266690287
Si  Si16  1  0.70440000  0.69802000  0.14571000  1.0 0.6195904332
H  H1  1  0.78690000  0.04070000  0.04580000  1.0 0.100100836
H  H2  1  0.54150000  0.64800000  0.68880000  1.0 0.1084136501
H  H3  1  0.96550000  0.05310000  0.23060000  1.0 0.089631325
H  H4  1  0.90800000  0.10000000  0.16980000  1.0 0.089631325
H  H5  1  0.78630000  0.18600000  0.26550000  1.0 0.0814611361
H  H6  1  0.83890000  0.13520000  0.32530000  1.0 0.1084136501
H  H7  1  0.96340000  0.14600000  0.01410000  1.0 0.1084136501
H  H8  1  0.92440000  0.19370000  0.07940000  1.0 0.0814611361
H  H9  1  0.74660000  0.08920000  0.11110000  1.0 0.089631325
H  H10  1  0.70800000  0.62840000  0.58450000  1.0 0.100100836
H  H11  1  0.74920000  0.71260000  0.59340000  1.0 0.089631325
H  H12  1  0.57930000  0.73300000  0.69440000  1.0 0.0814611361
H  H13  1  0.89620000  0.26120000  0.20910000  1.0 0.0814611361
H  H14  1  0.76740000  0.26140000  0.08820000  1.0 0.089631325
H  H15  1  0.79030000  0.34740000  0.07870000  1.0 0.100100836
H  H16  1  0.92080000  0.34980000  0.19920000  1.0 0.100100836
H  H17  1  0.62920000  0.90090000  0.66460000  1.0 0.1084136501
H  H18  1  0.70670000  0.78940000  0.75270000  1.0 0.0814611361
H  H19  1  0.67480000  0.84000000  0.81730000  1.0 0.100100836
H  H20  1  0.84190000  0.81260000  0.71210000  1.0 0.0814611361
H  H21  1  0.83030000  0.80010000  0.57000000  1.0 0.0814611361
H  H22  1  0.05120000  0.81320000  0.63760000  1.0 0.089631325
H  H23  1  0.98720000  0.81520000  0.70900000  1.0 0.0814611361
H  H24  1  0.97800000  0.80590000  0.56740000  1.0 0.089631325
H  H25  1  0.66620000  0.18580000  0.08540000  1.0 0.089631325
H  H26  1  0.65440000  0.17760000  0.22660000  1.0 0.0814611361
H  H27  1  0.44610000  0.19100000  0.14700000  1.0 0.089631325
H  H28  1  0.52580000  0.19280000  0.07850000  1.0 0.100100836
H  H29  1  0.51100000  0.18490000  0.22020000  1.0 0.0814611361
H  H30  1  0.75020000  0.88780000  0.58750000  1.0 0.089631325
H  H31  1  0.55220000  0.79330000  0.58320000  1.0 0.0814611361
H  H32  1  0.49830000  0.83980000  0.51810000  1.0 0.1084136501
H  H33  1  0.69710000  0.93280000  0.52350000  1.0 0.089631325
H  H34  1  0.21310000  0.45930000  0.04580000  1.0 0.100100836
H  H35  1  0.45850000  0.85200000  0.68880000  1.0 0.1084136501
H  H36  1  0.03450000  0.44690000  0.23060000  1.0 0.089631325
H  H37  1  0.09200000  0.40000000  0.16980000  1.0 0.089631325
H  H38  1  0.21370000  0.31400000  0.26550000  1.0 0.0814611361
H  H39  1  0.16110000  0.36480000  0.32530000  1.0 0.1084136501
H  H40  1  0.03660000  0.35400000  0.01410000  1.0 0.1084136501
H  H41  1  0.07560000  0.30630000  0.07940000  1.0 0.0814611361
H  H42  1  0.25340000  0.41080000  0.11110000  1.0 0.089631325
H  H43  1  0.29200000  0.87160000  0.58450000  1.0 0.100100836
H  H44  1  0.25080000  0.78740000  0.59340000  1.0 0.089631325
H  H45  1  0.42070000  0.76700000  0.69440000  1.0 0.0814611361
H  H46  1  0.10380000  0.23880000  0.20910000  1.0 0.0814611361
H  H47  1  0.23260000  0.23860000  0.08820000  1.0 0.089631325
H  H48  1  0.20970000  0.15260000  0.07870000  1.0 0.100100836
H  H49  1  0.07920000  0.15020000  0.19920000  1.0 0.100100836
H  H50  1  0.37080000  0.59910000  0.66460000  1.0 0.1084136501
H  H51  1  0.29330000  0.71060000  0.75270000  1.0 0.0814611361
H  H52  1  0.32520000  0.66000000  0.81730000  1.0 0.100100836
H  H53  1  0.15810000  0.68740000  0.71210000  1.0 0.0814611361
H  H54  1  0.16970000  0.69990000  0.57000000  1.0 0.0814611361
H  H55  1  0.94880000  0.68680000  0.63760000  1.0 0.089631325
H  H56  1  0.01280000  0.68480000  0.70900000  1.0 0.0814611361
H  H57  1  0.02200000  0.69410000  0.56740000  1.0 0.089631325
H  H58  1  0.33380000  0.31420000  0.08540000  1.0 0.089631325
H  H59  1  0.34560000  0.32240000  0.22660000  1.0 0.0814611361
H  H60  1  0.55390000  0.30900000  0.14700000  1.0 0.089631325
H  H61  1  0.47420000  0.30720000  0.07850000  1.0 0.100100836
H  H62  1  0.48900000  0.31510000  0.22020000  1.0 0.0814611361
H  H63  1  0.24980000  0.61220000  0.58750000  1.0 0.089631325
H  H64  1  0.44780000  0.70670000  0.58320000  1.0 0.0814611361
H  H65  1  0.50170000  0.66020000  0.51810000  1.0 0.1084136501
H  H66  1  0.30290000  0.56720000  0.52350000  1.0 0.089631325
H  H67  1  0.78690000  0.95930000  0.45420000  1.0 0.100100836
H  H68  1  0.54150000  0.35200000  0.81120000  1.0 0.1084136501
H  H69  1  0.96550000  0.94690000  0.26940000  1.0 0.089631325
H  H70  1  0.90800000  0.90000000  0.33020000  1.0 0.089631325
H  H71  1  0.78630000  0.81400000  0.23450000  1.0 0.0814611361
H  H72  1  0.83890000  0.86480000  0.17470000  1.0 0.1084136501
H  H73  1  0.96340000  0.85400000  0.48590000  1.0 0.1084136501
H  H74  1  0.92440000  0.80630000  0.42060000  1.0 0.0814611361
H  H75  1  0.74660000  0.91080000  0.38890000  1.0 0.089631325
H  H76  1  0.70800000  0.37160000  0.91550000  1.0 0.100100836
H  H77  1  0.74920000  0.28740000  0.90660000  1.0 0.089631325
H  H78  1  0.57930000  0.26700000  0.80560000  1.0 0.0814611361
H  H79  1  0.89620000  0.73880000  0.29090000  1.0 0.0814611361
H  H80  1  0.76740000  0.73860000  0.41180000  1.0 0.089631325
H  H81  1  0.79030000  0.65260000  0.42130000  1.0 0.100100836
H  H82  1  0.92080000  0.65020000  0.30080000  1.0 0.100100836
H  H83  1  0.62920000  0.09910000  0.83540000  1.0 0.1084136501
H  H84  1  0.70670000  0.21060000  0.74730000  1.0 0.0814611361
H  H85  1  0.67480000  0.16000000  0.68270000  1.0 0.100100836
H  H86  1  0.84190000  0.18740000  0.78790000  1.0 0.0814611361
H  H87  1  0.83030000  0.19990000  0.93000000  1.0 0.0814611361
H  H88  1  0.05120000  0.18680000  0.86240000  1.0 0.089631325
H  H89  1  0.98720000  0.18480000  0.79100000  1.0 0.0814611361
H  H90  1  0.97800000  0.19410000  0.93260000  1.0 0.089631325
H  H91  1  0.66620000  0.81420000  0.41460000  1.0 0.089631325
H  H92  1  0.65440000  0.82240000  0.27340000  1.0 0.0814611361
H  H93  1  0.44610000  0.80900000  0.35300000  1.0 0.089631325
H  H94  1  0.52580000  0.80720000  0.42150000  1.0 0.100100836
H  H95  1  0.51100000  0.81510000  0.27980000  1.0 0.0814611361
H  H96  1  0.75020000  0.11220000  0.91250000  1.0 0.089631325
H  H97  1  0.55220000  0.20670000  0.91680000  1.0 0.0814611361
H  H98  1  0.49830000  0.16020000  0.98190000  1.0 0.1084136501
H  H99  1  0.69710000  0.06720000  0.97650000  1.0 0.089631325
H  H100  1  0.21310000  0.54070000  0.45420000  1.0 0.100100836
H  H101  1  0.45850000  0.14800000  0.81120000  1.0 0.1084136501
H  H102  1  0.03450000  0.55310000  0.26940000  1.0 0.089631325
H  H103  1  0.09200000  0.60000000  0.33020000  1.0 0.089631325
H  H104  1  0.21370000  0.68600000  0.23450000  1.0 0.0814611361
H  H105  1  0.16110000  0.63520000  0.17470000  1.0 0.1084136501
H  H106  1  0.03660000  0.64600000  0.48590000  1.0 0.1084136501
H  H107  1  0.07560000  0.69370000  0.42060000  1.0 0.0814611361
H  H108  1  0.25340000  0.58920000  0.38890000  1.0 0.089631325
H  H109  1  0.29200000  0.12840000  0.91550000  1.0 0.100100836
H  H110  1  0.25080000  0.21260000  0.90660000  1.0 0.089631325
H  H111  1  0.42070000  0.23300000  0.80560000  1.0 0.0814611361
H  H112  1  0.10380000  0.76120000  0.29090000  1.0 0.0814611361
H  H113  1  0.23260000  0.76140000  0.41180000  1.0 0.089631325
H  H114  1  0.20970000  0.84740000  0.42130000  1.0 0.100100836
H  H115  1  0.07920000  0.84980000  0.30080000  1.0 0.100100836
H  H116  1  0.37080000  0.40090000  0.83540000  1.0 0.1084136501
H  H117  1  0.29330000  0.28940000  0.74730000  1.0 0.0814611361
H  H118  1  0.32520000  0.34000000  0.68270000  1.0 0.100100836
H  H119  1  0.15810000  0.31260000  0.78790000  1.0 0.0814611361
H  H120  1  0.16970000  0.30010000  0.93000000  1.0 0.0814611361
H  H121  1  0.94880000  0.31320000  0.86240000  1.0 0.089631325
H  H122  1  0.01280000  0.31520000  0.79100000  1.0 0.0814611361
H  H123  1  0.02200000  0.30590000  0.93260000  1.0 0.089631325
H  H124  1  0.33380000  0.68580000  0.41460000  1.0 0.089631325
H  H125  1  0.34560000  0.67760000  0.27340000  1.0 0.0814611361
H  H126  1  0.55390000  0.69100000  0.35300000  1.0 0.089631325
H  H127  1  0.47420000  0.69280000  0.42150000  1.0 0.100100836
H  H128  1  0.48900000  0.68490000  0.27980000  1.0 0.0814611361
H  H129  1  0.24980000  0.38780000  0.91250000  1.0 0.089631325
H  H130  1  0.44780000  0.29330000  0.91680000  1.0 0.0814611361
H  H131  1  0.50170000  0.33980000  0.98190000  1.0 0.1084136501
H  H132  1  0.30290000  0.43280000  0.97650000  1.0 0.089631325
H  H133  1  0.21310000  0.95930000  0.95420000  1.0 0.100100836
H  H134  1  0.45850000  0.35200000  0.31120000  1.0 0.1084136501
H  H135  1  0.03450000  0.94690000  0.76940000  1.0 0.089631325
H  H136  1  0.09200000  0.90000000  0.83020000  1.0 0.089631325
H  H137  1  0.21370000  0.81400000  0.73450000  1.0 0.0814611361
H  H138  1  0.16110000  0.86480000  0.67470000  1.0 0.1084136501
H  H139  1  0.03660000  0.85400000  0.98590000  1.0 0.1084136501
H  H140  1  0.07560000  0.80630000  0.92060000  1.0 0.0814611361
H  H141  1  0.25340000  0.91080000  0.88890000  1.0 0.089631325
H  H142  1  0.29200000  0.37160000  0.41550000  1.0 0.100100836
H  H143  1  0.25080000  0.28740000  0.40660000  1.0 0.089631325
H  H144  1  0.42070000  0.26700000  0.30560000  1.0 0.0814611361
H  H145  1  0.10380000  0.73880000  0.79090000  1.0 0.0814611361
H  H146  1  0.23260000  0.73860000  0.91180000  1.0 0.089631325
H  H147  1  0.20970000  0.65260000  0.92130000  1.0 0.100100836
H  H148  1  0.07920000  0.65020000  0.80080000  1.0 0.100100836
H  H149  1  0.37080000  0.09910000  0.33540000  1.0 0.1084136501
H  H150  1  0.29330000  0.21060000  0.24730000  1.0 0.0814611361
H  H151  1  0.32520000  0.16000000  0.18270000  1.0 0.100100836
H  H152  1  0.15810000  0.18740000  0.28790000  1.0 0.0814611361
H  H153  1  0.16970000  0.19990000  0.43000000  1.0 0.0814611361
H  H154  1  0.94880000  0.18680000  0.36240000  1.0 0.089631325
H  H155  1  0.01280000  0.18480000  0.29100000  1.0 0.0814611361
H  H156  1  0.02200000  0.19410000  0.43260000  1.0 0.089631325
H  H157  1  0.33380000  0.81420000  0.91460000  1.0 0.089631325
H  H158  1  0.34560000  0.82240000  0.77340000  1.0 0.0814611361
H  H159  1  0.55390000  0.80900000  0.85300000  1.0 0.089631325
H  H160  1  0.47420000  0.80720000  0.92150000  1.0 0.100100836
H  H161  1  0.48900000  0.81510000  0.77980000  1.0 0.0814611361
H  H162  1  0.24980000  0.11220000  0.41250000  1.0 0.089631325
H  H163  1  0.44780000  0.20670000  0.41680000  1.0 0.0814611361
H  H164  1  0.50170000  0.16020000  0.48190000  1.0 0.1084136501
H  H165  1  0.30290000  0.06720000  0.47650000  1.0 0.089631325
H  H166  1  0.78690000  0.54070000  0.95420000  1.0 0.100100836
H  H167  1  0.54150000  0.14800000  0.31120000  1.0 0.1084136501
H  H168  1  0.96550000  0.55310000  0.76940000  1.0 0.089631325
H  H169  1  0.90800000  0.60000000  0.83020000  1.0 0.089631325
H  H170  1  0.78630000  0.68600000  0.73450000  1.0 0.0814611361
H  H171  1  0.83890000  0.63520000  0.67470000  1.0 0.1084136501
H  H172  1  0.96340000  0.64600000  0.98590000  1.0 0.1084136501
H  H173  1  0.92440000  0.69370000  0.92060000  1.0 0.0814611361
H  H174  1  0.74660000  0.58920000  0.88890000  1.0 0.089631325
H  H175  1  0.70800000  0.12840000  0.41550000  1.0 0.100100836
H  H176  1  0.74920000  0.21260000  0.40660000  1.0 0.089631325
H  H177  1  0.57930000  0.23300000  0.30560000  1.0 0.0814611361
H  H178  1  0.89620000  0.76120000  0.79090000  1.0 0.0814611361
H  H179  1  0.76740000  0.76140000  0.91180000  1.0 0.089631325
H  H180  1  0.79030000  0.84740000  0.92130000  1.0 0.100100836
H  H181  1  0.92080000  0.84980000  0.80080000  1.0 0.100100836
H  H182  1  0.62920000  0.40090000  0.33540000  1.0 0.1084136501
H  H183  1  0.70670000  0.28940000  0.24730000  1.0 0.0814611361
H  H184  1  0.67480000  0.34000000  0.18270000  1.0 0.100100836
H  H185  1  0.84190000  0.31260000  0.28790000  1.0 0.0814611361
H  H186  1  0.83030000  0.30010000  0.43000000  1.0 0.0814611361
H  H187  1  0.05120000  0.31320000  0.36240000  1.0 0.089631325
H  H188  1  0.98720000  0.31520000  0.29100000  1.0 0.0814611361
H  H189  1  0.97800000  0.30590000  0.43260000  1.0 0.089631325
H  H190  1  0.66620000  0.68580000  0.91460000  1.0 0.089631325
H  H191  1  0.65440000  0.67760000  0.77340000  1.0 0.0814611361
H  H192  1  0.44610000  0.69100000  0.85300000  1.0 0.089631325
H  H193  1  0.52580000  0.69280000  0.92150000  1.0 0.100100836
H  H194  1  0.51100000  0.68490000  0.77980000  1.0 0.0814611361
H  H195  1  0.75020000  0.38780000  0.41250000  1.0 0.089631325
H  H196  1  0.55220000  0.29330000  0.41680000  1.0 0.0814611361
H  H197  1  0.49830000  0.33980000  0.48190000  1.0 0.1084136501
H  H198  1  0.69710000  0.43280000  0.47650000  1.0 0.089631325
H  H199  1  0.21310000  0.04070000  0.54580000  1.0 0.100100836
H  H200  1  0.45850000  0.64800000  0.18880000  1.0 0.1084136501
H  H201  1  0.03450000  0.05310000  0.73060000  1.0 0.089631325
H  H202  1  0.09200000  0.10000000  0.66980000  1.0 0.089631325
H  H203  1  0.21370000  0.18600000  0.76550000  1.0 0.0814611361
H  H204  1  0.16110000  0.13520000  0.82530000  1.0 0.1084136501
H  H205  1  0.03660000  0.14600000  0.51410000  1.0 0.1084136501
H  H206  1  0.07560000  0.19370000  0.57940000  1.0 0.0814611361
H  H207  1  0.25340000  0.08920000  0.61110000  1.0 0.089631325
H  H208  1  0.29200000  0.62840000  0.08450000  1.0 0.100100836
H  H209  1  0.25080000  0.71260000  0.09340000  1.0 0.089631325
H  H210  1  0.42070000  0.73300000  0.19440000  1.0 0.0814611361
H  H211  1  0.10380000  0.26120000  0.70910000  1.0 0.0814611361
H  H212  1  0.23260000  0.26140000  0.58820000  1.0 0.089631325
H  H213  1  0.20970000  0.34740000  0.57870000  1.0 0.100100836
H  H214  1  0.07920000  0.34980000  0.69920000  1.0 0.100100836
H  H215  1  0.37080000  0.90090000  0.16460000  1.0 0.1084136501
H  H216  1  0.29330000  0.78940000  0.25270000  1.0 0.0814611361
H  H217  1  0.32520000  0.84000000  0.31730000  1.0 0.100100836
H  H218  1  0.15810000  0.81260000  0.21210000  1.0 0.0814611361
H  H219  1  0.16970000  0.80010000  0.07000000  1.0 0.0814611361
H  H220  1  0.94880000  0.81320000  0.13760000  1.0 0.089631325
H  H221  1  0.01280000  0.81520000  0.20900000  1.0 0.0814611361
H  H222  1  0.02200000  0.80590000  0.06740000  1.0 0.089631325
H  H223  1  0.33380000  0.18580000  0.58540000  1.0 0.089631325
H  H224  1  0.34560000  0.17760000  0.72660000  1.0 0.0814611361
H  H225  1  0.55390000  0.19100000  0.64700000  1.0 0.089631325
H  H226  1  0.47420000  0.19280000  0.57850000  1.0 0.100100836
H  H227  1  0.48900000  0.18490000  0.72020000  1.0 0.0814611361
H  H228  1  0.24980000  0.88780000  0.08750000  1.0 0.089631325
H  H229  1  0.44780000  0.79330000  0.08320000  1.0 0.0814611361
H  H230  1  0.50170000  0.83980000  0.01810000  1.0 0.1084136501
H  H231  1  0.30290000  0.93280000  0.02350000  1.0 0.089631325
H  H232  1  0.78690000  0.45930000  0.54580000  1.0 0.100100836
H  H233  1  0.54150000  0.85200000  0.18880000  1.0 0.1084136501
H  H234  1  0.96550000  0.44690000  0.73060000  1.0 0.089631325
H  H235  1  0.90800000  0.40000000  0.66980000  1.0 0.089631325
H  H236  1  0.78630000  0.31400000  0.76550000  1.0 0.0814611361
H  H237  1  0.83890000  0.36480000  0.82530000  1.0 0.1084136501
H  H238  1  0.96340000  0.35400000  0.51410000  1.0 0.1084136501
H  H239  1  0.92440000  0.30630000  0.57940000  1.0 0.0814611361
H  H240  1  0.74660000  0.41080000  0.61110000  1.0 0.089631325
H  H241  1  0.70800000  0.87160000  0.08450000  1.0 0.100100836
H  H242  1  0.74920000  0.78740000  0.09340000  1.0 0.089631325
H  H243  1  0.57930000  0.76700000  0.19440000  1.0 0.0814611361
H  H244  1  0.89620000  0.23880000  0.70910000  1.0 0.0814611361
H  H245  1  0.76740000  0.23860000  0.58820000  1.0 0.089631325
H  H246  1  0.79030000  0.15260000  0.57870000  1.0 0.100100836
H  H247  1  0.92080000  0.15020000  0.69920000  1.0 0.100100836
H  H248  1  0.62920000  0.59910000  0.16460000  1.0 0.1084136501
H  H249  1  0.70670000  0.71060000  0.25270000  1.0 0.0814611361
H  H250  1  0.67480000  0.66000000  0.31730000  1.0 0.100100836
H  H251  1  0.84190000  0.68740000  0.21210000  1.0 0.0814611361
H  H252  1  0.83030000  0.69990000  0.07000000  1.0 0.0814611361
H  H253  1  0.05120000  0.68680000  0.13760000  1.0 0.089631325
H  H254  1  0.98720000  0.68480000  0.20900000  1.0 0.0814611361
H  H255  1  0.97800000  0.69410000  0.06740000  1.0 0.089631325
H  H256  1  0.66620000  0.31420000  0.58540000  1.0 0.089631325
H  H257  1  0.65440000  0.32240000  0.72660000  1.0 0.0814611361
H  H258  1  0.44610000  0.30900000  0.64700000  1.0 0.089631325
H  H259  1  0.52580000  0.30720000  0.57850000  1.0 0.100100836
H  H260  1  0.51100000  0.31510000  0.72020000  1.0 0.0814611361
H  H261  1  0.75020000  0.61220000  0.08750000  1.0 0.089631325
H  H262  1  0.55220000  0.70670000  0.08320000  1.0 0.0814611361
H  H263  1  0.49830000  0.66020000  0.01810000  1.0 0.1084136501
H  H264  1  0.69710000  0.56720000  0.02350000  1.0 0.089631325
C  C1  1  0.90350000  0.05880000  0.97910000  1.0 0.3812359925
C  C2  1  0.87770000  0.08960000  0.02270000  1.0 0.0119925457
C  C3  1  0.81340000  0.07170000  0.05230000  1.0 -0.1307168622
C  C4  1  0.58940000  0.57650000  0.62750000  1.0 0.3457108679
C  C5  1  0.59100000  0.93060000  0.82100000  1.0 0.4162635933
C  C6  1  0.95650000  0.06130000  0.32270000  1.0 0.317717431
C  C7  1  0.61700000  0.63010000  0.63510000  1.0 -0.0099646059
C  C8  1  0.58220000  0.66100000  0.66830000  1.0 -0.1307168622
C  C9  1  0.62730000  0.90030000  0.77900000  1.0 -0.0484599125
C  C10  1  0.90980000  0.09020000  0.28570000  1.0 -0.0022818542
C  C11  1  0.92890000  0.07970000  0.23790000  1.0 -0.1703560558
C  C12  1  0.89370000  0.10840000  0.20110000  1.0 -0.0883412231
C  C13  1  0.83910000  0.14850000  0.20820000  1.0 -0.2381885704
C  C14  1  0.82120000  0.15870000  0.25750000  1.0 -0.1196428527
C  C15  1  0.85490000  0.12860000  0.29390000  1.0 -0.1307168622
C  C16  1  0.91950000  0.13490000  0.03340000  1.0 -0.1390466947
C  C17  1  0.89600000  0.16340000  0.07240000  1.0 -0.1022385343
C  C18  1  0.82970000  0.14770000  0.10230000  1.0 -0.2716467437
C  C19  1  0.78970000  0.10080000  0.09150000  1.0 -0.1022385343
C  C20  1  0.68150000  0.64940000  0.60690000  1.0 -0.1390466947
C  C21  1  0.70600000  0.70010000  0.61250000  1.0 -0.1196428527
C  C22  1  0.66870000  0.73300000  0.64540000  1.0 -0.2234515064
C  C23  1  0.60670000  0.71220000  0.67230000  1.0 -0.1196428527
C  C24  1  0.87390000  0.27840000  0.18280000  1.0 -0.1196428527
C  C25  1  0.82710000  0.25230000  0.15020000  1.0 -0.2145158705
C  C26  1  0.79790000  0.27890000  0.11140000  1.0 -0.1196428527
C  C27  1  0.81180000  0.33050000  0.10540000  1.0 -0.1307168622
C  C28  1  0.85700000  0.35690000  0.13840000  1.0 -0.0022818542
C  C29  1  0.88900000  0.33200000  0.17680000  1.0 -0.1390466947
C  C30  1  0.63710000  0.88800000  0.69530000  1.0 -0.1307168622
C  C31  1  0.67000000  0.83810000  0.70000000  1.0 -0.2309098921
C  C32  1  0.68360000  0.82170000  0.74750000  1.0 -0.1196428527
C  C33  1  0.66400000  0.85170000  0.78640000  1.0 -0.1307168622
C  C34  1  0.61550000  0.91930000  0.73390000  1.0 -0.0412404505
C  C35  1  0.81990000  0.80530000  0.64140000  1.0 -0.2234515064
C  C36  1  0.86850000  0.81050000  0.68250000  1.0 -0.1307168622
C  C37  1  0.86070000  0.80350000  0.59830000  1.0 -0.1196428527
C  C38  1  0.99310000  0.81120000  0.63880000  1.0 -0.1022385343
C  C39  1  0.95600000  0.81270000  0.68090000  1.0 -0.1196428527
C  C40  1  0.94980000  0.80680000  0.59650000  1.0 -0.1196428527
C  C41  1  0.63440000  0.18580000  0.11330000  1.0 -0.1307168622
C  C42  1  0.67770000  0.18180000  0.15690000  1.0 -0.2309098921
C  C43  1  0.62970000  0.18090000  0.19650000  1.0 -0.109284727
C  C44  1  0.86930000  0.41330000  0.13170000  1.0 0.3375053813
C  C45  1  0.50420000  0.18890000  0.14870000  1.0 -0.109284727
C  C46  1  0.55060000  0.18970000  0.10850000  1.0 -0.1196428527
C  C47  1  0.54340000  0.18490000  0.19250000  1.0 -0.1307168622
C  C48  1  0.65790000  0.83430000  0.59170000  1.0 -0.2309098921
C  C49  1  0.69990000  0.87750000  0.57370000  1.0 -0.1022385343
C  C50  1  0.58190000  0.82120000  0.57120000  1.0 -0.1022385343
C  C51  1  0.54860000  0.84930000  0.53240000  1.0 -0.1390466947
C  C52  1  0.59310000  0.89190000  0.51610000  1.0 0.0040790904
C  C53  1  0.66750000  0.90500000  0.53570000  1.0 -0.1196428527
C  C54  1  0.55600000  0.92410000  0.47610000  1.0 0.3727060277
C  C55  1  0.09650000  0.44120000  0.97910000  1.0 0.3812359925
C  C56  1  0.12230000  0.41040000  0.02270000  1.0 0.0119925457
C  C57  1  0.18660000  0.42830000  0.05230000  1.0 -0.1307168622
C  C58  1  0.41060000  0.92350000  0.62750000  1.0 0.3457108679
C  C59  1  0.40900000  0.56940000  0.82100000  1.0 0.4162635933
C  C60  1  0.04350000  0.43870000  0.32270000  1.0 0.317717431
C  C61  1  0.38300000  0.86990000  0.63510000  1.0 -0.0099646059
C  C62  1  0.41780000  0.83900000  0.66830000  1.0 -0.1307168622
C  C63  1  0.37270000  0.59970000  0.77900000  1.0 -0.0484599125
C  C64  1  0.09020000  0.40980000  0.28570000  1.0 -0.0022818542
C  C65  1  0.07110000  0.42030000  0.23790000  1.0 -0.1703560558
C  C66  1  0.10630000  0.39160000  0.20110000  1.0 -0.0883412231
C  C67  1  0.16090000  0.35150000  0.20820000  1.0 -0.2381885704
C  C68  1  0.17880000  0.34130000  0.25750000  1.0 -0.1196428527
C  C69  1  0.14510000  0.37140000  0.29390000  1.0 -0.1307168622
C  C70  1  0.08050000  0.36510000  0.03340000  1.0 -0.1390466947
C  C71  1  0.10400000  0.33660000  0.07240000  1.0 -0.1022385343
C  C72  1  0.17030000  0.35230000  0.10230000  1.0 -0.2716467437
C  C73  1  0.21030000  0.39920000  0.09150000  1.0 -0.1022385343
C  C74  1  0.31850000  0.85060000  0.60690000  1.0 -0.1390466947
C  C75  1  0.29400000  0.79990000  0.61250000  1.0 -0.1196428527
C  C76  1  0.33130000  0.76700000  0.64540000  1.0 -0.2234515064
C  C77  1  0.39330000  0.78780000  0.67230000  1.0 -0.1196428527
C  C78  1  0.12610000  0.22160000  0.18280000  1.0 -0.1196428527
C  C79  1  0.17290000  0.24770000  0.15020000  1.0 -0.2145158705
C  C80  1  0.20210000  0.22110000  0.11140000  1.0 -0.1196428527
C  C81  1  0.18820000  0.16950000  0.10540000  1.0 -0.1307168622
C  C82  1  0.14300000  0.14310000  0.13840000  1.0 -0.0022818542
C  C83  1  0.11100000  0.16800000  0.17680000  1.0 -0.1390466947
C  C84  1  0.36290000  0.61200000  0.69530000  1.0 -0.1307168622
C  C85  1  0.33000000  0.66190000  0.70000000  1.0 -0.2309098921
C  C86  1  0.31640000  0.67830000  0.74750000  1.0 -0.1196428527
C  C87  1  0.33600000  0.64830000  0.78640000  1.0 -0.1307168622
C  C88  1  0.38450000  0.58070000  0.73390000  1.0 -0.0412404505
C  C89  1  0.18010000  0.69470000  0.64140000  1.0 -0.2234515064
C  C90  1  0.13150000  0.68950000  0.68250000  1.0 -0.1307168622
C  C91  1  0.13930000  0.69650000  0.59830000  1.0 -0.1196428527
C  C92  1  0.00690000  0.68880000  0.63880000  1.0 -0.1022385343
C  C93  1  0.04400000  0.68730000  0.68090000  1.0 -0.1196428527
C  C94  1  0.05020000  0.69320000  0.59650000  1.0 -0.1196428527
C  C95  1  0.36560000  0.31420000  0.11330000  1.0 -0.1307168622
C  C96  1  0.32230000  0.31820000  0.15690000  1.0 -0.2309098921
C  C97  1  0.37030000  0.31910000  0.19650000  1.0 -0.109284727
C  C98  1  0.13070000  0.08670000  0.13170000  1.0 0.3375053813
C  C99  1  0.49580000  0.31110000  0.14870000  1.0 -0.109284727
C  C100  1  0.44940000  0.31030000  0.10850000  1.0 -0.1196428527
C  C101  1  0.45660000  0.31510000  0.19250000  1.0 -0.1307168622
C  C102  1  0.34210000  0.66570000  0.59170000  1.0 -0.2309098921
C  C103  1  0.30010000  0.62250000  0.57370000  1.0 -0.1022385343
C  C104  1  0.41810000  0.67880000  0.57120000  1.0 -0.1022385343
C  C105  1  0.45140000  0.65070000  0.53240000  1.0 -0.1390466947
C  C106  1  0.40690000  0.60810000  0.51610000  1.0 0.0040790904
C  C107  1  0.33250000  0.59500000  0.53570000  1.0 -0.1196428527
C  C108  1  0.44400000  0.57590000  0.47610000  1.0 0.3727060277
C  C109  1  0.90350000  0.94120000  0.52090000  1.0 0.3812359925
C  C110  1  0.87770000  0.91040000  0.47730000  1.0 0.0119925457
C  C111  1  0.81340000  0.92830000  0.44770000  1.0 -0.1307168622
C  C112  1  0.58940000  0.42350000  0.87250000  1.0 0.3457108679
C  C113  1  0.59100000  0.06940000  0.67900000  1.0 0.4162635933
C  C114  1  0.95650000  0.93870000  0.17730000  1.0 0.317717431
C  C115  1  0.61700000  0.36990000  0.86490000  1.0 -0.0099646059
C  C116  1  0.58220000  0.33900000  0.83170000  1.0 -0.1307168622
C  C117  1  0.62730000  0.09970000  0.72100000  1.0 -0.0484599125
C  C118  1  0.90980000  0.90980000  0.21430000  1.0 -0.0022818542
C  C119  1  0.92890000  0.92030000  0.26210000  1.0 -0.1703560558
C  C120  1  0.89370000  0.89160000  0.29890000  1.0 -0.0883412231
C  C121  1  0.83910000  0.85150000  0.29180000  1.0 -0.2381885704
C  C122  1  0.82120000  0.84130000  0.24250000  1.0 -0.1196428527
C  C123  1  0.85490000  0.87140000  0.20610000  1.0 -0.1307168622
C  C124  1  0.91950000  0.86510000  0.46660000  1.0 -0.1390466947
C  C125  1  0.89600000  0.83660000  0.42760000  1.0 -0.1022385343
C  C126  1  0.82970000  0.85230000  0.39770000  1.0 -0.2716467437
C  C127  1  0.78970000  0.89920000  0.40850000  1.0 -0.1022385343
C  C128  1  0.68150000  0.35060000  0.89310000  1.0 -0.1390466947
C  C129  1  0.70600000  0.29990000  0.88750000  1.0 -0.1196428527
C  C130  1  0.66870000  0.26700000  0.85460000  1.0 -0.2234515064
C  C131  1  0.60670000  0.28780000  0.82770000  1.0 -0.1196428527
C  C132  1  0.87390000  0.72160000  0.31720000  1.0 -0.1196428527
C  C133  1  0.82710000  0.74770000  0.34980000  1.0 -0.2145158705
C  C134  1  0.79790000  0.72110000  0.38860000  1.0 -0.1196428527
C  C135  1  0.81180000  0.66950000  0.39460000  1.0 -0.1307168622
C  C136  1  0.85700000  0.64310000  0.36160000  1.0 -0.0022818542
C  C137  1  0.88900000  0.66800000  0.32320000  1.0 -0.1390466947
C  C138  1  0.63710000  0.11200000  0.80470000  1.0 -0.1307168622
C  C139  1  0.67000000  0.16190000  0.80000000  1.0 -0.2309098921
C  C140  1  0.68360000  0.17830000  0.75250000  1.0 -0.1196428527
C  C141  1  0.66400000  0.14830000  0.71360000  1.0 -0.1307168622
C  C142  1  0.61550000  0.08070000  0.76610000  1.0 -0.0412404505
C  C143  1  0.81990000  0.19470000  0.85860000  1.0 -0.2234515064
C  C144  1  0.86850000  0.18950000  0.81750000  1.0 -0.1307168622
C  C145  1  0.86070000  0.19650000  0.90170000  1.0 -0.1196428527
C  C146  1  0.99310000  0.18880000  0.86120000  1.0 -0.1022385343
C  C147  1  0.95600000  0.18730000  0.81910000  1.0 -0.1196428527
C  C148  1  0.94980000  0.19320000  0.90350000  1.0 -0.1196428527
C  C149  1  0.63440000  0.81420000  0.38670000  1.0 -0.1307168622
C  C150  1  0.67770000  0.81820000  0.34310000  1.0 -0.2309098921
C  C151  1  0.62970000  0.81910000  0.30350000  1.0 -0.109284727
C  C152  1  0.86930000  0.58670000  0.36830000  1.0 0.3375053813
C  C153  1  0.50420000  0.81110000  0.35130000  1.0 -0.109284727
C  C154  1  0.55060000  0.81030000  0.39150000  1.0 -0.1196428527
C  C155  1  0.54340000  0.81510000  0.30750000  1.0 -0.1307168622
C  C156  1  0.65790000  0.16570000  0.90830000  1.0 -0.2309098921
C  C157  1  0.69990000  0.12250000  0.92630000  1.0 -0.1022385343
C  C158  1  0.58190000  0.17880000  0.92880000  1.0 -0.1022385343
C  C159  1  0.54860000  0.15070000  0.96760000  1.0 -0.1390466947
C  C160  1  0.59310000  0.10810000  0.98390000  1.0 0.0040790904
C  C161  1  0.66750000  0.09500000  0.96430000  1.0 -0.1196428527
C  C162  1  0.55600000  0.07590000  0.02390000  1.0 0.3727060277
C  C163  1  0.09650000  0.55880000  0.52090000  1.0 0.3812359925
C  C164  1  0.12230000  0.58960000  0.47730000  1.0 0.0119925457
C  C165  1  0.18660000  0.57170000  0.44770000  1.0 -0.1307168622
C  C166  1  0.41060000  0.07650000  0.87250000  1.0 0.3457108679
C  C167  1  0.40900000  0.43060000  0.67900000  1.0 0.4162635933
C  C168  1  0.04350000  0.56130000  0.17730000  1.0 0.317717431
C  C169  1  0.38300000  0.13010000  0.86490000  1.0 -0.0099646059
C  C170  1  0.41780000  0.16100000  0.83170000  1.0 -0.1307168622
C  C171  1  0.37270000  0.40030000  0.72100000  1.0 -0.0484599125
C  C172  1  0.09020000  0.59020000  0.21430000  1.0 -0.0022818542
C  C173  1  0.07110000  0.57970000  0.26210000  1.0 -0.1703560558
C  C174  1  0.10630000  0.60840000  0.29890000  1.0 -0.0883412231
C  C175  1  0.16090000  0.64850000  0.29180000  1.0 -0.2381885704
C  C176  1  0.17880000  0.65870000  0.24250000  1.0 -0.1196428527
C  C177  1  0.14510000  0.62860000  0.20610000  1.0 -0.1307168622
C  C178  1  0.08050000  0.63490000  0.46660000  1.0 -0.1390466947
C  C179  1  0.10400000  0.66340000  0.42760000  1.0 -0.1022385343
C  C180  1  0.17030000  0.64770000  0.39770000  1.0 -0.2716467437
C  C181  1  0.21030000  0.60080000  0.40850000  1.0 -0.1022385343
C  C182  1  0.31850000  0.14940000  0.89310000  1.0 -0.1390466947
C  C183  1  0.29400000  0.20010000  0.88750000  1.0 -0.1196428527
C  C184  1  0.33130000  0.23300000  0.85460000  1.0 -0.2234515064
C  C185  1  0.39330000  0.21220000  0.82770000  1.0 -0.1196428527
C  C186  1  0.12610000  0.77840000  0.31720000  1.0 -0.1196428527
C  C187  1  0.17290000  0.75230000  0.34980000  1.0 -0.2145158705
C  C188  1  0.20210000  0.77890000  0.38860000  1.0 -0.1196428527
C  C189  1  0.18820000  0.83050000  0.39460000  1.0 -0.1307168622
C  C190  1  0.14300000  0.85690000  0.36160000  1.0 -0.0022818542
C  C191  1  0.11100000  0.83200000  0.32320000  1.0 -0.1390466947
C  C192  1  0.36290000  0.38800000  0.80470000  1.0 -0.1307168622
C  C193  1  0.33000000  0.33810000  0.80000000  1.0 -0.2309098921
C  C194  1  0.31640000  0.32170000  0.75250000  1.0 -0.1196428527
C  C195  1  0.33600000  0.35170000  0.71360000  1.0 -0.1307168622
C  C196  1  0.38450000  0.41930000  0.76610000  1.0 -0.0412404505
C  C197  1  0.18010000  0.30530000  0.85860000  1.0 -0.2234515064
C  C198  1  0.13150000  0.31050000  0.81750000  1.0 -0.1307168622
C  C199  1  0.13930000  0.30350000  0.90170000  1.0 -0.1196428527
C  C200  1  0.00690000  0.31120000  0.86120000  1.0 -0.1022385343
C  C201  1  0.04400000  0.31270000  0.81910000  1.0 -0.1196428527
C  C202  1  0.05020000  0.30680000  0.90350000  1.0 -0.1196428527
C  C203  1  0.36560000  0.68580000  0.38670000  1.0 -0.1307168622
C  C204  1  0.32230000  0.68180000  0.34310000  1.0 -0.2309098921
C  C205  1  0.37030000  0.68090000  0.30350000  1.0 -0.109284727
C  C206  1  0.13070000  0.91330000  0.36830000  1.0 0.3375053813
C  C207  1  0.49580000  0.68890000  0.35130000  1.0 -0.109284727
C  C208  1  0.44940000  0.68970000  0.39150000  1.0 -0.1196428527
C  C209  1  0.45660000  0.68490000  0.30750000  1.0 -0.1307168622
C  C210  1  0.34210000  0.33430000  0.90830000  1.0 -0.2309098921
C  C211  1  0.30010000  0.37750000  0.92630000  1.0 -0.1022385343
C  C212  1  0.41810000  0.32120000  0.92880000  1.0 -0.1022385343
C  C213  1  0.45140000  0.34930000  0.96760000  1.0 -0.1390466947
C  C214  1  0.40690000  0.39190000  0.98390000  1.0 0.0040790904
C  C215  1  0.33250000  0.40500000  0.96430000  1.0 -0.1196428527
C  C216  1  0.44400000  0.42410000  0.02390000  1.0 0.3727060277
C  C217  1  0.09650000  0.94120000  0.02090000  1.0 0.3812359925
C  C218  1  0.12230000  0.91040000  0.97730000  1.0 0.0119925457
C  C219  1  0.18660000  0.92830000  0.94770000  1.0 -0.1307168622
C  C220  1  0.41060000  0.42350000  0.37250000  1.0 0.3457108679
C  C221  1  0.40900000  0.06940000  0.17900000  1.0 0.4162635933
C  C222  1  0.04350000  0.93870000  0.67730000  1.0 0.317717431
C  C223  1  0.38300000  0.36990000  0.36490000  1.0 -0.0099646059
C  C224  1  0.41780000  0.33900000  0.33170000  1.0 -0.1307168622
C  C225  1  0.37270000  0.09970000  0.22100000  1.0 -0.0484599125
C  C226  1  0.09020000  0.90980000  0.71430000  1.0 -0.0022818542
C  C227  1  0.07110000  0.92030000  0.76210000  1.0 -0.1703560558
C  C228  1  0.10630000  0.89160000  0.79890000  1.0 -0.0883412231
C  C229  1  0.16090000  0.85150000  0.79180000  1.0 -0.2381885704
C  C230  1  0.17880000  0.84130000  0.74250000  1.0 -0.1196428527
C  C231  1  0.14510000  0.87140000  0.70610000  1.0 -0.1307168622
C  C232  1  0.08050000  0.86510000  0.96660000  1.0 -0.1390466947
C  C233  1  0.10400000  0.83660000  0.92760000  1.0 -0.1022385343
C  C234  1  0.17030000  0.85230000  0.89770000  1.0 -0.2716467437
C  C235  1  0.21030000  0.89920000  0.90850000  1.0 -0.1022385343
C  C236  1  0.31850000  0.35060000  0.39310000  1.0 -0.1390466947
C  C237  1  0.29400000  0.29990000  0.38750000  1.0 -0.1196428527
C  C238  1  0.33130000  0.26700000  0.35460000  1.0 -0.2234515064
C  C239  1  0.39330000  0.28780000  0.32770000  1.0 -0.1196428527
C  C240  1  0.12610000  0.72160000  0.81720000  1.0 -0.1196428527
C  C241  1  0.17290000  0.74770000  0.84980000  1.0 -0.2145158705
C  C242  1  0.20210000  0.72110000  0.88860000  1.0 -0.1196428527
C  C243  1  0.18820000  0.66950000  0.89460000  1.0 -0.1307168622
C  C244  1  0.14300000  0.64310000  0.86160000  1.0 -0.0022818542
C  C245  1  0.11100000  0.66800000  0.82320000  1.0 -0.1390466947
C  C246  1  0.36290000  0.11200000  0.30470000  1.0 -0.1307168622
C  C247  1  0.33000000  0.16190000  0.30000000  1.0 -0.2309098921
C  C248  1  0.31640000  0.17830000  0.25250000  1.0 -0.1196428527
C  C249  1  0.33600000  0.14830000  0.21360000  1.0 -0.1307168622
C  C250  1  0.38450000  0.08070000  0.26610000  1.0 -0.0412404505
C  C251  1  0.18010000  0.19470000  0.35860000  1.0 -0.2234515064
C  C252  1  0.13150000  0.18950000  0.31750000  1.0 -0.1307168622
C  C253  1  0.13930000  0.19650000  0.40170000  1.0 -0.1196428527
C  C254  1  0.00690000  0.18880000  0.36120000  1.0 -0.1022385343
C  C255  1  0.04400000  0.18730000  0.31910000  1.0 -0.1196428527
C  C256  1  0.05020000  0.19320000  0.40350000  1.0 -0.1196428527
C  C257  1  0.36560000  0.81420000  0.88670000  1.0 -0.1307168622
C  C258  1  0.32230000  0.81820000  0.84310000  1.0 -0.2309098921
C  C259  1  0.37030000  0.81910000  0.80350000  1.0 -0.109284727
C  C260  1  0.13070000  0.58670000  0.86830000  1.0 0.3375053813
C  C261  1  0.49580000  0.81110000  0.85130000  1.0 -0.109284727
C  C262  1  0.44940000  0.81030000  0.89150000  1.0 -0.1196428527
C  C263  1  0.45660000  0.81510000  0.80750000  1.0 -0.1307168622
C  C264  1  0.34210000  0.16570000  0.40830000  1.0 -0.2309098921
C  C265  1  0.30010000  0.12250000  0.42630000  1.0 -0.1022385343
C  C266  1  0.41810000  0.17880000  0.42880000  1.0 -0.1022385343
C  C267  1  0.45140000  0.15070000  0.46760000  1.0 -0.1390466947
C  C268  1  0.40690000  0.10810000  0.48390000  1.0 0.0040790904
C  C269  1  0.33250000  0.09500000  0.46430000  1.0 -0.1196428527
C  C270  1  0.44400000  0.07590000  0.52390000  1.0 0.3727060277
C  C271  1  0.90350000  0.55880000  0.02090000  1.0 0.3812359925
C  C272  1  0.87770000  0.58960000  0.97730000  1.0 0.0119925457
C  C273  1  0.81340000  0.57170000  0.94770000  1.0 -0.1307168622
C  C274  1  0.58940000  0.07650000  0.37250000  1.0 0.3457108679
C  C275  1  0.59100000  0.43060000  0.17900000  1.0 0.4162635933
C  C276  1  0.95650000  0.56130000  0.67730000  1.0 0.317717431
C  C277  1  0.61700000  0.13010000  0.36490000  1.0 -0.0099646059
C  C278  1  0.58220000  0.16100000  0.33170000  1.0 -0.1307168622
C  C279  1  0.62730000  0.40030000  0.22100000  1.0 -0.0484599125
C  C280  1  0.90980000  0.59020000  0.71430000  1.0 -0.0022818542
C  C281  1  0.92890000  0.57970000  0.76210000  1.0 -0.1703560558
C  C282  1  0.89370000  0.60840000  0.79890000  1.0 -0.0883412231
C  C283  1  0.83910000  0.64850000  0.79180000  1.0 -0.2381885704
C  C284  1  0.82120000  0.65870000  0.74250000  1.0 -0.1196428527
C  C285  1  0.85490000  0.62860000  0.70610000  1.0 -0.1307168622
C  C286  1  0.91950000  0.63490000  0.96660000  1.0 -0.1390466947
C  C287  1  0.89600000  0.66340000  0.92760000  1.0 -0.1022385343
C  C288  1  0.82970000  0.64770000  0.89770000  1.0 -0.2716467437
C  C289  1  0.78970000  0.60080000  0.90850000  1.0 -0.1022385343
C  C290  1  0.68150000  0.14940000  0.39310000  1.0 -0.1390466947
C  C291  1  0.70600000  0.20010000  0.38750000  1.0 -0.1196428527
C  C292  1  0.66870000  0.23300000  0.35460000  1.0 -0.2234515064
C  C293  1  0.60670000  0.21220000  0.32770000  1.0 -0.1196428527
C  C294  1  0.87390000  0.77840000  0.81720000  1.0 -0.1196428527
C  C295  1  0.82710000  0.75230000  0.84980000  1.0 -0.2145158705
C  C296  1  0.79790000  0.77890000  0.88860000  1.0 -0.1196428527
C  C297  1  0.81180000  0.83050000  0.89460000  1.0 -0.1307168622
C  C298  1  0.85700000  0.85690000  0.86160000  1.0 -0.0022818542
C  C299  1  0.88900000  0.83200000  0.82320000  1.0 -0.1390466947
C  C300  1  0.63710000  0.38800000  0.30470000  1.0 -0.1307168622
C  C301  1  0.67000000  0.33810000  0.30000000  1.0 -0.2309098921
C  C302  1  0.68360000  0.32170000  0.25250000  1.0 -0.1196428527
C  C303  1  0.66400000  0.35170000  0.21360000  1.0 -0.1307168622
C  C304  1  0.61550000  0.41930000  0.26610000  1.0 -0.0412404505
C  C305  1  0.81990000  0.30530000  0.35860000  1.0 -0.2234515064
C  C306  1  0.86850000  0.31050000  0.31750000  1.0 -0.1307168622
C  C307  1  0.86070000  0.30350000  0.40170000  1.0 -0.1196428527
C  C308  1  0.99310000  0.31120000  0.36120000  1.0 -0.1022385343
C  C309  1  0.95600000  0.31270000  0.31910000  1.0 -0.1196428527
C  C310  1  0.94980000  0.30680000  0.40350000  1.0 -0.1196428527
C  C311  1  0.63440000  0.68580000  0.88670000  1.0 -0.1307168622
C  C312  1  0.67770000  0.68180000  0.84310000  1.0 -0.2309098921
C  C313  1  0.62970000  0.68090000  0.80350000  1.0 -0.109284727
C  C314  1  0.86930000  0.91330000  0.86830000  1.0 0.3375053813
C  C315  1  0.50420000  0.68890000  0.85130000  1.0 -0.109284727
C  C316  1  0.55060000  0.68970000  0.89150000  1.0 -0.1196428527
C  C317  1  0.54340000  0.68490000  0.80750000  1.0 -0.1307168622
C  C318  1  0.65790000  0.33430000  0.40830000  1.0 -0.2309098921
C  C319  1  0.69990000  0.37750000  0.42630000  1.0 -0.1022385343
C  C320  1  0.58190000  0.32120000  0.42880000  1.0 -0.1022385343
C  C321  1  0.54860000  0.34930000  0.46760000  1.0 -0.1390466947
C  C322  1  0.59310000  0.39190000  0.48390000  1.0 0.0040790904
C  C323  1  0.66750000  0.40500000  0.46430000  1.0 -0.1196428527
C  C324  1  0.55600000  0.42410000  0.52390000  1.0 0.3727060277
C  C325  1  0.09650000  0.05880000  0.47910000  1.0 0.3812359925
C  C326  1  0.12230000  0.08960000  0.52270000  1.0 0.0119925457
C  C327  1  0.18660000  0.07170000  0.55230000  1.0 -0.1307168622
C  C328  1  0.41060000  0.57650000  0.12750000  1.0 0.3457108679
C  C329  1  0.40900000  0.93060000  0.32100000  1.0 0.4162635933
C  C330  1  0.04350000  0.06130000  0.82270000  1.0 0.317717431
C  C331  1  0.38300000  0.63010000  0.13510000  1.0 -0.0099646059
C  C332  1  0.41780000  0.66100000  0.16830000  1.0 -0.1307168622
C  C333  1  0.37270000  0.90030000  0.27900000  1.0 -0.0484599125
C  C334  1  0.09020000  0.09020000  0.78570000  1.0 -0.0022818542
C  C335  1  0.07110000  0.07970000  0.73790000  1.0 -0.1703560558
C  C336  1  0.10630000  0.10840000  0.70110000  1.0 -0.0883412231
C  C337  1  0.16090000  0.14850000  0.70820000  1.0 -0.2381885704
C  C338  1  0.17880000  0.15870000  0.75750000  1.0 -0.1196428527
C  C339  1  0.14510000  0.12860000  0.79390000  1.0 -0.1307168622
C  C340  1  0.08050000  0.13490000  0.53340000  1.0 -0.1390466947
C  C341  1  0.10400000  0.16340000  0.57240000  1.0 -0.1022385343
C  C342  1  0.17030000  0.14770000  0.60230000  1.0 -0.2716467437
C  C343  1  0.21030000  0.10080000  0.59150000  1.0 -0.1022385343
C  C344  1  0.31850000  0.64940000  0.10690000  1.0 -0.1390466947
C  C345  1  0.29400000  0.70010000  0.11250000  1.0 -0.1196428527
C  C346  1  0.33130000  0.73300000  0.14540000  1.0 -0.2234515064
C  C347  1  0.39330000  0.71220000  0.17230000  1.0 -0.1196428527
C  C348  1  0.12610000  0.27840000  0.68280000  1.0 -0.1196428527
C  C349  1  0.17290000  0.25230000  0.65020000  1.0 -0.2145158705
C  C350  1  0.20210000  0.27890000  0.61140000  1.0 -0.1196428527
C  C351  1  0.18820000  0.33050000  0.60540000  1.0 -0.1307168622
C  C352  1  0.14300000  0.35690000  0.63840000  1.0 -0.0022818542
C  C353  1  0.11100000  0.33200000  0.67680000  1.0 -0.1390466947
C  C354  1  0.36290000  0.88800000  0.19530000  1.0 -0.1307168622
C  C355  1  0.33000000  0.83810000  0.20000000  1.0 -0.2309098921
C  C356  1  0.31640000  0.82170000  0.24750000  1.0 -0.1196428527
C  C357  1  0.33600000  0.85170000  0.28640000  1.0 -0.1307168622
C  C358  1  0.38450000  0.91930000  0.23390000  1.0 -0.0412404505
C  C359  1  0.18010000  0.80530000  0.14140000  1.0 -0.2234515064
C  C360  1  0.13150000  0.81050000  0.18250000  1.0 -0.1307168622
C  C361  1  0.13930000  0.80350000  0.09830000  1.0 -0.1196428527
C  C362  1  0.00690000  0.81120000  0.13880000  1.0 -0.1022385343
C  C363  1  0.04400000  0.81270000  0.18090000  1.0 -0.1196428527
C  C364  1  0.05020000  0.80680000  0.09650000  1.0 -0.1196428527
C  C365  1  0.36560000  0.18580000  0.61330000  1.0 -0.1307168622
C  C366  1  0.32230000  0.18180000  0.65690000  1.0 -0.2309098921
C  C367  1  0.37030000  0.18090000  0.69650000  1.0 -0.109284727
C  C368  1  0.13070000  0.41330000  0.63170000  1.0 0.3375053813
C  C369  1  0.49580000  0.18890000  0.64870000  1.0 -0.109284727
C  C370  1  0.44940000  0.18970000  0.60850000  1.0 -0.1196428527
C  C371  1  0.45660000  0.18490000  0.69250000  1.0 -0.1307168622
C  C372  1  0.34210000  0.83430000  0.09170000  1.0 -0.2309098921
C  C373  1  0.30010000  0.87750000  0.07370000  1.0 -0.1022385343
C  C374  1  0.41810000  0.82120000  0.07120000  1.0 -0.1022385343
C  C375  1  0.45140000  0.84930000  0.03240000  1.0 -0.1390466947
C  C376  1  0.40690000  0.89190000  0.01610000  1.0 0.0040790904
C  C377  1  0.33250000  0.90500000  0.03570000  1.0 -0.1196428527
C  C378  1  0.44400000  0.92410000  0.97610000  1.0 0.3727060277
C  C379  1  0.90350000  0.44120000  0.47910000  1.0 0.3812359925
C  C380  1  0.87770000  0.41040000  0.52270000  1.0 0.0119925457
C  C381  1  0.81340000  0.42830000  0.55230000  1.0 -0.1307168622
C  C382  1  0.58940000  0.92350000  0.12750000  1.0 0.3457108679
C  C383  1  0.59100000  0.56940000  0.32100000  1.0 0.4162635933
C  C384  1  0.95650000  0.43870000  0.82270000  1.0 0.317717431
C  C385  1  0.61700000  0.86990000  0.13510000  1.0 -0.0099646059
C  C386  1  0.58220000  0.83900000  0.16830000  1.0 -0.1307168622
C  C387  1  0.62730000  0.59970000  0.27900000  1.0 -0.0484599125
C  C388  1  0.90980000  0.40980000  0.78570000  1.0 -0.0022818542
C  C389  1  0.92890000  0.42030000  0.73790000  1.0 -0.1703560558
C  C390  1  0.89370000  0.39160000  0.70110000  1.0 -0.0883412231
C  C391  1  0.83910000  0.35150000  0.70820000  1.0 -0.2381885704
C  C392  1  0.82120000  0.34130000  0.75750000  1.0 -0.1196428527
C  C393  1  0.85490000  0.37140000  0.79390000  1.0 -0.1307168622
C  C394  1  0.91950000  0.36510000  0.53340000  1.0 -0.1390466947
C  C395  1  0.89600000  0.33660000  0.57240000  1.0 -0.1022385343
C  C396  1  0.82970000  0.35230000  0.60230000  1.0 -0.2716467437
C  C397  1  0.78970000  0.39920000  0.59150000  1.0 -0.1022385343
C  C398  1  0.68150000  0.85060000  0.10690000  1.0 -0.1390466947
C  C399  1  0.70600000  0.79990000  0.11250000  1.0 -0.1196428527
C  C400  1  0.66870000  0.76700000  0.14540000  1.0 -0.2234515064
C  C401  1  0.60670000  0.78780000  0.17230000  1.0 -0.1196428527
C  C402  1  0.87390000  0.22160000  0.68280000  1.0 -0.1196428527
C  C403  1  0.82710000  0.24770000  0.65020000  1.0 -0.2145158705
C  C404  1  0.79790000  0.22110000  0.61140000  1.0 -0.1196428527
C  C405  1  0.81180000  0.16950000  0.60540000  1.0 -0.1307168622
C  C406  1  0.85700000  0.14310000  0.63840000  1.0 -0.0022818542
C  C407  1  0.88900000  0.16800000  0.67680000  1.0 -0.1390466947
C  C408  1  0.63710000  0.61200000  0.19530000  1.0 -0.1307168622
C  C409  1  0.67000000  0.66190000  0.20000000  1.0 -0.2309098921
C  C410  1  0.68360000  0.67830000  0.24750000  1.0 -0.1196428527
C  C411  1  0.66400000  0.64830000  0.28640000  1.0 -0.1307168622
C  C412  1  0.61550000  0.58070000  0.23390000  1.0 -0.0412404505
C  C413  1  0.81990000  0.69470000  0.14140000  1.0 -0.2234515064
C  C414  1  0.86850000  0.68950000  0.18250000  1.0 -0.1307168622
C  C415  1  0.86070000  0.69650000  0.09830000  1.0 -0.1196428527
C  C416  1  0.99310000  0.68880000  0.13880000  1.0 -0.1022385343
C  C417  1  0.95600000  0.68730000  0.18090000  1.0 -0.1196428527
C  C418  1  0.94980000  0.69320000  0.09650000  1.0 -0.1196428527
C  C419  1  0.63440000  0.31420000  0.61330000  1.0 -0.1307168622
C  C420  1  0.67770000  0.31820000  0.65690000  1.0 -0.2309098921
C  C421  1  0.62970000  0.31910000  0.69650000  1.0 -0.109284727
C  C422  1  0.86930000  0.08670000  0.63170000  1.0 0.3375053813
C  C423  1  0.50420000  0.31110000  0.64870000  1.0 -0.109284727
C  C424  1  0.55060000  0.31030000  0.60850000  1.0 -0.1196428527
C  C425  1  0.54340000  0.31510000  0.69250000  1.0 -0.1307168622
C  C426  1  0.65790000  0.66570000  0.09170000  1.0 -0.2309098921
C  C427  1  0.69990000  0.62250000  0.07370000  1.0 -0.1022385343
C  C428  1  0.58190000  0.67880000  0.07120000  1.0 -0.1022385343
C  C429  1  0.54860000  0.65070000  0.03240000  1.0 -0.1390466947
C  C430  1  0.59310000  0.60810000  0.01610000  1.0 0.0040790904
C  C431  1  0.66750000  0.59500000  0.03570000  1.0 -0.1196428527
C  C432  1  0.55600000  0.57590000  0.97610000  1.0 0.3727060277
O  O1  1  0.40390000  0.94540000  0.86200000  1.0 -0.7055938897
O  O2  1  0.56850000  0.01070000  0.91810000  1.0 -0.7020424422
O  O3  1  0.55380000  0.97270000  0.81270000  1.0 -0.750806002
O  O4  1  0.59550000  0.91470000  0.86330000  1.0 -0.7055938897
O  O5  1  0.54540000  0.55470000  0.65880000  1.0 -0.750806002
O  O6  1  0.60500000  0.55250000  0.58840000  1.0 -0.7735738066
O  O7  1  0.49240000  0.91010000  0.45320000  1.0 -0.7422682904
O  O8  1  0.59350000  0.96560000  0.46540000  1.0 -0.7573793922
O  O9  1  0.14620000  0.04700000  0.36630000  1.0 -0.7865808067
O  O10  1  0.98090000  0.97630000  0.41290000  1.0 -0.5546228942
O  O11  1  0.84840000  0.43560000  0.09350000  1.0 -0.7422682904
O  O12  1  0.90430000  0.43970000  0.16480000  1.0 -0.7573793922
O  O13  1  0.96160000  0.07440000  0.95270000  1.0 -0.7225564625
O  O14  1  0.86420000  0.01840000  0.96840000  1.0 -0.7422682904
O  O15  1  0.00220000  0.02450000  0.31170000  1.0 -0.7422682904
O  O16  1  0.94700000  0.07360000  0.36590000  1.0 -0.6877078768
O  O17  1  0.59610000  0.55460000  0.86200000  1.0 -0.7020424422
O  O18  1  0.43150000  0.48930000  0.91810000  1.0 -0.7020424422
O  O19  1  0.44620000  0.52730000  0.81270000  1.0 -0.750806002
O  O20  1  0.40450000  0.58530000  0.86330000  1.0 -0.7055938897
O  O21  1  0.45460000  0.94530000  0.65880000  1.0 -0.750806002
O  O22  1  0.39500000  0.94750000  0.58840000  1.0 -0.7735738066
O  O23  1  0.50760000  0.58990000  0.45320000  1.0 -0.7422682904
O  O24  1  0.40650000  0.53440000  0.46540000  1.0 -0.7573793922
O  O25  1  0.85380000  0.45300000  0.36630000  1.0 -0.7865808067
O  O26  1  0.01910000  0.52370000  0.41290000  1.0 -0.5565239247
O  O27  1  0.15160000  0.06440000  0.09350000  1.0 -0.7422682904
O  O28  1  0.09570000  0.06030000  0.16480000  1.0 -0.7573793922
O  O29  1  0.03840000  0.42560000  0.95270000  1.0 -0.7225564625
O  O30  1  0.13580000  0.48160000  0.96840000  1.0 -0.7422682904
O  O31  1  0.99780000  0.47550000  0.31170000  1.0 -0.7422682904
O  O32  1  0.05300000  0.42640000  0.36590000  1.0 -0.6877078768
O  O33  1  0.40390000  0.05460000  0.63800000  1.0 -0.7020424422
O  O34  1  0.56850000  0.98930000  0.58190000  1.0 -0.7020424422
O  O35  1  0.55380000  0.02730000  0.68730000  1.0 -0.750806002
O  O36  1  0.59550000  0.08530000  0.63670000  1.0 -0.7055938897
O  O37  1  0.54540000  0.44530000  0.84120000  1.0 -0.750806002
O  O38  1  0.60500000  0.44750000  0.91160000  1.0 -0.7735738066
O  O39  1  0.49240000  0.08990000  0.04680000  1.0 -0.7422682904
O  O40  1  0.59350000  0.03440000  0.03460000  1.0 -0.7573793922
O  O41  1  0.14620000  0.95300000  0.13370000  1.0 -0.7865808067
O  O42  1  0.98090000  0.02370000  0.08710000  1.0 -0.5546228942
O  O43  1  0.84840000  0.56440000  0.40650000  1.0 -0.7422682904
O  O44  1  0.90430000  0.56030000  0.33520000  1.0 -0.7573793922
O  O45  1  0.96160000  0.92560000  0.54730000  1.0 -0.7225564625
O  O46  1  0.86420000  0.98160000  0.53160000  1.0 -0.7422682904
O  O47  1  0.00220000  0.97550000  0.18830000  1.0 -0.7422682904
O  O48  1  0.94700000  0.92640000  0.13410000  1.0 -0.6877078768
O  O49  1  0.59610000  0.44540000  0.63800000  1.0 -0.7020424422
O  O50  1  0.43150000  0.51070000  0.58190000  1.0 -0.7020424422
O  O51  1  0.44620000  0.47270000  0.68730000  1.0 -0.750806002
O  O52  1  0.40450000  0.41470000  0.63670000  1.0 -0.7055938897
O  O53  1  0.45460000  0.05470000  0.84120000  1.0 -0.750806002
O  O54  1  0.39500000  0.05250000  0.91160000  1.0 -0.7735738066
O  O55  1  0.50760000  0.41010000  0.04680000  1.0 -0.7422682904
O  O56  1  0.40650000  0.46560000  0.03460000  1.0 -0.7573793922
O  O57  1  0.85380000  0.54700000  0.13370000  1.0 -0.7865808067
O  O58  1  0.01910000  0.47630000  0.08710000  1.0 -0.5565239247
O  O59  1  0.15160000  0.93560000  0.40650000  1.0 -0.7422682904
O  O60  1  0.09570000  0.93970000  0.33520000  1.0 -0.7573793922
O  O61  1  0.03840000  0.57440000  0.54730000  1.0 -0.7225564625
O  O62  1  0.13580000  0.51840000  0.53160000  1.0 -0.7422682904
O  O63  1  0.99780000  0.52450000  0.18830000  1.0 -0.7422682904
O  O64  1  0.05300000  0.57360000  0.13410000  1.0 -0.6877078768
O  O65  1  0.59610000  0.05460000  0.13800000  1.0 -0.7020424422
O  O66  1  0.43150000  0.98930000  0.08190000  1.0 -0.7020424422
O  O67  1  0.44620000  0.02730000  0.18730000  1.0 -0.750806002
O  O68  1  0.40450000  0.08530000  0.13670000  1.0 -0.7055938897
O  O69  1  0.45460000  0.44530000  0.34120000  1.0 -0.750806002
O  O70  1  0.39500000  0.44750000  0.41160000  1.0 -0.7735738066
O  O71  1  0.50760000  0.08990000  0.54680000  1.0 -0.7422682904
O  O72  1  0.40650000  0.03440000  0.53460000  1.0 -0.7573793922
O  O73  1  0.85380000  0.95300000  0.63370000  1.0 -0.7865808067
O  O74  1  0.01910000  0.02370000  0.58710000  1.0 -0.5565239247
O  O75  1  0.15160000  0.56440000  0.90650000  1.0 -0.7422682904
O  O76  1  0.09570000  0.56030000  0.83520000  1.0 -0.7573793922
O  O77  1  0.03840000  0.92560000  0.04730000  1.0 -0.7225564625
O  O78  1  0.13580000  0.98160000  0.03160000  1.0 -0.7422682904
O  O79  1  0.99780000  0.97550000  0.68830000  1.0 -0.7422682904
O  O80  1  0.05300000  0.92640000  0.63410000  1.0 -0.6877078768
O  O81  1  0.40390000  0.44540000  0.13800000  1.0 -0.7020424422
O  O82  1  0.56850000  0.51070000  0.08190000  1.0 -0.7020424422
O  O83  1  0.55380000  0.47270000  0.18730000  1.0 -0.750806002
O  O84  1  0.59550000  0.41470000  0.13670000  1.0 -0.7055938897
O  O85  1  0.54540000  0.05470000  0.34120000  1.0 -0.750806002
O  O86  1  0.60500000  0.05250000  0.41160000  1.0 -0.7735738066
O  O87  1  0.49240000  0.41010000  0.54680000  1.0 -0.7422682904
O  O88  1  0.59350000  0.46560000  0.53460000  1.0 -0.7573793922
O  O89  1  0.14620000  0.54700000  0.63370000  1.0 -0.7865808067
O  O90  1  0.98090000  0.47630000  0.58710000  1.0 -0.5546228942
O  O91  1  0.84840000  0.93560000  0.90650000  1.0 -0.7422682904
O  O92  1  0.90430000  0.93970000  0.83520000  1.0 -0.7573793922
O  O93  1  0.96160000  0.57440000  0.04730000  1.0 -0.7225564625
O  O94  1  0.86420000  0.51840000  0.03160000  1.0 -0.7422682904
O  O95  1  0.00220000  0.52450000  0.68830000  1.0 -0.7422682904
O  O96  1  0.94700000  0.57360000  0.63410000  1.0 -0.6877078768
O  O97  1  0.59610000  0.94540000  0.36200000  1.0 -0.7020424422
O  O98  1  0.43150000  0.01070000  0.41810000  1.0 -0.7020424422
O  O99  1  0.44620000  0.97270000  0.31270000  1.0 -0.750806002
O  O100  1  0.40450000  0.91470000  0.36330000  1.0 -0.7055938897
O  O101  1  0.45460000  0.55470000  0.15880000  1.0 -0.750806002
O  O102  1  0.39500000  0.55250000  0.08840000  1.0 -0.7735738066
O  O103  1  0.50760000  0.91010000  0.95320000  1.0 -0.7422682904
O  O104  1  0.40650000  0.96560000  0.96540000  1.0 -0.7573793922
O  O105  1  0.85380000  0.04700000  0.86630000  1.0 -0.7865808067
O  O106  1  0.01910000  0.97630000  0.91290000  1.0 -0.5565239247
O  O107  1  0.15160000  0.43560000  0.59350000  1.0 -0.7422682904
O  O108  1  0.09570000  0.43970000  0.66480000  1.0 -0.7573793922
O  O109  1  0.03840000  0.07440000  0.45270000  1.0 -0.7225564625
O  O110  1  0.13580000  0.01840000  0.46840000  1.0 -0.7422682904
O  O111  1  0.99780000  0.02450000  0.81170000  1.0 -0.7422682904
O  O112  1  0.05300000  0.07360000  0.86590000  1.0 -0.6877078768
O  O113  1  0.40390000  0.55460000  0.36200000  1.0 -0.7020424422
O  O114  1  0.56850000  0.48930000  0.41810000  1.0 -0.7020424422
O  O115  1  0.55380000  0.52730000  0.31270000  1.0 -0.750806002
O  O116  1  0.59550000  0.58530000  0.36330000  1.0 -0.7055938897
O  O117  1  0.54540000  0.94530000  0.15880000  1.0 -0.750806002
O  O118  1  0.60500000  0.94750000  0.08840000  1.0 -0.7735738066
O  O119  1  0.49240000  0.58990000  0.95320000  1.0 -0.7422682904
O  O120  1  0.59350000  0.53440000  0.96540000  1.0 -0.7573793922
O  O121  1  0.14620000  0.45300000  0.86630000  1.0 -0.7865808067
O  O122  1  0.98090000  0.52370000  0.91290000  1.0 -0.5546228942
O  O123  1  0.84840000  0.06440000  0.59350000  1.0 -0.7422682904
O  O124  1  0.90430000  0.06030000  0.66480000  1.0 -0.7573793922
O  O125  1  0.96160000  0.42560000  0.45270000  1.0 -0.7225564625
O  O126  1  0.86420000  0.48160000  0.46840000  1.0 -0.7422682904
O  O127  1  0.00220000  0.47550000  0.81170000  1.0 -0.7422682904
O  O128  1  0.94700000  0.42640000  0.86590000  1.0 -0.6877078768
