# DDEC6 charges by PACMAN v1.1 (https://github.com/mtap-research/PACMAN-charge/)
data_DISBAL_FSR_pacman
_symmetry_space_group_name_H-M   'P 1'
_cell_length_a   16.83070000
_cell_length_b   18.69650000
_cell_length_c   26.17090000
_cell_angle_alpha   90.00000000
_cell_angle_beta   90.00000000
_cell_angle_gamma   90.00000000
_symmetry_Int_Tables_number   1
_chemical_formula_structural   Zn2H33C36(NO)8
_chemical_formula_sum   'Zn16 H264 C288 N64 O64'
_cell_volume   8235.33273500
_cell_formula_units_Z   8
loop_
 _symmetry_equiv_pos_site_id
 _symmetry_equiv_pos_as_xyz
  1  'x, y, z'
loop_
 _atom_site_type_symbol
 _atom_site_label
 _atom_site_symmetry_multiplicity
 _atom_site_fract_x
 _atom_site_fract_y
 _atom_site_fract_z
 _atom_site_occupancy
 _atom_site_charge
Zn  Zn1  1  0.73093000  0.02047000  0.08934000  1.0 0.7950614031
Zn  Zn2  1  0.77719000  0.31381000  0.63432000  1.0 0.7618289601
Zn  Zn3  1  0.26907000  0.47953000  0.58934000  1.0 0.7950614031
Zn  Zn4  1  0.22281000  0.18619000  0.13432000  1.0 0.7618289601
Zn  Zn5  1  0.23093000  0.97953000  0.41066000  1.0 0.7950614031
Zn  Zn6  1  0.27719000  0.68619000  0.86568000  1.0 0.7618289601
Zn  Zn7  1  0.76907000  0.52047000  0.91066000  1.0 0.7950614031
Zn  Zn8  1  0.72281000  0.81381000  0.36568000  1.0 0.7618289601
Zn  Zn9  1  0.26907000  0.97953000  0.91066000  1.0 0.7950614031
Zn  Zn10  1  0.22281000  0.68619000  0.36568000  1.0 0.7618289601
Zn  Zn11  1  0.73093000  0.52047000  0.41066000  1.0 0.7950614031
Zn  Zn12  1  0.77719000  0.81381000  0.86568000  1.0 0.7618289601
Zn  Zn13  1  0.76907000  0.02047000  0.58934000  1.0 0.7950614031
Zn  Zn14  1  0.72281000  0.31381000  0.13432000  1.0 0.7618289601
Zn  Zn15  1  0.23093000  0.47953000  0.08934000  1.0 0.7950614031
Zn  Zn16  1  0.27719000  0.18619000  0.63432000  1.0 0.7618289601
H  H1  1  0.75560000  0.23830000  0.29140000  1.0 0.119256483
H  H2  1  0.72410000  0.05100000  0.36660000  1.0 0.1025700779
H  H3  1  0.70500000  0.99320000  0.28890000  1.0 0.1097688675
H  H4  1  0.71110000  0.28640000  0.36260000  1.0 0.1291851127
H  H5  1  0.81630000  0.16670000  0.50360000  1.0 0.1025700779
H  H6  1  0.80040000  0.10600000  0.42680000  1.0 0.1097688675
H  H7  1  0.61270000  0.13900000  0.11770000  1.0 0.1291851127
H  H8  1  0.59570000  0.01250000  0.99660000  1.0 0.119256483
H  H9  1  0.48420000  0.09840000  0.99240000  1.0 0.1371188771
H  H10  1  0.42540000  0.19160000  0.05910000  1.0 0.119256483
H  H11  1  0.46910000  0.19580000  0.11330000  1.0 0.1097688675
H  H12  1  0.56690000  0.27300000  0.07450000  1.0 0.1097688675
H  H13  1  0.48050000  0.30770000  0.07940000  1.0 0.0899855334
H  H14  1  0.53480000  0.24450000  0.98660000  1.0 0.1097688675
H  H15  1  0.54600000  0.32780000  0.99830000  1.0 0.1097688675
H  H16  1  0.39400000  0.26060000  0.99190000  1.0 0.1097688675
H  H17  1  0.43350000  0.30350000  0.94550000  1.0 0.119256483
H  H18  1  0.31970000  0.33520000  0.05830000  1.0 0.119256483
H  H19  1  0.44900000  0.44700000  0.95890000  1.0 0.119256483
H  H20  1  0.36300000  0.53060000  0.00680000  1.0 0.1291851127
H  H21  1  0.64220000  0.35960000  0.70720000  1.0 0.1291851127
H  H22  1  0.68640000  0.44750000  0.57250000  1.0 0.1291851127
H  H23  1  0.56600000  0.50530000  0.60730000  1.0 0.1291851127
H  H24  1  0.47110000  0.47620000  0.68250000  1.0 0.1291851127
H  H25  1  0.48860000  0.40280000  0.71170000  1.0 0.1291851127
H  H26  1  0.52370000  0.46860000  0.78250000  1.0 0.0899855334
H  H27  1  0.60530000  0.56430000  0.72450000  1.0 0.1097688675
H  H28  1  0.51510000  0.59080000  0.72580000  1.0 0.119256483
H  H29  1  0.58940000  0.65280000  0.78980000  1.0 0.1097688675
H  H30  1  0.61520000  0.57840000  0.81540000  1.0 0.119256483
H  H31  1  0.43640000  0.68710000  0.79850000  1.0 0.119256483
H  H32  1  0.51060000  0.51750000  0.87790000  1.0 0.1291851127
H  H33  1  0.37560000  0.55160000  0.90800000  1.0 0.119256483
H  H34  1  0.24440000  0.26170000  0.79140000  1.0 0.119256483
H  H35  1  0.27590000  0.44900000  0.86660000  1.0 0.1025700779
H  H36  1  0.29500000  0.50680000  0.78890000  1.0 0.1097688675
H  H37  1  0.28890000  0.21360000  0.86260000  1.0 0.1291851127
H  H38  1  0.18370000  0.33333333  0.00360000  1.0 0.1025700779
H  H39  1  0.19960000  0.39400000  0.92680000  1.0 0.1097688675
H  H40  1  0.38730000  0.36100000  0.61770000  1.0 0.1291851127
H  H41  1  0.40430000  0.48750000  0.49660000  1.0 0.119256483
H  H42  1  0.51580000  0.40160000  0.49240000  1.0 0.1371188771
H  H43  1  0.57460000  0.30840000  0.55910000  1.0 0.119256483
H  H44  1  0.53090000  0.30420000  0.61330000  1.0 0.1097688675
H  H45  1  0.43310000  0.22700000  0.57450000  1.0 0.1097688675
H  H46  1  0.51950000  0.19230000  0.57940000  1.0 0.0899855334
H  H47  1  0.46520000  0.25550000  0.48660000  1.0 0.1097688675
H  H48  1  0.45400000  0.17220000  0.49830000  1.0 0.1097688675
H  H49  1  0.60600000  0.23940000  0.49190000  1.0 0.1097688675
H  H50  1  0.56650000  0.19650000  0.44550000  1.0 0.119256483
H  H51  1  0.68030000  0.16480000  0.55830000  1.0 0.119256483
H  H52  1  0.55100000  0.05300000  0.45890000  1.0 0.119256483
H  H53  1  0.63700000  0.96940000  0.50680000  1.0 0.1291851127
H  H54  1  0.35780000  0.14040000  0.20720000  1.0 0.1291851127
H  H55  1  0.31360000  0.05250000  0.07250000  1.0 0.1291851127
H  H56  1  0.43400000  0.99470000  0.10730000  1.0 0.1291851127
H  H57  1  0.52890000  0.02380000  0.18250000  1.0 0.1291851127
H  H58  1  0.51140000  0.09720000  0.21170000  1.0 0.1291851127
H  H59  1  0.47630000  0.03140000  0.28250000  1.0 0.0899855334
H  H60  1  0.39470000  0.93570000  0.22450000  1.0 0.1097688675
H  H61  1  0.48490000  0.90920000  0.22580000  1.0 0.119256483
H  H62  1  0.41060000  0.84720000  0.28980000  1.0 0.1097688675
H  H63  1  0.38480000  0.92160000  0.31540000  1.0 0.119256483
H  H64  1  0.56360000  0.81290000  0.29850000  1.0 0.119256483
H  H65  1  0.48940000  0.98250000  0.37790000  1.0 0.1291851127
H  H66  1  0.62440000  0.94840000  0.40800000  1.0 0.119256483
H  H67  1  0.25560000  0.76170000  0.20860000  1.0 0.119256483
H  H68  1  0.22410000  0.94900000  0.13340000  1.0 0.1025700779
H  H69  1  0.20500000  0.00680000  0.21110000  1.0 0.1097688675
H  H70  1  0.21110000  0.71360000  0.13740000  1.0 0.1291851127
H  H71  1  0.31630000  0.83330000  0.99640000  1.0 0.1025700779
H  H72  1  0.30040000  0.89400000  0.07320000  1.0 0.1097688675
H  H73  1  0.11270000  0.86100000  0.38230000  1.0 0.1291851127
H  H74  1  0.09570000  0.98750000  0.50340000  1.0 0.119256483
H  H75  1  0.98420000  0.90160000  0.50760000  1.0 0.1371188771
H  H76  1  0.92540000  0.80840000  0.44090000  1.0 0.119256483
H  H77  1  0.96910000  0.80420000  0.38670000  1.0 0.1097688675
H  H78  1  0.06690000  0.72700000  0.42550000  1.0 0.1097688675
H  H79  1  0.98050000  0.69230000  0.42060000  1.0 0.0899855334
H  H80  1  0.03480000  0.75550000  0.51340000  1.0 0.1097688675
H  H81  1  0.04600000  0.67220000  0.50170000  1.0 0.1097688675
H  H82  1  0.89400000  0.73940000  0.50810000  1.0 0.1097688675
H  H83  1  0.93350000  0.69650000  0.55450000  1.0 0.119256483
H  H84  1  0.81970000  0.66480000  0.44170000  1.0 0.119256483
H  H85  1  0.94900000  0.55300000  0.54110000  1.0 0.119256483
H  H86  1  0.86300000  0.46940000  0.49320000  1.0 0.1291851127
H  H87  1  0.14220000  0.64040000  0.79280000  1.0 0.1291851127
H  H88  1  0.18640000  0.55250000  0.92750000  1.0 0.1291851127
H  H89  1  0.06600000  0.49470000  0.89270000  1.0 0.1291851127
H  H90  1  0.97110000  0.52380000  0.81750000  1.0 0.1291851127
H  H91  1  0.98860000  0.59720000  0.78830000  1.0 0.1291851127
H  H92  1  0.02370000  0.53140000  0.71750000  1.0 0.0899855334
H  H93  1  0.10530000  0.43570000  0.77550000  1.0 0.1097688675
H  H94  1  0.01510000  0.40920000  0.77420000  1.0 0.119256483
H  H95  1  0.08940000  0.34720000  0.71020000  1.0 0.1097688675
H  H96  1  0.11520000  0.42160000  0.68460000  1.0 0.119256483
H  H97  1  0.93640000  0.31290000  0.70150000  1.0 0.119256483
H  H98  1  0.01060000  0.48250000  0.62210000  1.0 0.1291851127
H  H99  1  0.87560000  0.44840000  0.59200000  1.0 0.119256483
H  H100  1  0.74440000  0.73830000  0.70860000  1.0 0.119256483
H  H101  1  0.77590000  0.55100000  0.63340000  1.0 0.1025700779
H  H102  1  0.79500000  0.49320000  0.71110000  1.0 0.1097688675
H  H103  1  0.78890000  0.78640000  0.63740000  1.0 0.1291851127
H  H104  1  0.68370000  0.66666667  0.49640000  1.0 0.1025700779
H  H105  1  0.69960000  0.60600000  0.57320000  1.0 0.1097688675
H  H106  1  0.88730000  0.63900000  0.88230000  1.0 0.1291851127
H  H107  1  0.90430000  0.51250000  0.00340000  1.0 0.119256483
H  H108  1  0.01580000  0.59840000  0.00760000  1.0 0.1371188771
H  H109  1  0.07460000  0.69160000  0.94090000  1.0 0.119256483
H  H110  1  0.03090000  0.69580000  0.88670000  1.0 0.1097688675
H  H111  1  0.93310000  0.77300000  0.92550000  1.0 0.1097688675
H  H112  1  0.01950000  0.80770000  0.92060000  1.0 0.0899855334
H  H113  1  0.96520000  0.74450000  0.01340000  1.0 0.1097688675
H  H114  1  0.95400000  0.82780000  0.00170000  1.0 0.1097688675
H  H115  1  0.10600000  0.76060000  0.00810000  1.0 0.1097688675
H  H116  1  0.06650000  0.80350000  0.05450000  1.0 0.119256483
H  H117  1  0.18030000  0.83520000  0.94170000  1.0 0.119256483
H  H118  1  0.05100000  0.94700000  0.04110000  1.0 0.119256483
H  H119  1  0.13700000  0.03060000  0.99320000  1.0 0.1291851127
H  H120  1  0.85780000  0.85960000  0.29280000  1.0 0.1291851127
H  H121  1  0.81360000  0.94750000  0.42750000  1.0 0.1291851127
H  H122  1  0.93400000  0.00530000  0.39270000  1.0 0.1291851127
H  H123  1  0.02890000  0.97620000  0.31750000  1.0 0.1291851127
H  H124  1  0.01140000  0.90280000  0.28830000  1.0 0.1291851127
H  H125  1  0.97630000  0.96860000  0.21750000  1.0 0.0899855334
H  H126  1  0.89470000  0.06430000  0.27550000  1.0 0.1097688675
H  H127  1  0.98490000  0.09080000  0.27420000  1.0 0.119256483
H  H128  1  0.91060000  0.15280000  0.21020000  1.0 0.1097688675
H  H129  1  0.88480000  0.07840000  0.18460000  1.0 0.119256483
H  H130  1  0.06360000  0.18710000  0.20150000  1.0 0.119256483
H  H131  1  0.98940000  0.01750000  0.12210000  1.0 0.1291851127
H  H132  1  0.12440000  0.05160000  0.09200000  1.0 0.119256483
H  H133  1  0.24440000  0.76170000  0.70860000  1.0 0.119256483
H  H134  1  0.27590000  0.94900000  0.63340000  1.0 0.1025700779
H  H135  1  0.29500000  0.00680000  0.71110000  1.0 0.1097688675
H  H136  1  0.28890000  0.71360000  0.63740000  1.0 0.1291851127
H  H137  1  0.18370000  0.83330000  0.49640000  1.0 0.1025700779
H  H138  1  0.19960000  0.89400000  0.57320000  1.0 0.1097688675
H  H139  1  0.38730000  0.86100000  0.88230000  1.0 0.1291851127
H  H140  1  0.40430000  0.98750000  0.00340000  1.0 0.119256483
H  H141  1  0.51580000  0.90160000  0.00760000  1.0 0.1371188771
H  H142  1  0.57460000  0.80840000  0.94090000  1.0 0.119256483
H  H143  1  0.53090000  0.80420000  0.88670000  1.0 0.1097688675
H  H144  1  0.43310000  0.72700000  0.92550000  1.0 0.1097688675
H  H145  1  0.51950000  0.69230000  0.92060000  1.0 0.0899855334
H  H146  1  0.46520000  0.75550000  0.01340000  1.0 0.1097688675
H  H147  1  0.45400000  0.67220000  0.00170000  1.0 0.1097688675
H  H148  1  0.60600000  0.73940000  0.00810000  1.0 0.1097688675
H  H149  1  0.56650000  0.69650000  0.05450000  1.0 0.119256483
H  H150  1  0.68030000  0.66480000  0.94170000  1.0 0.119256483
H  H151  1  0.55100000  0.55300000  0.04110000  1.0 0.119256483
H  H152  1  0.63700000  0.46940000  0.99320000  1.0 0.1291851127
H  H153  1  0.35780000  0.64040000  0.29280000  1.0 0.1291851127
H  H154  1  0.31360000  0.55250000  0.42750000  1.0 0.1291851127
H  H155  1  0.43400000  0.49470000  0.39270000  1.0 0.1291851127
H  H156  1  0.52890000  0.52380000  0.31750000  1.0 0.1291851127
H  H157  1  0.51140000  0.59720000  0.28830000  1.0 0.1291851127
H  H158  1  0.47630000  0.53140000  0.21750000  1.0 0.0899855334
H  H159  1  0.39470000  0.43570000  0.27550000  1.0 0.1097688675
H  H160  1  0.48490000  0.40920000  0.27420000  1.0 0.119256483
H  H161  1  0.41060000  0.34720000  0.21020000  1.0 0.1097688675
H  H162  1  0.38480000  0.42160000  0.18460000  1.0 0.119256483
H  H163  1  0.56360000  0.31290000  0.20150000  1.0 0.119256483
H  H164  1  0.48940000  0.48250000  0.12210000  1.0 0.1291851127
H  H165  1  0.62440000  0.44840000  0.09200000  1.0 0.119256483
H  H166  1  0.75560000  0.73830000  0.20860000  1.0 0.119256483
H  H167  1  0.72410000  0.55100000  0.13340000  1.0 0.1025700779
H  H168  1  0.70500000  0.49320000  0.21110000  1.0 0.1097688675
H  H169  1  0.71110000  0.78640000  0.13740000  1.0 0.1291851127
H  H170  1  0.81630000  0.66666667  0.99640000  1.0 0.1025700779
H  H171  1  0.80040000  0.60600000  0.07320000  1.0 0.1097688675
H  H172  1  0.61270000  0.63900000  0.38230000  1.0 0.1291851127
H  H173  1  0.59570000  0.51250000  0.50340000  1.0 0.119256483
H  H174  1  0.48420000  0.59840000  0.50760000  1.0 0.1371188771
H  H175  1  0.42540000  0.69160000  0.44090000  1.0 0.119256483
H  H176  1  0.46910000  0.69580000  0.38670000  1.0 0.1097688675
H  H177  1  0.56690000  0.77300000  0.42550000  1.0 0.1097688675
H  H178  1  0.48050000  0.80770000  0.42060000  1.0 0.0899855334
H  H179  1  0.53480000  0.74450000  0.51340000  1.0 0.1097688675
H  H180  1  0.54600000  0.82780000  0.50170000  1.0 0.1097688675
H  H181  1  0.39400000  0.76060000  0.50810000  1.0 0.1097688675
H  H182  1  0.43350000  0.80350000  0.55450000  1.0 0.119256483
H  H183  1  0.31970000  0.83520000  0.44170000  1.0 0.119256483
H  H184  1  0.44900000  0.94700000  0.54110000  1.0 0.119256483
H  H185  1  0.36300000  0.03060000  0.49320000  1.0 0.1291851127
H  H186  1  0.64220000  0.85960000  0.79280000  1.0 0.1291851127
H  H187  1  0.68640000  0.94750000  0.92750000  1.0 0.1291851127
H  H188  1  0.56600000  0.00530000  0.89270000  1.0 0.1291851127
H  H189  1  0.47110000  0.97620000  0.81750000  1.0 0.1291851127
H  H190  1  0.48860000  0.90280000  0.78830000  1.0 0.1291851127
H  H191  1  0.52370000  0.96860000  0.71750000  1.0 0.0899855334
H  H192  1  0.60530000  0.06430000  0.77550000  1.0 0.1097688675
H  H193  1  0.51510000  0.09080000  0.77420000  1.0 0.119256483
H  H194  1  0.58940000  0.15280000  0.71020000  1.0 0.1097688675
H  H195  1  0.61520000  0.07840000  0.68460000  1.0 0.119256483
H  H196  1  0.43640000  0.18710000  0.70150000  1.0 0.119256483
H  H197  1  0.51060000  0.01750000  0.62210000  1.0 0.1291851127
H  H198  1  0.37560000  0.05160000  0.59200000  1.0 0.119256483
H  H199  1  0.74440000  0.23830000  0.79140000  1.0 0.119256483
H  H200  1  0.77590000  0.05100000  0.86660000  1.0 0.1025700779
H  H201  1  0.79500000  0.99320000  0.78890000  1.0 0.1097688675
H  H202  1  0.78890000  0.28640000  0.86260000  1.0 0.1291851127
H  H203  1  0.68370000  0.16670000  0.00360000  1.0 0.1025700779
H  H204  1  0.69960000  0.10600000  0.92680000  1.0 0.1097688675
H  H205  1  0.88730000  0.13900000  0.61770000  1.0 0.1291851127
H  H206  1  0.90430000  0.01250000  0.49660000  1.0 0.119256483
H  H207  1  0.01580000  0.09840000  0.49240000  1.0 0.1371188771
H  H208  1  0.07460000  0.19160000  0.55910000  1.0 0.119256483
H  H209  1  0.03090000  0.19580000  0.61330000  1.0 0.1097688675
H  H210  1  0.93310000  0.27300000  0.57450000  1.0 0.1097688675
H  H211  1  0.01950000  0.30770000  0.57940000  1.0 0.0899855334
H  H212  1  0.96520000  0.24450000  0.48660000  1.0 0.1097688675
H  H213  1  0.95400000  0.32780000  0.49830000  1.0 0.1097688675
H  H214  1  0.10600000  0.26060000  0.49190000  1.0 0.1097688675
H  H215  1  0.06650000  0.30350000  0.44550000  1.0 0.119256483
H  H216  1  0.18030000  0.33520000  0.55830000  1.0 0.119256483
H  H217  1  0.05100000  0.44700000  0.45890000  1.0 0.119256483
H  H218  1  0.13700000  0.53060000  0.50680000  1.0 0.1291851127
H  H219  1  0.85780000  0.35960000  0.20720000  1.0 0.1291851127
H  H220  1  0.81360000  0.44750000  0.07250000  1.0 0.1291851127
H  H221  1  0.93400000  0.50530000  0.10730000  1.0 0.1291851127
H  H222  1  0.02890000  0.47620000  0.18250000  1.0 0.1291851127
H  H223  1  0.01140000  0.40280000  0.21170000  1.0 0.1291851127
H  H224  1  0.97630000  0.46860000  0.28250000  1.0 0.0899855334
H  H225  1  0.89470000  0.56430000  0.22450000  1.0 0.1097688675
H  H226  1  0.98490000  0.59080000  0.22580000  1.0 0.119256483
H  H227  1  0.91060000  0.65280000  0.28980000  1.0 0.1097688675
H  H228  1  0.88480000  0.57840000  0.31540000  1.0 0.119256483
H  H229  1  0.06360000  0.68710000  0.29850000  1.0 0.119256483
H  H230  1  0.98940000  0.51750000  0.37790000  1.0 0.1291851127
H  H231  1  0.12440000  0.55160000  0.40800000  1.0 0.119256483
H  H232  1  0.25560000  0.26170000  0.29140000  1.0 0.119256483
H  H233  1  0.22410000  0.44900000  0.36660000  1.0 0.1025700779
H  H234  1  0.20500000  0.50680000  0.28890000  1.0 0.1097688675
H  H235  1  0.21110000  0.21360000  0.36260000  1.0 0.1291851127
H  H236  1  0.31630000  0.33333333  0.50360000  1.0 0.1025700779
H  H237  1  0.30040000  0.39400000  0.42680000  1.0 0.1097688675
H  H238  1  0.11270000  0.36100000  0.11770000  1.0 0.1291851127
H  H239  1  0.09570000  0.48750000  0.99660000  1.0 0.119256483
H  H240  1  0.98420000  0.40160000  0.99240000  1.0 0.1371188771
H  H241  1  0.92540000  0.30840000  0.05910000  1.0 0.119256483
H  H242  1  0.96910000  0.30420000  0.11330000  1.0 0.1097688675
H  H243  1  0.06690000  0.22700000  0.07450000  1.0 0.1097688675
H  H244  1  0.98050000  0.19230000  0.07940000  1.0 0.0899855334
H  H245  1  0.03480000  0.25550000  0.98660000  1.0 0.1097688675
H  H246  1  0.04600000  0.17220000  0.99830000  1.0 0.1097688675
H  H247  1  0.89400000  0.23940000  0.99190000  1.0 0.1097688675
H  H248  1  0.93350000  0.19650000  0.94550000  1.0 0.119256483
H  H249  1  0.81970000  0.16480000  0.05830000  1.0 0.119256483
H  H250  1  0.94900000  0.05300000  0.95890000  1.0 0.119256483
H  H251  1  0.86300000  0.96940000  0.00680000  1.0 0.1291851127
H  H252  1  0.14220000  0.14040000  0.70720000  1.0 0.1291851127
H  H253  1  0.18640000  0.05250000  0.57250000  1.0 0.1291851127
H  H254  1  0.06600000  0.99470000  0.60730000  1.0 0.1291851127
H  H255  1  0.97110000  0.02380000  0.68250000  1.0 0.1291851127
H  H256  1  0.98860000  0.09720000  0.71170000  1.0 0.1291851127
H  H257  1  0.02370000  0.03140000  0.78250000  1.0 0.0899855334
H  H258  1  0.10530000  0.93570000  0.72450000  1.0 0.1097688675
H  H259  1  0.01510000  0.90920000  0.72580000  1.0 0.119256483
H  H260  1  0.08940000  0.84720000  0.78980000  1.0 0.1097688675
H  H261  1  0.11520000  0.92160000  0.81540000  1.0 0.119256483
H  H262  1  0.93640000  0.81290000  0.79850000  1.0 0.119256483
H  H263  1  0.01060000  0.98250000  0.87790000  1.0 0.1291851127
H  H264  1  0.87560000  0.94840000  0.90800000  1.0 0.119256483
C  C1  1  0.70550000  0.04133000  0.19404000  1.0 0.5493139562
C  C2  1  0.71500000  0.08163000  0.24362000  1.0 -0.0427824496
C  C3  1  0.72780000  0.15530000  0.24470000  1.0 -0.0243556325
C  C4  1  0.71100000  0.20318000  0.20016000  1.0 0.5727486622
C  C5  1  0.74340000  0.18872000  0.29111000  1.0 -0.1768152491
C  C6  1  0.74160000  0.15113000  0.33741000  1.0 0.0698862311
C  C7  1  0.72620000  0.07764000  0.33576000  1.0 -0.1595052004
C  C8  1  0.71400000  0.04335000  0.28944000  1.0 -0.1176578507
C  C9  1  0.75270000  0.18914000  0.38648000  1.0 0.0758742255
C  C10  1  0.73210000  0.26173000  0.39132000  1.0 -0.1768152491
C  C11  1  0.74181000  0.29827000  0.43717000  1.0 -0.0113165924
C  C12  1  0.71292000  0.37449000  0.43974000  1.0 0.5824130562
C  C13  1  0.77215000  0.26284000  0.47982000  1.0 -0.0646002822
C  C14  1  0.78048000  0.30044000  0.53021000  1.0 0.5493139562
C  C15  1  0.79440000  0.19101000  0.47502000  1.0 -0.1176578507
C  C16  1  0.78490000  0.15472000  0.42920000  1.0 -0.1595052004
C  C17  1  0.59450000  0.11766000  0.08691000  1.0 0.0899855334
C  C18  1  0.58500000  0.04908000  0.02086000  1.0 -0.0427824496
C  C19  1  0.52370000  0.09583000  0.01827000  1.0 -0.1176578507
C  C20  1  0.47760000  0.19770000  0.07591000  1.0 -0.1009528625
C  C21  1  0.51160000  0.27020000  0.06175000  1.0 -0.1853296149
C  C22  1  0.51150000  0.28590000  0.00488000  1.0 -0.1768152491
C  C23  1  0.42990000  0.30070000  0.98319000  1.0 -0.1087828531
C  C24  1  0.34130000  0.37417000  0.03965000  1.0 0.0899855334
C  C25  1  0.41210000  0.43470000  0.98492000  1.0 -0.1176578507
C  C26  1  0.36530000  0.48030000  0.01150000  1.0 -0.0489128306
C  C27  1  0.63850000  0.38880000  0.67760000  1.0 0.0899855334
C  C28  1  0.66220000  0.43690000  0.60440000  1.0 -0.0427824496
C  C29  1  0.59620000  0.46860000  0.62319000  1.0 -0.1087828531
C  C30  1  0.51160000  0.44970000  0.70230000  1.0 -0.1265034273
C  C31  1  0.52950000  0.49030000  0.74990000  1.0 -0.1176578507
C  C32  1  0.55590000  0.56370000  0.74500000  1.0 -0.2011347849
C  C33  1  0.57210000  0.60310000  0.79669000  1.0 -0.0913695812
C  C34  1  0.43780000  0.64910000  0.82252000  1.0 0.1025700779
C  C35  1  0.47930000  0.55620000  0.86569000  1.0 -0.1087828531
C  C36  1  0.40510000  0.57510000  0.88192000  1.0 -0.0489128306
C  C37  1  0.29450000  0.45867000  0.69404000  1.0 0.5493139562
C  C38  1  0.28500000  0.41837000  0.74362000  1.0 -0.0427824496
C  C39  1  0.27220000  0.34470000  0.74470000  1.0 -0.0243556325
C  C40  1  0.28900000  0.29682000  0.70016000  1.0 0.5727486622
C  C41  1  0.25660000  0.31128000  0.79111000  1.0 -0.1768152491
C  C42  1  0.25840000  0.34887000  0.83741000  1.0 0.0698862311
C  C43  1  0.27380000  0.42236000  0.83576000  1.0 -0.1595052004
C  C44  1  0.28600000  0.45665000  0.78944000  1.0 -0.1176578507
C  C45  1  0.24730000  0.31086000  0.88648000  1.0 0.0758742255
C  C46  1  0.26790000  0.23827000  0.89132000  1.0 -0.1768152491
C  C47  1  0.25819000  0.20173000  0.93717000  1.0 -0.0113165924
C  C48  1  0.28708000  0.12551000  0.93974000  1.0 0.5824130562
C  C49  1  0.22785000  0.23716000  0.97982000  1.0 -0.0646002822
C  C50  1  0.21952000  0.19956000  0.03021000  1.0 0.5493139562
C  C51  1  0.20560000  0.30899000  0.97502000  1.0 -0.1176578507
C  C52  1  0.21510000  0.34528000  0.92920000  1.0 -0.1595052004
C  C53  1  0.40550000  0.38234000  0.58691000  1.0 0.0899855334
C  C54  1  0.41500000  0.45092000  0.52086000  1.0 -0.0427824496
C  C55  1  0.47630000  0.40417000  0.51827000  1.0 -0.1176578507
C  C56  1  0.52240000  0.30230000  0.57591000  1.0 -0.1009528625
C  C57  1  0.48840000  0.22980000  0.56175000  1.0 -0.1853296149
C  C58  1  0.48850000  0.21410000  0.50488000  1.0 -0.1768152491
C  C59  1  0.57010000  0.19930000  0.48319000  1.0 -0.1087828531
C  C60  1  0.65870000  0.12583000  0.53965000  1.0 0.0899855334
C  C61  1  0.58790000  0.06530000  0.48492000  1.0 -0.1176578507
C  C62  1  0.63470000  0.01970000  0.51150000  1.0 -0.0489128306
C  C63  1  0.36150000  0.11120000  0.17760000  1.0 0.0899855334
C  C64  1  0.33780000  0.06310000  0.10440000  1.0 -0.0427824496
C  C65  1  0.40380000  0.03140000  0.12319000  1.0 -0.1087828531
C  C66  1  0.48840000  0.05030000  0.20230000  1.0 -0.1265034273
C  C67  1  0.47050000  0.00970000  0.24990000  1.0 -0.1176578507
C  C68  1  0.44410000  0.93630000  0.24500000  1.0 -0.2011347849
C  C69  1  0.42790000  0.89690000  0.29669000  1.0 -0.0913695812
C  C70  1  0.56220000  0.85090000  0.32252000  1.0 0.1025700779
C  C71  1  0.52070000  0.94380000  0.36569000  1.0 -0.1087828531
C  C72  1  0.59490000  0.92490000  0.38192000  1.0 -0.0489128306
C  C73  1  0.20550000  0.95867000  0.30596000  1.0 0.5493139562
C  C74  1  0.21500000  0.91837000  0.25638000  1.0 -0.0427824496
C  C75  1  0.22780000  0.84470000  0.25530000  1.0 -0.0243556325
C  C76  1  0.21100000  0.79682000  0.29984000  1.0 0.5727486622
C  C77  1  0.24340000  0.81128000  0.20889000  1.0 -0.1768152491
C  C78  1  0.24160000  0.84887000  0.16259000  1.0 0.0698862311
C  C79  1  0.22620000  0.92236000  0.16424000  1.0 -0.1595052004
C  C80  1  0.21400000  0.95665000  0.21056000  1.0 -0.1176578507
C  C81  1  0.25270000  0.81086000  0.11352000  1.0 0.0758742255
C  C82  1  0.23210000  0.73827000  0.10868000  1.0 -0.1768152491
C  C83  1  0.24181000  0.70173000  0.06283000  1.0 -0.0113165924
C  C84  1  0.21292000  0.62551000  0.06026000  1.0 0.5824130562
C  C85  1  0.27215000  0.73716000  0.02018000  1.0 -0.0646002822
C  C86  1  0.28048000  0.69956000  0.96979000  1.0 0.5493139562
C  C87  1  0.29440000  0.80899000  0.02498000  1.0 -0.1176578507
C  C88  1  0.28490000  0.84528000  0.07080000  1.0 -0.1595052004
C  C89  1  0.09450000  0.88234000  0.41309000  1.0 0.0899855334
C  C90  1  0.08500000  0.95092000  0.47914000  1.0 -0.0427824496
C  C91  1  0.02370000  0.90417000  0.48173000  1.0 -0.1176578507
C  C92  1  0.97760000  0.80230000  0.42409000  1.0 -0.1009528625
C  C93  1  0.01160000  0.72980000  0.43825000  1.0 -0.1853296149
C  C94  1  0.01150000  0.71410000  0.49512000  1.0 -0.1768152491
C  C95  1  0.92990000  0.69930000  0.51681000  1.0 -0.1087828531
C  C96  1  0.84130000  0.62583000  0.46035000  1.0 0.0899855334
C  C97  1  0.91210000  0.56530000  0.51508000  1.0 -0.1176578507
C  C98  1  0.86530000  0.51970000  0.48850000  1.0 -0.0489128306
C  C99  1  0.13850000  0.61120000  0.82240000  1.0 0.0899855334
C  C100  1  0.16220000  0.56310000  0.89560000  1.0 -0.0427824496
C  C101  1  0.09620000  0.53140000  0.87681000  1.0 -0.1087828531
C  C102  1  0.01160000  0.55030000  0.79770000  1.0 -0.1265034273
C  C103  1  0.02950000  0.50970000  0.75010000  1.0 -0.1176578507
C  C104  1  0.05590000  0.43630000  0.75500000  1.0 -0.2011347849
C  C105  1  0.07210000  0.39690000  0.70331000  1.0 -0.0913695812
C  C106  1  0.93780000  0.35090000  0.67748000  1.0 0.1025700779
C  C107  1  0.97930000  0.44380000  0.63431000  1.0 -0.1087828531
C  C108  1  0.90510000  0.42490000  0.61808000  1.0 -0.0489128306
C  C109  1  0.79450000  0.54133000  0.80596000  1.0 0.5493139562
C  C110  1  0.78500000  0.58163000  0.75638000  1.0 -0.0427824496
C  C111  1  0.77220000  0.65530000  0.75530000  1.0 -0.0243556325
C  C112  1  0.78900000  0.70318000  0.79984000  1.0 0.5727486622
C  C113  1  0.75660000  0.68872000  0.70889000  1.0 -0.1768152491
C  C114  1  0.75840000  0.65113000  0.66259000  1.0 0.0698862311
C  C115  1  0.77380000  0.57764000  0.66424000  1.0 -0.1595052004
C  C116  1  0.78600000  0.54335000  0.71056000  1.0 -0.1176578507
C  C117  1  0.74730000  0.68914000  0.61352000  1.0 0.0758742255
C  C118  1  0.76790000  0.76173000  0.60868000  1.0 -0.1768152491
C  C119  1  0.75819000  0.79827000  0.56283000  1.0 -0.0113165924
C  C120  1  0.78708000  0.87449000  0.56026000  1.0 0.5824130562
C  C121  1  0.72785000  0.76284000  0.52018000  1.0 -0.0646002822
C  C122  1  0.71952000  0.80044000  0.46979000  1.0 0.5493139562
C  C123  1  0.70560000  0.69101000  0.52498000  1.0 -0.1176578507
C  C124  1  0.71510000  0.65472000  0.57080000  1.0 -0.1595052004
C  C125  1  0.90550000  0.61766000  0.91309000  1.0 0.0899855334
C  C126  1  0.91500000  0.54908000  0.97914000  1.0 -0.0427824496
C  C127  1  0.97630000  0.59583000  0.98173000  1.0 -0.1176578507
C  C128  1  0.02240000  0.69770000  0.92409000  1.0 -0.1009528625
C  C129  1  0.98840000  0.77020000  0.93825000  1.0 -0.1853296149
C  C130  1  0.98850000  0.78590000  0.99512000  1.0 -0.1768152491
C  C131  1  0.07010000  0.80070000  0.01681000  1.0 -0.1087828531
C  C132  1  0.15870000  0.87417000  0.96035000  1.0 0.0899855334
C  C133  1  0.08790000  0.93470000  0.01508000  1.0 -0.1176578507
C  C134  1  0.13470000  0.98030000  0.98850000  1.0 -0.0489128306
C  C135  1  0.86150000  0.88880000  0.32240000  1.0 0.0899855334
C  C136  1  0.83780000  0.93690000  0.39560000  1.0 -0.0427824496
C  C137  1  0.90380000  0.96860000  0.37681000  1.0 -0.1087828531
C  C138  1  0.98840000  0.94970000  0.29770000  1.0 -0.1265034273
C  C139  1  0.97050000  0.99030000  0.25010000  1.0 -0.1176578507
C  C140  1  0.94410000  0.06370000  0.25500000  1.0 -0.2011347849
C  C141  1  0.92790000  0.10310000  0.20331000  1.0 -0.0913695812
C  C142  1  0.06220000  0.14910000  0.17748000  1.0 0.1025700779
C  C143  1  0.02070000  0.05620000  0.13431000  1.0 -0.1087828531
C  C144  1  0.09490000  0.07510000  0.11808000  1.0 -0.0489128306
C  C145  1  0.29450000  0.95867000  0.80596000  1.0 0.5493139562
C  C146  1  0.28500000  0.91837000  0.75638000  1.0 -0.0427824496
C  C147  1  0.27220000  0.84470000  0.75530000  1.0 -0.0243556325
C  C148  1  0.28900000  0.79682000  0.79984000  1.0 0.5727486622
C  C149  1  0.25660000  0.81128000  0.70889000  1.0 -0.1768152491
C  C150  1  0.25840000  0.84887000  0.66259000  1.0 0.0698862311
C  C151  1  0.27380000  0.92236000  0.66424000  1.0 -0.1595052004
C  C152  1  0.28600000  0.95665000  0.71056000  1.0 -0.1176578507
C  C153  1  0.24730000  0.81086000  0.61352000  1.0 0.0758742255
C  C154  1  0.26790000  0.73827000  0.60868000  1.0 -0.1768152491
C  C155  1  0.25819000  0.70173000  0.56283000  1.0 -0.0113165924
C  C156  1  0.28708000  0.62551000  0.56026000  1.0 0.5824130562
C  C157  1  0.22785000  0.73716000  0.52018000  1.0 -0.0646002822
C  C158  1  0.21952000  0.69956000  0.46979000  1.0 0.5493139562
C  C159  1  0.20560000  0.80899000  0.52498000  1.0 -0.1176578507
C  C160  1  0.21510000  0.84528000  0.57080000  1.0 -0.1595052004
C  C161  1  0.40550000  0.88234000  0.91309000  1.0 0.0899855334
C  C162  1  0.41500000  0.95092000  0.97914000  1.0 -0.0427824496
C  C163  1  0.47630000  0.90417000  0.98173000  1.0 -0.1176578507
C  C164  1  0.52240000  0.80230000  0.92409000  1.0 -0.1009528625
C  C165  1  0.48840000  0.72980000  0.93825000  1.0 -0.1853296149
C  C166  1  0.48850000  0.71410000  0.99512000  1.0 -0.1768152491
C  C167  1  0.57010000  0.69930000  0.01681000  1.0 -0.1087828531
C  C168  1  0.65870000  0.62583000  0.96035000  1.0 0.0899855334
C  C169  1  0.58790000  0.56530000  0.01508000  1.0 -0.1176578507
C  C170  1  0.63470000  0.51970000  0.98850000  1.0 -0.0489128306
C  C171  1  0.36150000  0.61120000  0.32240000  1.0 0.0899855334
C  C172  1  0.33780000  0.56310000  0.39560000  1.0 -0.0427824496
C  C173  1  0.40380000  0.53140000  0.37681000  1.0 -0.1087828531
C  C174  1  0.48840000  0.55030000  0.29770000  1.0 -0.1265034273
C  C175  1  0.47050000  0.50970000  0.25010000  1.0 -0.1176578507
C  C176  1  0.44410000  0.43630000  0.25500000  1.0 -0.2011347849
C  C177  1  0.42790000  0.39690000  0.20331000  1.0 -0.0913695812
C  C178  1  0.56220000  0.35090000  0.17748000  1.0 0.1025700779
C  C179  1  0.52070000  0.44380000  0.13431000  1.0 -0.1087828531
C  C180  1  0.59490000  0.42490000  0.11808000  1.0 -0.0489128306
C  C181  1  0.70550000  0.54133000  0.30596000  1.0 0.5493139562
C  C182  1  0.71500000  0.58163000  0.25638000  1.0 -0.0427824496
C  C183  1  0.72780000  0.65530000  0.25530000  1.0 -0.0243556325
C  C184  1  0.71100000  0.70318000  0.29984000  1.0 0.5727486622
C  C185  1  0.74340000  0.68872000  0.20889000  1.0 -0.1768152491
C  C186  1  0.74160000  0.65113000  0.16259000  1.0 0.0698862311
C  C187  1  0.72620000  0.57764000  0.16424000  1.0 -0.1595052004
C  C188  1  0.71400000  0.54335000  0.21056000  1.0 -0.1176578507
C  C189  1  0.75270000  0.68914000  0.11352000  1.0 0.0758742255
C  C190  1  0.73210000  0.76173000  0.10868000  1.0 -0.1768152491
C  C191  1  0.74181000  0.79827000  0.06283000  1.0 -0.0113165924
C  C192  1  0.71292000  0.87449000  0.06026000  1.0 0.5824130562
C  C193  1  0.77215000  0.76284000  0.02018000  1.0 -0.0646002822
C  C194  1  0.78048000  0.80044000  0.96979000  1.0 0.5493139562
C  C195  1  0.79440000  0.69101000  0.02498000  1.0 -0.1176578507
C  C196  1  0.78490000  0.65472000  0.07080000  1.0 -0.1595052004
C  C197  1  0.59450000  0.61766000  0.41309000  1.0 0.0899855334
C  C198  1  0.58500000  0.54908000  0.47914000  1.0 -0.0427824496
C  C199  1  0.52370000  0.59583000  0.48173000  1.0 -0.1176578507
C  C200  1  0.47760000  0.69770000  0.42409000  1.0 -0.1009528625
C  C201  1  0.51160000  0.77020000  0.43825000  1.0 -0.1853296149
C  C202  1  0.51150000  0.78590000  0.49512000  1.0 -0.1768152491
C  C203  1  0.42990000  0.80070000  0.51681000  1.0 -0.1087828531
C  C204  1  0.34130000  0.87417000  0.46035000  1.0 0.0899855334
C  C205  1  0.41210000  0.93470000  0.51508000  1.0 -0.1176578507
C  C206  1  0.36530000  0.98030000  0.48850000  1.0 -0.0489128306
C  C207  1  0.63850000  0.88880000  0.82240000  1.0 0.0899855334
C  C208  1  0.66220000  0.93690000  0.89560000  1.0 -0.0427824496
C  C209  1  0.59620000  0.96860000  0.87681000  1.0 -0.1087828531
C  C210  1  0.51160000  0.94970000  0.79770000  1.0 -0.1265034273
C  C211  1  0.52950000  0.99030000  0.75010000  1.0 -0.1176578507
C  C212  1  0.55590000  0.06370000  0.75500000  1.0 -0.2011347849
C  C213  1  0.57210000  0.10310000  0.70331000  1.0 -0.0913695812
C  C214  1  0.43780000  0.14910000  0.67748000  1.0 0.1025700779
C  C215  1  0.47930000  0.05620000  0.63431000  1.0 -0.1087828531
C  C216  1  0.40510000  0.07510000  0.61808000  1.0 -0.0489128306
C  C217  1  0.79450000  0.04133000  0.69404000  1.0 0.5493139562
C  C218  1  0.78500000  0.08163000  0.74362000  1.0 -0.0427824496
C  C219  1  0.77220000  0.15530000  0.74470000  1.0 -0.0243556325
C  C220  1  0.78900000  0.20318000  0.70016000  1.0 0.5727486622
C  C221  1  0.75660000  0.18872000  0.79111000  1.0 -0.1768152491
C  C222  1  0.75840000  0.15113000  0.83741000  1.0 0.0698862311
C  C223  1  0.77380000  0.07764000  0.83576000  1.0 -0.1595052004
C  C224  1  0.78600000  0.04335000  0.78944000  1.0 -0.1176578507
C  C225  1  0.74730000  0.18914000  0.88648000  1.0 0.0758742255
C  C226  1  0.76790000  0.26173000  0.89132000  1.0 -0.1768152491
C  C227  1  0.75819000  0.29827000  0.93717000  1.0 -0.0113165924
C  C228  1  0.78708000  0.37449000  0.93974000  1.0 0.5824130562
C  C229  1  0.72785000  0.26284000  0.97982000  1.0 -0.0646002822
C  C230  1  0.71952000  0.30044000  0.03021000  1.0 0.5493139562
C  C231  1  0.70560000  0.19101000  0.97502000  1.0 -0.1176578507
C  C232  1  0.71510000  0.15472000  0.92920000  1.0 -0.1595052004
C  C233  1  0.90550000  0.11766000  0.58691000  1.0 0.0899855334
C  C234  1  0.91500000  0.04908000  0.52086000  1.0 -0.0427824496
C  C235  1  0.97630000  0.09583000  0.51827000  1.0 -0.1176578507
C  C236  1  0.02240000  0.19770000  0.57591000  1.0 -0.1009528625
C  C237  1  0.98840000  0.27020000  0.56175000  1.0 -0.1853296149
C  C238  1  0.98850000  0.28590000  0.50488000  1.0 -0.1768152491
C  C239  1  0.07010000  0.30070000  0.48319000  1.0 -0.1087828531
C  C240  1  0.15870000  0.37417000  0.53965000  1.0 0.0899855334
C  C241  1  0.08790000  0.43470000  0.48492000  1.0 -0.1176578507
C  C242  1  0.13470000  0.48030000  0.51150000  1.0 -0.0489128306
C  C243  1  0.86150000  0.38880000  0.17760000  1.0 0.0899855334
C  C244  1  0.83780000  0.43690000  0.10440000  1.0 -0.0427824496
C  C245  1  0.90380000  0.46860000  0.12319000  1.0 -0.1087828531
C  C246  1  0.98840000  0.44970000  0.20230000  1.0 -0.1265034273
C  C247  1  0.97050000  0.49030000  0.24990000  1.0 -0.1176578507
C  C248  1  0.94410000  0.56370000  0.24500000  1.0 -0.2011347849
C  C249  1  0.92790000  0.60310000  0.29669000  1.0 -0.0913695812
C  C250  1  0.06220000  0.64910000  0.32252000  1.0 0.1025700779
C  C251  1  0.02070000  0.55620000  0.36569000  1.0 -0.1087828531
C  C252  1  0.09490000  0.57510000  0.38192000  1.0 -0.0489128306
C  C253  1  0.20550000  0.45867000  0.19404000  1.0 0.5493139562
C  C254  1  0.21500000  0.41837000  0.24362000  1.0 -0.0427824496
C  C255  1  0.22780000  0.34470000  0.24470000  1.0 -0.0243556325
C  C256  1  0.21100000  0.29682000  0.20016000  1.0 0.5727486622
C  C257  1  0.24340000  0.31128000  0.29111000  1.0 -0.1768152491
C  C258  1  0.24160000  0.34887000  0.33741000  1.0 0.0698862311
C  C259  1  0.22620000  0.42236000  0.33576000  1.0 -0.1595052004
C  C260  1  0.21400000  0.45665000  0.28944000  1.0 -0.1176578507
C  C261  1  0.25270000  0.31086000  0.38648000  1.0 0.0758742255
C  C262  1  0.23210000  0.23827000  0.39132000  1.0 -0.1768152491
C  C263  1  0.24181000  0.20173000  0.43717000  1.0 -0.0113165924
C  C264  1  0.21292000  0.12551000  0.43974000  1.0 0.5824130562
C  C265  1  0.27215000  0.23716000  0.47982000  1.0 -0.0646002822
C  C266  1  0.28048000  0.19956000  0.53021000  1.0 0.5493139562
C  C267  1  0.29440000  0.30899000  0.47502000  1.0 -0.1176578507
C  C268  1  0.28490000  0.34528000  0.42920000  1.0 -0.1595052004
C  C269  1  0.09450000  0.38234000  0.08691000  1.0 0.0899855334
C  C270  1  0.08500000  0.45092000  0.02086000  1.0 -0.0427824496
C  C271  1  0.02370000  0.40417000  0.01827000  1.0 -0.1176578507
C  C272  1  0.97760000  0.30230000  0.07591000  1.0 -0.1009528625
C  C273  1  0.01160000  0.22980000  0.06175000  1.0 -0.1853296149
C  C274  1  0.01150000  0.21410000  0.00488000  1.0 -0.1768152491
C  C275  1  0.92990000  0.19930000  0.98319000  1.0 -0.1087828531
C  C276  1  0.84130000  0.12583000  0.03965000  1.0 0.0899855334
C  C277  1  0.91210000  0.06530000  0.98492000  1.0 -0.1176578507
C  C278  1  0.86530000  0.01970000  0.01150000  1.0 -0.0489128306
C  C279  1  0.13850000  0.11120000  0.67760000  1.0 0.0899855334
C  C280  1  0.16220000  0.06310000  0.60440000  1.0 -0.0427824496
C  C281  1  0.09620000  0.03140000  0.62319000  1.0 -0.1087828531
C  C282  1  0.01160000  0.05030000  0.70230000  1.0 -0.1265034273
C  C283  1  0.02950000  0.00970000  0.74990000  1.0 -0.1176578507
C  C284  1  0.05590000  0.93630000  0.74500000  1.0 -0.2011347849
C  C285  1  0.07210000  0.89690000  0.79669000  1.0 -0.0913695812
C  C286  1  0.93780000  0.85090000  0.82252000  1.0 0.1025700779
C  C287  1  0.97930000  0.94380000  0.86569000  1.0 -0.1087828531
C  C288  1  0.90510000  0.92490000  0.88192000  1.0 -0.0489128306
N  N1  1  0.62921000  0.06266000  0.06379000  1.0 -0.2998562145
N  N2  1  0.53031000  0.13878000  0.06062000  1.0 0.048621496
N  N3  1  0.39614000  0.36744000  0.00278000  1.0 0.048621496
N  N4  1  0.32114000  0.44162000  0.04674000  1.0 -0.2880235489
N  N5  1  0.68868000  0.38687000  0.63905000  1.0 -0.284329145
N  N6  1  0.58140000  0.43762000  0.66956000  1.0 0.048621496
N  N7  1  0.49955000  0.60397000  0.82831000  1.0 0.048621496
N  N8  1  0.37984000  0.63378000  0.85438000  1.0 -0.2880235489
N  N9  1  0.37079000  0.43734000  0.56379000  1.0 -0.2998562145
N  N10  1  0.46969000  0.36122000  0.56062000  1.0 0.048621496
N  N11  1  0.60386000  0.13256000  0.50278000  1.0 0.048621496
N  N12  1  0.67886000  0.05838000  0.54674000  1.0 -0.2880235489
N  N13  1  0.31132000  0.11313000  0.13905000  1.0 -0.284329145
N  N14  1  0.41860000  0.06238000  0.16956000  1.0 0.048621496
N  N15  1  0.50045000  0.89603000  0.32831000  1.0 0.048621496
N  N16  1  0.62016000  0.86622000  0.35438000  1.0 -0.2880235489
N  N17  1  0.12921000  0.93734000  0.43621000  1.0 -0.2998562145
N  N18  1  0.03031000  0.86122000  0.43938000  1.0 0.048621496
N  N19  1  0.89614000  0.63256000  0.49722000  1.0 0.048621496
N  N20  1  0.82114000  0.55838000  0.45326000  1.0 -0.2880235489
N  N21  1  0.18868000  0.61313000  0.86095000  1.0 -0.284329145
N  N22  1  0.08140000  0.56238000  0.83044000  1.0 0.048621496
N  N23  1  0.99955000  0.39603000  0.67169000  1.0 0.048621496
N  N24  1  0.87984000  0.36622000  0.64562000  1.0 -0.2880235489
N  N25  1  0.87079000  0.56266000  0.93621000  1.0 -0.2998562145
N  N26  1  0.96969000  0.63878000  0.93938000  1.0 0.048621496
N  N27  1  0.10386000  0.86744000  0.99722000  1.0 0.048621496
N  N28  1  0.17886000  0.94162000  0.95326000  1.0 -0.2880235489
N  N29  1  0.81132000  0.88687000  0.36095000  1.0 -0.284329145
N  N30  1  0.91860000  0.93762000  0.33044000  1.0 0.048621496
N  N31  1  0.00045000  0.10397000  0.17169000  1.0 0.048621496
N  N32  1  0.12016000  0.13378000  0.14562000  1.0 -0.2880235489
N  N33  1  0.37079000  0.93734000  0.93621000  1.0 -0.2998562145
N  N34  1  0.46969000  0.86122000  0.93938000  1.0 0.048621496
N  N35  1  0.60386000  0.63256000  0.99722000  1.0 0.048621496
N  N36  1  0.67886000  0.55838000  0.95326000  1.0 -0.2880235489
N  N37  1  0.31132000  0.61313000  0.36095000  1.0 -0.284329145
N  N38  1  0.41860000  0.56238000  0.33044000  1.0 0.048621496
N  N39  1  0.50045000  0.39603000  0.17169000  1.0 0.048621496
N  N40  1  0.62016000  0.36622000  0.14562000  1.0 -0.2880235489
N  N41  1  0.62921000  0.56266000  0.43621000  1.0 -0.2998562145
N  N42  1  0.53031000  0.63878000  0.43938000  1.0 0.048621496
N  N43  1  0.39614000  0.86744000  0.49722000  1.0 0.048621496
N  N44  1  0.32114000  0.94162000  0.45326000  1.0 -0.2880235489
N  N45  1  0.68868000  0.88687000  0.86095000  1.0 -0.284329145
N  N46  1  0.58140000  0.93762000  0.83044000  1.0 0.048621496
N  N47  1  0.49955000  0.10397000  0.67169000  1.0 0.048621496
N  N48  1  0.37984000  0.13378000  0.64562000  1.0 -0.2880235489
N  N49  1  0.87079000  0.06266000  0.56379000  1.0 -0.2998562145
N  N50  1  0.96969000  0.13878000  0.56062000  1.0 0.048621496
N  N51  1  0.10386000  0.36744000  0.50278000  1.0 0.048621496
N  N52  1  0.17886000  0.44162000  0.54674000  1.0 -0.2880235489
N  N53  1  0.81132000  0.38687000  0.13905000  1.0 -0.284329145
N  N54  1  0.91860000  0.43762000  0.16956000  1.0 0.048621496
N  N55  1  0.00045000  0.60397000  0.32831000  1.0 0.048621496
N  N56  1  0.12016000  0.63378000  0.35438000  1.0 -0.2880235489
N  N57  1  0.12921000  0.43734000  0.06379000  1.0 -0.2998562145
N  N58  1  0.03031000  0.36122000  0.06062000  1.0 0.048621496
N  N59  1  0.89614000  0.13256000  0.00278000  1.0 0.048621496
N  N60  1  0.82114000  0.05838000  0.04674000  1.0 -0.2880235489
N  N61  1  0.18868000  0.11313000  0.63905000  1.0 -0.284329145
N  N62  1  0.08140000  0.06238000  0.66956000  1.0 0.048621496
N  N63  1  0.99955000  0.89603000  0.82831000  1.0 0.048621496
N  N64  1  0.87984000  0.86622000  0.85438000  1.0 -0.2880235489
O  O1  1  0.66612000  0.98569000  0.19290000  1.0 -0.5487925225
O  O2  1  0.74254000  0.06741000  0.15590000  1.0 -0.5595689926
O  O3  1  0.64340000  0.20202000  0.18117000  1.0 -0.5690965641
O  O4  1  0.76480000  0.24810000  0.18766000  1.0 -0.5690965641
O  O5  1  0.75347000  0.41867000  0.41308000  1.0 -0.5487925225
O  O6  1  0.65200000  0.38842000  0.46368000  1.0 -0.5595689926
O  O7  1  0.77048000  0.26098000  0.56966000  1.0 -0.5487925225
O  O8  1  0.79574000  0.36484000  0.53148000  1.0 -0.5290629778
O  O9  1  0.33388000  0.51431000  0.69290000  1.0 -0.5487925225
O  O10  1  0.25746000  0.43259000  0.65590000  1.0 -0.5595689926
O  O11  1  0.35660000  0.29798000  0.68117000  1.0 -0.5690965641
O  O12  1  0.23520000  0.25190000  0.68766000  1.0 -0.5690965641
O  O13  1  0.24653000  0.08133000  0.91308000  1.0 -0.5487925225
O  O14  1  0.34800000  0.11158000  0.96368000  1.0 -0.5595689926
O  O15  1  0.22952000  0.23902000  0.06966000  1.0 -0.5487925225
O  O16  1  0.20426000  0.13516000  0.03148000  1.0 -0.5290629778
O  O17  1  0.16612000  0.01431000  0.30710000  1.0 -0.5487925225
O  O18  1  0.24254000  0.93259000  0.34410000  1.0 -0.5595689926
O  O19  1  0.14340000  0.79798000  0.31883000  1.0 -0.5690965641
O  O20  1  0.26480000  0.75190000  0.31234000  1.0 -0.5690965641
O  O21  1  0.25347000  0.58133000  0.08692000  1.0 -0.5487925225
O  O22  1  0.15200000  0.61158000  0.03632000  1.0 -0.5595689926
O  O23  1  0.27048000  0.73902000  0.93034000  1.0 -0.5487925225
O  O24  1  0.29574000  0.63516000  0.96852000  1.0 -0.5290629778
O  O25  1  0.83388000  0.48569000  0.80710000  1.0 -0.5487925225
O  O26  1  0.75746000  0.56741000  0.84410000  1.0 -0.5595689926
O  O27  1  0.85660000  0.70202000  0.81883000  1.0 -0.5690965641
O  O28  1  0.73520000  0.74810000  0.81234000  1.0 -0.5690965641
O  O29  1  0.74653000  0.91867000  0.58692000  1.0 -0.5487925225
O  O30  1  0.84800000  0.88842000  0.53632000  1.0 -0.5595689926
O  O31  1  0.72952000  0.76098000  0.43034000  1.0 -0.5487925225
O  O32  1  0.70426000  0.86484000  0.46852000  1.0 -0.5290629778
O  O33  1  0.33388000  0.01431000  0.80710000  1.0 -0.5487925225
O  O34  1  0.25746000  0.93259000  0.84410000  1.0 -0.5595689926
O  O35  1  0.35660000  0.79798000  0.81883000  1.0 -0.5690965641
O  O36  1  0.23520000  0.75190000  0.81234000  1.0 -0.5690965641
O  O37  1  0.24653000  0.58133000  0.58692000  1.0 -0.5487925225
O  O38  1  0.34800000  0.61158000  0.53632000  1.0 -0.5595689926
O  O39  1  0.22952000  0.73902000  0.43034000  1.0 -0.5487925225
O  O40  1  0.20426000  0.63516000  0.46852000  1.0 -0.5290629778
O  O41  1  0.66612000  0.48569000  0.30710000  1.0 -0.5487925225
O  O42  1  0.74254000  0.56741000  0.34410000  1.0 -0.5595689926
O  O43  1  0.64340000  0.70202000  0.31883000  1.0 -0.5690965641
O  O44  1  0.76480000  0.74810000  0.31234000  1.0 -0.5690965641
O  O45  1  0.75347000  0.91867000  0.08692000  1.0 -0.5487925225
O  O46  1  0.65200000  0.88842000  0.03632000  1.0 -0.5595689926
O  O47  1  0.77048000  0.76098000  0.93034000  1.0 -0.5487925225
O  O48  1  0.79574000  0.86484000  0.96852000  1.0 -0.5290629778
O  O49  1  0.83388000  0.98569000  0.69290000  1.0 -0.5487925225
O  O50  1  0.75746000  0.06741000  0.65590000  1.0 -0.5595689926
O  O51  1  0.85660000  0.20202000  0.68117000  1.0 -0.5690965641
O  O52  1  0.73520000  0.24810000  0.68766000  1.0 -0.5690965641
O  O53  1  0.74653000  0.41867000  0.91308000  1.0 -0.5487925225
O  O54  1  0.84800000  0.38842000  0.96368000  1.0 -0.5595689926
O  O55  1  0.72952000  0.26098000  0.06966000  1.0 -0.5487925225
O  O56  1  0.70426000  0.36484000  0.03148000  1.0 -0.5290629778
O  O57  1  0.16612000  0.51431000  0.19290000  1.0 -0.5487925225
O  O58  1  0.24254000  0.43259000  0.15590000  1.0 -0.5595689926
O  O59  1  0.14340000  0.29798000  0.18117000  1.0 -0.5690965641
O  O60  1  0.26480000  0.25190000  0.18766000  1.0 -0.5690965641
O  O61  1  0.25347000  0.08133000  0.41308000  1.0 -0.5487925225
O  O62  1  0.15200000  0.11158000  0.46368000  1.0 -0.5595689926
O  O63  1  0.27048000  0.23902000  0.56966000  1.0 -0.5487925225
O  O64  1  0.29574000  0.13516000  0.53148000  1.0 -0.5290629778
