# DDEC6 charges by PACMAN v1.1 (https://github.com/mtap-research/PACMAN-charge/)
data_DISSUU_FSR_pacman
_symmetry_space_group_name_H-M   'P 1'
_cell_length_a   8.45520000
_cell_length_b   10.06140000
_cell_length_c   12.82180000
_cell_angle_alpha   109.01200000
_cell_angle_beta   90.92200000
_cell_angle_gamma   91.29800000
_symmetry_Int_Tables_number   1
_chemical_formula_structural   Zn3P4H3O16
_chemical_formula_sum   'Zn6 P8 H6 O32'
_cell_volume   1030.68189626
_cell_formula_units_Z   2
loop_
 _symmetry_equiv_pos_site_id
 _symmetry_equiv_pos_as_xyz
  1  'x, y, z'
loop_
 _atom_site_type_symbol
 _atom_site_label
 _atom_site_symmetry_multiplicity
 _atom_site_fract_x
 _atom_site_fract_y
 _atom_site_fract_z
 _atom_site_occupancy
 _atom_site_charge
Zn  Zn1  1  0.05299000  0.18217000  0.15604000  1.0 1.1914302626
Zn  Zn2  1  0.94701000  0.81783000  0.84396000  1.0 1.1914302626
Zn  Zn3  1  0.25982000  0.99832000  0.54517000  1.0 1.1432688752
Zn  Zn4  1  0.74018000  0.00168000  0.45483000  1.0 1.1432688752
Zn  Zn5  1  0.18587000  0.38327000  0.48538000  1.0 1.1156154791
Zn  Zn6  1  0.81413000  0.61673000  0.51462000  1.0 1.1156154791
P  P1  1  0.01905000  0.48974000  0.30993000  1.0 1.5651253978
P  P2  1  0.98095000  0.51026000  0.69007000  1.0 1.5591238061
P  P3  1  0.06043000  0.08686000  0.37536000  1.0 1.5801833191
P  P4  1  0.93957000  0.91314000  0.62464000  1.0 1.5801833191
P  P5  1  0.50830000  0.74784000  0.44890000  1.0 1.5591238061
P  P6  1  0.49170000  0.25216000  0.55110000  1.0 1.5591238061
P  P7  1  0.22787000  0.05194000  0.92913000  1.0 1.411787025
P  P8  1  0.77213000  0.94806000  0.07087000  1.0 1.411787025
H  H1  1  0.32940000  0.59650000  0.36390000  1.0 0.4453855077
H  H2  1  0.67060000  0.40350000  0.63610000  1.0 0.4453855077
H  H3  1  0.00910000  0.71920000  0.36140000  1.0 0.4604967752
H  H4  1  0.99090000  0.28080000  0.63860000  1.0 0.4604967752
H  H5  1  0.12190000  0.08250000  0.79320000  1.0 0.4261211077
H  H6  1  0.87810000  0.91750000  0.20680000  1.0 0.4261211077
O  O1  1  0.17080000  0.47960000  0.37520000  1.0 -0.7188778719
O  O2  1  0.82920000  0.52040000  0.62480000  1.0 -0.7188778719
O  O3  1  0.87150000  0.47720000  0.37356000  1.0 -0.7300883761
O  O4  1  0.12850000  0.52280000  0.62644000  1.0 -0.7300883761
O  O5  1  0.02630000  0.64010000  0.29390000  1.0 -0.559147813
O  O6  1  0.97370000  0.35990000  0.70610000  1.0 -0.559147813
O  O7  1  0.01370000  0.38310000  0.19410000  1.0 -0.6768426379
O  O8  1  0.98630000  0.61690000  0.80590000  1.0 -0.6768426379
O  O9  1  0.17390000  0.98230000  0.40046000  1.0 -0.7410698166
O  O10  1  0.82610000  0.01770000  0.59954000  1.0 -0.7410698166
O  O11  1  0.04930000  0.22080000  0.47667000  1.0 -0.7697552225
O  O12  1  0.95070000  0.77920000  0.52333000  1.0 -0.7697552225
O  O13  1  0.89290000  0.01550000  0.34531000  1.0 -0.7120145639
O  O14  1  0.10710000  0.98450000  0.65469000  1.0 -0.7188778719
O  O15  1  0.12570000  0.12230000  0.27649000  1.0 -0.7410698166
O  O16  1  0.87430000  0.87770000  0.72351000  1.0 -0.7410698166
O  O17  1  0.40090000  0.65280000  0.34830000  1.0 -0.5658107779
O  O18  1  0.59910000  0.34720000  0.65170000  1.0 -0.5658107779
O  O19  1  0.40420000  0.84490000  0.53540000  1.0 -0.7188778719
O  O20  1  0.59580000  0.15510000  0.46460000  1.0 -0.7188778719
O  O21  1  0.61450000  0.82700000  0.39210000  1.0 -0.7300883761
O  O22  1  0.38550000  0.17300000  0.60790000  1.0 -0.7300883761
O  O23  1  0.59340000  0.65470000  0.50210000  1.0 -0.7120145639
O  O24  1  0.40660000  0.34530000  0.49790000  1.0 -0.7120145639
O  O25  1  0.21900000  0.13650000  0.05098000  1.0 -0.6768426379
O  O26  1  0.78100000  0.86350000  0.94902000  1.0 -0.6768426379
O  O27  1  0.15640000  0.90040000  0.90120000  1.0 -0.7120145639
O  O28  1  0.84360000  0.09960000  0.09880000  1.0 -0.7120145639
O  O29  1  0.12280000  0.13100000  0.86620000  1.0 -0.5752340039
O  O30  1  0.87720000  0.86900000  0.13380000  1.0 -0.5752340039
O  O31  1  0.39750000  0.04120000  0.89180000  1.0 -0.5523561916
O  O32  1  0.60250000  0.95880000  0.10820000  1.0 -0.5523561916
