# DDEC6 charges by PACMAN v1.1 (https://github.com/mtap-research/PACMAN-charge/)
data_DITYOW_ion_pacman
_symmetry_space_group_name_H-M   'P 1'
_cell_length_a   17.21300000
_cell_length_b   17.21300000
_cell_length_c   17.21300000
_cell_angle_alpha   91.25860000
_cell_angle_beta   91.25860000
_cell_angle_gamma   162.95400000
_symmetry_Int_Tables_number   1
_chemical_formula_structural   Cu2BH12C12N16(O2F)4
_chemical_formula_sum   'Cu4 B2 H24 C24 N32 O16 F8'
_cell_volume   1478.49930941
_cell_formula_units_Z   2
loop_
 _symmetry_equiv_pos_site_id
 _symmetry_equiv_pos_as_xyz
  1  'x, y, z'
loop_
 _atom_site_type_symbol
 _atom_site_label
 _atom_site_symmetry_multiplicity
 _atom_site_fract_x
 _atom_site_fract_y
 _atom_site_fract_z
 _atom_site_occupancy
 _atom_site_charge
Cu  Cu1  1  0.12500000  0.87500000  0.75000000  1.0 0.7844968824
Cu  Cu2  1  0.12500000  0.37500000  0.25000000  1.0 0.7844968824
Cu  Cu3  1  0.62500000  0.87500000  0.75000000  1.0 0.7844968824
Cu  Cu4  1  0.12500000  0.87500000  0.25000000  1.0 0.7844968824
B  B1  1  0.00000000  0.00000000  0.00000000  1.0 0.995531836
B  B2  1  0.25000000  0.75000000  0.50000000  1.0 0.995531836
H  H1  1  0.86580000  0.39260000  0.64500000  1.0 0.1719368635
H  H2  1  0.74760000  0.22080000  0.35500000  1.0 0.1719368635
H  H3  1  0.47080000  0.61580000  0.97320000  1.0 0.1719368635
H  H4  1  0.64260000  0.49760000  0.02680000  1.0 0.1719368635
H  H5  1  0.38420000  0.35740000  0.85500000  1.0 0.1719368635
H  H6  1  0.50240000  0.52920000  0.14500000  1.0 0.1719368635
H  H7  1  0.77920000  0.13420000  0.52680000  1.0 0.1719368635
H  H8  1  0.60740000  0.25240000  0.47320000  1.0 0.1719368635
H  H9  1  0.73100000  0.26920000  0.72140000  1.0 0.1767463995
H  H10  1  0.54780000  0.00960000  0.27860000  1.0 0.1767463995
H  H11  1  0.25960000  0.48100000  0.96180000  1.0 0.1767463995
H  H12  1  0.51920000  0.29780000  0.03820000  1.0 0.1767463995
H  H13  1  0.51900000  0.48080000  0.77860000  1.0 0.1767463995
H  H14  1  0.70220000  0.74040000  0.22140000  1.0 0.1767463995
H  H15  1  0.99040000  0.26900000  0.53820000  1.0 0.1767463995
H  H16  1  0.73080000  0.45220000  0.46180000  1.0 0.1767463995
H  H17  1  0.33500000  0.75020000  0.66440000  1.0 0.1532251028
H  H18  1  0.08580000  0.67060000  0.33560000  1.0 0.1532251028
H  H19  1  0.92060000  0.08500000  0.08480000  1.0 0.1532251028
H  H20  1  0.00020000  0.83580000  0.91520000  1.0 0.1532251028
H  H21  1  0.91500000  0.99980000  0.83560000  1.0 0.1532251028
H  H22  1  0.16420000  0.07940000  0.16440000  1.0 0.1532251028
H  H23  1  0.32940000  0.66500000  0.41520000  1.0 0.1532251028
H  H24  1  0.24980000  0.91420000  0.58480000  1.0 0.1532251028
C  C1  1  0.06997000  0.66419000  0.72896000  1.0 0.6131859211
C  C2  1  0.93523000  0.34101000  0.27104000  1.0 0.6131859211
C  C3  1  0.59101000  0.81997000  0.90578000  1.0 0.6131859211
C  C4  1  0.91419000  0.68523000  0.09422000  1.0 0.6131859211
C  C5  1  0.18003000  0.08581000  0.77104000  1.0 0.6131859211
C  C6  1  0.31477000  0.40899000  0.22896000  1.0 0.6131859211
C  C7  1  0.65899000  0.93003000  0.59422000  1.0 0.6131859211
C  C8  1  0.33581000  0.06477000  0.40578000  1.0 0.6131859211
C  C9  1  0.90160000  0.42911000  0.70191000  1.0 -0.2667552741
C  C10  1  0.72720000  0.19969000  0.29809000  1.0 -0.2667552741
C  C11  1  0.44969000  0.65160000  0.97249000  1.0 -0.2667552741
C  C12  1  0.67911000  0.47720000  0.02751000  1.0 -0.2667552741
C  C13  1  0.34840000  0.32089000  0.79809000  1.0 -0.2667552741
C  C14  1  0.52280000  0.55031000  0.20191000  1.0 -0.2667552741
C  C15  1  0.80031000  0.09840000  0.52751000  1.0 -0.2667552741
C  C16  1  0.57089000  0.27280000  0.47249000  1.0 -0.2667552741
C  C17  1  0.25223000  0.65652000  0.70675000  1.0 0.0979355363
C  C18  1  0.94977000  0.54548000  0.29325000  1.0 0.0979355363
C  C19  1  0.79548000  0.00223000  0.09571000  1.0 0.0979355363
C  C20  1  0.90652000  0.69977000  0.90429000  1.0 0.0979355363
C  C21  1  0.99777000  0.09348000  0.79325000  1.0 0.0979355363
C  C22  1  0.30023000  0.20452000  0.20675000  1.0 0.0979355363
C  C23  1  0.45452000  0.74777000  0.40429000  1.0 0.0979355363
C  C24  1  0.34348000  0.05023000  0.59571000  1.0 0.0979355363
N  N1  1  0.04202000  0.49097000  0.73059000  1.0 0.1899653165
N  N2  1  0.76038000  0.31143000  0.26941000  1.0 0.1899653165
N  N3  1  0.56143000  0.79202000  0.05105000  1.0 0.1899653165
N  N4  1  0.74097000  0.51038000  0.94895000  1.0 0.1899653165
N  N5  1  0.20798000  0.25903000  0.76941000  1.0 0.1899653165
N  N6  1  0.48962000  0.43857000  0.23059000  1.0 0.1899653165
N  N7  1  0.68857000  0.95798000  0.44895000  1.0 0.1899653165
N  N8  1  0.50903000  0.23962000  0.55105000  1.0 0.1899653165
N  N9  1  0.98071000  0.39496000  0.79447000  1.0 -0.0713881055
N  N10  1  0.60049000  0.18624000  0.20553000  1.0 -0.0713881055
N  N11  1  0.43624000  0.73071000  0.08575000  1.0 -0.0713881055
N  N12  1  0.64496000  0.35049000  0.91425000  1.0 -0.0713881055
N  N13  1  0.26929000  0.35504000  0.70553000  1.0 -0.0713881055
N  N14  1  0.64951000  0.56376000  0.29447000  1.0 -0.0713881055
N  N15  1  0.81376000  0.01929000  0.41425000  1.0 -0.0713881055
N  N16  1  0.60504000  0.39951000  0.58575000  1.0 -0.0713881055
N  N17  1  0.14808000  0.49783000  0.80791000  1.0 -0.0195301118
N  N18  1  0.68992000  0.34017000  0.19209000  1.0 -0.0195301118
N  N19  1  0.59017000  0.89808000  0.15025000  1.0 -0.0195301118
N  N20  1  0.74783000  0.43992000  0.84975000  1.0 -0.0195301118
N  N21  1  0.10192000  0.25217000  0.69209000  1.0 -0.0195301118
N  N22  1  0.56008000  0.40983000  0.30791000  1.0 -0.0195301118
N  N23  1  0.65983000  0.85192000  0.34975000  1.0 -0.0195301118
N  N24  1  0.50217000  0.31008000  0.65025000  1.0 -0.0195301118
N  N25  1  0.32487000  0.66598000  0.75385000  1.0 -0.225631394
N  N26  1  0.91213000  0.57102000  0.24615000  1.0 -0.225631394
N  N27  1  0.82102000  0.07487000  0.15889000  1.0 -0.225631394
N  N28  1  0.91598000  0.66213000  0.84111000  1.0 -0.225631394
N  N29  1  0.92513000  0.08402000  0.74615000  1.0 -0.225631394
N  N30  1  0.33787000  0.17898000  0.25385000  1.0 -0.225631394
N  N31  1  0.42898000  0.67513000  0.34111000  1.0 -0.225631394
N  N32  1  0.33402000  0.08787000  0.65889000  1.0 -0.225631394
O  O1  1  0.96254000  0.62385000  0.69899000  1.0 -0.5388110491
O  O2  1  0.92486000  0.26355000  0.30101000  1.0 -0.5388110491
O  O3  1  0.51355000  0.71254000  0.83869000  1.0 -0.5388110491
O  O4  1  0.87385000  0.67486000  0.16131000  1.0 -0.5388110491
O  O5  1  0.28746000  0.12615000  0.80101000  1.0 -0.5388110491
O  O6  1  0.32514000  0.48645000  0.19899000  1.0 -0.5388110491
O  O7  1  0.73645000  0.03746000  0.66131000  1.0 -0.5388110491
O  O8  1  0.37615000  0.07514000  0.33869000  1.0 -0.5388110491
O  O9  1  0.27928000  0.86006000  0.77514000  1.0 -0.5142456727
O  O10  1  0.08492000  0.50414000  0.22486000  1.0 -0.5142456727
O  O11  1  0.75414000  0.02928000  0.91922000  1.0 -0.5142456727
O  O12  1  0.11006000  0.83492000  0.08078000  1.0 -0.5142456727
O  O13  1  0.97072000  0.88994000  0.72486000  1.0 -0.5142456727
O  O14  1  0.16508000  0.24586000  0.27514000  1.0 -0.5142456727
O  O15  1  0.49586000  0.72072000  0.58078000  1.0 -0.5142456727
O  O16  1  0.13994000  0.91508000  0.41922000  1.0 -0.5142456727
F  F1  1  0.10754000  0.17381000  0.99135000  1.0 -0.4077649327
F  F2  1  0.18246000  0.11619000  0.00865000  1.0 -0.4077649327
F  F3  1  0.82619000  0.81754000  0.93373000  1.0 -0.4077649327
F  F4  1  0.88381000  0.89246000  0.06627000  1.0 -0.4077649327
F  F5  1  0.42381000  0.93246000  0.56627000  1.0 -0.4077649327
F  F6  1  0.36619000  0.85754000  0.43373000  1.0 -0.4077649327
F  F7  1  0.14246000  0.57619000  0.50865000  1.0 -0.4077649327
F  F8  1  0.06754000  0.63381000  0.49135000  1.0 -0.4077649327
