# DDEC6 charges by PACMAN v1.1 (https://github.com/mtap-research/PACMAN-charge/)
data_DIVRUY_ASR_pacman
_symmetry_space_group_name_H-M   'P 1'
_cell_length_a   35.62520000
_cell_length_b   35.62520000
_cell_length_c   15.06370000
_cell_angle_alpha   90.00000000
_cell_angle_beta   90.00000000
_cell_angle_gamma   92.82400000
_symmetry_Int_Tables_number   1
_chemical_formula_structural   Cu3Ni2H39C39(NO3)6
_chemical_formula_sum   'Cu24 Ni16 H312 C312 N48 O144'
_cell_volume   19094.95094999
_cell_formula_units_Z   8
loop_
 _symmetry_equiv_pos_site_id
 _symmetry_equiv_pos_as_xyz
  1  'x, y, z'
loop_
 _atom_site_type_symbol
 _atom_site_label
 _atom_site_symmetry_multiplicity
 _atom_site_fract_x
 _atom_site_fract_y
 _atom_site_fract_z
 _atom_site_occupancy
 _atom_site_charge
Cu  Cu1  1  0.98239000  0.66727000  0.26911000  1.0 0.5746482093
Cu  Cu2  1  0.84288000  0.48644000  0.26973000  1.0 0.6384557737
Cu  Cu3  1  0.01761000  0.33273000  0.26911000  1.0 0.5746482093
Cu  Cu4  1  0.15712000  0.51356000  0.26973000  1.0 0.6384557737
Cu  Cu5  1  0.33273000  0.01761000  0.73089000  1.0 0.5746482093
Cu  Cu6  1  0.51356000  0.15712000  0.73027000  1.0 0.6384557737
Cu  Cu7  1  0.66727000  0.98239000  0.73089000  1.0 0.5746482093
Cu  Cu8  1  0.48644000  0.84288000  0.73027000  1.0 0.6384557737
Cu  Cu9  1  0.01761000  0.33273000  0.73089000  1.0 0.5746482093
Cu  Cu10  1  0.15712000  0.51356000  0.73027000  1.0 0.6384557737
Cu  Cu11  1  0.98239000  0.66727000  0.73089000  1.0 0.5746482093
Cu  Cu12  1  0.84288000  0.48644000  0.73027000  1.0 0.6384557737
Cu  Cu13  1  0.66727000  0.98239000  0.26911000  1.0 0.5746482093
Cu  Cu14  1  0.48644000  0.84288000  0.26973000  1.0 0.6384557737
Cu  Cu15  1  0.33273000  0.01761000  0.26911000  1.0 0.5746482093
Cu  Cu16  1  0.51356000  0.15712000  0.26973000  1.0 0.6384557737
Cu  Cu17  1  0.74414000  0.74414000  0.23318000  1.0 0.6384557737
Cu  Cu18  1  0.25586000  0.25586000  0.23318000  1.0 0.6384557737
Cu  Cu19  1  0.25586000  0.25586000  0.76682000  1.0 0.6384557737
Cu  Cu20  1  0.74414000  0.74414000  0.76682000  1.0 0.6384557737
Cu  Cu21  1  0.22158000  0.77842000  0.23377000  1.0 0.6153730306
Cu  Cu22  1  0.77842000  0.22158000  0.23377000  1.0 0.6153730306
Cu  Cu23  1  0.22158000  0.77842000  0.76623000  1.0 0.6153730306
Cu  Cu24  1  0.77842000  0.22158000  0.76623000  1.0 0.6153730306
Ni  Ni1  1  0.83629000  0.63393000  0.24763000  1.0 0.910133921
Ni  Ni2  1  0.12957000  0.65797000  0.24372000  1.0 0.9294287715
Ni  Ni3  1  0.16371000  0.36607000  0.24763000  1.0 0.910133921
Ni  Ni4  1  0.87043000  0.34203000  0.24372000  1.0 0.9294287715
Ni  Ni5  1  0.36607000  0.16371000  0.75237000  1.0 0.910133921
Ni  Ni6  1  0.34203000  0.87043000  0.75628000  1.0 0.9294287715
Ni  Ni7  1  0.63393000  0.83629000  0.75237000  1.0 0.910133921
Ni  Ni8  1  0.65797000  0.12957000  0.75628000  1.0 0.9294287715
Ni  Ni9  1  0.16371000  0.36607000  0.75237000  1.0 0.910133921
Ni  Ni10  1  0.87043000  0.34203000  0.75628000  1.0 0.9294287715
Ni  Ni11  1  0.83629000  0.63393000  0.75237000  1.0 0.910133921
Ni  Ni12  1  0.12957000  0.65797000  0.75628000  1.0 0.9294287715
Ni  Ni13  1  0.63393000  0.83629000  0.24763000  1.0 0.910133921
Ni  Ni14  1  0.65797000  0.12957000  0.24372000  1.0 0.9294287715
Ni  Ni15  1  0.36607000  0.16371000  0.24763000  1.0 0.910133921
Ni  Ni16  1  0.34203000  0.87043000  0.24372000  1.0 0.9294287715
H  H1  1  0.11990000  0.78570000  0.21170000  1.0 0.1389932892
H  H2  1  0.09540000  0.81440000  0.15790000  1.0 0.1303836632
H  H3  1  0.13660000  0.82740000  0.19210000  1.0 0.1303836632
H  H4  1  0.05980000  0.76860000  0.31120000  1.0 0.1584424101
H  H5  1  0.02460000  0.79180000  0.34110000  1.0 0.1303836632
H  H6  1  0.01810000  0.75330000  0.28710000  1.0 0.1303836632
H  H7  1  0.95290000  0.75370000  0.29590000  1.0 0.1389932892
H  H8  1  0.93360000  0.78700000  0.34730000  1.0 0.1303836632
H  H9  1  0.90810000  0.75450000  0.30040000  1.0 0.1505742457
H  H10  1  0.83010000  0.79190000  0.20420000  1.0 0.1389932892
H  H11  1  0.87150000  0.79050000  0.16390000  1.0 0.1303836632
H  H12  1  0.85200000  0.75380000  0.20880000  1.0 0.1505742457
H  H13  1  0.92450000  0.52650000  0.28880000  1.0 0.1389932892
H  H14  1  0.96080000  0.54100000  0.34350000  1.0 0.1303836632
H  H15  1  0.93160000  0.57040000  0.30860000  1.0 0.1584424101
H  H16  1  0.97870000  0.45590000  0.34030000  1.0 0.1303836632
H  H17  1  0.94120000  0.46380000  0.28590000  1.0 0.1389932892
H  H18  1  0.95130000  0.42150000  0.30850000  1.0 0.1584424101
H  H19  1  0.22920000  0.73720000  0.96750000  1.0 0.0516277488
H  H20  1  0.19800000  0.70340000  0.97120000  1.0 0.0801172999
H  H21  1  0.21450000  0.72130000  0.06130000  1.0 0.0516277488
H  H22  1  0.05380000  0.63560000  0.48050000  1.0 0.1103564948
H  H23  1  0.00980000  0.63360000  0.45930000  1.0 0.0801172999
H  H24  1  0.02410000  0.63430000  0.56010000  1.0 0.0801172999
H  H25  1  0.91250000  0.62770000  0.46730000  1.0 0.1103564948
H  H26  1  0.93340000  0.62920000  0.56130000  1.0 0.089669358
H  H27  1  0.95740000  0.63080000  0.47140000  1.0 0.089669358
H  H28  1  0.81940000  0.44400000  0.56120000  1.0 0.0392878416
H  H29  1  0.82080000  0.41940000  0.47250000  1.0 0.0801172999
H  H30  1  0.81840000  0.46400000  0.46620000  1.0 0.0392878416
H  H31  1  0.80500000  0.51320000  0.54610000  1.0 0.0994527805
H  H32  1  0.80480000  0.52200000  0.44190000  1.0 0.1103564948
H  H33  1  0.80380000  0.55560000  0.51200000  1.0 0.1389932892
H  H34  1  0.76190000  0.66910000  0.01010000  1.0 0.1389932892
H  H35  1  0.73950000  0.69430000  0.94250000  1.0 0.0994527805
H  H36  1  0.73460000  0.69980000  0.04730000  1.0 0.089669358
H  H37  1  0.88010000  0.21430000  0.21170000  1.0 0.1389932892
H  H38  1  0.90460000  0.18560000  0.15790000  1.0 0.1303836632
H  H39  1  0.86340000  0.17260000  0.19210000  1.0 0.1303836632
H  H40  1  0.94020000  0.23140000  0.31120000  1.0 0.1584424101
H  H41  1  0.97540000  0.20820000  0.34110000  1.0 0.1303836632
H  H42  1  0.98190000  0.24670000  0.28710000  1.0 0.1303836632
H  H43  1  0.04710000  0.24630000  0.29590000  1.0 0.1389932892
H  H44  1  0.06640000  0.21300000  0.34730000  1.0 0.1303836632
H  H45  1  0.09190000  0.24550000  0.30040000  1.0 0.1505742457
H  H46  1  0.16990000  0.20810000  0.20420000  1.0 0.1389932892
H  H47  1  0.12850000  0.20950000  0.16390000  1.0 0.1303836632
H  H48  1  0.14800000  0.24620000  0.20880000  1.0 0.1505742457
H  H49  1  0.07550000  0.47350000  0.28880000  1.0 0.1389932892
H  H50  1  0.03920000  0.45900000  0.34350000  1.0 0.1303836632
H  H51  1  0.06840000  0.42960000  0.30860000  1.0 0.1584424101
H  H52  1  0.02130000  0.54410000  0.34030000  1.0 0.1303836632
H  H53  1  0.05880000  0.53620000  0.28590000  1.0 0.1389932892
H  H54  1  0.04870000  0.57850000  0.30850000  1.0 0.1584424101
H  H55  1  0.77080000  0.26280000  0.96750000  1.0 0.0516277488
H  H56  1  0.80200000  0.29660000  0.97120000  1.0 0.0801172999
H  H57  1  0.78550000  0.27870000  0.06130000  1.0 0.0516277488
H  H58  1  0.94620000  0.36440000  0.48050000  1.0 0.1103564948
H  H59  1  0.99020000  0.36640000  0.45930000  1.0 0.0801172999
H  H60  1  0.97590000  0.36570000  0.56010000  1.0 0.0801172999
H  H61  1  0.08750000  0.37230000  0.46730000  1.0 0.1103564948
H  H62  1  0.06660000  0.37080000  0.56130000  1.0 0.089669358
H  H63  1  0.04260000  0.36920000  0.47140000  1.0 0.089669358
H  H64  1  0.18060000  0.55600000  0.56120000  1.0 0.0392878416
H  H65  1  0.17920000  0.58060000  0.47250000  1.0 0.0801172999
H  H66  1  0.18160000  0.53600000  0.46620000  1.0 0.0392878416
H  H67  1  0.19500000  0.48680000  0.54610000  1.0 0.0994527805
H  H68  1  0.19520000  0.47800000  0.44190000  1.0 0.1103564948
H  H69  1  0.19620000  0.44440000  0.51200000  1.0 0.1389932892
H  H70  1  0.23810000  0.33090000  0.01010000  1.0 0.1389932892
H  H71  1  0.26050000  0.30570000  0.94250000  1.0 0.0994527805
H  H72  1  0.26540000  0.30020000  0.04730000  1.0 0.089669358
H  H73  1  0.21430000  0.88010000  0.78830000  1.0 0.1389932892
H  H74  1  0.18560000  0.90460000  0.84210000  1.0 0.1303836632
H  H75  1  0.17260000  0.86340000  0.80790000  1.0 0.1303836632
H  H76  1  0.23140000  0.94020000  0.68880000  1.0 0.1584424101
H  H77  1  0.20820000  0.97540000  0.65890000  1.0 0.1303836632
H  H78  1  0.24670000  0.98190000  0.71290000  1.0 0.1303836632
H  H79  1  0.24630000  0.04710000  0.70410000  1.0 0.1389932892
H  H80  1  0.21300000  0.06640000  0.65270000  1.0 0.1303836632
H  H81  1  0.24550000  0.09190000  0.69960000  1.0 0.1505742457
H  H82  1  0.20810000  0.16990000  0.79580000  1.0 0.1389932892
H  H83  1  0.20950000  0.12850000  0.83610000  1.0 0.1303836632
H  H84  1  0.24620000  0.14800000  0.79120000  1.0 0.1505742457
H  H85  1  0.47350000  0.07550000  0.71120000  1.0 0.1389932892
H  H86  1  0.45900000  0.03920000  0.65650000  1.0 0.1303836632
H  H87  1  0.42960000  0.06840000  0.69140000  1.0 0.1584424101
H  H88  1  0.54410000  0.02130000  0.65970000  1.0 0.1303836632
H  H89  1  0.53620000  0.05880000  0.71410000  1.0 0.1389932892
H  H90  1  0.57850000  0.04870000  0.69150000  1.0 0.1584424101
H  H91  1  0.26280000  0.77080000  0.03250000  1.0 0.0516277488
H  H92  1  0.29660000  0.80200000  0.02880000  1.0 0.0801172999
H  H93  1  0.27870000  0.78550000  0.93870000  1.0 0.0516277488
H  H94  1  0.36440000  0.94620000  0.51950000  1.0 0.1103564948
H  H95  1  0.36640000  0.99020000  0.54070000  1.0 0.0801172999
H  H96  1  0.36570000  0.97590000  0.43990000  1.0 0.0801172999
H  H97  1  0.37230000  0.08750000  0.53270000  1.0 0.1103564948
H  H98  1  0.37080000  0.06660000  0.43870000  1.0 0.089669358
H  H99  1  0.36920000  0.04260000  0.52860000  1.0 0.089669358
H  H100  1  0.55600000  0.18060000  0.43880000  1.0 0.0392878416
H  H101  1  0.58060000  0.17920000  0.52750000  1.0 0.0801172999
H  H102  1  0.53600000  0.18160000  0.53380000  1.0 0.0392878416
H  H103  1  0.48680000  0.19500000  0.45390000  1.0 0.0994527805
H  H104  1  0.47800000  0.19520000  0.55810000  1.0 0.1103564948
H  H105  1  0.44440000  0.19620000  0.48800000  1.0 0.1389932892
H  H106  1  0.33090000  0.23810000  0.98990000  1.0 0.1389932892
H  H107  1  0.30570000  0.26050000  0.05750000  1.0 0.0994527805
H  H108  1  0.30020000  0.26540000  0.95270000  1.0 0.089669358
H  H109  1  0.78570000  0.11990000  0.78830000  1.0 0.1389932892
H  H110  1  0.81440000  0.09540000  0.84210000  1.0 0.1303836632
H  H111  1  0.82740000  0.13660000  0.80790000  1.0 0.1303836632
H  H112  1  0.76860000  0.05980000  0.68880000  1.0 0.1584424101
H  H113  1  0.79180000  0.02460000  0.65890000  1.0 0.1303836632
H  H114  1  0.75330000  0.01810000  0.71290000  1.0 0.1303836632
H  H115  1  0.75370000  0.95290000  0.70410000  1.0 0.1389932892
H  H116  1  0.78700000  0.93360000  0.65270000  1.0 0.1303836632
H  H117  1  0.75450000  0.90810000  0.69960000  1.0 0.1505742457
H  H118  1  0.79190000  0.83010000  0.79580000  1.0 0.1389932892
H  H119  1  0.79050000  0.87150000  0.83610000  1.0 0.1303836632
H  H120  1  0.75380000  0.85200000  0.79120000  1.0 0.1505742457
H  H121  1  0.52650000  0.92450000  0.71120000  1.0 0.1389932892
H  H122  1  0.54100000  0.96080000  0.65650000  1.0 0.1303836632
H  H123  1  0.57040000  0.93160000  0.69140000  1.0 0.1584424101
H  H124  1  0.45590000  0.97870000  0.65970000  1.0 0.1303836632
H  H125  1  0.46380000  0.94120000  0.71410000  1.0 0.1389932892
H  H126  1  0.42150000  0.95130000  0.69150000  1.0 0.1584424101
H  H127  1  0.73720000  0.22920000  0.03250000  1.0 0.0516277488
H  H128  1  0.70340000  0.19800000  0.02880000  1.0 0.0801172999
H  H129  1  0.72130000  0.21450000  0.93870000  1.0 0.0516277488
H  H130  1  0.63560000  0.05380000  0.51950000  1.0 0.1103564948
H  H131  1  0.63360000  0.00980000  0.54070000  1.0 0.0801172999
H  H132  1  0.63430000  0.02410000  0.43990000  1.0 0.0801172999
H  H133  1  0.62770000  0.91250000  0.53270000  1.0 0.1103564948
H  H134  1  0.62920000  0.93340000  0.43870000  1.0 0.089669358
H  H135  1  0.63080000  0.95740000  0.52860000  1.0 0.089669358
H  H136  1  0.44400000  0.81940000  0.43880000  1.0 0.0392878416
H  H137  1  0.41940000  0.82080000  0.52750000  1.0 0.0801172999
H  H138  1  0.46400000  0.81840000  0.53380000  1.0 0.0392878416
H  H139  1  0.51320000  0.80500000  0.45390000  1.0 0.0994527805
H  H140  1  0.52200000  0.80480000  0.55810000  1.0 0.1103564948
H  H141  1  0.55560000  0.80380000  0.48800000  1.0 0.1389932892
H  H142  1  0.66910000  0.76190000  0.98990000  1.0 0.1389932892
H  H143  1  0.69430000  0.73950000  0.05750000  1.0 0.0994527805
H  H144  1  0.69980000  0.73460000  0.95270000  1.0 0.089669358
H  H145  1  0.88010000  0.21430000  0.78830000  1.0 0.1389932892
H  H146  1  0.90460000  0.18560000  0.84210000  1.0 0.1303836632
H  H147  1  0.86340000  0.17260000  0.80790000  1.0 0.1303836632
H  H148  1  0.94020000  0.23140000  0.68880000  1.0 0.1584424101
H  H149  1  0.97540000  0.20820000  0.65890000  1.0 0.1303836632
H  H150  1  0.98190000  0.24670000  0.71290000  1.0 0.1303836632
H  H151  1  0.04710000  0.24630000  0.70410000  1.0 0.1389932892
H  H152  1  0.06640000  0.21300000  0.65270000  1.0 0.1303836632
H  H153  1  0.09190000  0.24550000  0.69960000  1.0 0.1505742457
H  H154  1  0.16990000  0.20810000  0.79580000  1.0 0.1389932892
H  H155  1  0.12850000  0.20950000  0.83610000  1.0 0.1303836632
H  H156  1  0.14800000  0.24620000  0.79120000  1.0 0.1505742457
H  H157  1  0.07550000  0.47350000  0.71120000  1.0 0.1389932892
H  H158  1  0.03920000  0.45900000  0.65650000  1.0 0.1303836632
H  H159  1  0.06840000  0.42960000  0.69140000  1.0 0.1584424101
H  H160  1  0.02130000  0.54410000  0.65970000  1.0 0.1303836632
H  H161  1  0.05880000  0.53620000  0.71410000  1.0 0.1389932892
H  H162  1  0.04870000  0.57850000  0.69150000  1.0 0.1584424101
H  H163  1  0.77080000  0.26280000  0.03250000  1.0 0.0516277488
H  H164  1  0.80200000  0.29660000  0.02880000  1.0 0.0801172999
H  H165  1  0.78550000  0.27870000  0.93870000  1.0 0.0516277488
H  H166  1  0.94620000  0.36440000  0.51950000  1.0 0.1103564948
H  H167  1  0.99020000  0.36640000  0.54070000  1.0 0.0801172999
H  H168  1  0.97590000  0.36570000  0.43990000  1.0 0.0801172999
H  H169  1  0.08750000  0.37230000  0.53270000  1.0 0.1103564948
H  H170  1  0.06660000  0.37080000  0.43870000  1.0 0.089669358
H  H171  1  0.04260000  0.36920000  0.52860000  1.0 0.089669358
H  H172  1  0.18060000  0.55600000  0.43880000  1.0 0.0392878416
H  H173  1  0.17920000  0.58060000  0.52750000  1.0 0.0801172999
H  H174  1  0.18160000  0.53600000  0.53380000  1.0 0.0392878416
H  H175  1  0.19500000  0.48680000  0.45390000  1.0 0.0994527805
H  H176  1  0.19520000  0.47800000  0.55810000  1.0 0.1103564948
H  H177  1  0.19620000  0.44440000  0.48800000  1.0 0.1389932892
H  H178  1  0.23810000  0.33090000  0.98990000  1.0 0.1389932892
H  H179  1  0.26050000  0.30570000  0.05750000  1.0 0.0994527805
H  H180  1  0.26540000  0.30020000  0.95270000  1.0 0.089669358
H  H181  1  0.11990000  0.78570000  0.78830000  1.0 0.1389932892
H  H182  1  0.09540000  0.81440000  0.84210000  1.0 0.1303836632
H  H183  1  0.13660000  0.82740000  0.80790000  1.0 0.1303836632
H  H184  1  0.05980000  0.76860000  0.68880000  1.0 0.1584424101
H  H185  1  0.02460000  0.79180000  0.65890000  1.0 0.1303836632
H  H186  1  0.01810000  0.75330000  0.71290000  1.0 0.1303836632
H  H187  1  0.95290000  0.75370000  0.70410000  1.0 0.1389932892
H  H188  1  0.93360000  0.78700000  0.65270000  1.0 0.1303836632
H  H189  1  0.90810000  0.75450000  0.69960000  1.0 0.1505742457
H  H190  1  0.83010000  0.79190000  0.79580000  1.0 0.1389932892
H  H191  1  0.87150000  0.79050000  0.83610000  1.0 0.1303836632
H  H192  1  0.85200000  0.75380000  0.79120000  1.0 0.1505742457
H  H193  1  0.92450000  0.52650000  0.71120000  1.0 0.1389932892
H  H194  1  0.96080000  0.54100000  0.65650000  1.0 0.1303836632
H  H195  1  0.93160000  0.57040000  0.69140000  1.0 0.1584424101
H  H196  1  0.97870000  0.45590000  0.65970000  1.0 0.1303836632
H  H197  1  0.94120000  0.46380000  0.71410000  1.0 0.1389932892
H  H198  1  0.95130000  0.42150000  0.69150000  1.0 0.1584424101
H  H199  1  0.22920000  0.73720000  0.03250000  1.0 0.0516277488
H  H200  1  0.19800000  0.70340000  0.02880000  1.0 0.0801172999
H  H201  1  0.21450000  0.72130000  0.93870000  1.0 0.0516277488
H  H202  1  0.05380000  0.63560000  0.51950000  1.0 0.1103564948
H  H203  1  0.00980000  0.63360000  0.54070000  1.0 0.0801172999
H  H204  1  0.02410000  0.63430000  0.43990000  1.0 0.0801172999
H  H205  1  0.91250000  0.62770000  0.53270000  1.0 0.1103564948
H  H206  1  0.93340000  0.62920000  0.43870000  1.0 0.089669358
H  H207  1  0.95740000  0.63080000  0.52860000  1.0 0.089669358
H  H208  1  0.81940000  0.44400000  0.43880000  1.0 0.0392878416
H  H209  1  0.82080000  0.41940000  0.52750000  1.0 0.0801172999
H  H210  1  0.81840000  0.46400000  0.53380000  1.0 0.0392878416
H  H211  1  0.80500000  0.51320000  0.45390000  1.0 0.0994527805
H  H212  1  0.80480000  0.52200000  0.55810000  1.0 0.1103564948
H  H213  1  0.80380000  0.55560000  0.48800000  1.0 0.1389932892
H  H214  1  0.76190000  0.66910000  0.98990000  1.0 0.1389932892
H  H215  1  0.73950000  0.69430000  0.05750000  1.0 0.0994527805
H  H216  1  0.73460000  0.69980000  0.95270000  1.0 0.089669358
H  H217  1  0.78570000  0.11990000  0.21170000  1.0 0.1389932892
H  H218  1  0.81440000  0.09540000  0.15790000  1.0 0.1303836632
H  H219  1  0.82740000  0.13660000  0.19210000  1.0 0.1303836632
H  H220  1  0.76860000  0.05980000  0.31120000  1.0 0.1584424101
H  H221  1  0.79180000  0.02460000  0.34110000  1.0 0.1303836632
H  H222  1  0.75330000  0.01810000  0.28710000  1.0 0.1303836632
H  H223  1  0.75370000  0.95290000  0.29590000  1.0 0.1389932892
H  H224  1  0.78700000  0.93360000  0.34730000  1.0 0.1303836632
H  H225  1  0.75450000  0.90810000  0.30040000  1.0 0.1505742457
H  H226  1  0.79190000  0.83010000  0.20420000  1.0 0.1389932892
H  H227  1  0.79050000  0.87150000  0.16390000  1.0 0.1303836632
H  H228  1  0.75380000  0.85200000  0.20880000  1.0 0.1505742457
H  H229  1  0.52650000  0.92450000  0.28880000  1.0 0.1389932892
H  H230  1  0.54100000  0.96080000  0.34350000  1.0 0.1303836632
H  H231  1  0.57040000  0.93160000  0.30860000  1.0 0.1584424101
H  H232  1  0.45590000  0.97870000  0.34030000  1.0 0.1303836632
H  H233  1  0.46380000  0.94120000  0.28590000  1.0 0.1389932892
H  H234  1  0.42150000  0.95130000  0.30850000  1.0 0.1584424101
H  H235  1  0.73720000  0.22920000  0.96750000  1.0 0.0516277488
H  H236  1  0.70340000  0.19800000  0.97120000  1.0 0.0801172999
H  H237  1  0.72130000  0.21450000  0.06130000  1.0 0.0516277488
H  H238  1  0.63560000  0.05380000  0.48050000  1.0 0.1103564948
H  H239  1  0.63360000  0.00980000  0.45930000  1.0 0.0801172999
H  H240  1  0.63430000  0.02410000  0.56010000  1.0 0.0801172999
H  H241  1  0.62770000  0.91250000  0.46730000  1.0 0.1103564948
H  H242  1  0.62920000  0.93340000  0.56130000  1.0 0.089669358
H  H243  1  0.63080000  0.95740000  0.47140000  1.0 0.089669358
H  H244  1  0.44400000  0.81940000  0.56120000  1.0 0.0392878416
H  H245  1  0.41940000  0.82080000  0.47250000  1.0 0.0801172999
H  H246  1  0.46400000  0.81840000  0.46620000  1.0 0.0392878416
H  H247  1  0.51320000  0.80500000  0.54610000  1.0 0.0994527805
H  H248  1  0.52200000  0.80480000  0.44190000  1.0 0.1103564948
H  H249  1  0.55560000  0.80380000  0.51200000  1.0 0.1389932892
H  H250  1  0.66910000  0.76190000  0.01010000  1.0 0.1389932892
H  H251  1  0.69430000  0.73950000  0.94250000  1.0 0.0994527805
H  H252  1  0.69980000  0.73460000  0.04730000  1.0 0.089669358
H  H253  1  0.21430000  0.88010000  0.21170000  1.0 0.1389932892
H  H254  1  0.18560000  0.90460000  0.15790000  1.0 0.1303836632
H  H255  1  0.17260000  0.86340000  0.19210000  1.0 0.1303836632
H  H256  1  0.23140000  0.94020000  0.31120000  1.0 0.1584424101
H  H257  1  0.20820000  0.97540000  0.34110000  1.0 0.1303836632
H  H258  1  0.24670000  0.98190000  0.28710000  1.0 0.1303836632
H  H259  1  0.24630000  0.04710000  0.29590000  1.0 0.1389932892
H  H260  1  0.21300000  0.06640000  0.34730000  1.0 0.1303836632
H  H261  1  0.24550000  0.09190000  0.30040000  1.0 0.1505742457
H  H262  1  0.20810000  0.16990000  0.20420000  1.0 0.1389932892
H  H263  1  0.20950000  0.12850000  0.16390000  1.0 0.1303836632
H  H264  1  0.24620000  0.14800000  0.20880000  1.0 0.1505742457
H  H265  1  0.47350000  0.07550000  0.28880000  1.0 0.1389932892
H  H266  1  0.45900000  0.03920000  0.34350000  1.0 0.1303836632
H  H267  1  0.42960000  0.06840000  0.30860000  1.0 0.1584424101
H  H268  1  0.54410000  0.02130000  0.34030000  1.0 0.1303836632
H  H269  1  0.53620000  0.05880000  0.28590000  1.0 0.1389932892
H  H270  1  0.57850000  0.04870000  0.30850000  1.0 0.1584424101
H  H271  1  0.26280000  0.77080000  0.96750000  1.0 0.0516277488
H  H272  1  0.29660000  0.80200000  0.97120000  1.0 0.0801172999
H  H273  1  0.27870000  0.78550000  0.06130000  1.0 0.0516277488
H  H274  1  0.36440000  0.94620000  0.48050000  1.0 0.1103564948
H  H275  1  0.36640000  0.99020000  0.45930000  1.0 0.0801172999
H  H276  1  0.36570000  0.97590000  0.56010000  1.0 0.0801172999
H  H277  1  0.37230000  0.08750000  0.46730000  1.0 0.1103564948
H  H278  1  0.37080000  0.06660000  0.56130000  1.0 0.089669358
H  H279  1  0.36920000  0.04260000  0.47140000  1.0 0.089669358
H  H280  1  0.55600000  0.18060000  0.56120000  1.0 0.0392878416
H  H281  1  0.58060000  0.17920000  0.47250000  1.0 0.0801172999
H  H282  1  0.53600000  0.18160000  0.46620000  1.0 0.0392878416
H  H283  1  0.48680000  0.19500000  0.54610000  1.0 0.0994527805
H  H284  1  0.47800000  0.19520000  0.44190000  1.0 0.1103564948
H  H285  1  0.44440000  0.19620000  0.51200000  1.0 0.1389932892
H  H286  1  0.33090000  0.23810000  0.01010000  1.0 0.1389932892
H  H287  1  0.30570000  0.26050000  0.94250000  1.0 0.0994527805
H  H288  1  0.30020000  0.26540000  0.04730000  1.0 0.089669358
H  H289  1  0.10040000  0.82100000  0.00000000  1.0 0.1505742457
H  H290  1  0.87040000  0.79260000  0.00000000  1.0 0.1389932892
H  H291  1  0.89960000  0.17900000  0.00000000  1.0 0.1389932892
H  H292  1  0.12960000  0.20740000  0.00000000  1.0 0.1389932892
H  H293  1  0.17900000  0.89960000  0.00000000  1.0 0.1505742457
H  H294  1  0.20740000  0.12960000  0.00000000  1.0 0.1389932892
H  H295  1  0.82100000  0.10040000  0.00000000  1.0 0.1389932892
H  H296  1  0.79260000  0.87040000  0.00000000  1.0 0.1389932892
H  H297  1  0.03400000  0.79180000  0.50000000  1.0 0.1389932892
H  H298  1  0.92800000  0.78400000  0.50000000  1.0 0.1303836632
H  H299  1  0.95710000  0.54490000  0.50000000  1.0 0.1389932892
H  H300  1  0.97520000  0.45140000  0.50000000  1.0 0.1303836632
H  H301  1  0.96600000  0.20820000  0.50000000  1.0 0.1389932892
H  H302  1  0.07200000  0.21600000  0.50000000  1.0 0.1303836632
H  H303  1  0.04290000  0.45510000  0.50000000  1.0 0.1389932892
H  H304  1  0.02480000  0.54860000  0.50000000  1.0 0.1303836632
H  H305  1  0.20820000  0.96600000  0.50000000  1.0 0.1389932892
H  H306  1  0.21600000  0.07200000  0.50000000  1.0 0.1303836632
H  H307  1  0.45510000  0.04290000  0.50000000  1.0 0.1389932892
H  H308  1  0.54860000  0.02480000  0.50000000  1.0 0.1303836632
H  H309  1  0.79180000  0.03400000  0.50000000  1.0 0.1389932892
H  H310  1  0.78400000  0.92800000  0.50000000  1.0 0.1303836632
H  H311  1  0.54490000  0.95710000  0.50000000  1.0 0.1389932892
H  H312  1  0.45140000  0.97520000  0.50000000  1.0 0.1303836632
C  C1  1  0.16774000  0.72520000  0.19390000  1.0 0.3061009724
C  C2  1  0.18714000  0.71066000  0.27500000  1.0 0.4678669733
C  C3  1  0.16457000  0.76761000  0.08060000  1.0 0.089669358
C  C4  1  0.13751000  0.79287000  0.08190000  1.0 0.089669358
C  C5  1  0.12091000  0.80629000  0.16860000  1.0 -0.39866672
C  C6  1  0.05981000  0.67679000  0.29830000  1.0 0.348084804
C  C7  1  0.05363000  0.65137000  0.21870000  1.0 0.4626252319
C  C8  1  0.02974000  0.70592000  0.42080000  1.0 0.0994527805
C  C9  1  0.03165000  0.74483000  0.41850000  1.0 0.1103564948
C  C10  1  0.03375000  0.76653000  0.33180000  1.0 -0.4182643639
C  C11  1  0.90440000  0.66580000  0.30010000  1.0 0.3725324798
C  C12  1  0.91427000  0.63973000  0.21830000  1.0 0.4678669733
C  C13  1  0.93400000  0.70008000  0.41990000  1.0 0.089669358
C  C14  1  0.93151000  0.73701000  0.41890000  1.0 0.0801172999
C  C15  1  0.93147000  0.76013000  0.33280000  1.0 -0.39866672
C  C16  1  0.79739000  0.69361000  0.19270000  1.0 0.3445848528
C  C17  1  0.77721000  0.67919000  0.27610000  1.0 0.4626252319
C  C18  1  0.80209000  0.73791000  0.08020000  1.0 0.0994527805
C  C19  1  0.83074000  0.76406000  0.08130000  1.0 0.0994527805
C  C20  1  0.84760000  0.77620000  0.17310000  1.0 -0.4111861509
C  C21  1  0.82236000  0.55690000  0.21700000  1.0 0.4678669733
C  C22  1  0.84387000  0.56163000  0.30610000  1.0 0.348084804
C  C23  1  0.87504000  0.53586000  0.42620000  1.0 0.0315564418
C  C24  1  0.91190000  0.54050000  0.41950000  1.0 0.0801172999
C  C25  1  0.93420000  0.54500000  0.33220000  1.0 -0.39866672
C  C26  1  0.84430000  0.41428000  0.21150000  1.0 0.4678669733
C  C27  1  0.86452000  0.41392000  0.30310000  1.0 0.348084804
C  C28  1  0.89085000  0.44795000  0.42010000  1.0 0.1103564948
C  C29  1  0.93014000  0.44962000  0.41890000  1.0 0.1103564948
C  C30  1  0.95243000  0.44757000  0.33020000  1.0 -0.4182643639
C  C31  1  0.83226000  0.27480000  0.19390000  1.0 0.3061009724
C  C32  1  0.81286000  0.28934000  0.27500000  1.0 0.4678669733
C  C33  1  0.83543000  0.23239000  0.08060000  1.0 0.089669358
C  C34  1  0.86249000  0.20713000  0.08190000  1.0 0.089669358
C  C35  1  0.87909000  0.19371000  0.16860000  1.0 -0.39866672
C  C36  1  0.94019000  0.32321000  0.29830000  1.0 0.348084804
C  C37  1  0.94637000  0.34863000  0.21870000  1.0 0.4626252319
C  C38  1  0.97026000  0.29408000  0.42080000  1.0 0.0994527805
C  C39  1  0.96835000  0.25517000  0.41850000  1.0 0.1103564948
C  C40  1  0.96625000  0.23347000  0.33180000  1.0 -0.4182643639
C  C41  1  0.09560000  0.33420000  0.30010000  1.0 0.3725324798
C  C42  1  0.08573000  0.36027000  0.21830000  1.0 0.4678669733
C  C43  1  0.06600000  0.29992000  0.41990000  1.0 0.089669358
C  C44  1  0.06849000  0.26299000  0.41890000  1.0 0.0801172999
C  C45  1  0.06853000  0.23987000  0.33280000  1.0 -0.39866672
C  C46  1  0.20261000  0.30639000  0.19270000  1.0 0.3445848528
C  C47  1  0.22279000  0.32081000  0.27610000  1.0 0.4626252319
C  C48  1  0.19791000  0.26209000  0.08020000  1.0 0.0994527805
C  C49  1  0.16926000  0.23594000  0.08130000  1.0 0.0994527805
C  C50  1  0.15240000  0.22380000  0.17310000  1.0 -0.4111861509
C  C51  1  0.17764000  0.44310000  0.21700000  1.0 0.4678669733
C  C52  1  0.15613000  0.43837000  0.30610000  1.0 0.348084804
C  C53  1  0.12496000  0.46414000  0.42620000  1.0 0.0315564418
C  C54  1  0.08810000  0.45950000  0.41950000  1.0 0.0801172999
C  C55  1  0.06580000  0.45500000  0.33220000  1.0 -0.39866672
C  C56  1  0.15570000  0.58572000  0.21150000  1.0 0.4678669733
C  C57  1  0.13548000  0.58608000  0.30310000  1.0 0.348084804
C  C58  1  0.10915000  0.55205000  0.42010000  1.0 0.1103564948
C  C59  1  0.06986000  0.55038000  0.41890000  1.0 0.1103564948
C  C60  1  0.04757000  0.55243000  0.33020000  1.0 -0.4182643639
C  C61  1  0.27480000  0.83226000  0.80610000  1.0 0.3061009724
C  C62  1  0.28934000  0.81286000  0.72500000  1.0 0.4678669733
C  C63  1  0.23239000  0.83543000  0.91940000  1.0 0.089669358
C  C64  1  0.20713000  0.86249000  0.91810000  1.0 0.089669358
C  C65  1  0.19371000  0.87909000  0.83140000  1.0 -0.39866672
C  C66  1  0.32321000  0.94019000  0.70170000  1.0 0.348084804
C  C67  1  0.34863000  0.94637000  0.78130000  1.0 0.4626252319
C  C68  1  0.29408000  0.97026000  0.57920000  1.0 0.0994527805
C  C69  1  0.25517000  0.96835000  0.58150000  1.0 0.1103564948
C  C70  1  0.23347000  0.96625000  0.66820000  1.0 -0.4182643639
C  C71  1  0.33420000  0.09560000  0.69990000  1.0 0.3725324798
C  C72  1  0.36027000  0.08573000  0.78170000  1.0 0.4678669733
C  C73  1  0.29992000  0.06600000  0.58010000  1.0 0.089669358
C  C74  1  0.26299000  0.06849000  0.58110000  1.0 0.0801172999
C  C75  1  0.23987000  0.06853000  0.66720000  1.0 -0.39866672
C  C76  1  0.30639000  0.20261000  0.80730000  1.0 0.3445848528
C  C77  1  0.32081000  0.22279000  0.72390000  1.0 0.4626252319
C  C78  1  0.26209000  0.19791000  0.91980000  1.0 0.0994527805
C  C79  1  0.23594000  0.16926000  0.91870000  1.0 0.0994527805
C  C80  1  0.22380000  0.15240000  0.82690000  1.0 -0.4111861509
C  C81  1  0.44310000  0.17764000  0.78300000  1.0 0.4678669733
C  C82  1  0.43837000  0.15613000  0.69390000  1.0 0.348084804
C  C83  1  0.46414000  0.12496000  0.57380000  1.0 0.0315564418
C  C84  1  0.45950000  0.08810000  0.58050000  1.0 0.0801172999
C  C85  1  0.45500000  0.06580000  0.66780000  1.0 -0.39866672
C  C86  1  0.58572000  0.15570000  0.78850000  1.0 0.4678669733
C  C87  1  0.58608000  0.13548000  0.69690000  1.0 0.348084804
C  C88  1  0.55205000  0.10915000  0.57990000  1.0 0.1103564948
C  C89  1  0.55038000  0.06986000  0.58110000  1.0 0.1103564948
C  C90  1  0.55243000  0.04757000  0.66980000  1.0 -0.4182643639
C  C91  1  0.72520000  0.16774000  0.80610000  1.0 0.3061009724
C  C92  1  0.71066000  0.18714000  0.72500000  1.0 0.4678669733
C  C93  1  0.76761000  0.16457000  0.91940000  1.0 0.089669358
C  C94  1  0.79287000  0.13751000  0.91810000  1.0 0.089669358
C  C95  1  0.80629000  0.12091000  0.83140000  1.0 -0.39866672
C  C96  1  0.67679000  0.05981000  0.70170000  1.0 0.348084804
C  C97  1  0.65137000  0.05363000  0.78130000  1.0 0.4626252319
C  C98  1  0.70592000  0.02974000  0.57920000  1.0 0.0994527805
C  C99  1  0.74483000  0.03165000  0.58150000  1.0 0.1103564948
C  C100  1  0.76653000  0.03375000  0.66820000  1.0 -0.4182643639
C  C101  1  0.66580000  0.90440000  0.69990000  1.0 0.3725324798
C  C102  1  0.63973000  0.91427000  0.78170000  1.0 0.4678669733
C  C103  1  0.70008000  0.93400000  0.58010000  1.0 0.089669358
C  C104  1  0.73701000  0.93151000  0.58110000  1.0 0.0801172999
C  C105  1  0.76013000  0.93147000  0.66720000  1.0 -0.39866672
C  C106  1  0.69361000  0.79739000  0.80730000  1.0 0.3445848528
C  C107  1  0.67919000  0.77721000  0.72390000  1.0 0.4626252319
C  C108  1  0.73791000  0.80209000  0.91980000  1.0 0.0994527805
C  C109  1  0.76406000  0.83074000  0.91870000  1.0 0.0994527805
C  C110  1  0.77620000  0.84760000  0.82690000  1.0 -0.4111861509
C  C111  1  0.55690000  0.82236000  0.78300000  1.0 0.4678669733
C  C112  1  0.56163000  0.84387000  0.69390000  1.0 0.348084804
C  C113  1  0.53586000  0.87504000  0.57380000  1.0 0.0315564418
C  C114  1  0.54050000  0.91190000  0.58050000  1.0 0.0801172999
C  C115  1  0.54500000  0.93420000  0.66780000  1.0 -0.39866672
C  C116  1  0.41428000  0.84430000  0.78850000  1.0 0.4678669733
C  C117  1  0.41392000  0.86452000  0.69690000  1.0 0.348084804
C  C118  1  0.44795000  0.89085000  0.57990000  1.0 0.1103564948
C  C119  1  0.44962000  0.93014000  0.58110000  1.0 0.1103564948
C  C120  1  0.44757000  0.95243000  0.66980000  1.0 -0.4182643639
C  C121  1  0.83226000  0.27480000  0.80610000  1.0 0.3061009724
C  C122  1  0.81286000  0.28934000  0.72500000  1.0 0.4678669733
C  C123  1  0.83543000  0.23239000  0.91940000  1.0 0.089669358
C  C124  1  0.86249000  0.20713000  0.91810000  1.0 0.089669358
C  C125  1  0.87909000  0.19371000  0.83140000  1.0 -0.39866672
C  C126  1  0.94019000  0.32321000  0.70170000  1.0 0.348084804
C  C127  1  0.94637000  0.34863000  0.78130000  1.0 0.4626252319
C  C128  1  0.97026000  0.29408000  0.57920000  1.0 0.0994527805
C  C129  1  0.96835000  0.25517000  0.58150000  1.0 0.1103564948
C  C130  1  0.96625000  0.23347000  0.66820000  1.0 -0.4182643639
C  C131  1  0.09560000  0.33420000  0.69990000  1.0 0.3725324798
C  C132  1  0.08573000  0.36027000  0.78170000  1.0 0.4678669733
C  C133  1  0.06600000  0.29992000  0.58010000  1.0 0.089669358
C  C134  1  0.06849000  0.26299000  0.58110000  1.0 0.0801172999
C  C135  1  0.06853000  0.23987000  0.66720000  1.0 -0.39866672
C  C136  1  0.20261000  0.30639000  0.80730000  1.0 0.3445848528
C  C137  1  0.22279000  0.32081000  0.72390000  1.0 0.4626252319
C  C138  1  0.19791000  0.26209000  0.91980000  1.0 0.0994527805
C  C139  1  0.16926000  0.23594000  0.91870000  1.0 0.0994527805
C  C140  1  0.15240000  0.22380000  0.82690000  1.0 -0.4111861509
C  C141  1  0.17764000  0.44310000  0.78300000  1.0 0.4678669733
C  C142  1  0.15613000  0.43837000  0.69390000  1.0 0.348084804
C  C143  1  0.12496000  0.46414000  0.57380000  1.0 0.0315564418
C  C144  1  0.08810000  0.45950000  0.58050000  1.0 0.0801172999
C  C145  1  0.06580000  0.45500000  0.66780000  1.0 -0.39866672
C  C146  1  0.15570000  0.58572000  0.78850000  1.0 0.4678669733
C  C147  1  0.13548000  0.58608000  0.69690000  1.0 0.348084804
C  C148  1  0.10915000  0.55205000  0.57990000  1.0 0.1103564948
C  C149  1  0.06986000  0.55038000  0.58110000  1.0 0.1103564948
C  C150  1  0.04757000  0.55243000  0.66980000  1.0 -0.4182643639
C  C151  1  0.16774000  0.72520000  0.80610000  1.0 0.3061009724
C  C152  1  0.18714000  0.71066000  0.72500000  1.0 0.4678669733
C  C153  1  0.16457000  0.76761000  0.91940000  1.0 0.089669358
C  C154  1  0.13751000  0.79287000  0.91810000  1.0 0.089669358
C  C155  1  0.12091000  0.80629000  0.83140000  1.0 -0.39866672
C  C156  1  0.05981000  0.67679000  0.70170000  1.0 0.348084804
C  C157  1  0.05363000  0.65137000  0.78130000  1.0 0.4626252319
C  C158  1  0.02974000  0.70592000  0.57920000  1.0 0.0994527805
C  C159  1  0.03165000  0.74483000  0.58150000  1.0 0.1103564948
C  C160  1  0.03375000  0.76653000  0.66820000  1.0 -0.4182643639
C  C161  1  0.90440000  0.66580000  0.69990000  1.0 0.3725324798
C  C162  1  0.91427000  0.63973000  0.78170000  1.0 0.4678669733
C  C163  1  0.93400000  0.70008000  0.58010000  1.0 0.089669358
C  C164  1  0.93151000  0.73701000  0.58110000  1.0 0.0801172999
C  C165  1  0.93147000  0.76013000  0.66720000  1.0 -0.39866672
C  C166  1  0.79739000  0.69361000  0.80730000  1.0 0.3445848528
C  C167  1  0.77721000  0.67919000  0.72390000  1.0 0.4626252319
C  C168  1  0.80209000  0.73791000  0.91980000  1.0 0.0994527805
C  C169  1  0.83074000  0.76406000  0.91870000  1.0 0.0994527805
C  C170  1  0.84760000  0.77620000  0.82690000  1.0 -0.4111861509
C  C171  1  0.82236000  0.55690000  0.78300000  1.0 0.4678669733
C  C172  1  0.84387000  0.56163000  0.69390000  1.0 0.348084804
C  C173  1  0.87504000  0.53586000  0.57380000  1.0 0.0315564418
C  C174  1  0.91190000  0.54050000  0.58050000  1.0 0.0801172999
C  C175  1  0.93420000  0.54500000  0.66780000  1.0 -0.39866672
C  C176  1  0.84430000  0.41428000  0.78850000  1.0 0.4678669733
C  C177  1  0.86452000  0.41392000  0.69690000  1.0 0.348084804
C  C178  1  0.89085000  0.44795000  0.57990000  1.0 0.1103564948
C  C179  1  0.93014000  0.44962000  0.58110000  1.0 0.1103564948
C  C180  1  0.95243000  0.44757000  0.66980000  1.0 -0.4182643639
C  C181  1  0.72520000  0.16774000  0.19390000  1.0 0.3061009724
C  C182  1  0.71066000  0.18714000  0.27500000  1.0 0.4678669733
C  C183  1  0.76761000  0.16457000  0.08060000  1.0 0.089669358
C  C184  1  0.79287000  0.13751000  0.08190000  1.0 0.089669358
C  C185  1  0.80629000  0.12091000  0.16860000  1.0 -0.39866672
C  C186  1  0.67679000  0.05981000  0.29830000  1.0 0.348084804
C  C187  1  0.65137000  0.05363000  0.21870000  1.0 0.4626252319
C  C188  1  0.70592000  0.02974000  0.42080000  1.0 0.0994527805
C  C189  1  0.74483000  0.03165000  0.41850000  1.0 0.1103564948
C  C190  1  0.76653000  0.03375000  0.33180000  1.0 -0.4182643639
C  C191  1  0.66580000  0.90440000  0.30010000  1.0 0.3725324798
C  C192  1  0.63973000  0.91427000  0.21830000  1.0 0.4678669733
C  C193  1  0.70008000  0.93400000  0.41990000  1.0 0.089669358
C  C194  1  0.73701000  0.93151000  0.41890000  1.0 0.0801172999
C  C195  1  0.76013000  0.93147000  0.33280000  1.0 -0.39866672
C  C196  1  0.69361000  0.79739000  0.19270000  1.0 0.3445848528
C  C197  1  0.67919000  0.77721000  0.27610000  1.0 0.4626252319
C  C198  1  0.73791000  0.80209000  0.08020000  1.0 0.0994527805
C  C199  1  0.76406000  0.83074000  0.08130000  1.0 0.0994527805
C  C200  1  0.77620000  0.84760000  0.17310000  1.0 -0.4111861509
C  C201  1  0.55690000  0.82236000  0.21700000  1.0 0.4678669733
C  C202  1  0.56163000  0.84387000  0.30610000  1.0 0.348084804
C  C203  1  0.53586000  0.87504000  0.42620000  1.0 0.0315564418
C  C204  1  0.54050000  0.91190000  0.41950000  1.0 0.0801172999
C  C205  1  0.54500000  0.93420000  0.33220000  1.0 -0.39866672
C  C206  1  0.41428000  0.84430000  0.21150000  1.0 0.4678669733
C  C207  1  0.41392000  0.86452000  0.30310000  1.0 0.348084804
C  C208  1  0.44795000  0.89085000  0.42010000  1.0 0.1103564948
C  C209  1  0.44962000  0.93014000  0.41890000  1.0 0.1103564948
C  C210  1  0.44757000  0.95243000  0.33020000  1.0 -0.4182643639
C  C211  1  0.27480000  0.83226000  0.19390000  1.0 0.3061009724
C  C212  1  0.28934000  0.81286000  0.27500000  1.0 0.4678669733
C  C213  1  0.23239000  0.83543000  0.08060000  1.0 0.089669358
C  C214  1  0.20713000  0.86249000  0.08190000  1.0 0.089669358
C  C215  1  0.19371000  0.87909000  0.16860000  1.0 -0.39866672
C  C216  1  0.32321000  0.94019000  0.29830000  1.0 0.348084804
C  C217  1  0.34863000  0.94637000  0.21870000  1.0 0.4626252319
C  C218  1  0.29408000  0.97026000  0.42080000  1.0 0.0994527805
C  C219  1  0.25517000  0.96835000  0.41850000  1.0 0.1103564948
C  C220  1  0.23347000  0.96625000  0.33180000  1.0 -0.4182643639
C  C221  1  0.33420000  0.09560000  0.30010000  1.0 0.3725324798
C  C222  1  0.36027000  0.08573000  0.21830000  1.0 0.4678669733
C  C223  1  0.29992000  0.06600000  0.41990000  1.0 0.089669358
C  C224  1  0.26299000  0.06849000  0.41890000  1.0 0.0801172999
C  C225  1  0.23987000  0.06853000  0.33280000  1.0 -0.39866672
C  C226  1  0.30639000  0.20261000  0.19270000  1.0 0.3445848528
C  C227  1  0.32081000  0.22279000  0.27610000  1.0 0.4626252319
C  C228  1  0.26209000  0.19791000  0.08020000  1.0 0.0994527805
C  C229  1  0.23594000  0.16926000  0.08130000  1.0 0.0994527805
C  C230  1  0.22380000  0.15240000  0.17310000  1.0 -0.4111861509
C  C231  1  0.44310000  0.17764000  0.21700000  1.0 0.4678669733
C  C232  1  0.43837000  0.15613000  0.30610000  1.0 0.348084804
C  C233  1  0.46414000  0.12496000  0.42620000  1.0 0.0315564418
C  C234  1  0.45950000  0.08810000  0.41950000  1.0 0.0801172999
C  C235  1  0.45500000  0.06580000  0.33220000  1.0 -0.39866672
C  C236  1  0.58572000  0.15570000  0.21150000  1.0 0.4678669733
C  C237  1  0.58608000  0.13548000  0.30310000  1.0 0.348084804
C  C238  1  0.55205000  0.10915000  0.42010000  1.0 0.1103564948
C  C239  1  0.55038000  0.06986000  0.41890000  1.0 0.1103564948
C  C240  1  0.55243000  0.04757000  0.33020000  1.0 -0.4182643639
C  C241  1  0.12120000  0.80520000  0.00000000  1.0 -0.1630572487
C  C242  1  0.17690000  0.75450000  0.00000000  1.0 -0.0308417749
C  C243  1  0.20730000  0.72670000  0.00000000  1.0 -0.246879771
C  C244  1  0.84830000  0.77670000  0.00000000  1.0 -0.232323074
C  C245  1  0.78511000  0.72349000  0.00000000  1.0 0.0516277488
C  C246  1  0.75240000  0.69400000  0.00000000  1.0 -0.4706863289
C  C247  1  0.87880000  0.19480000  0.00000000  1.0 -0.1630572487
C  C248  1  0.82310000  0.24550000  0.00000000  1.0 -0.0308417749
C  C249  1  0.79270000  0.27330000  0.00000000  1.0 -0.246879771
C  C250  1  0.15170000  0.22330000  0.00000000  1.0 -0.2390254683
C  C251  1  0.21489000  0.27651000  0.00000000  1.0 0.0392878416
C  C252  1  0.24760000  0.30600000  0.00000000  1.0 -0.4706863289
C  C253  1  0.19480000  0.87880000  0.00000000  1.0 -0.1630572487
C  C254  1  0.24550000  0.82310000  0.00000000  1.0 -0.0308417749
C  C255  1  0.27330000  0.79270000  0.00000000  1.0 -0.246879771
C  C256  1  0.22330000  0.15170000  0.00000000  1.0 -0.2390254683
C  C257  1  0.27651000  0.21489000  0.00000000  1.0 0.0516277488
C  C258  1  0.30600000  0.24760000  0.00000000  1.0 -0.4706863289
C  C259  1  0.80520000  0.12120000  0.00000000  1.0 -0.1630572487
C  C260  1  0.75450000  0.17690000  0.00000000  1.0 -0.0308417749
C  C261  1  0.72670000  0.20730000  0.00000000  1.0 -0.246879771
C  C262  1  0.77670000  0.84830000  0.00000000  1.0 -0.232323074
C  C263  1  0.72349000  0.78511000  0.00000000  1.0 0.0516277488
C  C264  1  0.69400000  0.75240000  0.00000000  1.0 -0.4706863289
C  C265  1  0.03270000  0.76510000  0.50000000  1.0 -0.232323074
C  C266  1  0.02948000  0.68632000  0.50000000  1.0 -0.0188280797
C  C267  1  0.02930000  0.64370000  0.50000000  1.0 -0.2906453755
C  C268  1  0.93340000  0.68060000  0.50000000  1.0 -0.0096884818
C  C269  1  0.92990000  0.75750000  0.50000000  1.0 -0.1833022196
C  C270  1  0.93430000  0.63850000  0.50000000  1.0 -0.3208521452
C  C271  1  0.85690000  0.53430000  0.50000000  1.0 0.0100529495
C  C272  1  0.93050000  0.54230000  0.50000000  1.0 -0.2132385519
C  C273  1  0.81380000  0.53100000  0.50000000  1.0 -0.4111861509
C  C274  1  0.87110000  0.44790000  0.50000000  1.0 -0.0096884818
C  C275  1  0.94850000  0.45030000  0.50000000  1.0 -0.232323074
C  C276  1  0.82880000  0.44340000  0.50000000  1.0 -0.2390254683
C  C277  1  0.96730000  0.23490000  0.50000000  1.0 -0.232323074
C  C278  1  0.97052000  0.31368000  0.50000000  1.0 -0.0188280797
C  C279  1  0.97070000  0.35630000  0.50000000  1.0 -0.2906453755
C  C280  1  0.06660000  0.31940000  0.50000000  1.0 -0.0096884818
C  C281  1  0.07010000  0.24250000  0.50000000  1.0 -0.1833022196
C  C282  1  0.06570000  0.36150000  0.50000000  1.0 -0.3208521452
C  C283  1  0.14310000  0.46570000  0.50000000  1.0 0.0100529495
C  C284  1  0.06950000  0.45770000  0.50000000  1.0 -0.2132385519
C  C285  1  0.18620000  0.46900000  0.50000000  1.0 -0.4111861509
C  C286  1  0.12890000  0.55210000  0.50000000  1.0 -0.0096884818
C  C287  1  0.05150000  0.54970000  0.50000000  1.0 -0.232323074
C  C288  1  0.17120000  0.55660000  0.50000000  1.0 -0.2390254683
C  C289  1  0.23490000  0.96730000  0.50000000  1.0 -0.232323074
C  C290  1  0.31368000  0.97052000  0.50000000  1.0 -0.0188280797
C  C291  1  0.35630000  0.97070000  0.50000000  1.0 -0.2906453755
C  C292  1  0.31940000  0.06660000  0.50000000  1.0 -0.0096884818
C  C293  1  0.24250000  0.07010000  0.50000000  1.0 -0.1833022196
C  C294  1  0.36150000  0.06570000  0.50000000  1.0 -0.3208521452
C  C295  1  0.46570000  0.14310000  0.50000000  1.0 0.0100529495
C  C296  1  0.45770000  0.06950000  0.50000000  1.0 -0.2132385519
C  C297  1  0.46900000  0.18620000  0.50000000  1.0 -0.4111861509
C  C298  1  0.55210000  0.12890000  0.50000000  1.0 -0.0096884818
C  C299  1  0.54970000  0.05150000  0.50000000  1.0 -0.232323074
C  C300  1  0.55660000  0.17120000  0.50000000  1.0 -0.2390254683
C  C301  1  0.76510000  0.03270000  0.50000000  1.0 -0.232323074
C  C302  1  0.68632000  0.02948000  0.50000000  1.0 -0.0188280797
C  C303  1  0.64370000  0.02930000  0.50000000  1.0 -0.2906453755
C  C304  1  0.68060000  0.93340000  0.50000000  1.0 -0.0096884818
C  C305  1  0.75750000  0.92990000  0.50000000  1.0 -0.1833022196
C  C306  1  0.63850000  0.93430000  0.50000000  1.0 -0.3208521452
C  C307  1  0.53430000  0.85690000  0.50000000  1.0 0.0100529495
C  C308  1  0.54230000  0.93050000  0.50000000  1.0 -0.2132385519
C  C309  1  0.53100000  0.81380000  0.50000000  1.0 -0.4111861509
C  C310  1  0.44790000  0.87110000  0.50000000  1.0 -0.0096884818
C  C311  1  0.45030000  0.94850000  0.50000000  1.0 -0.232323074
C  C312  1  0.44340000  0.82880000  0.50000000  1.0 -0.2390254683
N  N1  1  0.17918000  0.75648000  0.16210000  1.0 -0.3496187475
N  N2  1  0.02670000  0.68518000  0.33810000  1.0 -0.4706863289
N  N3  1  0.93646000  0.68006000  0.33630000  1.0 -0.4706863289
N  N4  1  0.78569000  0.72575000  0.16180000  1.0 -0.4111861509
N  N5  1  0.85510000  0.53086000  0.33890000  1.0 -0.3945641514
N  N6  1  0.86816000  0.44672000  0.33710000  1.0 -0.39866672
N  N7  1  0.82082000  0.24352000  0.16210000  1.0 -0.3496187475
N  N8  1  0.97330000  0.31482000  0.33810000  1.0 -0.4706863289
N  N9  1  0.06354000  0.31994000  0.33630000  1.0 -0.4706863289
N  N10  1  0.21431000  0.27425000  0.16180000  1.0 -0.4111861509
N  N11  1  0.14490000  0.46914000  0.33890000  1.0 -0.3945641514
N  N12  1  0.13184000  0.55328000  0.33710000  1.0 -0.39866672
N  N13  1  0.24352000  0.82082000  0.83790000  1.0 -0.3496187475
N  N14  1  0.31482000  0.97330000  0.66190000  1.0 -0.4706863289
N  N15  1  0.31994000  0.06354000  0.66370000  1.0 -0.4706863289
N  N16  1  0.27425000  0.21431000  0.83820000  1.0 -0.4111861509
N  N17  1  0.46914000  0.14490000  0.66110000  1.0 -0.3945641514
N  N18  1  0.55328000  0.13184000  0.66290000  1.0 -0.39866672
N  N19  1  0.75648000  0.17918000  0.83790000  1.0 -0.3496187475
N  N20  1  0.68518000  0.02670000  0.66190000  1.0 -0.4706863289
N  N21  1  0.68006000  0.93646000  0.66370000  1.0 -0.4706863289
N  N22  1  0.72575000  0.78569000  0.83820000  1.0 -0.4111861509
N  N23  1  0.53086000  0.85510000  0.66110000  1.0 -0.3945641514
N  N24  1  0.44672000  0.86816000  0.66290000  1.0 -0.39866672
N  N25  1  0.82082000  0.24352000  0.83790000  1.0 -0.3496187475
N  N26  1  0.97330000  0.31482000  0.66190000  1.0 -0.4706863289
N  N27  1  0.06354000  0.31994000  0.66370000  1.0 -0.4706863289
N  N28  1  0.21431000  0.27425000  0.83820000  1.0 -0.4111861509
N  N29  1  0.14490000  0.46914000  0.66110000  1.0 -0.3945641514
N  N30  1  0.13184000  0.55328000  0.66290000  1.0 -0.39866672
N  N31  1  0.17918000  0.75648000  0.83790000  1.0 -0.3496187475
N  N32  1  0.02670000  0.68518000  0.66190000  1.0 -0.4706863289
N  N33  1  0.93646000  0.68006000  0.66370000  1.0 -0.4706863289
N  N34  1  0.78569000  0.72575000  0.83820000  1.0 -0.4111861509
N  N35  1  0.85510000  0.53086000  0.66110000  1.0 -0.3945641514
N  N36  1  0.86816000  0.44672000  0.66290000  1.0 -0.39866672
N  N37  1  0.75648000  0.17918000  0.16210000  1.0 -0.3496187475
N  N38  1  0.68518000  0.02670000  0.33810000  1.0 -0.4706863289
N  N39  1  0.68006000  0.93646000  0.33630000  1.0 -0.4706863289
N  N40  1  0.72575000  0.78569000  0.16180000  1.0 -0.4111861509
N  N41  1  0.53086000  0.85510000  0.33890000  1.0 -0.3945641514
N  N42  1  0.44672000  0.86816000  0.33710000  1.0 -0.39866672
N  N43  1  0.24352000  0.82082000  0.16210000  1.0 -0.3496187475
N  N44  1  0.31482000  0.97330000  0.33810000  1.0 -0.4706863289
N  N45  1  0.31994000  0.06354000  0.33630000  1.0 -0.4706863289
N  N46  1  0.27425000  0.21431000  0.16180000  1.0 -0.4111861509
N  N47  1  0.46914000  0.14490000  0.33890000  1.0 -0.3945641514
N  N48  1  0.55328000  0.13184000  0.33710000  1.0 -0.39866672
O  O1  1  0.21415000  0.73185000  0.30470000  1.0 -0.4111861509
O  O2  1  0.17653000  0.67967000  0.30870000  1.0 -0.4478430484
O  O3  1  0.13966000  0.70190000  0.16030000  1.0 -0.4387001941
O  O4  1  0.09254000  0.68744000  0.31950000  1.0 -0.39866672
O  O5  1  0.08283000  0.64091000  0.17960000  1.0 -0.4387001941
O  O6  1  0.02201000  0.64293000  0.19830000  1.0 -0.3803379942
O  O7  1  0.94594000  0.63626000  0.19780000  1.0 -0.3616962057
O  O8  1  0.88450000  0.62376000  0.18200000  1.0 -0.4706863289
O  O9  1  0.87136000  0.67076000  0.32030000  1.0 -0.39866672
O  O10  1  0.82183000  0.67345000  0.16050000  1.0 -0.4111861509
O  O11  1  0.78855000  0.64985000  0.30930000  1.0 -0.4387001941
O  O12  1  0.75028000  0.69878000  0.30440000  1.0 -0.4307747731
O  O13  1  0.81060000  0.58584000  0.18190000  1.0 -0.4307747731
O  O14  1  0.84648000  0.59498000  0.33660000  1.0 -0.4307747731
O  O15  1  0.81914000  0.52306000  0.18700000  1.0 -0.4307747731
O  O16  1  0.83387000  0.44419000  0.18240000  1.0 -0.39866672
O  O17  1  0.84004000  0.38334000  0.17650000  1.0 -0.4182643639
O  O18  1  0.87673000  0.38303000  0.33170000  1.0 -0.4387001941
O  O19  1  0.78585000  0.26815000  0.30470000  1.0 -0.4111861509
O  O20  1  0.82347000  0.32033000  0.30870000  1.0 -0.4478430484
O  O21  1  0.86034000  0.29810000  0.16030000  1.0 -0.4387001941
O  O22  1  0.90746000  0.31256000  0.31950000  1.0 -0.39866672
O  O23  1  0.91717000  0.35909000  0.17960000  1.0 -0.4387001941
O  O24  1  0.97799000  0.35707000  0.19830000  1.0 -0.3803379942
O  O25  1  0.05406000  0.36374000  0.19780000  1.0 -0.3616962057
O  O26  1  0.11550000  0.37624000  0.18200000  1.0 -0.4706863289
O  O27  1  0.12864000  0.32924000  0.32030000  1.0 -0.39866672
O  O28  1  0.17817000  0.32655000  0.16050000  1.0 -0.4111861509
O  O29  1  0.21145000  0.35015000  0.30930000  1.0 -0.4387001941
O  O30  1  0.24972000  0.30122000  0.30440000  1.0 -0.4307747731
O  O31  1  0.18940000  0.41416000  0.18190000  1.0 -0.4307747731
O  O32  1  0.15352000  0.40502000  0.33660000  1.0 -0.4307747731
O  O33  1  0.18086000  0.47694000  0.18700000  1.0 -0.4307747731
O  O34  1  0.16613000  0.55581000  0.18240000  1.0 -0.39866672
O  O35  1  0.15996000  0.61666000  0.17650000  1.0 -0.4182643639
O  O36  1  0.12327000  0.61697000  0.33170000  1.0 -0.4387001941
O  O37  1  0.26815000  0.78585000  0.69530000  1.0 -0.4111861509
O  O38  1  0.32033000  0.82347000  0.69130000  1.0 -0.4478430484
O  O39  1  0.29810000  0.86034000  0.83970000  1.0 -0.4387001941
O  O40  1  0.31256000  0.90746000  0.68050000  1.0 -0.39866672
O  O41  1  0.35909000  0.91717000  0.82040000  1.0 -0.4387001941
O  O42  1  0.35707000  0.97799000  0.80170000  1.0 -0.3803379942
O  O43  1  0.36374000  0.05406000  0.80220000  1.0 -0.3616962057
O  O44  1  0.37624000  0.11550000  0.81800000  1.0 -0.4706863289
O  O45  1  0.32924000  0.12864000  0.67970000  1.0 -0.39866672
O  O46  1  0.32655000  0.17817000  0.83950000  1.0 -0.4111861509
O  O47  1  0.35015000  0.21145000  0.69070000  1.0 -0.4387001941
O  O48  1  0.30122000  0.24972000  0.69560000  1.0 -0.4307747731
O  O49  1  0.41416000  0.18940000  0.81810000  1.0 -0.4307747731
O  O50  1  0.40502000  0.15352000  0.66340000  1.0 -0.4307747731
O  O51  1  0.47694000  0.18086000  0.81300000  1.0 -0.4307747731
O  O52  1  0.55581000  0.16613000  0.81760000  1.0 -0.39866672
O  O53  1  0.61666000  0.15996000  0.82350000  1.0 -0.4182643639
O  O54  1  0.61697000  0.12327000  0.66830000  1.0 -0.4387001941
O  O55  1  0.73185000  0.21415000  0.69530000  1.0 -0.4111861509
O  O56  1  0.67967000  0.17653000  0.69130000  1.0 -0.4478430484
O  O57  1  0.70190000  0.13966000  0.83970000  1.0 -0.4387001941
O  O58  1  0.68744000  0.09254000  0.68050000  1.0 -0.39866672
O  O59  1  0.64091000  0.08283000  0.82040000  1.0 -0.4387001941
O  O60  1  0.64293000  0.02201000  0.80170000  1.0 -0.3803379942
O  O61  1  0.63626000  0.94594000  0.80220000  1.0 -0.3616962057
O  O62  1  0.62376000  0.88450000  0.81800000  1.0 -0.4706863289
O  O63  1  0.67076000  0.87136000  0.67970000  1.0 -0.39866672
O  O64  1  0.67345000  0.82183000  0.83950000  1.0 -0.4111861509
O  O65  1  0.64985000  0.78855000  0.69070000  1.0 -0.4387001941
O  O66  1  0.69878000  0.75028000  0.69560000  1.0 -0.4307747731
O  O67  1  0.58584000  0.81060000  0.81810000  1.0 -0.4307747731
O  O68  1  0.59498000  0.84648000  0.66340000  1.0 -0.4307747731
O  O69  1  0.52306000  0.81914000  0.81300000  1.0 -0.4307747731
O  O70  1  0.44419000  0.83387000  0.81760000  1.0 -0.39866672
O  O71  1  0.38334000  0.84004000  0.82350000  1.0 -0.4182643639
O  O72  1  0.38303000  0.87673000  0.66830000  1.0 -0.4387001941
O  O73  1  0.78585000  0.26815000  0.69530000  1.0 -0.4111861509
O  O74  1  0.82347000  0.32033000  0.69130000  1.0 -0.4478430484
O  O75  1  0.86034000  0.29810000  0.83970000  1.0 -0.4387001941
O  O76  1  0.90746000  0.31256000  0.68050000  1.0 -0.39866672
O  O77  1  0.91717000  0.35909000  0.82040000  1.0 -0.4387001941
O  O78  1  0.97799000  0.35707000  0.80170000  1.0 -0.3803379942
O  O79  1  0.05406000  0.36374000  0.80220000  1.0 -0.3616962057
O  O80  1  0.11550000  0.37624000  0.81800000  1.0 -0.4706863289
O  O81  1  0.12864000  0.32924000  0.67970000  1.0 -0.39866672
O  O82  1  0.17817000  0.32655000  0.83950000  1.0 -0.4111861509
O  O83  1  0.21145000  0.35015000  0.69070000  1.0 -0.4387001941
O  O84  1  0.24972000  0.30122000  0.69560000  1.0 -0.4307747731
O  O85  1  0.18940000  0.41416000  0.81810000  1.0 -0.4307747731
O  O86  1  0.15352000  0.40502000  0.66340000  1.0 -0.4307747731
O  O87  1  0.18086000  0.47694000  0.81300000  1.0 -0.4307747731
O  O88  1  0.16613000  0.55581000  0.81760000  1.0 -0.39866672
O  O89  1  0.15996000  0.61666000  0.82350000  1.0 -0.4182643639
O  O90  1  0.12327000  0.61697000  0.66830000  1.0 -0.4387001941
O  O91  1  0.21415000  0.73185000  0.69530000  1.0 -0.4111861509
O  O92  1  0.17653000  0.67967000  0.69130000  1.0 -0.4478430484
O  O93  1  0.13966000  0.70190000  0.83970000  1.0 -0.4387001941
O  O94  1  0.09254000  0.68744000  0.68050000  1.0 -0.39866672
O  O95  1  0.08283000  0.64091000  0.82040000  1.0 -0.4387001941
O  O96  1  0.02201000  0.64293000  0.80170000  1.0 -0.3803379942
O  O97  1  0.94594000  0.63626000  0.80220000  1.0 -0.3616962057
O  O98  1  0.88450000  0.62376000  0.81800000  1.0 -0.4706863289
O  O99  1  0.87136000  0.67076000  0.67970000  1.0 -0.39866672
O  O100  1  0.82183000  0.67345000  0.83950000  1.0 -0.4111861509
O  O101  1  0.78855000  0.64985000  0.69070000  1.0 -0.4387001941
O  O102  1  0.75028000  0.69878000  0.69560000  1.0 -0.4307747731
O  O103  1  0.81060000  0.58584000  0.81810000  1.0 -0.4307747731
O  O104  1  0.84648000  0.59498000  0.66340000  1.0 -0.4307747731
O  O105  1  0.81914000  0.52306000  0.81300000  1.0 -0.4307747731
O  O106  1  0.83387000  0.44419000  0.81760000  1.0 -0.39866672
O  O107  1  0.84004000  0.38334000  0.82350000  1.0 -0.4182643639
O  O108  1  0.87673000  0.38303000  0.66830000  1.0 -0.4387001941
O  O109  1  0.73185000  0.21415000  0.30470000  1.0 -0.4111861509
O  O110  1  0.67967000  0.17653000  0.30870000  1.0 -0.4478430484
O  O111  1  0.70190000  0.13966000  0.16030000  1.0 -0.4387001941
O  O112  1  0.68744000  0.09254000  0.31950000  1.0 -0.39866672
O  O113  1  0.64091000  0.08283000  0.17960000  1.0 -0.4387001941
O  O114  1  0.64293000  0.02201000  0.19830000  1.0 -0.3803379942
O  O115  1  0.63626000  0.94594000  0.19780000  1.0 -0.3616962057
O  O116  1  0.62376000  0.88450000  0.18200000  1.0 -0.4706863289
O  O117  1  0.67076000  0.87136000  0.32030000  1.0 -0.39866672
O  O118  1  0.67345000  0.82183000  0.16050000  1.0 -0.4111861509
O  O119  1  0.64985000  0.78855000  0.30930000  1.0 -0.4387001941
O  O120  1  0.69878000  0.75028000  0.30440000  1.0 -0.4307747731
O  O121  1  0.58584000  0.81060000  0.18190000  1.0 -0.4307747731
O  O122  1  0.59498000  0.84648000  0.33660000  1.0 -0.4307747731
O  O123  1  0.52306000  0.81914000  0.18700000  1.0 -0.4307747731
O  O124  1  0.44419000  0.83387000  0.18240000  1.0 -0.39866672
O  O125  1  0.38334000  0.84004000  0.17650000  1.0 -0.4182643639
O  O126  1  0.38303000  0.87673000  0.33170000  1.0 -0.4387001941
O  O127  1  0.26815000  0.78585000  0.30470000  1.0 -0.4111861509
O  O128  1  0.32033000  0.82347000  0.30870000  1.0 -0.4478430484
O  O129  1  0.29810000  0.86034000  0.16030000  1.0 -0.4387001941
O  O130  1  0.31256000  0.90746000  0.31950000  1.0 -0.39866672
O  O131  1  0.35909000  0.91717000  0.17960000  1.0 -0.4387001941
O  O132  1  0.35707000  0.97799000  0.19830000  1.0 -0.3803379942
O  O133  1  0.36374000  0.05406000  0.19780000  1.0 -0.3616962057
O  O134  1  0.37624000  0.11550000  0.18200000  1.0 -0.4706863289
O  O135  1  0.32924000  0.12864000  0.32030000  1.0 -0.39866672
O  O136  1  0.32655000  0.17817000  0.16050000  1.0 -0.4111861509
O  O137  1  0.35015000  0.21145000  0.30930000  1.0 -0.4387001941
O  O138  1  0.30122000  0.24972000  0.30440000  1.0 -0.4307747731
O  O139  1  0.41416000  0.18940000  0.18190000  1.0 -0.4307747731
O  O140  1  0.40502000  0.15352000  0.33660000  1.0 -0.4307747731
O  O141  1  0.47694000  0.18086000  0.18700000  1.0 -0.4307747731
O  O142  1  0.55581000  0.16613000  0.18240000  1.0 -0.39866672
O  O143  1  0.61666000  0.15996000  0.17650000  1.0 -0.4182643639
O  O144  1  0.61697000  0.12327000  0.33170000  1.0 -0.4387001941
