# DDEC6 charges by PACMAN v1.1 (https://github.com/mtap-research/PACMAN-charge/)
data_DIVYOZ_ion_pacman
_symmetry_space_group_name_H-M   'P 1'
_cell_length_a   35.89500000
_cell_length_b   35.89500000
_cell_length_c   15.32170000
_cell_angle_alpha   90.00000000
_cell_angle_beta   90.00000000
_cell_angle_gamma   90.00000000
_symmetry_Int_Tables_number   1
_chemical_formula_structural   Na2Cu3Ni2H39C39N6O23
_chemical_formula_sum   'Na16 Cu24 Ni16 H312 C312 N48 O184'
_cell_volume   19741.26006974
_cell_formula_units_Z   8
loop_
 _symmetry_equiv_pos_site_id
 _symmetry_equiv_pos_as_xyz
  1  'x, y, z'
loop_
 _atom_site_type_symbol
 _atom_site_label
 _atom_site_symmetry_multiplicity
 _atom_site_fract_x
 _atom_site_fract_y
 _atom_site_fract_z
 _atom_site_occupancy
 _atom_site_charge
Na  Na1  1  0.77050000  0.22950000  0.06960000  1.0 0.5406782208
Na  Na2  1  0.22950000  0.77050000  0.06960000  1.0 0.5406782208
Na  Na3  1  0.22950000  0.22950000  0.06960000  1.0 0.5406782208
Na  Na4  1  0.77050000  0.77050000  0.06960000  1.0 0.5457647123
Na  Na5  1  0.77050000  0.77050000  0.93040000  1.0 0.5457647123
Na  Na6  1  0.22950000  0.22950000  0.93040000  1.0 0.5406782208
Na  Na7  1  0.22950000  0.77050000  0.93040000  1.0 0.5406782208
Na  Na8  1  0.77050000  0.22950000  0.93040000  1.0 0.5406782208
Na  Na9  1  0.86060000  0.34170000  0.00000000  1.0 0.857393352
Na  Na10  1  0.13940000  0.65830000  0.00000000  1.0 0.8526592978
Na  Na11  1  0.34170000  0.13940000  0.00000000  1.0 0.8526592978
Na  Na12  1  0.65830000  0.86060000  0.00000000  1.0 0.857393352
Na  Na13  1  0.86060000  0.65830000  0.00000000  1.0 0.857393352
Na  Na14  1  0.13940000  0.34170000  0.00000000  1.0 0.8526592978
Na  Na15  1  0.34170000  0.86060000  0.00000000  1.0 0.857393352
Na  Na16  1  0.65830000  0.13940000  0.00000000  1.0 0.8526592978
Cu  Cu1  1  0.74187000  0.25813000  0.27044000  1.0 0.5776335128
Cu  Cu2  1  0.25813000  0.74187000  0.27044000  1.0 0.5776335128
Cu  Cu3  1  0.25813000  0.25813000  0.27044000  1.0 0.5776335128
Cu  Cu4  1  0.74187000  0.74187000  0.27044000  1.0 0.5776335128
Cu  Cu5  1  0.74187000  0.74187000  0.72956000  1.0 0.5776335128
Cu  Cu6  1  0.25813000  0.25813000  0.72956000  1.0 0.5776335128
Cu  Cu7  1  0.25813000  0.74187000  0.72956000  1.0 0.5776335128
Cu  Cu8  1  0.74187000  0.25813000  0.72956000  1.0 0.5776335128
Cu  Cu9  1  0.65296000  0.00000000  0.22974000  1.0 0.6842258402
Cu  Cu10  1  0.34704000  0.00000000  0.22974000  1.0 0.6842258402
Cu  Cu11  1  0.00000000  0.34704000  0.22974000  1.0 0.6842258402
Cu  Cu12  1  0.00000000  0.65296000  0.22974000  1.0 0.6842258402
Cu  Cu13  1  0.65296000  0.00000000  0.77026000  1.0 0.6842258402
Cu  Cu14  1  0.34704000  0.00000000  0.77026000  1.0 0.6842258402
Cu  Cu15  1  0.00000000  0.65296000  0.77026000  1.0 0.6842258402
Cu  Cu16  1  0.00000000  0.34704000  0.77026000  1.0 0.6842258402
Cu  Cu17  1  0.50000000  0.16709000  0.22491000  1.0 0.7323473298
Cu  Cu18  1  0.50000000  0.83291000  0.22491000  1.0 0.7323473298
Cu  Cu19  1  0.16709000  0.50000000  0.22491000  1.0 0.7323473298
Cu  Cu20  1  0.83291000  0.50000000  0.22491000  1.0 0.7323473298
Cu  Cu21  1  0.50000000  0.83291000  0.77509000  1.0 0.7323473298
Cu  Cu22  1  0.50000000  0.16709000  0.77509000  1.0 0.7323473298
Cu  Cu23  1  0.16709000  0.50000000  0.77509000  1.0 0.7323473298
Cu  Cu24  1  0.83291000  0.50000000  0.77509000  1.0 0.7323473298
Ni  Ni1  1  0.64592000  0.14747000  0.25004000  1.0 0.9080061668
Ni  Ni2  1  0.35408000  0.85253000  0.25004000  1.0 0.9080061668
Ni  Ni3  1  0.14747000  0.35408000  0.25004000  1.0 0.9080061668
Ni  Ni4  1  0.85253000  0.64592000  0.25004000  1.0 0.9080061668
Ni  Ni5  1  0.64592000  0.85253000  0.74996000  1.0 0.9080061668
Ni  Ni6  1  0.35408000  0.14747000  0.74996000  1.0 0.9080061668
Ni  Ni7  1  0.14747000  0.64592000  0.74996000  1.0 0.9080061668
Ni  Ni8  1  0.85253000  0.35408000  0.74996000  1.0 0.9080061668
Ni  Ni9  1  0.35408000  0.85253000  0.74996000  1.0 0.9080061668
Ni  Ni10  1  0.64592000  0.14747000  0.74996000  1.0 0.9080061668
Ni  Ni11  1  0.85253000  0.64592000  0.74996000  1.0 0.9080061668
Ni  Ni12  1  0.14747000  0.35408000  0.74996000  1.0 0.9080061668
Ni  Ni13  1  0.35408000  0.14747000  0.25004000  1.0 0.9080061668
Ni  Ni14  1  0.64592000  0.85253000  0.25004000  1.0 0.9080061668
Ni  Ni15  1  0.85253000  0.35408000  0.25004000  1.0 0.9080061668
Ni  Ni16  1  0.14747000  0.64592000  0.25004000  1.0 0.9080061668
H  H1  1  0.54560000  0.24650000  0.21210000  1.0 0.1409460434
H  H2  1  0.57610000  0.27370000  0.17050000  1.0 0.1494094995
H  H3  1  0.53280000  0.28370000  0.16290000  1.0 0.1210915633
H  H4  1  0.61640000  0.30480000  0.35040000  1.0 0.1210915633
H  H5  1  0.65580000  0.30240000  0.30170000  1.0 0.1272977434
H  H6  1  0.62930000  0.26660000  0.30560000  1.0 0.1494094995
H  H7  1  0.56500000  0.03260000  0.20560000  1.0 0.1409460434
H  H8  1  0.55920000  0.07600000  0.18650000  1.0 0.1494094995
H  H9  1  0.52930000  0.04630000  0.15230000  1.0 0.1272977434
H  H10  1  0.73410000  0.19950000  0.56030000  1.0 0.0516841023
H  H11  1  0.71850000  0.18450000  0.46910000  1.0 0.0811859687
H  H12  1  0.75060000  0.21540000  0.47060000  1.0 0.0608452139
H  H13  1  0.54310000  0.13150000  0.94160000  1.0 0.0811859687
H  H14  1  0.57430000  0.13250000  0.01610000  1.0 0.1000822805
H  H15  1  0.53120000  0.13110000  0.04230000  1.0 0.090395772
H  H16  1  0.68590000  0.04490000  0.93980000  1.0 0.0608452139
H  H17  1  0.68460000  0.06950000  0.02690000  1.0 0.0516841023
H  H18  1  0.68700000  0.02510000  0.03330000  1.0 0.0608452139
H  H19  1  0.45440000  0.75350000  0.21210000  1.0 0.1409460434
H  H20  1  0.42390000  0.72630000  0.17050000  1.0 0.1494094995
H  H21  1  0.46720000  0.71630000  0.16290000  1.0 0.1210915633
H  H22  1  0.38360000  0.69520000  0.35040000  1.0 0.1210915633
H  H23  1  0.34420000  0.69760000  0.30170000  1.0 0.1272977434
H  H24  1  0.37070000  0.73340000  0.30560000  1.0 0.1494094995
H  H25  1  0.43500000  0.96740000  0.20560000  1.0 0.1409460434
H  H26  1  0.44080000  0.92400000  0.18650000  1.0 0.1494094995
H  H27  1  0.47070000  0.95370000  0.15230000  1.0 0.1272977434
H  H28  1  0.26590000  0.80050000  0.56030000  1.0 0.0516841023
H  H29  1  0.28150000  0.81550000  0.46910000  1.0 0.0811859687
H  H30  1  0.24940000  0.78460000  0.47060000  1.0 0.0608452139
H  H31  1  0.45690000  0.86850000  0.94160000  1.0 0.0811859687
H  H32  1  0.42570000  0.86750000  0.01610000  1.0 0.1000822805
H  H33  1  0.46880000  0.86890000  0.04230000  1.0 0.090395772
H  H34  1  0.31410000  0.95510000  0.93980000  1.0 0.0608452139
H  H35  1  0.31540000  0.93050000  0.02690000  1.0 0.0516841023
H  H36  1  0.31300000  0.97490000  0.03330000  1.0 0.0608452139
H  H37  1  0.24650000  0.45440000  0.21210000  1.0 0.1409460434
H  H38  1  0.27370000  0.42390000  0.17050000  1.0 0.1494094995
H  H39  1  0.28370000  0.46720000  0.16290000  1.0 0.1210915633
H  H40  1  0.30480000  0.38360000  0.35040000  1.0 0.1210915633
H  H41  1  0.30240000  0.34420000  0.30170000  1.0 0.1272977434
H  H42  1  0.26660000  0.37070000  0.30560000  1.0 0.1494094995
H  H43  1  0.03260000  0.43500000  0.20560000  1.0 0.1409460434
H  H44  1  0.07600000  0.44080000  0.18650000  1.0 0.1494094995
H  H45  1  0.04630000  0.47070000  0.15230000  1.0 0.1272977434
H  H46  1  0.19950000  0.26590000  0.56030000  1.0 0.0516841023
H  H47  1  0.18450000  0.28150000  0.46910000  1.0 0.0811859687
H  H48  1  0.21540000  0.24940000  0.47060000  1.0 0.0516841023
H  H49  1  0.13150000  0.45690000  0.94160000  1.0 0.0811859687
H  H50  1  0.13250000  0.42570000  0.01610000  1.0 0.1000822805
H  H51  1  0.13110000  0.46880000  0.04230000  1.0 0.090395772
H  H52  1  0.04490000  0.31410000  0.93980000  1.0 0.0608452139
H  H53  1  0.06950000  0.31540000  0.02690000  1.0 0.0516841023
H  H54  1  0.02510000  0.31300000  0.03330000  1.0 0.0608452139
H  H55  1  0.75350000  0.54560000  0.21210000  1.0 0.1409460434
H  H56  1  0.72630000  0.57610000  0.17050000  1.0 0.1494094995
H  H57  1  0.71630000  0.53280000  0.16290000  1.0 0.1210915633
H  H58  1  0.69520000  0.61640000  0.35040000  1.0 0.1210915633
H  H59  1  0.69760000  0.65580000  0.30170000  1.0 0.1272977434
H  H60  1  0.73340000  0.62930000  0.30560000  1.0 0.1494094995
H  H61  1  0.96740000  0.56500000  0.20560000  1.0 0.1409460434
H  H62  1  0.92400000  0.55920000  0.18650000  1.0 0.1494094995
H  H63  1  0.95370000  0.52930000  0.15230000  1.0 0.1272977434
H  H64  1  0.80050000  0.73410000  0.56030000  1.0 0.0516841023
H  H65  1  0.81550000  0.71850000  0.46910000  1.0 0.0811859687
H  H66  1  0.78460000  0.75060000  0.47060000  1.0 0.0608452139
H  H67  1  0.86850000  0.54310000  0.94160000  1.0 0.0811859687
H  H68  1  0.86750000  0.57430000  0.01610000  1.0 0.1000822805
H  H69  1  0.86890000  0.53120000  0.04230000  1.0 0.090395772
H  H70  1  0.95510000  0.68590000  0.93980000  1.0 0.0608452139
H  H71  1  0.93050000  0.68460000  0.02690000  1.0 0.0516841023
H  H72  1  0.97490000  0.68700000  0.03330000  1.0 0.0608452139
H  H73  1  0.54560000  0.75350000  0.78790000  1.0 0.1409460434
H  H74  1  0.57610000  0.72630000  0.82950000  1.0 0.1494094995
H  H75  1  0.53280000  0.71630000  0.83710000  1.0 0.1210915633
H  H76  1  0.61640000  0.69520000  0.64960000  1.0 0.1210915633
H  H77  1  0.65580000  0.69760000  0.69830000  1.0 0.1272977434
H  H78  1  0.62930000  0.73340000  0.69440000  1.0 0.1494094995
H  H79  1  0.56500000  0.96740000  0.79440000  1.0 0.1409460434
H  H80  1  0.55920000  0.92400000  0.81350000  1.0 0.1494094995
H  H81  1  0.52930000  0.95370000  0.84770000  1.0 0.1272977434
H  H82  1  0.73410000  0.80050000  0.43970000  1.0 0.0516841023
H  H83  1  0.71850000  0.81550000  0.53090000  1.0 0.0811859687
H  H84  1  0.75060000  0.78460000  0.52940000  1.0 0.0516841023
H  H85  1  0.54310000  0.86850000  0.05840000  1.0 0.0811859687
H  H86  1  0.57430000  0.86750000  0.98390000  1.0 0.1000822805
H  H87  1  0.53120000  0.86890000  0.95770000  1.0 0.090395772
H  H88  1  0.68590000  0.95510000  0.06020000  1.0 0.0608452139
H  H89  1  0.68460000  0.93050000  0.97310000  1.0 0.0516841023
H  H90  1  0.68700000  0.97490000  0.96670000  1.0 0.0608452139
H  H91  1  0.45440000  0.24650000  0.78790000  1.0 0.1409460434
H  H92  1  0.42390000  0.27370000  0.82950000  1.0 0.1494094995
H  H93  1  0.46720000  0.28370000  0.83710000  1.0 0.1210915633
H  H94  1  0.38360000  0.30480000  0.64960000  1.0 0.1210915633
H  H95  1  0.34420000  0.30240000  0.69830000  1.0 0.1272977434
H  H96  1  0.37070000  0.26660000  0.69440000  1.0 0.1494094995
H  H97  1  0.43500000  0.03260000  0.79440000  1.0 0.1409460434
H  H98  1  0.44080000  0.07600000  0.81350000  1.0 0.1494094995
H  H99  1  0.47070000  0.04630000  0.84770000  1.0 0.1272977434
H  H100  1  0.26590000  0.19950000  0.43970000  1.0 0.0516841023
H  H101  1  0.28150000  0.18450000  0.53090000  1.0 0.0811859687
H  H102  1  0.24940000  0.21540000  0.52940000  1.0 0.0516841023
H  H103  1  0.45690000  0.13150000  0.05840000  1.0 0.0811859687
H  H104  1  0.42570000  0.13250000  0.98390000  1.0 0.1000822805
H  H105  1  0.46880000  0.13110000  0.95770000  1.0 0.090395772
H  H106  1  0.31410000  0.04490000  0.06020000  1.0 0.0608452139
H  H107  1  0.31540000  0.06950000  0.97310000  1.0 0.0516841023
H  H108  1  0.31300000  0.02510000  0.96670000  1.0 0.0608452139
H  H109  1  0.24650000  0.54560000  0.78790000  1.0 0.1409460434
H  H110  1  0.27370000  0.57610000  0.82950000  1.0 0.1494094995
H  H111  1  0.28370000  0.53280000  0.83710000  1.0 0.1210915633
H  H112  1  0.30480000  0.61640000  0.64960000  1.0 0.1210915633
H  H113  1  0.30240000  0.65580000  0.69830000  1.0 0.1272977434
H  H114  1  0.26660000  0.62930000  0.69440000  1.0 0.1494094995
H  H115  1  0.03260000  0.56500000  0.79440000  1.0 0.1409460434
H  H116  1  0.07600000  0.55920000  0.81350000  1.0 0.1494094995
H  H117  1  0.04630000  0.52930000  0.84770000  1.0 0.1272977434
H  H118  1  0.19950000  0.73410000  0.43970000  1.0 0.0516841023
H  H119  1  0.18450000  0.71850000  0.53090000  1.0 0.0811859687
H  H120  1  0.21540000  0.75060000  0.52940000  1.0 0.0516841023
H  H121  1  0.13150000  0.54310000  0.05840000  1.0 0.0811859687
H  H122  1  0.13250000  0.57430000  0.98390000  1.0 0.1000822805
H  H123  1  0.13110000  0.53120000  0.95770000  1.0 0.090395772
H  H124  1  0.04490000  0.68590000  0.06020000  1.0 0.0608452139
H  H125  1  0.06950000  0.68460000  0.97310000  1.0 0.0516841023
H  H126  1  0.02510000  0.68700000  0.96670000  1.0 0.0608452139
H  H127  1  0.75350000  0.45440000  0.78790000  1.0 0.1409460434
H  H128  1  0.72630000  0.42390000  0.82950000  1.0 0.1494094995
H  H129  1  0.71630000  0.46720000  0.83710000  1.0 0.1210915633
H  H130  1  0.69520000  0.38360000  0.64960000  1.0 0.1210915633
H  H131  1  0.69760000  0.34420000  0.69830000  1.0 0.1272977434
H  H132  1  0.73340000  0.37070000  0.69440000  1.0 0.1494094995
H  H133  1  0.96740000  0.43500000  0.79440000  1.0 0.1409460434
H  H134  1  0.92400000  0.44080000  0.81350000  1.0 0.1494094995
H  H135  1  0.95370000  0.47070000  0.84770000  1.0 0.1272977434
H  H136  1  0.80050000  0.26590000  0.43970000  1.0 0.0516841023
H  H137  1  0.81550000  0.28150000  0.53090000  1.0 0.0811859687
H  H138  1  0.78460000  0.24940000  0.52940000  1.0 0.0516841023
H  H139  1  0.86850000  0.45690000  0.05840000  1.0 0.0811859687
H  H140  1  0.86750000  0.42570000  0.98390000  1.0 0.1000822805
H  H141  1  0.86890000  0.46880000  0.95770000  1.0 0.090395772
H  H142  1  0.95510000  0.31410000  0.06020000  1.0 0.0608452139
H  H143  1  0.93050000  0.31540000  0.97310000  1.0 0.0516841023
H  H144  1  0.97490000  0.31300000  0.96670000  1.0 0.0608452139
H  H145  1  0.45440000  0.75350000  0.78790000  1.0 0.1409460434
H  H146  1  0.42390000  0.72630000  0.82950000  1.0 0.1494094995
H  H147  1  0.46720000  0.71630000  0.83710000  1.0 0.1210915633
H  H148  1  0.38360000  0.69520000  0.64960000  1.0 0.1210915633
H  H149  1  0.34420000  0.69760000  0.69830000  1.0 0.1272977434
H  H150  1  0.37070000  0.73340000  0.69440000  1.0 0.1494094995
H  H151  1  0.43500000  0.96740000  0.79440000  1.0 0.1409460434
H  H152  1  0.44080000  0.92400000  0.81350000  1.0 0.1494094995
H  H153  1  0.47070000  0.95370000  0.84770000  1.0 0.1272977434
H  H154  1  0.26590000  0.80050000  0.43970000  1.0 0.0516841023
H  H155  1  0.28150000  0.81550000  0.53090000  1.0 0.0811859687
H  H156  1  0.24940000  0.78460000  0.52940000  1.0 0.0516841023
H  H157  1  0.45690000  0.86850000  0.05840000  1.0 0.0811859687
H  H158  1  0.42570000  0.86750000  0.98390000  1.0 0.1000822805
H  H159  1  0.46880000  0.86890000  0.95770000  1.0 0.090395772
H  H160  1  0.31410000  0.95510000  0.06020000  1.0 0.0608452139
H  H161  1  0.31540000  0.93050000  0.97310000  1.0 0.0516841023
H  H162  1  0.31300000  0.97490000  0.96670000  1.0 0.0608452139
H  H163  1  0.54560000  0.24650000  0.78790000  1.0 0.1409460434
H  H164  1  0.57610000  0.27370000  0.82950000  1.0 0.1494094995
H  H165  1  0.53280000  0.28370000  0.83710000  1.0 0.1210915633
H  H166  1  0.61640000  0.30480000  0.64960000  1.0 0.1210915633
H  H167  1  0.65580000  0.30240000  0.69830000  1.0 0.1272977434
H  H168  1  0.62930000  0.26660000  0.69440000  1.0 0.1494094995
H  H169  1  0.56500000  0.03260000  0.79440000  1.0 0.1409460434
H  H170  1  0.55920000  0.07600000  0.81350000  1.0 0.1494094995
H  H171  1  0.52930000  0.04630000  0.84770000  1.0 0.1272977434
H  H172  1  0.73410000  0.19950000  0.43970000  1.0 0.0516841023
H  H173  1  0.71850000  0.18450000  0.53090000  1.0 0.0811859687
H  H174  1  0.75060000  0.21540000  0.52940000  1.0 0.0608452139
H  H175  1  0.54310000  0.13150000  0.05840000  1.0 0.0811859687
H  H176  1  0.57430000  0.13250000  0.98390000  1.0 0.1000822805
H  H177  1  0.53120000  0.13110000  0.95770000  1.0 0.090395772
H  H178  1  0.68590000  0.04490000  0.06020000  1.0 0.0608452139
H  H179  1  0.68460000  0.06950000  0.97310000  1.0 0.0516841023
H  H180  1  0.68700000  0.02510000  0.96670000  1.0 0.0608452139
H  H181  1  0.75350000  0.54560000  0.78790000  1.0 0.1409460434
H  H182  1  0.72630000  0.57610000  0.82950000  1.0 0.1494094995
H  H183  1  0.71630000  0.53280000  0.83710000  1.0 0.1210915633
H  H184  1  0.69520000  0.61640000  0.64960000  1.0 0.1210915633
H  H185  1  0.69760000  0.65580000  0.69830000  1.0 0.1272977434
H  H186  1  0.73340000  0.62930000  0.69440000  1.0 0.1494094995
H  H187  1  0.96740000  0.56500000  0.79440000  1.0 0.1409460434
H  H188  1  0.92400000  0.55920000  0.81350000  1.0 0.1494094995
H  H189  1  0.95370000  0.52930000  0.84770000  1.0 0.1272977434
H  H190  1  0.80050000  0.73410000  0.43970000  1.0 0.0516841023
H  H191  1  0.81550000  0.71850000  0.53090000  1.0 0.0811859687
H  H192  1  0.78460000  0.75060000  0.52940000  1.0 0.0516841023
H  H193  1  0.86850000  0.54310000  0.05840000  1.0 0.0811859687
H  H194  1  0.86750000  0.57430000  0.98390000  1.0 0.1000822805
H  H195  1  0.86890000  0.53120000  0.95770000  1.0 0.090395772
H  H196  1  0.95510000  0.68590000  0.06020000  1.0 0.0608452139
H  H197  1  0.93050000  0.68460000  0.97310000  1.0 0.0516841023
H  H198  1  0.97490000  0.68700000  0.96670000  1.0 0.0608452139
H  H199  1  0.24650000  0.45440000  0.78790000  1.0 0.1409460434
H  H200  1  0.27370000  0.42390000  0.82950000  1.0 0.1494094995
H  H201  1  0.28370000  0.46720000  0.83710000  1.0 0.1210915633
H  H202  1  0.30480000  0.38360000  0.64960000  1.0 0.1210915633
H  H203  1  0.30240000  0.34420000  0.69830000  1.0 0.1272977434
H  H204  1  0.26660000  0.37070000  0.69440000  1.0 0.1494094995
H  H205  1  0.03260000  0.43500000  0.79440000  1.0 0.1409460434
H  H206  1  0.07600000  0.44080000  0.81350000  1.0 0.1494094995
H  H207  1  0.04630000  0.47070000  0.84770000  1.0 0.1272977434
H  H208  1  0.19950000  0.26590000  0.43970000  1.0 0.0516841023
H  H209  1  0.18450000  0.28150000  0.53090000  1.0 0.0811859687
H  H210  1  0.21540000  0.24940000  0.52940000  1.0 0.0516841023
H  H211  1  0.13150000  0.45690000  0.05840000  1.0 0.0811859687
H  H212  1  0.13250000  0.42570000  0.98390000  1.0 0.1000822805
H  H213  1  0.13110000  0.46880000  0.95770000  1.0 0.090395772
H  H214  1  0.04490000  0.31410000  0.06020000  1.0 0.0608452139
H  H215  1  0.06950000  0.31540000  0.97310000  1.0 0.0516841023
H  H216  1  0.02510000  0.31300000  0.96670000  1.0 0.0608452139
H  H217  1  0.45440000  0.24650000  0.21210000  1.0 0.1409460434
H  H218  1  0.42390000  0.27370000  0.17050000  1.0 0.1494094995
H  H219  1  0.46720000  0.28370000  0.16290000  1.0 0.1210915633
H  H220  1  0.38360000  0.30480000  0.35040000  1.0 0.1210915633
H  H221  1  0.34420000  0.30240000  0.30170000  1.0 0.1272977434
H  H222  1  0.37070000  0.26660000  0.30560000  1.0 0.1494094995
H  H223  1  0.43500000  0.03260000  0.20560000  1.0 0.1409460434
H  H224  1  0.44080000  0.07600000  0.18650000  1.0 0.1494094995
H  H225  1  0.47070000  0.04630000  0.15230000  1.0 0.1272977434
H  H226  1  0.26590000  0.19950000  0.56030000  1.0 0.0516841023
H  H227  1  0.28150000  0.18450000  0.46910000  1.0 0.0811859687
H  H228  1  0.24940000  0.21540000  0.47060000  1.0 0.0516841023
H  H229  1  0.45690000  0.13150000  0.94160000  1.0 0.0811859687
H  H230  1  0.42570000  0.13250000  0.01610000  1.0 0.1000822805
H  H231  1  0.46880000  0.13110000  0.04230000  1.0 0.090395772
H  H232  1  0.31410000  0.04490000  0.93980000  1.0 0.0608452139
H  H233  1  0.31540000  0.06950000  0.02690000  1.0 0.0516841023
H  H234  1  0.31300000  0.02510000  0.03330000  1.0 0.0608452139
H  H235  1  0.54560000  0.75350000  0.21210000  1.0 0.1409460434
H  H236  1  0.57610000  0.72630000  0.17050000  1.0 0.1494094995
H  H237  1  0.53280000  0.71630000  0.16290000  1.0 0.1210915633
H  H238  1  0.61640000  0.69520000  0.35040000  1.0 0.1210915633
H  H239  1  0.65580000  0.69760000  0.30170000  1.0 0.1272977434
H  H240  1  0.62930000  0.73340000  0.30560000  1.0 0.1494094995
H  H241  1  0.56500000  0.96740000  0.20560000  1.0 0.1409460434
H  H242  1  0.55920000  0.92400000  0.18650000  1.0 0.1494094995
H  H243  1  0.52930000  0.95370000  0.15230000  1.0 0.1272977434
H  H244  1  0.73410000  0.80050000  0.56030000  1.0 0.0516841023
H  H245  1  0.71850000  0.81550000  0.46910000  1.0 0.0811859687
H  H246  1  0.75060000  0.78460000  0.47060000  1.0 0.0608452139
H  H247  1  0.54310000  0.86850000  0.94160000  1.0 0.0811859687
H  H248  1  0.57430000  0.86750000  0.01610000  1.0 0.1000822805
H  H249  1  0.53120000  0.86890000  0.04230000  1.0 0.090395772
H  H250  1  0.68590000  0.95510000  0.93980000  1.0 0.0608452139
H  H251  1  0.68460000  0.93050000  0.02690000  1.0 0.0516841023
H  H252  1  0.68700000  0.97490000  0.03330000  1.0 0.0608452139
H  H253  1  0.75350000  0.45440000  0.21210000  1.0 0.1409460434
H  H254  1  0.72630000  0.42390000  0.17050000  1.0 0.1494094995
H  H255  1  0.71630000  0.46720000  0.16290000  1.0 0.1210915633
H  H256  1  0.69520000  0.38360000  0.35040000  1.0 0.1210915633
H  H257  1  0.69760000  0.34420000  0.30170000  1.0 0.1272977434
H  H258  1  0.73340000  0.37070000  0.30560000  1.0 0.1494094995
H  H259  1  0.96740000  0.43500000  0.20560000  1.0 0.1409460434
H  H260  1  0.92400000  0.44080000  0.18650000  1.0 0.1494094995
H  H261  1  0.95370000  0.47070000  0.15230000  1.0 0.1272977434
H  H262  1  0.80050000  0.26590000  0.56030000  1.0 0.0516841023
H  H263  1  0.81550000  0.28150000  0.46910000  1.0 0.0811859687
H  H264  1  0.78460000  0.24940000  0.47060000  1.0 0.0608452139
H  H265  1  0.86850000  0.45690000  0.94160000  1.0 0.0811859687
H  H266  1  0.86750000  0.42570000  0.01610000  1.0 0.1000822805
H  H267  1  0.86890000  0.46880000  0.04230000  1.0 0.090395772
H  H268  1  0.95510000  0.31410000  0.93980000  1.0 0.0608452139
H  H269  1  0.93050000  0.31540000  0.02690000  1.0 0.0516841023
H  H270  1  0.97490000  0.31300000  0.03330000  1.0 0.0608452139
H  H271  1  0.24650000  0.54560000  0.21210000  1.0 0.1409460434
H  H272  1  0.27370000  0.57610000  0.17050000  1.0 0.1494094995
H  H273  1  0.28370000  0.53280000  0.16290000  1.0 0.1210915633
H  H274  1  0.30480000  0.61640000  0.35040000  1.0 0.1210915633
H  H275  1  0.30240000  0.65580000  0.30170000  1.0 0.1272977434
H  H276  1  0.26660000  0.62930000  0.30560000  1.0 0.1494094995
H  H277  1  0.03260000  0.56500000  0.20560000  1.0 0.1409460434
H  H278  1  0.07600000  0.55920000  0.18650000  1.0 0.1494094995
H  H279  1  0.04630000  0.52930000  0.15230000  1.0 0.1272977434
H  H280  1  0.19950000  0.73410000  0.56030000  1.0 0.0516841023
H  H281  1  0.18450000  0.71850000  0.46910000  1.0 0.0811859687
H  H282  1  0.21540000  0.75060000  0.47060000  1.0 0.0516841023
H  H283  1  0.13150000  0.54310000  0.94160000  1.0 0.0811859687
H  H284  1  0.13250000  0.57430000  0.01610000  1.0 0.1000822805
H  H285  1  0.13110000  0.53120000  0.04230000  1.0 0.090395772
H  H286  1  0.04490000  0.68590000  0.93980000  1.0 0.0608452139
H  H287  1  0.06950000  0.68460000  0.02690000  1.0 0.0516841023
H  H288  1  0.02510000  0.68700000  0.03330000  1.0 0.0608452139
H  H289  1  0.54950000  0.28590000  0.00000000  1.0 0.1409460434
H  H290  1  0.53210000  0.05020000  0.00000000  1.0 0.1210915633
H  H291  1  0.45050000  0.71410000  0.00000000  1.0 0.1409460434
H  H292  1  0.46790000  0.94980000  0.00000000  1.0 0.1210915633
H  H293  1  0.28590000  0.45050000  0.00000000  1.0 0.1409460434
H  H294  1  0.05020000  0.46790000  0.00000000  1.0 0.1210915633
H  H295  1  0.71410000  0.54950000  0.00000000  1.0 0.1409460434
H  H296  1  0.94980000  0.53210000  0.00000000  1.0 0.1210915633
H  H297  1  0.54950000  0.71410000  0.00000000  1.0 0.1409460434
H  H298  1  0.53210000  0.94980000  0.00000000  1.0 0.1210915633
H  H299  1  0.45050000  0.28590000  0.00000000  1.0 0.1409460434
H  H300  1  0.46790000  0.05020000  0.00000000  1.0 0.1210915633
H  H301  1  0.28590000  0.54950000  0.00000000  1.0 0.1409460434
H  H302  1  0.05020000  0.53210000  0.00000000  1.0 0.1210915633
H  H303  1  0.71410000  0.45050000  0.00000000  1.0 0.1409460434
H  H304  1  0.94980000  0.46790000  0.00000000  1.0 0.1210915633
H  H305  1  0.62510000  0.30940000  0.50000000  1.0 0.1494094995
H  H306  1  0.37490000  0.69060000  0.50000000  1.0 0.1494094995
H  H307  1  0.30940000  0.37490000  0.50000000  1.0 0.1494094995
H  H308  1  0.69060000  0.62510000  0.50000000  1.0 0.1494094995
H  H309  1  0.62510000  0.69060000  0.50000000  1.0 0.1494094995
H  H310  1  0.37490000  0.30940000  0.50000000  1.0 0.1494094995
H  H311  1  0.30940000  0.62510000  0.50000000  1.0 0.1494094995
H  H312  1  0.69060000  0.37490000  0.50000000  1.0 0.1494094995
C  C1  1  0.56950000  0.14700000  0.27620000  1.0 0.4678291582
C  C2  1  0.57690000  0.17310000  0.19910000  1.0 0.3599862137
C  C3  1  0.70490000  0.19600000  0.22010000  1.0 0.4797812082
C  C4  1  0.68590000  0.20790000  0.30670000  1.0 0.3528540709
C  C5  1  0.64510000  0.07500000  0.19300000  1.0 0.3417781309
C  C6  1  0.66490000  0.07270000  0.28100000  1.0 0.4678291582
C  C7  1  0.54730000  0.20359000  0.07720000  1.0 0.1079223367
C  C8  1  0.54890000  0.24270000  0.08080000  1.0 0.1000822805
C  C9  1  0.55100000  0.26340000  0.16350000  1.0 -0.4182498652
C  C10  1  0.68440000  0.25100000  0.42240000  1.0 0.1079223367
C  C11  1  0.65600000  0.27690000  0.42130000  1.0 0.0811859687
C  C12  1  0.63780000  0.28870000  0.33740000  1.0 -0.4122928535
C  C13  1  0.61570000  0.04463000  0.07830000  1.0 0.090395772
C  C14  1  0.57650000  0.04710000  0.08160000  1.0 0.090395772
C  C15  1  0.55580000  0.05080000  0.16320000  1.0 -0.4398751579
C  C16  1  0.43050000  0.85300000  0.27620000  1.0 0.4678291582
C  C17  1  0.42310000  0.82690000  0.19910000  1.0 0.3599862137
C  C18  1  0.29510000  0.80400000  0.22010000  1.0 0.4797812082
C  C19  1  0.31410000  0.79210000  0.30670000  1.0 0.3528540709
C  C20  1  0.35490000  0.92500000  0.19300000  1.0 0.3417781309
C  C21  1  0.33510000  0.92730000  0.28100000  1.0 0.4678291582
C  C22  1  0.45270000  0.79641000  0.07720000  1.0 0.1079223367
C  C23  1  0.45110000  0.75730000  0.08080000  1.0 0.1000822805
C  C24  1  0.44900000  0.73660000  0.16350000  1.0 -0.4182498652
C  C25  1  0.31560000  0.74900000  0.42240000  1.0 0.1079223367
C  C26  1  0.34400000  0.72310000  0.42130000  1.0 0.0811859687
C  C27  1  0.36220000  0.71130000  0.33740000  1.0 -0.4122928535
C  C28  1  0.38430000  0.95537000  0.07830000  1.0 0.090395772
C  C29  1  0.42350000  0.95290000  0.08160000  1.0 0.090395772
C  C30  1  0.44420000  0.94920000  0.16320000  1.0 -0.4398751579
C  C31  1  0.14700000  0.43050000  0.27620000  1.0 0.4678291582
C  C32  1  0.17310000  0.42310000  0.19910000  1.0 0.3599862137
C  C33  1  0.19600000  0.29510000  0.22010000  1.0 0.4797812082
C  C34  1  0.20790000  0.31410000  0.30670000  1.0 0.3528540709
C  C35  1  0.07500000  0.35490000  0.19300000  1.0 0.3417781309
C  C36  1  0.07270000  0.33510000  0.28100000  1.0 0.4678291582
C  C37  1  0.20359000  0.45270000  0.07720000  1.0 0.1079223367
C  C38  1  0.24270000  0.45110000  0.08080000  1.0 0.1000822805
C  C39  1  0.26340000  0.44900000  0.16350000  1.0 -0.4182498652
C  C40  1  0.25100000  0.31560000  0.42240000  1.0 0.1079223367
C  C41  1  0.27690000  0.34400000  0.42130000  1.0 0.0811859687
C  C42  1  0.28870000  0.36220000  0.33740000  1.0 -0.4122928535
C  C43  1  0.04463000  0.38430000  0.07830000  1.0 0.090395772
C  C44  1  0.04710000  0.42350000  0.08160000  1.0 0.090395772
C  C45  1  0.05080000  0.44420000  0.16320000  1.0 -0.4398751579
C  C46  1  0.85300000  0.56950000  0.27620000  1.0 0.4678291582
C  C47  1  0.82690000  0.57690000  0.19910000  1.0 0.3599862137
C  C48  1  0.80400000  0.70490000  0.22010000  1.0 0.4797812082
C  C49  1  0.79210000  0.68590000  0.30670000  1.0 0.3528540709
C  C50  1  0.92500000  0.64510000  0.19300000  1.0 0.3417781309
C  C51  1  0.92730000  0.66490000  0.28100000  1.0 0.4678291582
C  C52  1  0.79641000  0.54730000  0.07720000  1.0 0.1079223367
C  C53  1  0.75730000  0.54890000  0.08080000  1.0 0.1000822805
C  C54  1  0.73660000  0.55100000  0.16350000  1.0 -0.4182498652
C  C55  1  0.74900000  0.68440000  0.42240000  1.0 0.1079223367
C  C56  1  0.72310000  0.65600000  0.42130000  1.0 0.0811859687
C  C57  1  0.71130000  0.63780000  0.33740000  1.0 -0.4122928535
C  C58  1  0.95537000  0.61570000  0.07830000  1.0 0.090395772
C  C59  1  0.95290000  0.57650000  0.08160000  1.0 0.090395772
C  C60  1  0.94920000  0.55580000  0.16320000  1.0 -0.4398751579
C  C61  1  0.56950000  0.85300000  0.72380000  1.0 0.4678291582
C  C62  1  0.57690000  0.82690000  0.80090000  1.0 0.3599862137
C  C63  1  0.70490000  0.80400000  0.77990000  1.0 0.4797812082
C  C64  1  0.68590000  0.79210000  0.69330000  1.0 0.3528540709
C  C65  1  0.64510000  0.92500000  0.80700000  1.0 0.3417781309
C  C66  1  0.66490000  0.92730000  0.71900000  1.0 0.4678291582
C  C67  1  0.54730000  0.79641000  0.92280000  1.0 0.1079223367
C  C68  1  0.54890000  0.75730000  0.91920000  1.0 0.1000822805
C  C69  1  0.55100000  0.73660000  0.83650000  1.0 -0.4182498652
C  C70  1  0.68440000  0.74900000  0.57760000  1.0 0.1079223367
C  C71  1  0.65600000  0.72310000  0.57870000  1.0 0.0811859687
C  C72  1  0.63780000  0.71130000  0.66260000  1.0 -0.4122928535
C  C73  1  0.61570000  0.95537000  0.92170000  1.0 0.090395772
C  C74  1  0.57650000  0.95290000  0.91840000  1.0 0.090395772
C  C75  1  0.55580000  0.94920000  0.83680000  1.0 -0.4398751579
C  C76  1  0.43050000  0.14700000  0.72380000  1.0 0.4678291582
C  C77  1  0.42310000  0.17310000  0.80090000  1.0 0.3599862137
C  C78  1  0.29510000  0.19600000  0.77990000  1.0 0.4797812082
C  C79  1  0.31410000  0.20790000  0.69330000  1.0 0.3528540709
C  C80  1  0.35490000  0.07500000  0.80700000  1.0 0.3417781309
C  C81  1  0.33510000  0.07270000  0.71900000  1.0 0.4678291582
C  C82  1  0.45270000  0.20359000  0.92280000  1.0 0.1079223367
C  C83  1  0.45110000  0.24270000  0.91920000  1.0 0.1000822805
C  C84  1  0.44900000  0.26340000  0.83650000  1.0 -0.4182498652
C  C85  1  0.31560000  0.25100000  0.57760000  1.0 0.1079223367
C  C86  1  0.34400000  0.27690000  0.57870000  1.0 0.0811859687
C  C87  1  0.36220000  0.28870000  0.66260000  1.0 -0.4122928535
C  C88  1  0.38430000  0.04463000  0.92170000  1.0 0.090395772
C  C89  1  0.42350000  0.04710000  0.91840000  1.0 0.090395772
C  C90  1  0.44420000  0.05080000  0.83680000  1.0 -0.4398751579
C  C91  1  0.14700000  0.56950000  0.72380000  1.0 0.4678291582
C  C92  1  0.17310000  0.57690000  0.80090000  1.0 0.3599862137
C  C93  1  0.19600000  0.70490000  0.77990000  1.0 0.4797812082
C  C94  1  0.20790000  0.68590000  0.69330000  1.0 0.3528540709
C  C95  1  0.07500000  0.64510000  0.80700000  1.0 0.3417781309
C  C96  1  0.07270000  0.66490000  0.71900000  1.0 0.4678291582
C  C97  1  0.20359000  0.54730000  0.92280000  1.0 0.1079223367
C  C98  1  0.24270000  0.54890000  0.91920000  1.0 0.1000822805
C  C99  1  0.26340000  0.55100000  0.83650000  1.0 -0.4182498652
C  C100  1  0.25100000  0.68440000  0.57760000  1.0 0.1079223367
C  C101  1  0.27690000  0.65600000  0.57870000  1.0 0.0811859687
C  C102  1  0.28870000  0.63780000  0.66260000  1.0 -0.4122928535
C  C103  1  0.04463000  0.61570000  0.92170000  1.0 0.090395772
C  C104  1  0.04710000  0.57650000  0.91840000  1.0 0.090395772
C  C105  1  0.05080000  0.55580000  0.83680000  1.0 -0.4398751579
C  C106  1  0.85300000  0.43050000  0.72380000  1.0 0.4678291582
C  C107  1  0.82690000  0.42310000  0.80090000  1.0 0.3599862137
C  C108  1  0.80400000  0.29510000  0.77990000  1.0 0.4797812082
C  C109  1  0.79210000  0.31410000  0.69330000  1.0 0.3528540709
C  C110  1  0.92500000  0.35490000  0.80700000  1.0 0.3417781309
C  C111  1  0.92730000  0.33510000  0.71900000  1.0 0.4678291582
C  C112  1  0.79641000  0.45270000  0.92280000  1.0 0.1079223367
C  C113  1  0.75730000  0.45110000  0.91920000  1.0 0.1000822805
C  C114  1  0.73660000  0.44900000  0.83650000  1.0 -0.4182498652
C  C115  1  0.74900000  0.31560000  0.57760000  1.0 0.1079223367
C  C116  1  0.72310000  0.34400000  0.57870000  1.0 0.0811859687
C  C117  1  0.71130000  0.36220000  0.66260000  1.0 -0.4122928535
C  C118  1  0.95537000  0.38430000  0.92170000  1.0 0.090395772
C  C119  1  0.95290000  0.42350000  0.91840000  1.0 0.090395772
C  C120  1  0.94920000  0.44420000  0.83680000  1.0 -0.4398751579
C  C121  1  0.43050000  0.85300000  0.72380000  1.0 0.4678291582
C  C122  1  0.42310000  0.82690000  0.80090000  1.0 0.3599862137
C  C123  1  0.29510000  0.80400000  0.77990000  1.0 0.4797812082
C  C124  1  0.31410000  0.79210000  0.69330000  1.0 0.3528540709
C  C125  1  0.35490000  0.92500000  0.80700000  1.0 0.3417781309
C  C126  1  0.33510000  0.92730000  0.71900000  1.0 0.4678291582
C  C127  1  0.45270000  0.79641000  0.92280000  1.0 0.1079223367
C  C128  1  0.45110000  0.75730000  0.91920000  1.0 0.1000822805
C  C129  1  0.44900000  0.73660000  0.83650000  1.0 -0.4182498652
C  C130  1  0.31560000  0.74900000  0.57760000  1.0 0.1079223367
C  C131  1  0.34400000  0.72310000  0.57870000  1.0 0.0811859687
C  C132  1  0.36220000  0.71130000  0.66260000  1.0 -0.4122928535
C  C133  1  0.38430000  0.95537000  0.92170000  1.0 0.090395772
C  C134  1  0.42350000  0.95290000  0.91840000  1.0 0.090395772
C  C135  1  0.44420000  0.94920000  0.83680000  1.0 -0.4398751579
C  C136  1  0.56950000  0.14700000  0.72380000  1.0 0.4678291582
C  C137  1  0.57690000  0.17310000  0.80090000  1.0 0.3599862137
C  C138  1  0.70490000  0.19600000  0.77990000  1.0 0.4797812082
C  C139  1  0.68590000  0.20790000  0.69330000  1.0 0.3528540709
C  C140  1  0.64510000  0.07500000  0.80700000  1.0 0.3417781309
C  C141  1  0.66490000  0.07270000  0.71900000  1.0 0.4678291582
C  C142  1  0.54730000  0.20359000  0.92280000  1.0 0.1079223367
C  C143  1  0.54890000  0.24270000  0.91920000  1.0 0.1000822805
C  C144  1  0.55100000  0.26340000  0.83650000  1.0 -0.4182498652
C  C145  1  0.68440000  0.25100000  0.57760000  1.0 0.1079223367
C  C146  1  0.65600000  0.27690000  0.57870000  1.0 0.0811859687
C  C147  1  0.63780000  0.28870000  0.66260000  1.0 -0.4122928535
C  C148  1  0.61570000  0.04463000  0.92170000  1.0 0.090395772
C  C149  1  0.57650000  0.04710000  0.91840000  1.0 0.090395772
C  C150  1  0.55580000  0.05080000  0.83680000  1.0 -0.4398751579
C  C151  1  0.85300000  0.56950000  0.72380000  1.0 0.4678291582
C  C152  1  0.82690000  0.57690000  0.80090000  1.0 0.3599862137
C  C153  1  0.80400000  0.70490000  0.77990000  1.0 0.4797812082
C  C154  1  0.79210000  0.68590000  0.69330000  1.0 0.3528540709
C  C155  1  0.92500000  0.64510000  0.80700000  1.0 0.3417781309
C  C156  1  0.92730000  0.66490000  0.71900000  1.0 0.4678291582
C  C157  1  0.79641000  0.54730000  0.92280000  1.0 0.1079223367
C  C158  1  0.75730000  0.54890000  0.91920000  1.0 0.1000822805
C  C159  1  0.73660000  0.55100000  0.83650000  1.0 -0.4182498652
C  C160  1  0.74900000  0.68440000  0.57760000  1.0 0.1079223367
C  C161  1  0.72310000  0.65600000  0.57870000  1.0 0.0811859687
C  C162  1  0.71130000  0.63780000  0.66260000  1.0 -0.4122928535
C  C163  1  0.95537000  0.61570000  0.92170000  1.0 0.090395772
C  C164  1  0.95290000  0.57650000  0.91840000  1.0 0.090395772
C  C165  1  0.94920000  0.55580000  0.83680000  1.0 -0.4398751579
C  C166  1  0.14700000  0.43050000  0.72380000  1.0 0.4678291582
C  C167  1  0.17310000  0.42310000  0.80090000  1.0 0.3599862137
C  C168  1  0.19600000  0.29510000  0.77990000  1.0 0.4797812082
C  C169  1  0.20790000  0.31410000  0.69330000  1.0 0.3528540709
C  C170  1  0.07500000  0.35490000  0.80700000  1.0 0.3417781309
C  C171  1  0.07270000  0.33510000  0.71900000  1.0 0.4678291582
C  C172  1  0.20359000  0.45270000  0.92280000  1.0 0.1079223367
C  C173  1  0.24270000  0.45110000  0.91920000  1.0 0.1000822805
C  C174  1  0.26340000  0.44900000  0.83650000  1.0 -0.4182498652
C  C175  1  0.25100000  0.31560000  0.57760000  1.0 0.1079223367
C  C176  1  0.27690000  0.34400000  0.57870000  1.0 0.0811859687
C  C177  1  0.28870000  0.36220000  0.66260000  1.0 -0.4122928535
C  C178  1  0.04463000  0.38430000  0.92170000  1.0 0.090395772
C  C179  1  0.04710000  0.42350000  0.91840000  1.0 0.090395772
C  C180  1  0.05080000  0.44420000  0.83680000  1.0 -0.4398751579
C  C181  1  0.43050000  0.14700000  0.27620000  1.0 0.4678291582
C  C182  1  0.42310000  0.17310000  0.19910000  1.0 0.3599862137
C  C183  1  0.29510000  0.19600000  0.22010000  1.0 0.4797812082
C  C184  1  0.31410000  0.20790000  0.30670000  1.0 0.3528540709
C  C185  1  0.35490000  0.07500000  0.19300000  1.0 0.3417781309
C  C186  1  0.33510000  0.07270000  0.28100000  1.0 0.4678291582
C  C187  1  0.45270000  0.20359000  0.07720000  1.0 0.1079223367
C  C188  1  0.45110000  0.24270000  0.08080000  1.0 0.1000822805
C  C189  1  0.44900000  0.26340000  0.16350000  1.0 -0.4182498652
C  C190  1  0.31560000  0.25100000  0.42240000  1.0 0.1079223367
C  C191  1  0.34400000  0.27690000  0.42130000  1.0 0.0811859687
C  C192  1  0.36220000  0.28870000  0.33740000  1.0 -0.4122928535
C  C193  1  0.38430000  0.04463000  0.07830000  1.0 0.090395772
C  C194  1  0.42350000  0.04710000  0.08160000  1.0 0.090395772
C  C195  1  0.44420000  0.05080000  0.16320000  1.0 -0.4398751579
C  C196  1  0.56950000  0.85300000  0.27620000  1.0 0.4678291582
C  C197  1  0.57690000  0.82690000  0.19910000  1.0 0.3599862137
C  C198  1  0.70490000  0.80400000  0.22010000  1.0 0.4797812082
C  C199  1  0.68590000  0.79210000  0.30670000  1.0 0.3528540709
C  C200  1  0.64510000  0.92500000  0.19300000  1.0 0.3417781309
C  C201  1  0.66490000  0.92730000  0.28100000  1.0 0.4678291582
C  C202  1  0.54730000  0.79641000  0.07720000  1.0 0.1079223367
C  C203  1  0.54890000  0.75730000  0.08080000  1.0 0.1000822805
C  C204  1  0.55100000  0.73660000  0.16350000  1.0 -0.4182498652
C  C205  1  0.68440000  0.74900000  0.42240000  1.0 0.1079223367
C  C206  1  0.65600000  0.72310000  0.42130000  1.0 0.0811859687
C  C207  1  0.63780000  0.71130000  0.33740000  1.0 -0.4122928535
C  C208  1  0.61570000  0.95537000  0.07830000  1.0 0.090395772
C  C209  1  0.57650000  0.95290000  0.08160000  1.0 0.090395772
C  C210  1  0.55580000  0.94920000  0.16320000  1.0 -0.4398751579
C  C211  1  0.85300000  0.43050000  0.27620000  1.0 0.4678291582
C  C212  1  0.82690000  0.42310000  0.19910000  1.0 0.3599862137
C  C213  1  0.80400000  0.29510000  0.22010000  1.0 0.4797812082
C  C214  1  0.79210000  0.31410000  0.30670000  1.0 0.3528540709
C  C215  1  0.92500000  0.35490000  0.19300000  1.0 0.3417781309
C  C216  1  0.92730000  0.33510000  0.28100000  1.0 0.4678291582
C  C217  1  0.79641000  0.45270000  0.07720000  1.0 0.1079223367
C  C218  1  0.75730000  0.45110000  0.08080000  1.0 0.1000822805
C  C219  1  0.73660000  0.44900000  0.16350000  1.0 -0.4182498652
C  C220  1  0.74900000  0.31560000  0.42240000  1.0 0.1079223367
C  C221  1  0.72310000  0.34400000  0.42130000  1.0 0.0811859687
C  C222  1  0.71130000  0.36220000  0.33740000  1.0 -0.4122928535
C  C223  1  0.95537000  0.38430000  0.07830000  1.0 0.090395772
C  C224  1  0.95290000  0.42350000  0.08160000  1.0 0.090395772
C  C225  1  0.94920000  0.44420000  0.16320000  1.0 -0.4398751579
C  C226  1  0.14700000  0.56950000  0.27620000  1.0 0.4678291582
C  C227  1  0.17310000  0.57690000  0.19910000  1.0 0.3599862137
C  C228  1  0.19600000  0.70490000  0.22010000  1.0 0.4797812082
C  C229  1  0.20790000  0.68590000  0.30670000  1.0 0.3528540709
C  C230  1  0.07500000  0.64510000  0.19300000  1.0 0.3417781309
C  C231  1  0.07270000  0.66490000  0.28100000  1.0 0.4678291582
C  C232  1  0.20359000  0.54730000  0.07720000  1.0 0.1079223367
C  C233  1  0.24270000  0.54890000  0.08080000  1.0 0.1000822805
C  C234  1  0.26340000  0.55100000  0.16350000  1.0 -0.4182498652
C  C235  1  0.25100000  0.68440000  0.42240000  1.0 0.1079223367
C  C236  1  0.27690000  0.65600000  0.42130000  1.0 0.0811859687
C  C237  1  0.28870000  0.63780000  0.33740000  1.0 -0.4122928535
C  C238  1  0.04463000  0.61570000  0.07830000  1.0 0.090395772
C  C239  1  0.04710000  0.57650000  0.08160000  1.0 0.090395772
C  C240  1  0.05080000  0.55580000  0.16320000  1.0 -0.4398751579
C  C241  1  0.54790000  0.18310000  0.00000000  1.0 -0.0211068376
C  C242  1  0.54910000  0.25950000  0.00000000  1.0 -0.2504309438
C  C243  1  0.54920000  0.14080000  0.00000000  1.0 -0.3321432791
C  C244  1  0.55850000  0.04830000  0.00000000  1.0 -0.2425491934
C  C245  1  0.63620000  0.04380000  0.00000000  1.0 -0.0597807941
C  C246  1  0.67670000  0.04600000  0.00000000  1.0 -0.2425491934
C  C247  1  0.45210000  0.81690000  0.00000000  1.0 -0.0211068376
C  C248  1  0.45090000  0.74050000  0.00000000  1.0 -0.2504309438
C  C249  1  0.45080000  0.85920000  0.00000000  1.0 -0.3321432791
C  C250  1  0.44150000  0.95170000  0.00000000  1.0 -0.2425491934
C  C251  1  0.36380000  0.95620000  0.00000000  1.0 -0.0597807941
C  C252  1  0.32330000  0.95400000  0.00000000  1.0 -0.2425491934
C  C253  1  0.18310000  0.45210000  0.00000000  1.0 -0.0211068376
C  C254  1  0.25950000  0.45090000  0.00000000  1.0 -0.2504309438
C  C255  1  0.14080000  0.45080000  0.00000000  1.0 -0.3321432791
C  C256  1  0.04830000  0.44150000  0.00000000  1.0 -0.2425491934
C  C257  1  0.04380000  0.36380000  0.00000000  1.0 -0.0597807941
C  C258  1  0.04600000  0.32330000  0.00000000  1.0 -0.2425491934
C  C259  1  0.81690000  0.54790000  0.00000000  1.0 -0.0211068376
C  C260  1  0.74050000  0.54910000  0.00000000  1.0 -0.2504309438
C  C261  1  0.85920000  0.54920000  0.00000000  1.0 -0.3321432791
C  C262  1  0.95170000  0.55850000  0.00000000  1.0 -0.2425491934
C  C263  1  0.95620000  0.63620000  0.00000000  1.0 -0.0597807941
C  C264  1  0.95400000  0.67670000  0.00000000  1.0 -0.2425491934
C  C265  1  0.54790000  0.81690000  0.00000000  1.0 -0.0211068376
C  C266  1  0.54910000  0.74050000  0.00000000  1.0 -0.2504309438
C  C267  1  0.54920000  0.85920000  0.00000000  1.0 -0.3321432791
C  C268  1  0.55850000  0.95170000  0.00000000  1.0 -0.2425491934
C  C269  1  0.63620000  0.95620000  0.00000000  1.0 -0.0597807941
C  C270  1  0.67670000  0.95400000  0.00000000  1.0 -0.2425491934
C  C271  1  0.45210000  0.18310000  0.00000000  1.0 -0.0211068376
C  C272  1  0.45090000  0.25950000  0.00000000  1.0 -0.2504309438
C  C273  1  0.45080000  0.14080000  0.00000000  1.0 -0.3321432791
C  C274  1  0.44150000  0.04830000  0.00000000  1.0 -0.2425491934
C  C275  1  0.36380000  0.04380000  0.00000000  1.0 -0.0597807941
C  C276  1  0.32330000  0.04600000  0.00000000  1.0 -0.2425491934
C  C277  1  0.18310000  0.54790000  0.00000000  1.0 -0.0211068376
C  C278  1  0.25950000  0.54910000  0.00000000  1.0 -0.2504309438
C  C279  1  0.14080000  0.54920000  0.00000000  1.0 -0.3321432791
C  C280  1  0.04830000  0.55850000  0.00000000  1.0 -0.2425491934
C  C281  1  0.04380000  0.63620000  0.00000000  1.0 -0.0597807941
C  C282  1  0.04600000  0.67670000  0.00000000  1.0 -0.2425491934
C  C283  1  0.81690000  0.45210000  0.00000000  1.0 -0.0211068376
C  C284  1  0.74050000  0.45090000  0.00000000  1.0 -0.2504309438
C  C285  1  0.85920000  0.45080000  0.00000000  1.0 -0.3321432791
C  C286  1  0.95170000  0.44150000  0.00000000  1.0 -0.2425491934
C  C287  1  0.95620000  0.36380000  0.00000000  1.0 -0.0597807941
C  C288  1  0.95400000  0.32330000  0.00000000  1.0 -0.2425491934
C  C289  1  0.69970000  0.23600000  0.50000000  1.0 -0.0086886482
C  C290  1  0.64330000  0.29020000  0.50000000  1.0 -0.219488324
C  C291  1  0.72810000  0.20640000  0.50000000  1.0 -0.2504309438
C  C292  1  0.30030000  0.76400000  0.50000000  1.0 -0.0086886482
C  C293  1  0.35670000  0.70980000  0.50000000  1.0 -0.219488324
C  C294  1  0.27190000  0.79360000  0.50000000  1.0 -0.2504309438
C  C295  1  0.23600000  0.30030000  0.50000000  1.0 -0.0086886482
C  C296  1  0.29020000  0.35670000  0.50000000  1.0 -0.219488324
C  C297  1  0.20640000  0.27190000  0.50000000  1.0 -0.2504309438
C  C298  1  0.76400000  0.69970000  0.50000000  1.0 -0.0086886482
C  C299  1  0.70980000  0.64330000  0.50000000  1.0 -0.219488324
C  C300  1  0.79360000  0.72810000  0.50000000  1.0 -0.2504309438
C  C301  1  0.69970000  0.76400000  0.50000000  1.0 -0.0086886482
C  C302  1  0.64330000  0.70980000  0.50000000  1.0 -0.219488324
C  C303  1  0.72810000  0.79360000  0.50000000  1.0 -0.2504309438
C  C304  1  0.30030000  0.23600000  0.50000000  1.0 -0.0086886482
C  C305  1  0.35670000  0.29020000  0.50000000  1.0 -0.219488324
C  C306  1  0.27190000  0.20640000  0.50000000  1.0 -0.2504309438
C  C307  1  0.23600000  0.69970000  0.50000000  1.0 -0.0086886482
C  C308  1  0.29020000  0.64330000  0.50000000  1.0 -0.219488324
C  C309  1  0.20640000  0.72810000  0.50000000  1.0 -0.2504309438
C  C310  1  0.76400000  0.30030000  0.50000000  1.0 -0.0086886482
C  C311  1  0.70980000  0.35670000  0.50000000  1.0 -0.219488324
C  C312  1  0.79360000  0.27190000  0.50000000  1.0 -0.2504309438
N  N1  1  0.54408000  0.18290000  0.15850000  1.0 -0.5105126335
N  N2  1  0.69998000  0.23771000  0.34010000  1.0 -0.4182498652
N  N3  1  0.63651000  0.04268000  0.15940000  1.0 -0.4289909679
N  N4  1  0.45592000  0.81710000  0.15850000  1.0 -0.5105126335
N  N5  1  0.30002000  0.76229000  0.34010000  1.0 -0.4182498652
N  N6  1  0.36349000  0.95732000  0.15940000  1.0 -0.4289909679
N  N7  1  0.18290000  0.45592000  0.15850000  1.0 -0.5105126335
N  N8  1  0.23771000  0.30002000  0.34010000  1.0 -0.4182498652
N  N9  1  0.04268000  0.36349000  0.15940000  1.0 -0.4289909679
N  N10  1  0.81710000  0.54408000  0.15850000  1.0 -0.5105126335
N  N11  1  0.76229000  0.69998000  0.34010000  1.0 -0.4182498652
N  N12  1  0.95732000  0.63651000  0.15940000  1.0 -0.4289909679
N  N13  1  0.54408000  0.81710000  0.84150000  1.0 -0.5105126335
N  N14  1  0.69998000  0.76229000  0.65990000  1.0 -0.4122928535
N  N15  1  0.63651000  0.95732000  0.84060000  1.0 -0.4289909679
N  N16  1  0.45592000  0.18290000  0.84150000  1.0 -0.5105126335
N  N17  1  0.30002000  0.23771000  0.65990000  1.0 -0.4182498652
N  N18  1  0.36349000  0.04268000  0.84060000  1.0 -0.4289909679
N  N19  1  0.18290000  0.54408000  0.84150000  1.0 -0.5105126335
N  N20  1  0.23771000  0.69998000  0.65990000  1.0 -0.4182498652
N  N21  1  0.04268000  0.63651000  0.84060000  1.0 -0.4289909679
N  N22  1  0.81710000  0.45592000  0.84150000  1.0 -0.5105126335
N  N23  1  0.76229000  0.30002000  0.65990000  1.0 -0.4182498652
N  N24  1  0.95732000  0.36349000  0.84060000  1.0 -0.4289909679
N  N25  1  0.45592000  0.81710000  0.84150000  1.0 -0.5105126335
N  N26  1  0.30002000  0.76229000  0.65990000  1.0 -0.4182498652
N  N27  1  0.36349000  0.95732000  0.84060000  1.0 -0.4289909679
N  N28  1  0.54408000  0.18290000  0.84150000  1.0 -0.5105126335
N  N29  1  0.69998000  0.23771000  0.65990000  1.0 -0.4182498652
N  N30  1  0.63651000  0.04268000  0.84060000  1.0 -0.4289909679
N  N31  1  0.81710000  0.54408000  0.84150000  1.0 -0.5105126335
N  N32  1  0.76229000  0.69998000  0.65990000  1.0 -0.4122928535
N  N33  1  0.95732000  0.63651000  0.84060000  1.0 -0.4289909679
N  N34  1  0.18290000  0.45592000  0.84150000  1.0 -0.5105126335
N  N35  1  0.23771000  0.30002000  0.65990000  1.0 -0.4182498652
N  N36  1  0.04268000  0.36349000  0.84060000  1.0 -0.4289909679
N  N37  1  0.45592000  0.18290000  0.15850000  1.0 -0.5105126335
N  N38  1  0.30002000  0.23771000  0.34010000  1.0 -0.4182498652
N  N39  1  0.36349000  0.04268000  0.15940000  1.0 -0.4289909679
N  N40  1  0.54408000  0.81710000  0.15850000  1.0 -0.5105126335
N  N41  1  0.69998000  0.76229000  0.34010000  1.0 -0.4182498652
N  N42  1  0.63651000  0.95732000  0.15940000  1.0 -0.4289909679
N  N43  1  0.81710000  0.45592000  0.15850000  1.0 -0.5105126335
N  N44  1  0.76229000  0.30002000  0.34010000  1.0 -0.4182498652
N  N45  1  0.95732000  0.36349000  0.15940000  1.0 -0.4289909679
N  N46  1  0.18290000  0.54408000  0.15850000  1.0 -0.5105126335
N  N47  1  0.23771000  0.69998000  0.34010000  1.0 -0.4182498652
N  N48  1  0.04268000  0.63651000  0.15940000  1.0 -0.4289909679
O  O1  1  0.60891000  0.18197000  0.17960000  1.0 -0.4182498652
O  O2  1  0.59784000  0.13404000  0.31440000  1.0 -0.4566414639
O  O3  1  0.53598000  0.14129000  0.29660000  1.0 -0.4398751579
O  O4  1  0.65984000  0.18771000  0.33670000  1.0 -0.4289909679
O  O5  1  0.69208000  0.16650000  0.18570000  1.0 -0.4928383104
O  O6  1  0.73108000  0.21556000  0.19320000  1.0 -0.4709930395
O  O7  1  0.67265000  0.10396000  0.31440000  1.0 -0.4709930395
O  O8  1  0.63747000  0.10691000  0.16190000  1.0 -0.4953571673
O  O9  1  0.67383000  0.04077000  0.30640000  1.0 -0.44804116
O  O10  1  0.80190000  0.17740000  0.13590000  1.0 0.1625322035
O  O11  1  0.39109000  0.81803000  0.17960000  1.0 -0.4182498652
O  O12  1  0.40216000  0.86596000  0.31440000  1.0 -0.4566414639
O  O13  1  0.46402000  0.85871000  0.29660000  1.0 -0.4398751579
O  O14  1  0.34016000  0.81229000  0.33670000  1.0 -0.4289909679
O  O15  1  0.30792000  0.83350000  0.18570000  1.0 -0.4928383104
O  O16  1  0.26892000  0.78444000  0.19320000  1.0 -0.4709930395
O  O17  1  0.32735000  0.89604000  0.31440000  1.0 -0.4709930395
O  O18  1  0.36253000  0.89309000  0.16190000  1.0 -0.4953571673
O  O19  1  0.32617000  0.95923000  0.30640000  1.0 -0.44804116
O  O20  1  0.19810000  0.82260000  0.13590000  1.0 0.1625322035
O  O21  1  0.18197000  0.39109000  0.17960000  1.0 -0.4182498652
O  O22  1  0.13404000  0.40216000  0.31440000  1.0 -0.4566414639
O  O23  1  0.14129000  0.46402000  0.29660000  1.0 -0.4398751579
O  O24  1  0.18771000  0.34016000  0.33670000  1.0 -0.4289909679
O  O25  1  0.16650000  0.30792000  0.18570000  1.0 -0.4928383104
O  O26  1  0.21556000  0.26892000  0.19320000  1.0 -0.4709930395
O  O27  1  0.10396000  0.32735000  0.31440000  1.0 -0.4709930395
O  O28  1  0.10691000  0.36253000  0.16190000  1.0 -0.4953571673
O  O29  1  0.04077000  0.32617000  0.30640000  1.0 -0.44804116
O  O30  1  0.17740000  0.19810000  0.13590000  1.0 0.1625322035
O  O31  1  0.81803000  0.60891000  0.17960000  1.0 -0.4182498652
O  O32  1  0.86596000  0.59784000  0.31440000  1.0 -0.4566414639
O  O33  1  0.85871000  0.53598000  0.29660000  1.0 -0.4398751579
O  O34  1  0.81229000  0.65984000  0.33670000  1.0 -0.4289909679
O  O35  1  0.83350000  0.69208000  0.18570000  1.0 -0.4928383104
O  O36  1  0.78444000  0.73108000  0.19320000  1.0 -0.4709930395
O  O37  1  0.89604000  0.67265000  0.31440000  1.0 -0.4709930395
O  O38  1  0.89309000  0.63747000  0.16190000  1.0 -0.4953571673
O  O39  1  0.95923000  0.67383000  0.30640000  1.0 -0.44804116
O  O40  1  0.82260000  0.80190000  0.13590000  1.0 0.1625322035
O  O41  1  0.60891000  0.81803000  0.82040000  1.0 -0.4182498652
O  O42  1  0.59784000  0.86596000  0.68560000  1.0 -0.4566414639
O  O43  1  0.53598000  0.85871000  0.70340000  1.0 -0.4398751579
O  O44  1  0.65984000  0.81229000  0.66330000  1.0 -0.4289909679
O  O45  1  0.69208000  0.83350000  0.81430000  1.0 -0.4928383104
O  O46  1  0.73108000  0.78444000  0.80680000  1.0 -0.4709930395
O  O47  1  0.67265000  0.89604000  0.68560000  1.0 -0.4709930395
O  O48  1  0.63747000  0.89309000  0.83810000  1.0 -0.4953571673
O  O49  1  0.67383000  0.95923000  0.69360000  1.0 -0.44804116
O  O50  1  0.80190000  0.82260000  0.86410000  1.0 0.1625322035
O  O51  1  0.39109000  0.18197000  0.82040000  1.0 -0.4182498652
O  O52  1  0.40216000  0.13404000  0.68560000  1.0 -0.4566414639
O  O53  1  0.46402000  0.14129000  0.70340000  1.0 -0.4398751579
O  O54  1  0.34016000  0.18771000  0.66330000  1.0 -0.4289909679
O  O55  1  0.30792000  0.16650000  0.81430000  1.0 -0.4928383104
O  O56  1  0.26892000  0.21556000  0.80680000  1.0 -0.4709930395
O  O57  1  0.32735000  0.10396000  0.68560000  1.0 -0.4709930395
O  O58  1  0.36253000  0.10691000  0.83810000  1.0 -0.4953571673
O  O59  1  0.32617000  0.04077000  0.69360000  1.0 -0.44804116
O  O60  1  0.19810000  0.17740000  0.86410000  1.0 0.1625322035
O  O61  1  0.18197000  0.60891000  0.82040000  1.0 -0.4182498652
O  O62  1  0.13404000  0.59784000  0.68560000  1.0 -0.4566414639
O  O63  1  0.14129000  0.53598000  0.70340000  1.0 -0.4398751579
O  O64  1  0.18771000  0.65984000  0.66330000  1.0 -0.4289909679
O  O65  1  0.16650000  0.69208000  0.81430000  1.0 -0.4928383104
O  O66  1  0.21556000  0.73108000  0.80680000  1.0 -0.4709930395
O  O67  1  0.10396000  0.67265000  0.68560000  1.0 -0.4709930395
O  O68  1  0.10691000  0.63747000  0.83810000  1.0 -0.4953571673
O  O69  1  0.04077000  0.67383000  0.69360000  1.0 -0.44804116
O  O70  1  0.17740000  0.80190000  0.86410000  1.0 0.1625322035
O  O71  1  0.81803000  0.39109000  0.82040000  1.0 -0.4182498652
O  O72  1  0.86596000  0.40216000  0.68560000  1.0 -0.4566414639
O  O73  1  0.85871000  0.46402000  0.70340000  1.0 -0.4398751579
O  O74  1  0.81229000  0.34016000  0.66330000  1.0 -0.4289909679
O  O75  1  0.83350000  0.30792000  0.81430000  1.0 -0.4928383104
O  O76  1  0.78444000  0.26892000  0.80680000  1.0 -0.4709930395
O  O77  1  0.89604000  0.32735000  0.68560000  1.0 -0.4709930395
O  O78  1  0.89309000  0.36253000  0.83810000  1.0 -0.4953571673
O  O79  1  0.95923000  0.32617000  0.69360000  1.0 -0.44804116
O  O80  1  0.82260000  0.19810000  0.86410000  1.0 0.1625322035
O  O81  1  0.39109000  0.81803000  0.82040000  1.0 -0.4182498652
O  O82  1  0.40216000  0.86596000  0.68560000  1.0 -0.4566414639
O  O83  1  0.46402000  0.85871000  0.70340000  1.0 -0.4398751579
O  O84  1  0.34016000  0.81229000  0.66330000  1.0 -0.4289909679
O  O85  1  0.30792000  0.83350000  0.81430000  1.0 -0.4928383104
O  O86  1  0.26892000  0.78444000  0.80680000  1.0 -0.4709930395
O  O87  1  0.32735000  0.89604000  0.68560000  1.0 -0.4709930395
O  O88  1  0.36253000  0.89309000  0.83810000  1.0 -0.4953571673
O  O89  1  0.32617000  0.95923000  0.69360000  1.0 -0.44804116
O  O90  1  0.19810000  0.82260000  0.86410000  1.0 0.1625322035
O  O91  1  0.60891000  0.18197000  0.82040000  1.0 -0.4182498652
O  O92  1  0.59784000  0.13404000  0.68560000  1.0 -0.4566414639
O  O93  1  0.53598000  0.14129000  0.70340000  1.0 -0.4398751579
O  O94  1  0.65984000  0.18771000  0.66330000  1.0 -0.4289909679
O  O95  1  0.69208000  0.16650000  0.81430000  1.0 -0.4928383104
O  O96  1  0.73108000  0.21556000  0.80680000  1.0 -0.4709930395
O  O97  1  0.67265000  0.10396000  0.68560000  1.0 -0.4709930395
O  O98  1  0.63747000  0.10691000  0.83810000  1.0 -0.4953571673
O  O99  1  0.67383000  0.04077000  0.69360000  1.0 -0.44804116
O  O100  1  0.80190000  0.17740000  0.86410000  1.0 0.1625322035
O  O101  1  0.81803000  0.60891000  0.82040000  1.0 -0.4182498652
O  O102  1  0.86596000  0.59784000  0.68560000  1.0 -0.4566414639
O  O103  1  0.85871000  0.53598000  0.70340000  1.0 -0.4398751579
O  O104  1  0.81229000  0.65984000  0.66330000  1.0 -0.4289909679
O  O105  1  0.83350000  0.69208000  0.81430000  1.0 -0.4928383104
O  O106  1  0.78444000  0.73108000  0.80680000  1.0 -0.4709930395
O  O107  1  0.89604000  0.67265000  0.68560000  1.0 -0.4709930395
O  O108  1  0.89309000  0.63747000  0.83810000  1.0 -0.4953571673
O  O109  1  0.95923000  0.67383000  0.69360000  1.0 -0.44804116
O  O110  1  0.82260000  0.80190000  0.86410000  1.0 0.1625322035
O  O111  1  0.18197000  0.39109000  0.82040000  1.0 -0.4182498652
O  O112  1  0.13404000  0.40216000  0.68560000  1.0 -0.4566414639
O  O113  1  0.14129000  0.46402000  0.70340000  1.0 -0.4398751579
O  O114  1  0.18771000  0.34016000  0.66330000  1.0 -0.4289909679
O  O115  1  0.16650000  0.30792000  0.81430000  1.0 -0.4928383104
O  O116  1  0.21556000  0.26892000  0.80680000  1.0 -0.4709930395
O  O117  1  0.10396000  0.32735000  0.68560000  1.0 -0.4709930395
O  O118  1  0.10691000  0.36253000  0.83810000  1.0 -0.4953571673
O  O119  1  0.04077000  0.32617000  0.69360000  1.0 -0.44804116
O  O120  1  0.17740000  0.19810000  0.86410000  1.0 0.1625322035
O  O121  1  0.39109000  0.18197000  0.17960000  1.0 -0.4182498652
O  O122  1  0.40216000  0.13404000  0.31440000  1.0 -0.4566414639
O  O123  1  0.46402000  0.14129000  0.29660000  1.0 -0.4398751579
O  O124  1  0.34016000  0.18771000  0.33670000  1.0 -0.4289909679
O  O125  1  0.30792000  0.16650000  0.18570000  1.0 -0.4928383104
O  O126  1  0.26892000  0.21556000  0.19320000  1.0 -0.4709930395
O  O127  1  0.32735000  0.10396000  0.31440000  1.0 -0.4709930395
O  O128  1  0.36253000  0.10691000  0.16190000  1.0 -0.4953571673
O  O129  1  0.32617000  0.04077000  0.30640000  1.0 -0.44804116
O  O130  1  0.19810000  0.17740000  0.13590000  1.0 0.1625322035
O  O131  1  0.60891000  0.81803000  0.17960000  1.0 -0.4182498652
O  O132  1  0.59784000  0.86596000  0.31440000  1.0 -0.4566414639
O  O133  1  0.53598000  0.85871000  0.29660000  1.0 -0.4398751579
O  O134  1  0.65984000  0.81229000  0.33670000  1.0 -0.4289909679
O  O135  1  0.69208000  0.83350000  0.18570000  1.0 -0.4928383104
O  O136  1  0.73108000  0.78444000  0.19320000  1.0 -0.4709930395
O  O137  1  0.67265000  0.89604000  0.31440000  1.0 -0.4709930395
O  O138  1  0.63747000  0.89309000  0.16190000  1.0 -0.4953571673
O  O139  1  0.67383000  0.95923000  0.30640000  1.0 -0.44804116
O  O140  1  0.80190000  0.82260000  0.13590000  1.0 0.1625322035
O  O141  1  0.81803000  0.39109000  0.17960000  1.0 -0.4182498652
O  O142  1  0.86596000  0.40216000  0.31440000  1.0 -0.4566414639
O  O143  1  0.85871000  0.46402000  0.29660000  1.0 -0.4398751579
O  O144  1  0.81229000  0.34016000  0.33670000  1.0 -0.4289909679
O  O145  1  0.83350000  0.30792000  0.18570000  1.0 -0.4928383104
O  O146  1  0.78444000  0.26892000  0.19320000  1.0 -0.4709930395
O  O147  1  0.89604000  0.32735000  0.31440000  1.0 -0.4709930395
O  O148  1  0.89309000  0.36253000  0.16190000  1.0 -0.4953571673
O  O149  1  0.95923000  0.32617000  0.30640000  1.0 -0.44804116
O  O150  1  0.82260000  0.19810000  0.13590000  1.0 0.1625322035
O  O151  1  0.18197000  0.60891000  0.17960000  1.0 -0.4182498652
O  O152  1  0.13404000  0.59784000  0.31440000  1.0 -0.4566414639
O  O153  1  0.14129000  0.53598000  0.29660000  1.0 -0.4398751579
O  O154  1  0.18771000  0.65984000  0.33670000  1.0 -0.4289909679
O  O155  1  0.16650000  0.69208000  0.18570000  1.0 -0.4928383104
O  O156  1  0.21556000  0.73108000  0.19320000  1.0 -0.4709930395
O  O157  1  0.10396000  0.67265000  0.31440000  1.0 -0.4709930395
O  O158  1  0.10691000  0.63747000  0.16190000  1.0 -0.4953571673
O  O159  1  0.04077000  0.67383000  0.30640000  1.0 -0.44804116
O  O160  1  0.17740000  0.80190000  0.13590000  1.0 0.1625322035
O  O161  1  0.71800000  0.20310000  0.00000000  1.0 -0.5944826028
O  O162  1  0.71170000  0.25300000  0.00000000  1.0 0.1745783814
O  O163  1  0.28200000  0.79690000  0.00000000  1.0 -0.5962115548
O  O164  1  0.28830000  0.74700000  0.00000000  1.0 0.1868015282
O  O165  1  0.20310000  0.28200000  0.00000000  1.0 -0.5944826028
O  O166  1  0.25300000  0.28830000  0.00000000  1.0 0.1804935434
O  O167  1  0.79690000  0.71800000  0.00000000  1.0 -0.5962115548
O  O168  1  0.74700000  0.71170000  0.00000000  1.0 0.1804935434
O  O169  1  0.71800000  0.79690000  0.00000000  1.0 -0.5962115548
O  O170  1  0.71170000  0.74700000  0.00000000  1.0 0.1804935434
O  O171  1  0.28200000  0.20310000  0.00000000  1.0 -0.5944826028
O  O172  1  0.28830000  0.25300000  0.00000000  1.0 0.1804935434
O  O173  1  0.20310000  0.71800000  0.00000000  1.0 -0.5944826028
O  O174  1  0.25300000  0.71170000  0.00000000  1.0 0.1804935434
O  O175  1  0.79690000  0.28200000  0.00000000  1.0 -0.5962115548
O  O176  1  0.74700000  0.28830000  0.00000000  1.0 0.1868015282
O  O177  1  0.50000000  0.21260000  0.34310000  1.0 -0.219488324
O  O178  1  0.50000000  0.78740000  0.34310000  1.0 -0.219488324
O  O179  1  0.21260000  0.50000000  0.34310000  1.0 -0.219488324
O  O180  1  0.78740000  0.50000000  0.34310000  1.0 -0.219488324
O  O181  1  0.50000000  0.78740000  0.65690000  1.0 -0.219488324
O  O182  1  0.50000000  0.21260000  0.65690000  1.0 -0.219488324
O  O183  1  0.21260000  0.50000000  0.65690000  1.0 -0.219488324
O  O184  1  0.78740000  0.50000000  0.65690000  1.0 -0.219488324
