# DDEC6 charges by PACMAN v1.1 (https://github.com/mtap-research/PACMAN-charge/)
data_DIWMON_FSR_pacman
_symmetry_space_group_name_H-M   'P 1'
_cell_length_a   19.43470000
_cell_length_b   27.30620000
_cell_length_c   31.17700000
_cell_angle_alpha   90.00000000
_cell_angle_beta   90.00000000
_cell_angle_gamma   90.00000000
_symmetry_Int_Tables_number   1
_chemical_formula_structural   Sr3H86C65N7O23
_chemical_formula_sum   'Sr24 H688 C520 N56 O184'
_cell_volume   16545.25370085
_cell_formula_units_Z   8
loop_
 _symmetry_equiv_pos_site_id
 _symmetry_equiv_pos_as_xyz
  1  'x, y, z'
loop_
 _atom_site_type_symbol
 _atom_site_label
 _atom_site_symmetry_multiplicity
 _atom_site_fract_x
 _atom_site_fract_y
 _atom_site_fract_z
 _atom_site_occupancy
 _atom_site_charge
Sr  Sr1  1  0.42002000  0.21153000  0.17392000  1.0 1.3888194837
Sr  Sr2  1  0.07998000  0.28847000  0.67392000  1.0 1.3888194837
Sr  Sr3  1  0.07998000  0.71153000  0.82608000  1.0 1.3888194837
Sr  Sr4  1  0.42002000  0.78847000  0.32608000  1.0 1.3888194837
Sr  Sr5  1  0.57998000  0.78847000  0.82608000  1.0 1.3888194837
Sr  Sr6  1  0.92002000  0.71153000  0.32608000  1.0 1.3888194837
Sr  Sr7  1  0.92002000  0.28847000  0.17392000  1.0 1.3888194837
Sr  Sr8  1  0.57998000  0.21153000  0.67392000  1.0 1.3888194837
Sr  Sr9  1  0.26572000  0.29088000  0.19870000  1.0 1.3758820423
Sr  Sr10  1  0.23428000  0.20912000  0.69870000  1.0 1.3758820423
Sr  Sr11  1  0.23428000  0.79088000  0.80130000  1.0 1.3758820423
Sr  Sr12  1  0.26572000  0.70912000  0.30130000  1.0 1.3758820423
Sr  Sr13  1  0.73428000  0.70912000  0.80130000  1.0 1.3758820423
Sr  Sr14  1  0.76572000  0.79088000  0.30130000  1.0 1.3758820423
Sr  Sr15  1  0.76572000  0.20912000  0.19870000  1.0 1.3758820423
Sr  Sr16  1  0.73428000  0.29088000  0.69870000  1.0 1.3758820423
Sr  Sr17  1  0.09955000  0.22805000  0.14948000  1.0 1.412805421
Sr  Sr18  1  0.40045000  0.27195000  0.64948000  1.0 1.412805421
Sr  Sr19  1  0.40045000  0.72805000  0.85052000  1.0 1.412805421
Sr  Sr20  1  0.09955000  0.77195000  0.35052000  1.0 1.412805421
Sr  Sr21  1  0.90045000  0.77195000  0.85052000  1.0 1.412805421
Sr  Sr22  1  0.59955000  0.72805000  0.35052000  1.0 1.412805421
Sr  Sr23  1  0.59955000  0.27195000  0.14948000  1.0 1.412805421
Sr  Sr24  1  0.90045000  0.22805000  0.64948000  1.0 1.412805421
H  H1  1  0.26110000  0.41300000  0.36610000  1.0 0.1403412969
H  H2  1  0.23890000  0.08700000  0.86610000  1.0 0.1403412969
H  H3  1  0.23890000  0.91300000  0.63390000  1.0 0.1403412969
H  H4  1  0.26110000  0.58700000  0.13390000  1.0 0.1403412969
H  H5  1  0.73890000  0.58700000  0.63390000  1.0 0.1403412969
H  H6  1  0.76110000  0.91300000  0.13390000  1.0 0.1403412969
H  H7  1  0.76110000  0.08700000  0.36610000  1.0 0.1403412969
H  H8  1  0.73890000  0.41300000  0.86610000  1.0 0.1403412969
H  H9  1  0.24560000  0.26920000  0.34140000  1.0 0.1204119774
H  H10  1  0.25440000  0.23080000  0.84140000  1.0 0.1204119774
H  H11  1  0.25440000  0.76920000  0.65860000  1.0 0.1204119774
H  H12  1  0.24560000  0.73080000  0.15860000  1.0 0.1204119774
H  H13  1  0.75440000  0.73080000  0.65860000  1.0 0.1204119774
H  H14  1  0.74560000  0.76920000  0.15860000  1.0 0.1204119774
H  H15  1  0.74560000  0.23080000  0.34140000  1.0 0.1204119774
H  H16  1  0.75440000  0.26920000  0.84140000  1.0 0.1204119774
H  H17  1  0.23790000  0.25370000  0.41400000  1.0 0.1086352579
H  H18  1  0.26210000  0.24630000  0.91400000  1.0 0.1086352579
H  H19  1  0.26210000  0.75370000  0.58600000  1.0 0.1086352579
H  H20  1  0.23790000  0.74630000  0.08600000  1.0 0.1086352579
H  H21  1  0.76210000  0.74630000  0.58600000  1.0 0.1086352579
H  H22  1  0.73790000  0.75370000  0.08600000  1.0 0.1086352579
H  H23  1  0.73790000  0.24630000  0.41400000  1.0 0.1086352579
H  H24  1  0.76210000  0.25370000  0.91400000  1.0 0.1086352579
H  H25  1  0.21860000  0.41470000  0.45940000  1.0 0.3588708692
H  H26  1  0.28140000  0.08530000  0.95940000  1.0 0.3588708692
H  H27  1  0.28140000  0.91470000  0.54060000  1.0 0.3588708692
H  H28  1  0.21860000  0.58530000  0.04060000  1.0 0.3588708692
H  H29  1  0.78140000  0.58530000  0.54060000  1.0 0.3588708692
H  H30  1  0.71860000  0.91470000  0.04060000  1.0 0.3588708692
H  H31  1  0.71860000  0.08530000  0.45940000  1.0 0.3588708692
H  H32  1  0.78140000  0.41470000  0.95940000  1.0 0.3588708692
H  H33  1  0.30770000  0.32350000  0.57550000  1.0 0.1293852983
H  H34  1  0.19230000  0.17650000  0.07550000  1.0 0.1293852983
H  H35  1  0.19230000  0.82350000  0.42450000  1.0 0.1293852983
H  H36  1  0.30770000  0.67650000  0.92450000  1.0 0.1293852983
H  H37  1  0.69230000  0.67650000  0.42450000  1.0 0.1293852983
H  H38  1  0.80770000  0.82350000  0.92450000  1.0 0.1293852983
H  H39  1  0.80770000  0.17650000  0.57550000  1.0 0.1293852983
H  H40  1  0.69230000  0.32350000  0.07550000  1.0 0.1293852983
H  H41  1  0.13960000  0.24410000  0.54400000  1.0 0.1086352579
H  H42  1  0.36040000  0.25590000  0.04400000  1.0 0.1086352579
H  H43  1  0.36040000  0.74410000  0.45600000  1.0 0.1086352579
H  H44  1  0.13960000  0.75590000  0.95600000  1.0 0.1086352579
H  H45  1  0.86040000  0.75590000  0.45600000  1.0 0.1086352579
H  H46  1  0.63960000  0.74410000  0.95600000  1.0 0.1086352579
H  H47  1  0.63960000  0.25590000  0.54400000  1.0 0.1086352579
H  H48  1  0.86040000  0.24410000  0.04400000  1.0 0.1086352579
H  H49  1  0.15170000  0.26790000  0.47340000  1.0 0.1086352579
H  H50  1  0.34830000  0.23210000  0.97340000  1.0 0.1086352579
H  H51  1  0.34830000  0.76790000  0.52660000  1.0 0.1086352579
H  H52  1  0.15170000  0.73210000  0.02660000  1.0 0.1086352579
H  H53  1  0.84830000  0.73210000  0.52660000  1.0 0.1086352579
H  H54  1  0.65170000  0.76790000  0.02660000  1.0 0.1086352579
H  H55  1  0.65170000  0.23210000  0.47340000  1.0 0.1086352579
H  H56  1  0.84830000  0.26790000  0.97340000  1.0 0.1086352579
H  H57  1  0.35460000  0.36880000  0.52290000  1.0 0.3513421246
H  H58  1  0.14540000  0.13120000  0.02290000  1.0 0.3513421246
H  H59  1  0.14540000  0.86880000  0.47710000  1.0 0.3513421246
H  H60  1  0.35460000  0.63120000  0.97710000  1.0 0.3513421246
H  H61  1  0.64540000  0.63120000  0.47710000  1.0 0.3513421246
H  H62  1  0.85460000  0.86880000  0.97710000  1.0 0.3513421246
H  H63  1  0.85460000  0.13120000  0.52290000  1.0 0.3513421246
H  H64  1  0.64540000  0.36880000  0.02290000  1.0 0.3513421246
H  H65  1  0.37640000  0.37340000  0.25410000  1.0 0.1204119774
H  H66  1  0.12360000  0.12660000  0.75410000  1.0 0.1204119774
H  H67  1  0.12360000  0.87340000  0.74590000  1.0 0.1204119774
H  H68  1  0.37640000  0.62660000  0.24590000  1.0 0.1204119774
H  H69  1  0.62360000  0.62660000  0.74590000  1.0 0.1204119774
H  H70  1  0.87640000  0.87340000  0.24590000  1.0 0.1204119774
H  H71  1  0.87640000  0.12660000  0.25410000  1.0 0.1204119774
H  H72  1  0.62360000  0.37340000  0.75410000  1.0 0.1204119774
H  H73  1  0.57780000  0.33620000  0.25320000  1.0 0.1204119774
H  H74  1  0.92220000  0.16380000  0.75320000  1.0 0.1204119774
H  H75  1  0.92220000  0.83620000  0.74680000  1.0 0.1204119774
H  H76  1  0.57780000  0.66380000  0.24680000  1.0 0.1204119774
H  H77  1  0.42220000  0.66380000  0.74680000  1.0 0.1204119774
H  H78  1  0.07780000  0.83620000  0.24680000  1.0 0.1204119774
H  H79  1  0.07780000  0.16380000  0.25320000  1.0 0.1204119774
H  H80  1  0.42220000  0.33620000  0.75320000  1.0 0.1204119774
H  H81  1  0.60310000  0.40360000  0.29510000  1.0 0.1086352579
H  H82  1  0.89690000  0.09640000  0.79510000  1.0 0.1086352579
H  H83  1  0.89690000  0.90360000  0.70490000  1.0 0.1086352579
H  H84  1  0.60310000  0.59640000  0.20490000  1.0 0.1086352579
H  H85  1  0.39690000  0.59640000  0.70490000  1.0 0.1086352579
H  H86  1  0.10310000  0.90360000  0.20490000  1.0 0.1086352579
H  H87  1  0.10310000  0.09640000  0.29510000  1.0 0.1086352579
H  H88  1  0.39690000  0.40360000  0.79510000  1.0 0.1086352579
H  H89  1  0.34740000  0.43690000  0.29650000  1.0 0.3389527031
H  H90  1  0.15260000  0.06310000  0.79650000  1.0 0.3389527031
H  H91  1  0.15260000  0.93690000  0.70350000  1.0 0.3389527031
H  H92  1  0.34740000  0.56310000  0.20350000  1.0 0.3389527031
H  H93  1  0.65260000  0.56310000  0.70350000  1.0 0.3389527031
H  H94  1  0.84740000  0.93690000  0.20350000  1.0 0.3389527031
H  H95  1  0.84740000  0.06310000  0.29650000  1.0 0.3389527031
H  H96  1  0.65260000  0.43690000  0.79650000  1.0 0.3389527031
H  H97  1  0.61240000  0.50830000  0.41150000  1.0 0.1403412969
H  H98  1  0.88760000  0.99170000  0.91150000  1.0 0.1403412969
H  H99  1  0.88760000  0.00830000  0.58850000  1.0 0.1403412969
H  H100  1  0.61240000  0.49170000  0.08850000  1.0 0.1403412969
H  H101  1  0.38760000  0.49170000  0.58850000  1.0 0.1403412969
H  H102  1  0.11240000  0.00830000  0.08850000  1.0 0.1403412969
H  H103  1  0.11240000  0.99170000  0.41150000  1.0 0.1403412969
H  H104  1  0.38760000  0.50830000  0.91150000  1.0 0.1403412969
H  H105  1  0.51260000  0.59410000  0.32670000  1.0 0.1086352579
H  H106  1  0.98740000  0.90590000  0.82670000  1.0 0.1086352579
H  H107  1  0.98740000  0.09410000  0.67330000  1.0 0.1086352579
H  H108  1  0.51260000  0.40590000  0.17330000  1.0 0.1086352579
H  H109  1  0.48740000  0.40590000  0.67330000  1.0 0.1086352579
H  H110  1  0.01260000  0.09410000  0.17330000  1.0 0.1086352579
H  H111  1  0.01260000  0.90590000  0.32670000  1.0 0.1086352579
H  H112  1  0.48740000  0.59410000  0.82670000  1.0 0.1086352579
H  H113  1  0.47510000  0.52450000  0.29020000  1.0 0.1086352579
H  H114  1  0.02490000  0.97550000  0.79020000  1.0 0.1086352579
H  H115  1  0.02490000  0.02450000  0.70980000  1.0 0.1086352579
H  H116  1  0.47510000  0.47550000  0.20980000  1.0 0.1086352579
H  H117  1  0.52490000  0.47550000  0.70980000  1.0 0.1086352579
H  H118  1  0.97510000  0.02450000  0.20980000  1.0 0.1086352579
H  H119  1  0.97510000  0.97550000  0.29020000  1.0 0.1086352579
H  H120  1  0.52490000  0.52450000  0.79020000  1.0 0.1086352579
H  H121  1  0.56770000  0.40230000  0.36200000  1.0 0.3279893675
H  H122  1  0.93230000  0.09770000  0.86200000  1.0 0.3279893675
H  H123  1  0.93230000  0.90230000  0.63800000  1.0 0.3279893675
H  H124  1  0.56770000  0.59770000  0.13800000  1.0 0.3279893675
H  H125  1  0.43230000  0.59770000  0.63800000  1.0 0.3279893675
H  H126  1  0.06770000  0.90230000  0.13800000  1.0 0.3279893675
H  H127  1  0.06770000  0.09770000  0.36200000  1.0 0.3279893675
H  H128  1  0.43230000  0.40230000  0.86200000  1.0 0.3279893675
H  H129  1  0.16450000  0.37740000  0.23590000  1.0 0.1204119774
H  H130  1  0.33550000  0.12260000  0.73590000  1.0 0.1204119774
H  H131  1  0.33550000  0.87740000  0.76410000  1.0 0.1204119774
H  H132  1  0.16450000  0.62260000  0.26410000  1.0 0.1204119774
H  H133  1  0.83550000  0.62260000  0.76410000  1.0 0.1204119774
H  H134  1  0.66450000  0.87740000  0.26410000  1.0 0.1204119774
H  H135  1  0.66450000  0.12260000  0.23590000  1.0 0.1204119774
H  H136  1  0.83550000  0.37740000  0.73590000  1.0 0.1204119774
H  H137  1  0.99200000  0.40560000  0.16680000  1.0 0.1204119774
H  H138  1  0.50800000  0.09440000  0.66680000  1.0 0.1204119774
H  H139  1  0.50800000  0.90560000  0.83320000  1.0 0.1204119774
H  H140  1  0.99200000  0.59440000  0.33320000  1.0 0.1204119774
H  H141  1  0.00800000  0.59440000  0.83320000  1.0 0.1204119774
H  H142  1  0.49200000  0.90560000  0.33320000  1.0 0.1204119774
H  H143  1  0.49200000  0.09440000  0.16680000  1.0 0.1204119774
H  H144  1  0.00800000  0.40560000  0.66680000  1.0 0.1204119774
H  H145  1  0.98240000  0.48170000  0.20190000  1.0 0.1204119774
H  H146  1  0.51760000  0.01830000  0.70190000  1.0 0.1204119774
H  H147  1  0.51760000  0.98170000  0.79810000  1.0 0.1204119774
H  H148  1  0.98240000  0.51830000  0.29810000  1.0 0.1204119774
H  H149  1  0.01760000  0.51830000  0.79810000  1.0 0.1204119774
H  H150  1  0.48240000  0.98170000  0.29810000  1.0 0.1204119774
H  H151  1  0.48240000  0.01830000  0.20190000  1.0 0.1204119774
H  H152  1  0.01760000  0.48170000  0.70190000  1.0 0.1204119774
H  H153  1  0.20000000  0.44050000  0.28100000  1.0 0.3389527031
H  H154  1  0.30000000  0.05950000  0.78100000  1.0 0.3389527031
H  H155  1  0.30000000  0.94050000  0.71900000  1.0 0.3389527031
H  H156  1  0.20000000  0.55950000  0.21900000  1.0 0.3389527031
H  H157  1  0.80000000  0.55950000  0.71900000  1.0 0.3389527031
H  H158  1  0.70000000  0.94050000  0.21900000  1.0 0.3389527031
H  H159  1  0.70000000  0.05950000  0.28100000  1.0 0.3389527031
H  H160  1  0.80000000  0.44050000  0.78100000  1.0 0.3389527031
H  H161  1  0.34410000  0.12640000  0.24880000  1.0 0.1293852983
H  H162  1  0.15590000  0.37360000  0.74880000  1.0 0.1293852983
H  H163  1  0.15590000  0.62640000  0.75120000  1.0 0.1293852983
H  H164  1  0.34410000  0.87360000  0.25120000  1.0 0.1293852983
H  H165  1  0.65590000  0.87360000  0.75120000  1.0 0.1293852983
H  H166  1  0.84410000  0.62640000  0.25120000  1.0 0.1293852983
H  H167  1  0.84410000  0.37360000  0.24880000  1.0 0.1293852983
H  H168  1  0.65590000  0.12640000  0.74880000  1.0 0.1293852983
H  H169  1  0.15180000  0.11010000  0.20140000  1.0 0.1204119774
H  H170  1  0.34820000  0.38990000  0.70140000  1.0 0.1204119774
H  H171  1  0.34820000  0.61010000  0.79860000  1.0 0.1204119774
H  H172  1  0.15180000  0.88990000  0.29860000  1.0 0.1204119774
H  H173  1  0.84820000  0.88990000  0.79860000  1.0 0.1204119774
H  H174  1  0.65180000  0.61010000  0.29860000  1.0 0.1204119774
H  H175  1  0.65180000  0.38990000  0.20140000  1.0 0.1204119774
H  H176  1  0.84820000  0.11010000  0.70140000  1.0 0.1204119774
H  H177  1  0.15720000  0.02640000  0.21680000  1.0 0.1204119774
H  H178  1  0.34280000  0.47360000  0.71680000  1.0 0.1204119774
H  H179  1  0.34280000  0.52640000  0.78320000  1.0 0.1204119774
H  H180  1  0.15720000  0.97360000  0.28320000  1.0 0.1204119774
H  H181  1  0.84280000  0.97360000  0.78320000  1.0 0.1204119774
H  H182  1  0.65720000  0.52640000  0.28320000  1.0 0.1204119774
H  H183  1  0.65720000  0.47360000  0.21680000  1.0 0.1204119774
H  H184  1  0.84280000  0.02640000  0.71680000  1.0 0.1204119774
H  H185  1  0.38880000  0.02470000  0.25830000  1.0 0.3146219083
H  H186  1  0.11120000  0.47530000  0.75830000  1.0 0.3146219083
H  H187  1  0.11120000  0.52470000  0.74170000  1.0 0.3146219083
H  H188  1  0.38880000  0.97530000  0.24170000  1.0 0.3146219083
H  H189  1  0.61120000  0.97530000  0.74170000  1.0 0.3146219083
H  H190  1  0.88880000  0.52470000  0.24170000  1.0 0.3146219083
H  H191  1  0.88880000  0.47530000  0.25830000  1.0 0.3146219083
H  H192  1  0.61120000  0.02470000  0.75830000  1.0 0.3146219083
H  H193  1  0.91990000  0.17280000  0.12830000  1.0 0.0885819364
H  H194  1  0.58010000  0.32720000  0.62830000  1.0 0.0885819364
H  H195  1  0.58010000  0.67280000  0.87170000  1.0 0.0885819364
H  H196  1  0.91990000  0.82720000  0.37170000  1.0 0.0885819364
H  H197  1  0.08010000  0.82720000  0.87170000  1.0 0.0885819364
H  H198  1  0.41990000  0.67280000  0.37170000  1.0 0.0885819364
H  H199  1  0.41990000  0.32720000  0.12830000  1.0 0.0885819364
H  H200  1  0.08010000  0.17280000  0.62830000  1.0 0.0885819364
H  H201  1  0.01730000  0.15880000  0.02130000  1.0 0.1403412969
H  H202  1  0.48270000  0.34120000  0.52130000  1.0 0.1403412969
H  H203  1  0.48270000  0.65880000  0.97870000  1.0 0.1403412969
H  H204  1  0.01730000  0.84120000  0.47870000  1.0 0.1403412969
H  H205  1  0.98270000  0.84120000  0.97870000  1.0 0.1403412969
H  H206  1  0.51730000  0.65880000  0.47870000  1.0 0.1403412969
H  H207  1  0.51730000  0.34120000  0.02130000  1.0 0.1403412969
H  H208  1  0.98270000  0.15880000  0.52130000  1.0 0.1403412969
H  H209  1  0.95870000  0.19840000  0.01160000  1.0 0.1204119774
H  H210  1  0.54130000  0.30160000  0.51160000  1.0 0.1204119774
H  H211  1  0.54130000  0.69840000  0.98840000  1.0 0.1204119774
H  H212  1  0.95870000  0.80160000  0.48840000  1.0 0.1204119774
H  H213  1  0.04130000  0.80160000  0.98840000  1.0 0.1204119774
H  H214  1  0.45870000  0.69840000  0.48840000  1.0 0.1204119774
H  H215  1  0.45870000  0.30160000  0.01160000  1.0 0.1204119774
H  H216  1  0.04130000  0.19840000  0.51160000  1.0 0.1204119774
H  H217  1  0.01890000  0.21080000  0.04480000  1.0 0.1204119774
H  H218  1  0.48110000  0.28920000  0.54480000  1.0 0.1204119774
H  H219  1  0.48110000  0.71080000  0.95520000  1.0 0.1204119774
H  H220  1  0.01890000  0.78920000  0.45520000  1.0 0.1204119774
H  H221  1  0.98110000  0.78920000  0.95520000  1.0 0.1204119774
H  H222  1  0.51890000  0.71080000  0.45520000  1.0 0.1204119774
H  H223  1  0.51890000  0.28920000  0.04480000  1.0 0.1204119774
H  H224  1  0.98110000  0.21080000  0.54480000  1.0 0.1204119774
H  H225  1  0.88040000  0.11150000  0.08610000  1.0 0.1204119774
H  H226  1  0.61960000  0.38850000  0.58610000  1.0 0.1204119774
H  H227  1  0.61960000  0.61150000  0.91390000  1.0 0.1204119774
H  H228  1  0.88040000  0.88850000  0.41390000  1.0 0.1204119774
H  H229  1  0.11960000  0.88850000  0.91390000  1.0 0.1204119774
H  H230  1  0.38040000  0.61150000  0.41390000  1.0 0.1204119774
H  H231  1  0.38040000  0.38850000  0.08610000  1.0 0.1204119774
H  H232  1  0.11960000  0.11150000  0.58610000  1.0 0.1204119774
H  H233  1  0.88240000  0.12060000  0.03540000  1.0 0.1293852983
H  H234  1  0.61760000  0.37940000  0.53540000  1.0 0.1293852983
H  H235  1  0.61760000  0.62060000  0.96460000  1.0 0.1293852983
H  H236  1  0.88240000  0.87940000  0.46460000  1.0 0.1293852983
H  H237  1  0.11760000  0.87940000  0.96460000  1.0 0.1293852983
H  H238  1  0.38240000  0.62060000  0.46460000  1.0 0.1293852983
H  H239  1  0.38240000  0.37940000  0.03540000  1.0 0.1293852983
H  H240  1  0.11760000  0.12060000  0.53540000  1.0 0.1293852983
H  H241  1  0.94360000  0.09140000  0.05830000  1.0 0.1403412969
H  H242  1  0.55640000  0.40860000  0.55830000  1.0 0.1403412969
H  H243  1  0.55640000  0.59140000  0.94170000  1.0 0.1403412969
H  H244  1  0.94360000  0.90860000  0.44170000  1.0 0.1403412969
H  H245  1  0.05640000  0.90860000  0.94170000  1.0 0.1403412969
H  H246  1  0.44360000  0.59140000  0.44170000  1.0 0.1403412969
H  H247  1  0.44360000  0.40860000  0.05830000  1.0 0.1403412969
H  H248  1  0.05640000  0.09140000  0.55830000  1.0 0.1403412969
H  H249  1  0.45660000  0.14020000  0.28360000  1.0 0.1617532705
H  H250  1  0.04340000  0.35980000  0.78360000  1.0 0.1617532705
H  H251  1  0.04340000  0.64020000  0.71640000  1.0 0.1617532705
H  H252  1  0.45660000  0.85980000  0.21640000  1.0 0.1617532705
H  H253  1  0.54340000  0.85980000  0.71640000  1.0 0.1617532705
H  H254  1  0.95660000  0.64020000  0.21640000  1.0 0.1617532705
H  H255  1  0.95660000  0.35980000  0.28360000  1.0 0.1617532705
H  H256  1  0.54340000  0.14020000  0.78360000  1.0 0.1617532705
H  H257  1  0.59270000  0.14150000  0.35160000  1.0 0.0604541698
H  H258  1  0.90730000  0.35850000  0.85160000  1.0 0.0604541698
H  H259  1  0.90730000  0.64150000  0.64840000  1.0 0.0604541698
H  H260  1  0.59270000  0.85850000  0.14840000  1.0 0.0604541698
H  H261  1  0.40730000  0.85850000  0.64840000  1.0 0.0604541698
H  H262  1  0.09270000  0.64150000  0.14840000  1.0 0.0604541698
H  H263  1  0.09270000  0.35850000  0.35160000  1.0 0.0604541698
H  H264  1  0.40730000  0.14150000  0.85160000  1.0 0.0604541698
H  H265  1  0.51490000  0.12300000  0.35600000  1.0 0.0604541698
H  H266  1  0.98510000  0.37700000  0.85600000  1.0 0.0604541698
H  H267  1  0.98510000  0.62300000  0.64400000  1.0 0.0604541698
H  H268  1  0.51490000  0.87700000  0.14400000  1.0 0.0604541698
H  H269  1  0.48510000  0.87700000  0.64400000  1.0 0.0604541698
H  H270  1  0.01490000  0.62300000  0.14400000  1.0 0.0604541698
H  H271  1  0.01490000  0.37700000  0.35600000  1.0 0.0604541698
H  H272  1  0.48510000  0.12300000  0.85600000  1.0 0.0604541698
H  H273  1  0.56570000  0.09720000  0.32250000  1.0 0.0604541698
H  H274  1  0.93430000  0.40280000  0.82250000  1.0 0.0604541698
H  H275  1  0.93430000  0.59720000  0.67750000  1.0 0.0604541698
H  H276  1  0.56570000  0.90280000  0.17750000  1.0 0.0604541698
H  H277  1  0.43430000  0.90280000  0.67750000  1.0 0.0604541698
H  H278  1  0.06570000  0.59720000  0.17750000  1.0 0.0604541698
H  H279  1  0.06570000  0.40280000  0.32250000  1.0 0.0604541698
H  H280  1  0.43430000  0.09720000  0.82250000  1.0 0.0604541698
H  H281  1  0.52540000  0.24220000  0.30430000  1.0 0.1293852983
H  H282  1  0.97460000  0.25780000  0.80430000  1.0 0.1293852983
H  H283  1  0.97460000  0.74220000  0.69570000  1.0 0.1293852983
H  H284  1  0.52540000  0.75780000  0.19570000  1.0 0.1293852983
H  H285  1  0.47460000  0.75780000  0.69570000  1.0 0.1293852983
H  H286  1  0.02540000  0.74220000  0.19570000  1.0 0.1293852983
H  H287  1  0.02540000  0.25780000  0.30430000  1.0 0.1293852983
H  H288  1  0.47460000  0.24220000  0.80430000  1.0 0.1293852983
H  H289  1  0.59650000  0.22070000  0.32210000  1.0 0.1204119774
H  H290  1  0.90350000  0.27930000  0.82210000  1.0 0.1204119774
H  H291  1  0.90350000  0.72070000  0.67790000  1.0 0.1204119774
H  H292  1  0.59650000  0.77930000  0.17790000  1.0 0.1204119774
H  H293  1  0.40350000  0.77930000  0.67790000  1.0 0.1204119774
H  H294  1  0.09650000  0.72070000  0.17790000  1.0 0.1204119774
H  H295  1  0.09650000  0.27930000  0.32210000  1.0 0.1204119774
H  H296  1  0.40350000  0.22070000  0.82210000  1.0 0.1204119774
H  H297  1  0.58320000  0.22370000  0.27150000  1.0 0.1293852983
H  H298  1  0.91680000  0.27630000  0.77150000  1.0 0.1293852983
H  H299  1  0.91680000  0.72370000  0.72850000  1.0 0.1293852983
H  H300  1  0.58320000  0.77630000  0.22850000  1.0 0.1293852983
H  H301  1  0.41680000  0.77630000  0.72850000  1.0 0.1293852983
H  H302  1  0.08320000  0.72370000  0.22850000  1.0 0.1293852983
H  H303  1  0.08320000  0.27630000  0.27150000  1.0 0.1293852983
H  H304  1  0.41680000  0.22370000  0.77150000  1.0 0.1293852983
H  H305  1  0.28690000  0.42280000  0.19040000  1.0 0.1006402762
H  H306  1  0.21310000  0.07720000  0.69040000  1.0 0.1006402762
H  H307  1  0.21310000  0.92280000  0.80960000  1.0 0.1006402762
H  H308  1  0.28690000  0.57720000  0.30960000  1.0 0.1006402762
H  H309  1  0.71310000  0.57720000  0.80960000  1.0 0.1006402762
H  H310  1  0.78690000  0.92280000  0.30960000  1.0 0.1006402762
H  H311  1  0.78690000  0.07720000  0.19040000  1.0 0.1006402762
H  H312  1  0.71310000  0.42280000  0.69040000  1.0 0.1006402762
H  H313  1  0.14830000  0.46360000  0.11930000  1.0 0.1293852983
H  H314  1  0.35170000  0.03640000  0.61930000  1.0 0.1293852983
H  H315  1  0.35170000  0.96360000  0.88070000  1.0 0.1293852983
H  H316  1  0.14830000  0.53640000  0.38070000  1.0 0.1293852983
H  H317  1  0.85170000  0.53640000  0.88070000  1.0 0.1293852983
H  H318  1  0.64830000  0.96360000  0.38070000  1.0 0.1293852983
H  H319  1  0.64830000  0.03640000  0.11930000  1.0 0.1293852983
H  H320  1  0.85170000  0.46360000  0.61930000  1.0 0.1293852983
H  H321  1  0.18120000  0.49580000  0.15700000  1.0 0.1403412969
H  H322  1  0.31880000  0.00420000  0.65700000  1.0 0.1403412969
H  H323  1  0.31880000  0.99580000  0.84300000  1.0 0.1403412969
H  H324  1  0.18120000  0.50420000  0.34300000  1.0 0.1403412969
H  H325  1  0.81880000  0.50420000  0.84300000  1.0 0.1403412969
H  H326  1  0.68120000  0.99580000  0.34300000  1.0 0.1403412969
H  H327  1  0.68120000  0.00420000  0.15700000  1.0 0.1403412969
H  H328  1  0.81880000  0.49580000  0.65700000  1.0 0.1403412969
H  H329  1  0.21390000  0.49740000  0.10990000  1.0 0.1293852983
H  H330  1  0.28610000  0.00260000  0.60990000  1.0 0.1293852983
H  H331  1  0.28610000  0.99740000  0.89010000  1.0 0.1293852983
H  H332  1  0.21390000  0.50260000  0.39010000  1.0 0.1293852983
H  H333  1  0.78610000  0.50260000  0.89010000  1.0 0.1293852983
H  H334  1  0.71390000  0.99740000  0.39010000  1.0 0.1293852983
H  H335  1  0.71390000  0.00260000  0.10990000  1.0 0.1293852983
H  H336  1  0.78610000  0.49740000  0.60990000  1.0 0.1293852983
H  H337  1  0.24230000  0.36890000  0.11260000  1.0 0.1006402762
H  H338  1  0.25770000  0.13110000  0.61260000  1.0 0.1006402762
H  H339  1  0.25770000  0.86890000  0.88740000  1.0 0.1006402762
H  H340  1  0.24230000  0.63110000  0.38740000  1.0 0.1006402762
H  H341  1  0.75770000  0.63110000  0.88740000  1.0 0.1006402762
H  H342  1  0.74230000  0.86890000  0.38740000  1.0 0.1006402762
H  H343  1  0.74230000  0.13110000  0.11260000  1.0 0.1006402762
H  H344  1  0.75770000  0.36890000  0.61260000  1.0 0.1006402762
H  H345  1  0.16470000  0.38820000  0.11570000  1.0 0.0812947025
H  H346  1  0.33530000  0.11180000  0.61570000  1.0 0.0812947025
H  H347  1  0.33530000  0.88820000  0.88430000  1.0 0.0812947025
H  H348  1  0.16470000  0.61180000  0.38430000  1.0 0.0812947025
H  H349  1  0.83530000  0.61180000  0.88430000  1.0 0.0812947025
H  H350  1  0.66470000  0.88820000  0.38430000  1.0 0.0812947025
H  H351  1  0.66470000  0.11180000  0.11570000  1.0 0.0812947025
H  H352  1  0.83530000  0.38820000  0.61570000  1.0 0.0812947025
H  H353  1  0.21580000  0.41060000  0.08060000  1.0 0.0812947025
H  H354  1  0.28420000  0.08940000  0.58060000  1.0 0.0812947025
H  H355  1  0.28420000  0.91060000  0.91940000  1.0 0.0812947025
H  H356  1  0.21580000  0.58940000  0.41940000  1.0 0.0812947025
H  H357  1  0.78420000  0.58940000  0.91940000  1.0 0.0812947025
H  H358  1  0.71580000  0.91060000  0.41940000  1.0 0.0812947025
H  H359  1  0.71580000  0.08940000  0.08060000  1.0 0.0812947025
H  H360  1  0.78420000  0.41060000  0.58060000  1.0 0.0812947025
H  H361  1  0.18110000  0.31060000  0.08370000  1.0 0.1006402762
H  H362  1  0.31890000  0.18940000  0.58370000  1.0 0.1006402762
H  H363  1  0.31890000  0.81060000  0.91630000  1.0 0.1006402762
H  H364  1  0.18110000  0.68940000  0.41630000  1.0 0.1006402762
H  H365  1  0.81890000  0.68940000  0.91630000  1.0 0.1006402762
H  H366  1  0.68110000  0.81060000  0.41630000  1.0 0.1006402762
H  H367  1  0.68110000  0.18940000  0.08370000  1.0 0.1006402762
H  H368  1  0.81890000  0.31060000  0.58370000  1.0 0.1006402762
H  H369  1  0.10320000  0.26320000  0.99840000  1.0 0.1204119774
H  H370  1  0.39680000  0.23680000  0.49840000  1.0 0.1204119774
H  H371  1  0.39680000  0.76320000  0.00160000  1.0 0.1204119774
H  H372  1  0.10320000  0.73680000  0.50160000  1.0 0.1204119774
H  H373  1  0.89680000  0.73680000  0.00160000  1.0 0.1204119774
H  H374  1  0.60320000  0.76320000  0.50160000  1.0 0.1204119774
H  H375  1  0.60320000  0.23680000  0.99840000  1.0 0.1204119774
H  H376  1  0.89680000  0.26320000  0.49840000  1.0 0.1204119774
H  H377  1  0.11200000  0.31290000  0.97170000  1.0 0.0812947025
H  H378  1  0.38800000  0.18710000  0.47170000  1.0 0.0812947025
H  H379  1  0.38800000  0.81290000  0.02830000  1.0 0.0812947025
H  H380  1  0.11200000  0.68710000  0.52830000  1.0 0.0812947025
H  H381  1  0.88800000  0.68710000  0.02830000  1.0 0.0812947025
H  H382  1  0.61200000  0.81290000  0.52830000  1.0 0.0812947025
H  H383  1  0.61200000  0.18710000  0.97170000  1.0 0.0812947025
H  H384  1  0.88800000  0.31290000  0.47170000  1.0 0.0812947025
H  H385  1  0.16820000  0.27040000  0.96750000  1.0 0.0812947025
H  H386  1  0.33180000  0.22960000  0.46750000  1.0 0.0812947025
H  H387  1  0.33180000  0.77040000  0.03250000  1.0 0.0812947025
H  H388  1  0.16820000  0.72960000  0.53250000  1.0 0.0812947025
H  H389  1  0.83180000  0.72960000  0.03250000  1.0 0.0812947025
H  H390  1  0.66820000  0.77040000  0.53250000  1.0 0.0812947025
H  H391  1  0.66820000  0.22960000  0.96750000  1.0 0.0812947025
H  H392  1  0.83180000  0.27040000  0.46750000  1.0 0.0812947025
H  H393  1  0.25580000  0.32840000  0.99090000  1.0 0.1006402762
H  H394  1  0.24420000  0.17160000  0.49090000  1.0 0.1006402762
H  H395  1  0.24420000  0.82840000  0.00910000  1.0 0.1006402762
H  H396  1  0.25580000  0.67160000  0.50910000  1.0 0.1006402762
H  H397  1  0.74420000  0.67160000  0.00910000  1.0 0.1006402762
H  H398  1  0.75580000  0.82840000  0.50910000  1.0 0.1006402762
H  H399  1  0.75580000  0.17160000  0.99090000  1.0 0.1006402762
H  H400  1  0.74420000  0.32840000  0.49090000  1.0 0.1006402762
H  H401  1  0.20590000  0.37250000  0.00410000  1.0 0.0885819364
H  H402  1  0.29410000  0.12750000  0.50410000  1.0 0.0885819364
H  H403  1  0.29410000  0.87250000  0.99590000  1.0 0.0885819364
H  H404  1  0.20590000  0.62750000  0.49590000  1.0 0.0885819364
H  H405  1  0.79410000  0.62750000  0.99590000  1.0 0.0885819364
H  H406  1  0.70590000  0.87250000  0.49590000  1.0 0.0885819364
H  H407  1  0.70590000  0.12750000  0.00410000  1.0 0.0885819364
H  H408  1  0.79410000  0.37250000  0.50410000  1.0 0.0885819364
H  H409  1  0.25540000  0.34840000  0.03920000  1.0 0.0812947025
H  H410  1  0.24460000  0.15160000  0.53920000  1.0 0.0812947025
H  H411  1  0.24460000  0.84840000  0.96080000  1.0 0.0812947025
H  H412  1  0.25540000  0.65160000  0.46080000  1.0 0.0812947025
H  H413  1  0.74460000  0.65160000  0.96080000  1.0 0.0812947025
H  H414  1  0.75540000  0.84840000  0.46080000  1.0 0.0812947025
H  H415  1  0.75540000  0.15160000  0.03920000  1.0 0.0812947025
H  H416  1  0.74460000  0.34840000  0.53920000  1.0 0.0812947025
H  H417  1  0.29010000  0.12430000  0.13850000  1.0 0.1006402762
H  H418  1  0.20990000  0.37570000  0.63850000  1.0 0.1006402762
H  H419  1  0.20990000  0.62430000  0.86150000  1.0 0.1006402762
H  H420  1  0.29010000  0.87570000  0.36150000  1.0 0.1006402762
H  H421  1  0.70990000  0.87570000  0.86150000  1.0 0.1006402762
H  H422  1  0.79010000  0.62430000  0.36150000  1.0 0.1006402762
H  H423  1  0.79010000  0.37570000  0.13850000  1.0 0.1006402762
H  H424  1  0.70990000  0.12430000  0.63850000  1.0 0.1006402762
H  H425  1  0.25140000  0.03460000  0.07580000  1.0 0.068597022
H  H426  1  0.24860000  0.46540000  0.57580000  1.0 0.068597022
H  H427  1  0.24860000  0.53460000  0.92420000  1.0 0.068597022
H  H428  1  0.25140000  0.96540000  0.42420000  1.0 0.068597022
H  H429  1  0.74860000  0.96540000  0.92420000  1.0 0.068597022
H  H430  1  0.75140000  0.53460000  0.42420000  1.0 0.068597022
H  H431  1  0.75140000  0.46540000  0.07580000  1.0 0.068597022
H  H432  1  0.74860000  0.03460000  0.57580000  1.0 0.068597022
H  H433  1  0.25700000  0.01260000  0.12330000  1.0 0.0812947025
H  H434  1  0.24300000  0.48740000  0.62330000  1.0 0.0812947025
H  H435  1  0.24300000  0.51260000  0.87670000  1.0 0.0812947025
H  H436  1  0.25700000  0.98740000  0.37670000  1.0 0.0812947025
H  H437  1  0.74300000  0.98740000  0.87670000  1.0 0.0812947025
H  H438  1  0.75700000  0.51260000  0.37670000  1.0 0.0812947025
H  H439  1  0.75700000  0.48740000  0.12330000  1.0 0.0812947025
H  H440  1  0.74300000  0.01260000  0.62330000  1.0 0.0812947025
H  H441  1  0.22380000  0.06560000  0.11590000  1.0 0.0604541698
H  H442  1  0.27620000  0.43440000  0.61590000  1.0 0.0604541698
H  H443  1  0.27620000  0.56560000  0.88410000  1.0 0.0604541698
H  H444  1  0.22380000  0.93440000  0.38410000  1.0 0.0604541698
H  H445  1  0.77620000  0.93440000  0.88410000  1.0 0.0604541698
H  H446  1  0.72380000  0.56560000  0.38410000  1.0 0.0604541698
H  H447  1  0.72380000  0.43440000  0.11590000  1.0 0.0604541698
H  H448  1  0.77620000  0.06560000  0.61590000  1.0 0.0604541698
H  H449  1  0.37500000  0.00010000  0.10050000  1.0 0.0401616102
H  H450  1  0.12500000  0.49990000  0.60050000  1.0 0.0401616102
H  H451  1  0.12500000  0.50010000  0.89950000  1.0 0.0401616102
H  H452  1  0.37500000  0.99990000  0.39950000  1.0 0.0401616102
H  H453  1  0.62500000  0.99990000  0.89950000  1.0 0.0401616102
H  H454  1  0.87500000  0.50010000  0.39950000  1.0 0.0401616102
H  H455  1  0.87500000  0.49990000  0.10050000  1.0 0.0401616102
H  H456  1  0.62500000  0.00010000  0.60050000  1.0 0.0401616102
H  H457  1  0.42650000  0.04580000  0.10030000  1.0 0.0527366453
H  H458  1  0.07350000  0.45420000  0.60030000  1.0 0.0527366453
H  H459  1  0.07350000  0.54580000  0.89970000  1.0 0.0527366453
H  H460  1  0.42650000  0.95420000  0.39970000  1.0 0.0527366453
H  H461  1  0.57350000  0.95420000  0.89970000  1.0 0.0527366453
H  H462  1  0.92650000  0.54580000  0.39970000  1.0 0.0527366453
H  H463  1  0.92650000  0.45420000  0.10030000  1.0 0.0527366453
H  H464  1  0.57350000  0.04580000  0.60030000  1.0 0.0527366453
H  H465  1  0.39690000  0.02550000  0.14470000  1.0 0.0604541698
H  H466  1  0.10310000  0.47450000  0.64470000  1.0 0.0604541698
H  H467  1  0.10310000  0.52550000  0.85530000  1.0 0.0604541698
H  H468  1  0.39690000  0.97450000  0.35530000  1.0 0.0604541698
H  H469  1  0.60310000  0.97450000  0.85530000  1.0 0.0604541698
H  H470  1  0.89690000  0.52550000  0.35530000  1.0 0.0604541698
H  H471  1  0.89690000  0.47450000  0.14470000  1.0 0.0604541698
H  H472  1  0.60310000  0.02550000  0.64470000  1.0 0.0604541698
H  H473  1  0.21830000  0.37500000  0.11750000  1.0 0.0812947025
H  H474  1  0.28170000  0.12500000  0.61750000  1.0 0.0812947025
H  H475  1  0.28170000  0.87500000  0.88250000  1.0 0.0812947025
H  H476  1  0.21830000  0.62500000  0.38250000  1.0 0.0812947025
H  H477  1  0.78170000  0.62500000  0.88250000  1.0 0.0812947025
H  H478  1  0.71830000  0.87500000  0.38250000  1.0 0.0812947025
H  H479  1  0.71830000  0.12500000  0.11750000  1.0 0.0812947025
H  H480  1  0.78170000  0.37500000  0.61750000  1.0 0.0812947025
H  H481  1  0.31590000  0.43330000  0.19140000  1.0 0.0885819364
H  H482  1  0.18410000  0.06670000  0.69140000  1.0 0.0885819364
H  H483  1  0.18410000  0.93330000  0.80860000  1.0 0.0885819364
H  H484  1  0.31590000  0.56670000  0.30860000  1.0 0.0885819364
H  H485  1  0.68410000  0.56670000  0.80860000  1.0 0.0885819364
H  H486  1  0.81590000  0.93330000  0.30860000  1.0 0.0885819364
H  H487  1  0.81590000  0.06670000  0.19140000  1.0 0.0885819364
H  H488  1  0.68410000  0.43330000  0.69140000  1.0 0.0885819364
H  H489  1  0.31490000  0.48570000  0.16830000  1.0 0.1293852983
H  H490  1  0.18510000  0.01430000  0.66830000  1.0 0.1293852983
H  H491  1  0.18510000  0.98570000  0.83170000  1.0 0.1293852983
H  H492  1  0.31490000  0.51430000  0.33170000  1.0 0.1293852983
H  H493  1  0.68510000  0.51430000  0.83170000  1.0 0.1293852983
H  H494  1  0.81490000  0.98570000  0.33170000  1.0 0.1293852983
H  H495  1  0.81490000  0.01430000  0.16830000  1.0 0.1293852983
H  H496  1  0.68510000  0.48570000  0.66830000  1.0 0.1293852983
H  H497  1  0.25810000  0.47260000  0.20370000  1.0 0.1204119774
H  H498  1  0.24190000  0.02740000  0.70370000  1.0 0.1204119774
H  H499  1  0.24190000  0.97260000  0.79630000  1.0 0.1204119774
H  H500  1  0.25810000  0.52740000  0.29630000  1.0 0.1204119774
H  H501  1  0.74190000  0.52740000  0.79630000  1.0 0.1204119774
H  H502  1  0.75810000  0.97260000  0.29630000  1.0 0.1204119774
H  H503  1  0.75810000  0.02740000  0.20370000  1.0 0.1204119774
H  H504  1  0.74190000  0.47260000  0.70370000  1.0 0.1204119774
H  H505  1  0.02390000  0.30170000  0.06890000  1.0 0.1086352579
H  H506  1  0.47610000  0.19830000  0.56890000  1.0 0.1086352579
H  H507  1  0.47610000  0.80170000  0.93110000  1.0 0.1086352579
H  H508  1  0.02390000  0.69830000  0.43110000  1.0 0.1086352579
H  H509  1  0.97610000  0.69830000  0.93110000  1.0 0.1086352579
H  H510  1  0.52390000  0.80170000  0.43110000  1.0 0.1086352579
H  H511  1  0.52390000  0.19830000  0.06890000  1.0 0.1086352579
H  H512  1  0.97610000  0.30170000  0.56890000  1.0 0.1086352579
H  H513  1  0.14560000  0.30890000  0.97250000  1.0 0.0527366453
H  H514  1  0.35440000  0.19110000  0.47250000  1.0 0.0527366453
H  H515  1  0.35440000  0.80890000  0.02750000  1.0 0.0604541698
H  H516  1  0.14560000  0.69110000  0.52750000  1.0 0.0604541698
H  H517  1  0.85440000  0.69110000  0.02750000  1.0 0.0604541698
H  H518  1  0.64560000  0.80890000  0.52750000  1.0 0.0604541698
H  H519  1  0.64560000  0.19110000  0.97250000  1.0 0.0527366453
H  H520  1  0.85440000  0.30890000  0.47250000  1.0 0.0527366453
H  H521  1  0.16530000  0.35430000  0.00260000  1.0 0.0812947025
H  H522  1  0.33470000  0.14570000  0.50260000  1.0 0.0812947025
H  H523  1  0.33470000  0.85430000  0.99740000  1.0 0.0812947025
H  H524  1  0.16530000  0.64570000  0.49740000  1.0 0.0812947025
H  H525  1  0.83470000  0.64570000  0.99740000  1.0 0.0812947025
H  H526  1  0.66530000  0.85430000  0.49740000  1.0 0.0812947025
H  H527  1  0.66530000  0.14570000  0.00260000  1.0 0.0812947025
H  H528  1  0.83470000  0.35430000  0.50260000  1.0 0.0812947025
H  H529  1  0.17590000  0.29950000  0.01960000  1.0 0.0885819364
H  H530  1  0.32410000  0.20050000  0.51960000  1.0 0.0885819364
H  H531  1  0.32410000  0.79950000  0.98040000  1.0 0.0885819364
H  H532  1  0.17590000  0.70050000  0.48040000  1.0 0.0885819364
H  H533  1  0.82410000  0.70050000  0.98040000  1.0 0.0885819364
H  H534  1  0.67590000  0.79950000  0.48040000  1.0 0.0885819364
H  H535  1  0.67590000  0.20050000  0.01960000  1.0 0.0885819364
H  H536  1  0.82410000  0.29950000  0.51960000  1.0 0.0885819364
H  H537  1  0.02410000  0.37190000  0.98240000  1.0 0.0604541698
H  H538  1  0.47590000  0.12810000  0.48240000  1.0 0.0604541698
H  H539  1  0.47590000  0.87190000  0.01760000  1.0 0.0604541698
H  H540  1  0.02410000  0.62810000  0.51760000  1.0 0.0604541698
H  H541  1  0.97590000  0.62810000  0.01760000  1.0 0.0604541698
H  H542  1  0.52410000  0.87190000  0.51760000  1.0 0.0604541698
H  H543  1  0.52410000  0.12810000  0.98240000  1.0 0.0604541698
H  H544  1  0.97590000  0.37190000  0.48240000  1.0 0.0604541698
H  H545  1  0.97550000  0.33200000  0.00470000  1.0 0.0604541698
H  H546  1  0.52450000  0.16800000  0.50470000  1.0 0.0604541698
H  H547  1  0.52450000  0.83200000  0.99530000  1.0 0.0604541698
H  H548  1  0.97550000  0.66800000  0.49530000  1.0 0.0604541698
H  H549  1  0.02450000  0.66800000  0.99530000  1.0 0.0604541698
H  H550  1  0.47550000  0.83200000  0.49530000  1.0 0.0604541698
H  H551  1  0.47550000  0.16800000  0.00470000  1.0 0.0604541698
H  H552  1  0.02450000  0.33200000  0.50470000  1.0 0.0604541698
H  H553  1  0.00730000  0.37580000  0.03260000  1.0 0.0604541698
H  H554  1  0.49270000  0.12420000  0.53260000  1.0 0.0604541698
H  H555  1  0.49270000  0.87580000  0.96740000  1.0 0.0604541698
H  H556  1  0.00730000  0.62420000  0.46740000  1.0 0.0604541698
H  H557  1  0.99270000  0.62420000  0.96740000  1.0 0.0604541698
H  H558  1  0.50730000  0.87580000  0.46740000  1.0 0.0604541698
H  H559  1  0.50730000  0.12420000  0.03260000  1.0 0.0604541698
H  H560  1  0.99270000  0.37580000  0.53260000  1.0 0.0604541698
H  H561  1  0.98050000  0.34790000  0.03070000  1.0 0.0604541698
H  H562  1  0.51950000  0.15210000  0.53070000  1.0 0.0604541698
H  H563  1  0.51950000  0.84790000  0.96930000  1.0 0.0604541698
H  H564  1  0.98050000  0.65210000  0.46930000  1.0 0.0604541698
H  H565  1  0.01950000  0.65210000  0.96930000  1.0 0.0604541698
H  H566  1  0.48050000  0.84790000  0.46930000  1.0 0.0604541698
H  H567  1  0.48050000  0.15210000  0.03070000  1.0 0.0604541698
H  H568  1  0.01950000  0.34790000  0.53070000  1.0 0.0604541698
H  H569  1  0.02910000  0.38780000  0.00840000  1.0 0.0604541698
H  H570  1  0.47090000  0.11220000  0.50840000  1.0 0.0604541698
H  H571  1  0.47090000  0.88780000  0.99160000  1.0 0.0604541698
H  H572  1  0.02910000  0.61220000  0.49160000  1.0 0.0604541698
H  H573  1  0.97090000  0.61220000  0.99160000  1.0 0.0604541698
H  H574  1  0.52910000  0.88780000  0.49160000  1.0 0.0604541698
H  H575  1  0.52910000  0.11220000  0.00840000  1.0 0.0604541698
H  H576  1  0.97090000  0.38780000  0.50840000  1.0 0.0604541698
H  H577  1  0.99730000  0.34400000  0.98060000  1.0 0.068597022
H  H578  1  0.50270000  0.15600000  0.48060000  1.0 0.068597022
H  H579  1  0.50270000  0.84400000  0.01940000  1.0 0.068597022
H  H580  1  0.99730000  0.65600000  0.51940000  1.0 0.068597022
H  H581  1  0.00270000  0.65600000  0.01940000  1.0 0.068597022
H  H582  1  0.49730000  0.84400000  0.51940000  1.0 0.068597022
H  H583  1  0.49730000  0.15600000  0.98060000  1.0 0.068597022
H  H584  1  0.00270000  0.34400000  0.48060000  1.0 0.068597022
H  H585  1  0.32910000  0.07840000  0.15680000  1.0 0.0604541698
H  H586  1  0.17090000  0.42160000  0.65680000  1.0 0.0604541698
H  H587  1  0.17090000  0.57840000  0.84320000  1.0 0.0604541698
H  H588  1  0.32910000  0.92160000  0.34320000  1.0 0.0604541698
H  H589  1  0.67090000  0.92160000  0.84320000  1.0 0.0604541698
H  H590  1  0.82910000  0.57840000  0.34320000  1.0 0.0604541698
H  H591  1  0.82910000  0.42160000  0.15680000  1.0 0.0604541698
H  H592  1  0.67090000  0.07840000  0.65680000  1.0 0.0604541698
H  H593  1  0.28240000  0.03610000  0.13650000  1.0 0.068597022
H  H594  1  0.21760000  0.46390000  0.63650000  1.0 0.068597022
H  H595  1  0.21760000  0.53610000  0.86350000  1.0 0.068597022
H  H596  1  0.28240000  0.96390000  0.36350000  1.0 0.068597022
H  H597  1  0.71760000  0.96390000  0.86350000  1.0 0.068597022
H  H598  1  0.78240000  0.53610000  0.36350000  1.0 0.068597022
H  H599  1  0.78240000  0.46390000  0.13650000  1.0 0.068597022
H  H600  1  0.71760000  0.03610000  0.63650000  1.0 0.068597022
H  H601  1  0.36450000  0.03300000  0.13290000  1.0 0.0340494485
H  H602  1  0.13550000  0.46700000  0.63290000  1.0 0.0340494485
H  H603  1  0.13550000  0.53300000  0.86710000  1.0 0.0340494485
H  H604  1  0.36450000  0.96700000  0.36710000  1.0 0.0340494485
H  H605  1  0.63550000  0.96700000  0.86710000  1.0 0.0340494485
H  H606  1  0.86450000  0.53300000  0.36710000  1.0 0.0340494485
H  H607  1  0.86450000  0.46700000  0.13290000  1.0 0.0340494485
H  H608  1  0.63550000  0.03300000  0.63290000  1.0 0.0340494485
H  H609  1  0.37770000  0.13680000  0.07340000  1.0 0.1086352579
H  H610  1  0.12230000  0.36320000  0.57340000  1.0 0.1086352579
H  H611  1  0.12230000  0.63680000  0.92660000  1.0 0.1086352579
H  H612  1  0.37770000  0.86320000  0.42660000  1.0 0.1086352579
H  H613  1  0.62230000  0.86320000  0.92660000  1.0 0.1086352579
H  H614  1  0.87770000  0.63680000  0.42660000  1.0 0.1086352579
H  H615  1  0.87770000  0.36320000  0.07340000  1.0 0.1086352579
H  H616  1  0.62230000  0.13680000  0.57340000  1.0 0.1086352579
H  H617  1  0.30770000  0.02210000  0.05710000  1.0 0.0812947025
H  H618  1  0.19230000  0.47790000  0.55710000  1.0 0.0812947025
H  H619  1  0.19230000  0.52210000  0.94290000  1.0 0.0812947025
H  H620  1  0.30770000  0.97790000  0.44290000  1.0 0.0812947025
H  H621  1  0.69230000  0.97790000  0.94290000  1.0 0.0812947025
H  H622  1  0.80770000  0.52210000  0.44290000  1.0 0.0812947025
H  H623  1  0.80770000  0.47790000  0.05710000  1.0 0.0812947025
H  H624  1  0.69230000  0.02210000  0.55710000  1.0 0.0812947025
H  H625  1  0.24310000  0.05840000  0.05860000  1.0 0.1086352579
H  H626  1  0.25690000  0.44160000  0.55860000  1.0 0.1086352579
H  H627  1  0.25690000  0.55840000  0.94140000  1.0 0.1086352579
H  H628  1  0.24310000  0.94160000  0.44140000  1.0 0.1086352579
H  H629  1  0.75690000  0.94160000  0.94140000  1.0 0.1086352579
H  H630  1  0.74310000  0.55840000  0.44140000  1.0 0.1086352579
H  H631  1  0.74310000  0.44160000  0.05860000  1.0 0.1086352579
H  H632  1  0.75690000  0.05840000  0.55860000  1.0 0.1086352579
H  H633  1  0.30980000  0.07270000  0.03120000  1.0 0.0812947025
H  H634  1  0.19020000  0.42730000  0.53120000  1.0 0.0812947025
H  H635  1  0.19020000  0.57270000  0.96880000  1.0 0.0812947025
H  H636  1  0.30980000  0.92730000  0.46880000  1.0 0.0812947025
H  H637  1  0.69020000  0.92730000  0.96880000  1.0 0.0812947025
H  H638  1  0.80980000  0.57270000  0.46880000  1.0 0.0812947025
H  H639  1  0.80980000  0.42730000  0.03120000  1.0 0.0812947025
H  H640  1  0.69020000  0.07270000  0.53120000  1.0 0.0812947025
H  H641  1  0.52280000  0.09960000  0.33520000  1.0 0.0604541698
H  H642  1  0.97720000  0.40040000  0.83520000  1.0 0.0604541698
H  H643  1  0.97720000  0.59960000  0.66480000  1.0 0.0604541698
H  H644  1  0.52280000  0.90040000  0.16480000  1.0 0.0604541698
H  H645  1  0.47720000  0.90040000  0.66480000  1.0 0.0604541698
H  H646  1  0.02280000  0.59960000  0.16480000  1.0 0.0604541698
H  H647  1  0.02280000  0.40040000  0.33520000  1.0 0.0604541698
H  H648  1  0.47720000  0.09960000  0.83520000  1.0 0.0604541698
H  H649  1  0.60060000  0.11820000  0.33080000  1.0 0.068597022
H  H650  1  0.89940000  0.38180000  0.83080000  1.0 0.068597022
H  H651  1  0.89940000  0.61820000  0.66920000  1.0 0.068597022
H  H652  1  0.60060000  0.88180000  0.16920000  1.0 0.068597022
H  H653  1  0.39940000  0.88180000  0.66920000  1.0 0.068597022
H  H654  1  0.10060000  0.61820000  0.16920000  1.0 0.068597022
H  H655  1  0.10060000  0.38180000  0.33080000  1.0 0.068597022
H  H656  1  0.39940000  0.11820000  0.83080000  1.0 0.068597022
H  H657  1  0.54980000  0.14390000  0.36420000  1.0 0.0604541698
H  H658  1  0.95020000  0.35610000  0.86420000  1.0 0.0604541698
H  H659  1  0.95020000  0.64390000  0.63580000  1.0 0.0604541698
H  H660  1  0.54980000  0.85610000  0.13580000  1.0 0.0604541698
H  H661  1  0.45020000  0.85610000  0.63580000  1.0 0.0604541698
H  H662  1  0.04980000  0.64390000  0.13580000  1.0 0.0604541698
H  H663  1  0.04980000  0.35610000  0.36420000  1.0 0.0604541698
H  H664  1  0.45020000  0.14390000  0.86420000  1.0 0.0604541698
H  H665  1  0.42400000  0.04750000  0.12980000  1.0 0.0401616102
H  H666  1  0.07600000  0.45250000  0.62980000  1.0 0.0401616102
H  H667  1  0.07600000  0.54750000  0.87020000  1.0 0.0401616102
H  H668  1  0.42400000  0.95250000  0.37020000  1.0 0.0401616102
H  H669  1  0.57600000  0.95250000  0.87020000  1.0 0.0401616102
H  H670  1  0.92400000  0.54750000  0.37020000  1.0 0.0401616102
H  H671  1  0.92400000  0.45250000  0.12980000  1.0 0.0401616102
H  H672  1  0.57600000  0.04750000  0.62980000  1.0 0.0401616102
H  H673  1  0.37240000  0.00180000  0.13010000  1.0 0.0604541698
H  H674  1  0.12760000  0.49820000  0.63010000  1.0 0.0604541698
H  H675  1  0.12760000  0.50180000  0.86990000  1.0 0.0604541698
H  H676  1  0.37240000  0.99820000  0.36990000  1.0 0.0604541698
H  H677  1  0.62760000  0.99820000  0.86990000  1.0 0.0604541698
H  H678  1  0.87240000  0.50180000  0.36990000  1.0 0.0604541698
H  H679  1  0.87240000  0.49820000  0.13010000  1.0 0.0604541698
H  H680  1  0.62760000  0.00180000  0.63010000  1.0 0.0604541698
H  H681  1  0.40210000  0.02210000  0.08560000  1.0 0.0527366453
H  H682  1  0.09790000  0.47790000  0.58560000  1.0 0.0527366453
H  H683  1  0.09790000  0.52210000  0.91440000  1.0 0.0527366453
H  H684  1  0.40210000  0.97790000  0.41440000  1.0 0.0527366453
H  H685  1  0.59790000  0.97790000  0.91440000  1.0 0.0527366453
H  H686  1  0.90210000  0.52210000  0.41440000  1.0 0.0527366453
H  H687  1  0.90210000  0.47790000  0.08560000  1.0 0.0527366453
H  H688  1  0.59790000  0.02210000  0.58560000  1.0 0.0527366453
C  C1  1  0.24240000  0.32470000  0.43481000  1.0 -0.0510603441
C  C2  1  0.25760000  0.17530000  0.93481000  1.0 -0.0510603441
C  C3  1  0.25760000  0.82470000  0.56519000  1.0 -0.0510603441
C  C4  1  0.24240000  0.67530000  0.06519000  1.0 -0.0510603441
C  C5  1  0.75760000  0.67530000  0.56519000  1.0 -0.0510603441
C  C6  1  0.74240000  0.82470000  0.06519000  1.0 -0.0510603441
C  C7  1  0.74240000  0.17530000  0.43481000  1.0 -0.0510603441
C  C8  1  0.75760000  0.32470000  0.93481000  1.0 -0.0510603441
C  C9  1  0.25080000  0.37160000  0.41910000  1.0 0.2240466007
C  C10  1  0.24920000  0.12840000  0.91910000  1.0 0.2240466007
C  C11  1  0.24920000  0.87160000  0.58090000  1.0 0.2240466007
C  C12  1  0.25080000  0.62840000  0.08090000  1.0 0.2240466007
C  C13  1  0.74920000  0.62840000  0.58090000  1.0 0.2240466007
C  C14  1  0.75080000  0.87160000  0.08090000  1.0 0.2240466007
C  C15  1  0.75080000  0.12840000  0.41910000  1.0 0.2240466007
C  C16  1  0.74920000  0.37160000  0.91910000  1.0 0.2240466007
C  C17  1  0.25550000  0.38030000  0.37588000  1.0 -0.2375843683
C  C18  1  0.24450000  0.11970000  0.87588000  1.0 -0.2375843683
C  C19  1  0.24450000  0.88030000  0.62412000  1.0 -0.2375843683
C  C20  1  0.25550000  0.61970000  0.12412000  1.0 -0.2375843683
C  C21  1  0.74450000  0.61970000  0.62412000  1.0 -0.2375843683
C  C22  1  0.75550000  0.88030000  0.12412000  1.0 -0.2375843683
C  C23  1  0.75550000  0.11970000  0.37588000  1.0 -0.2375843683
C  C24  1  0.74450000  0.38030000  0.87588000  1.0 -0.2375843683
C  C25  1  0.25240000  0.34310000  0.34616000  1.0 -0.0214094252
C  C26  1  0.24760000  0.15690000  0.84616000  1.0 -0.0214094252
C  C27  1  0.24760000  0.84310000  0.65384000  1.0 -0.0214094252
C  C28  1  0.25240000  0.65690000  0.15384000  1.0 -0.0214094252
C  C29  1  0.74760000  0.65690000  0.65384000  1.0 -0.0214094252
C  C30  1  0.75240000  0.84310000  0.15384000  1.0 -0.0214094252
C  C31  1  0.75240000  0.15690000  0.34616000  1.0 -0.0214094252
C  C32  1  0.74760000  0.34310000  0.84616000  1.0 -0.0214094252
C  C33  1  0.24650000  0.29570000  0.36110000  1.0 -0.1081976111
C  C34  1  0.25350000  0.20430000  0.86110000  1.0 -0.1081976111
C  C35  1  0.25350000  0.79570000  0.63890000  1.0 -0.1081976111
C  C36  1  0.24650000  0.70430000  0.13890000  1.0 -0.1081976111
C  C37  1  0.75350000  0.70430000  0.63890000  1.0 -0.1081976111
C  C38  1  0.74650000  0.79570000  0.13890000  1.0 -0.1081976111
C  C39  1  0.74650000  0.20430000  0.36110000  1.0 -0.1081976111
C  C40  1  0.75350000  0.29570000  0.86110000  1.0 -0.1081976111
C  C41  1  0.24170000  0.28660000  0.40430000  1.0 -0.1710125497
C  C42  1  0.25830000  0.21340000  0.90430000  1.0 -0.1710125497
C  C43  1  0.25830000  0.78660000  0.59570000  1.0 -0.1710125497
C  C44  1  0.24170000  0.71340000  0.09570000  1.0 -0.1710125497
C  C45  1  0.75830000  0.71340000  0.59570000  1.0 -0.1710125497
C  C46  1  0.74170000  0.78660000  0.09570000  1.0 -0.1710125497
C  C47  1  0.74170000  0.21340000  0.40430000  1.0 -0.1710125497
C  C48  1  0.75830000  0.28660000  0.90430000  1.0 -0.1710125497
C  C49  1  0.25780000  0.35360000  0.29877000  1.0 0.5672211477
C  C50  1  0.24220000  0.14640000  0.79877000  1.0 0.5672211477
C  C51  1  0.24220000  0.85360000  0.70123000  1.0 0.5672211477
C  C52  1  0.25780000  0.64640000  0.20123000  1.0 0.5672211477
C  C53  1  0.74220000  0.64640000  0.70123000  1.0 0.5672211477
C  C54  1  0.75780000  0.85360000  0.20123000  1.0 0.5672211477
C  C55  1  0.75780000  0.14640000  0.29877000  1.0 0.5672211477
C  C56  1  0.74220000  0.35360000  0.79877000  1.0 0.5672211477
C  C57  1  0.23520000  0.31250000  0.48183000  1.0 -0.0394574
C  C58  1  0.26480000  0.18750000  0.98183000  1.0 -0.0321468271
C  C59  1  0.26480000  0.81250000  0.51817000  1.0 -0.0394574
C  C60  1  0.23520000  0.68750000  0.01817000  1.0 -0.0394574
C  C61  1  0.76480000  0.68750000  0.51817000  1.0 -0.0394574
C  C62  1  0.73520000  0.81250000  0.01817000  1.0 -0.0394574
C  C63  1  0.73520000  0.18750000  0.48183000  1.0 -0.0394574
C  C64  1  0.76480000  0.31250000  0.98183000  1.0 -0.0321468271
C  C65  1  0.28000000  0.32910000  0.51323000  1.0 0.2033495584
C  C66  1  0.22000000  0.17090000  0.01323000  1.0 0.2033495584
C  C67  1  0.22000000  0.82910000  0.48677000  1.0 0.2033495584
C  C68  1  0.28000000  0.67090000  0.98677000  1.0 0.2033495584
C  C69  1  0.72000000  0.67090000  0.48677000  1.0 0.2033495584
C  C70  1  0.78000000  0.82910000  0.98677000  1.0 0.2033495584
C  C71  1  0.78000000  0.17090000  0.51323000  1.0 0.2033495584
C  C72  1  0.72000000  0.32910000  0.01323000  1.0 0.2033495584
C  C73  1  0.27530000  0.31270000  0.55477000  1.0 -0.3323182336
C  C74  1  0.22470000  0.18730000  0.05477000  1.0 -0.3323182336
C  C75  1  0.22470000  0.81270000  0.44523000  1.0 -0.3323182336
C  C76  1  0.27530000  0.68730000  0.94523000  1.0 -0.3323182336
C  C77  1  0.72470000  0.68730000  0.44523000  1.0 -0.3323182336
C  C78  1  0.77530000  0.81270000  0.94523000  1.0 -0.3323182336
C  C79  1  0.77530000  0.18730000  0.55477000  1.0 -0.3323182336
C  C80  1  0.72470000  0.31270000  0.05477000  1.0 -0.3323182336
C  C81  1  0.22320000  0.28030000  0.56669000  1.0 -0.0634867314
C  C82  1  0.27680000  0.21970000  0.06669000  1.0 -0.0634867314
C  C83  1  0.27680000  0.78030000  0.43331000  1.0 -0.0634867314
C  C84  1  0.22320000  0.71970000  0.93331000  1.0 -0.0634867314
C  C85  1  0.77680000  0.71970000  0.43331000  1.0 -0.0634867314
C  C86  1  0.72320000  0.78030000  0.93331000  1.0 -0.0634867314
C  C87  1  0.72320000  0.21970000  0.56669000  1.0 -0.0634867314
C  C88  1  0.77680000  0.28030000  0.06669000  1.0 -0.0634867314
C  C89  1  0.17640000  0.26500000  0.53600000  1.0 -0.1977461524
C  C90  1  0.32360000  0.23500000  0.03600000  1.0 -0.1977461524
C  C91  1  0.32360000  0.76500000  0.46400000  1.0 -0.1977461524
C  C92  1  0.17640000  0.73500000  0.96400000  1.0 -0.1977461524
C  C93  1  0.82360000  0.73500000  0.46400000  1.0 -0.1977461524
C  C94  1  0.67640000  0.76500000  0.96400000  1.0 -0.1977461524
C  C95  1  0.67640000  0.23500000  0.53600000  1.0 -0.1977461524
C  C96  1  0.82360000  0.26500000  0.03600000  1.0 -0.1977461524
C  C97  1  0.18300000  0.27990000  0.49430000  1.0 -0.1710125497
C  C98  1  0.31700000  0.22010000  0.99430000  1.0 -0.1710125497
C  C99  1  0.31700000  0.77990000  0.50570000  1.0 -0.1710125497
C  C100  1  0.18300000  0.72010000  0.00570000  1.0 -0.1710125497
C  C101  1  0.81700000  0.72010000  0.50570000  1.0 -0.1710125497
C  C102  1  0.68300000  0.77990000  0.00570000  1.0 -0.1710125497
C  C103  1  0.68300000  0.22010000  0.49430000  1.0 -0.1710125497
C  C104  1  0.81700000  0.27990000  0.99430000  1.0 -0.1710125497
C  C105  1  0.22250000  0.26030000  0.61111000  1.0 0.5432976016
C  C106  1  0.27750000  0.23970000  0.11111000  1.0 0.5432976016
C  C107  1  0.27750000  0.76030000  0.38889000  1.0 0.5432976016
C  C108  1  0.22250000  0.73970000  0.88889000  1.0 0.5432976016
C  C109  1  0.77750000  0.73970000  0.38889000  1.0 0.5432976016
C  C110  1  0.72250000  0.76030000  0.88889000  1.0 0.5432976016
C  C111  1  0.72250000  0.23970000  0.61111000  1.0 0.5432976016
C  C112  1  0.77750000  0.26030000  0.11111000  1.0 0.5432976016
C  C113  1  0.50490000  0.42991000  0.30133000  1.0 -0.0394574
C  C114  1  0.99510000  0.07009000  0.80133000  1.0 -0.0394574
C  C115  1  0.99510000  0.92991000  0.69867000  1.0 -0.0394574
C  C116  1  0.50490000  0.57009000  0.19867000  1.0 -0.0394574
C  C117  1  0.49510000  0.57009000  0.69867000  1.0 -0.0394574
C  C118  1  0.00490000  0.92991000  0.19867000  1.0 -0.0394574
C  C119  1  0.00490000  0.07009000  0.30133000  1.0 -0.0394574
C  C120  1  0.49510000  0.42991000  0.80133000  1.0 -0.0394574
C  C121  1  0.43700000  0.41860000  0.28904000  1.0 0.2428839073
C  C122  1  0.06300000  0.08140000  0.78904000  1.0 0.2428839073
C  C123  1  0.06300000  0.91860000  0.71096000  1.0 0.2428839073
C  C124  1  0.43700000  0.58140000  0.21096000  1.0 0.2428839073
C  C125  1  0.56300000  0.58140000  0.71096000  1.0 0.2428839073
C  C126  1  0.93700000  0.91860000  0.21096000  1.0 0.2428839073
C  C127  1  0.93700000  0.08140000  0.28904000  1.0 0.2428839073
C  C128  1  0.56300000  0.41860000  0.78904000  1.0 0.2428839073
C  C129  1  0.42250000  0.37924000  0.26278000  1.0 -0.2586127392
C  C130  1  0.07750000  0.12076000  0.76278000  1.0 -0.2586127392
C  C131  1  0.07750000  0.87924000  0.73722000  1.0 -0.2586127392
C  C132  1  0.42250000  0.62076000  0.23722000  1.0 -0.2586127392
C  C133  1  0.57750000  0.62076000  0.73722000  1.0 -0.2586127392
C  C134  1  0.92250000  0.87924000  0.23722000  1.0 -0.2586127392
C  C135  1  0.92250000  0.12076000  0.26278000  1.0 -0.2586127392
C  C136  1  0.57750000  0.37924000  0.76278000  1.0 -0.2586127392
C  C137  1  0.47460000  0.34786000  0.24884000  1.0 -0.0321468271
C  C138  1  0.02540000  0.15214000  0.74884000  1.0 -0.0321468271
C  C139  1  0.02540000  0.84786000  0.75116000  1.0 -0.0321468271
C  C140  1  0.47460000  0.65214000  0.25116000  1.0 -0.0321468271
C  C141  1  0.52540000  0.65214000  0.75116000  1.0 -0.0321468271
C  C142  1  0.97460000  0.84786000  0.25116000  1.0 -0.0321468271
C  C143  1  0.97460000  0.15214000  0.24884000  1.0 -0.0321468271
C  C144  1  0.52540000  0.34786000  0.74884000  1.0 -0.0321468271
C  C145  1  0.54180000  0.35760000  0.26182000  1.0 -0.1265325102
C  C146  1  0.95820000  0.14240000  0.76182000  1.0 -0.1265325102
C  C147  1  0.95820000  0.85760000  0.73818000  1.0 -0.1265325102
C  C148  1  0.54180000  0.64240000  0.23818000  1.0 -0.1265325102
C  C149  1  0.45820000  0.64240000  0.73818000  1.0 -0.1265325102
C  C150  1  0.04180000  0.85760000  0.23818000  1.0 -0.1265325102
C  C151  1  0.04180000  0.14240000  0.26182000  1.0 -0.1265325102
C  C152  1  0.45820000  0.35760000  0.76182000  1.0 -0.1265325102
C  C153  1  0.55670000  0.39760000  0.28706000  1.0 -0.1621131951
C  C154  1  0.94330000  0.10240000  0.78706000  1.0 -0.1621131951
C  C155  1  0.94330000  0.89760000  0.71294000  1.0 -0.1710125497
C  C156  1  0.55670000  0.60240000  0.21294000  1.0 -0.1621131951
C  C157  1  0.44330000  0.60240000  0.71294000  1.0 -0.1621131951
C  C158  1  0.05670000  0.89760000  0.21294000  1.0 -0.1621131951
C  C159  1  0.05670000  0.10240000  0.28706000  1.0 -0.1621131951
C  C160  1  0.44330000  0.39760000  0.78706000  1.0 -0.1621131951
C  C161  1  0.45800000  0.30490000  0.22114000  1.0 0.59995581
C  C162  1  0.04200000  0.19510000  0.72114000  1.0 0.59995581
C  C163  1  0.04200000  0.80490000  0.77886000  1.0 0.59995581
C  C164  1  0.45800000  0.69510000  0.27886000  1.0 0.59995581
C  C165  1  0.54200000  0.69510000  0.77886000  1.0 0.59995581
C  C166  1  0.95800000  0.80490000  0.27886000  1.0 0.59995581
C  C167  1  0.95800000  0.19510000  0.22114000  1.0 0.59995581
C  C168  1  0.54200000  0.30490000  0.72114000  1.0 0.59995581
C  C169  1  0.52280000  0.47403000  0.32733000  1.0 -0.0394574
C  C170  1  0.97720000  0.02597000  0.82733000  1.0 -0.0394574
C  C171  1  0.97720000  0.97403000  0.67267000  1.0 -0.0394574
C  C172  1  0.52280000  0.52597000  0.17267000  1.0 -0.0394574
C  C173  1  0.47720000  0.52597000  0.67267000  1.0 -0.0394574
C  C174  1  0.02280000  0.97403000  0.17267000  1.0 -0.0394574
C  C175  1  0.02280000  0.02597000  0.32733000  1.0 -0.0394574
C  C176  1  0.47720000  0.47403000  0.82733000  1.0 -0.0394574
C  C177  1  0.56400000  0.46947000  0.36413000  1.0 0.2493944892
C  C178  1  0.93600000  0.03053000  0.86413000  1.0 0.2493944892
C  C179  1  0.93600000  0.96947000  0.63587000  1.0 0.2493944892
C  C180  1  0.56400000  0.53053000  0.13587000  1.0 0.2493944892
C  C181  1  0.43600000  0.53053000  0.63587000  1.0 0.2493944892
C  C182  1  0.06400000  0.96947000  0.13587000  1.0 0.2493944892
C  C183  1  0.06400000  0.03053000  0.36413000  1.0 0.2493944892
C  C184  1  0.43600000  0.46947000  0.86413000  1.0 0.2493944892
C  C185  1  0.58470000  0.51179000  0.38653000  1.0 -0.2258718184
C  C186  1  0.91530000  0.98821000  0.88653000  1.0 -0.2258718184
C  C187  1  0.91530000  0.01179000  0.61347000  1.0 -0.2258718184
C  C188  1  0.58470000  0.48821000  0.11347000  1.0 -0.2258718184
C  C189  1  0.41530000  0.48821000  0.61347000  1.0 -0.2258718184
C  C190  1  0.08470000  0.01179000  0.11347000  1.0 -0.2258718184
C  C191  1  0.08470000  0.98821000  0.38653000  1.0 -0.2258718184
C  C192  1  0.41530000  0.51179000  0.88653000  1.0 -0.2258718184
C  C193  1  0.56590000  0.55813000  0.37321000  1.0 -0.0214094252
C  C194  1  0.93410000  0.94187000  0.87321000  1.0 -0.0214094252
C  C195  1  0.93410000  0.05813000  0.62679000  1.0 -0.0214094252
C  C196  1  0.56590000  0.44187000  0.12679000  1.0 -0.0214094252
C  C197  1  0.43410000  0.44187000  0.62679000  1.0 -0.0214094252
C  C198  1  0.06590000  0.05813000  0.12679000  1.0 -0.0214094252
C  C199  1  0.06590000  0.94187000  0.37321000  1.0 -0.0214094252
C  C200  1  0.43410000  0.55813000  0.87321000  1.0 -0.0214094252
C  C201  1  0.52550000  0.56261000  0.33669000  1.0 -0.1621131951
C  C202  1  0.97450000  0.93739000  0.83669000  1.0 -0.1621131951
C  C203  1  0.97450000  0.06261000  0.66331000  1.0 -0.1621131951
C  C204  1  0.52550000  0.43739000  0.16331000  1.0 -0.1621131951
C  C205  1  0.47450000  0.43739000  0.66331000  1.0 -0.1621131951
C  C206  1  0.02550000  0.06261000  0.16331000  1.0 -0.1621131951
C  C207  1  0.02550000  0.93739000  0.33669000  1.0 -0.1621131951
C  C208  1  0.47450000  0.56261000  0.83669000  1.0 -0.1621131951
C  C209  1  0.50380000  0.52080000  0.31467000  1.0 -0.1230320952
C  C210  1  0.99620000  0.97920000  0.81467000  1.0 -0.1230320952
C  C211  1  0.99620000  0.02080000  0.68533000  1.0 -0.1230320952
C  C212  1  0.50380000  0.47920000  0.18533000  1.0 -0.1230320952
C  C213  1  0.49620000  0.47920000  0.68533000  1.0 -0.1230320952
C  C214  1  0.00380000  0.02080000  0.18533000  1.0 -0.1230320952
C  C215  1  0.00380000  0.97920000  0.31467000  1.0 -0.1230320952
C  C216  1  0.49620000  0.52080000  0.81467000  1.0 -0.1230320952
C  C217  1  0.59090000  0.60268000  0.39778000  1.0 0.5672211477
C  C218  1  0.90910000  0.89732000  0.89778000  1.0 0.5672211477
C  C219  1  0.90910000  0.10268000  0.60222000  1.0 0.5672211477
C  C220  1  0.59090000  0.39732000  0.10222000  1.0 0.5672211477
C  C221  1  0.40910000  0.39732000  0.60222000  1.0 0.5672211477
C  C222  1  0.09090000  0.10268000  0.10222000  1.0 0.5672211477
C  C223  1  0.09090000  0.89732000  0.39778000  1.0 0.5672211477
C  C224  1  0.40910000  0.60268000  0.89778000  1.0 0.5672211477
C  C225  1  0.06720000  0.47530000  0.24000000  1.0 -0.0394574
C  C226  1  0.43280000  0.02470000  0.74000000  1.0 -0.0394574
C  C227  1  0.43280000  0.97530000  0.76000000  1.0 -0.0394574
C  C228  1  0.06720000  0.52470000  0.26000000  1.0 -0.0394574
C  C229  1  0.93280000  0.52470000  0.76000000  1.0 -0.0394574
C  C230  1  0.56720000  0.97530000  0.26000000  1.0 -0.0394574
C  C231  1  0.56720000  0.02470000  0.24000000  1.0 -0.0394574
C  C232  1  0.93280000  0.47530000  0.74000000  1.0 -0.0394574
C  C233  1  0.12060000  0.44380000  0.24990000  1.0 0.2325212617
C  C234  1  0.37940000  0.05620000  0.74990000  1.0 0.2325212617
C  C235  1  0.37940000  0.94380000  0.75010000  1.0 0.2325212617
C  C236  1  0.12060000  0.55620000  0.25010000  1.0 0.2325212617
C  C237  1  0.87940000  0.55620000  0.75010000  1.0 0.2325212617
C  C238  1  0.62060000  0.94380000  0.25010000  1.0 0.2325212617
C  C239  1  0.62060000  0.05620000  0.24990000  1.0 0.2325212617
C  C240  1  0.87940000  0.44380000  0.74990000  1.0 0.2325212617
C  C241  1  0.12710000  0.39840000  0.22910000  1.0 -0.2696718707
C  C242  1  0.37290000  0.10160000  0.72910000  1.0 -0.2696718707
C  C243  1  0.37290000  0.89840000  0.77090000  1.0 -0.2696718707
C  C244  1  0.12710000  0.60160000  0.27090000  1.0 -0.2696718707
C  C245  1  0.87290000  0.60160000  0.77090000  1.0 -0.2696718707
C  C246  1  0.62710000  0.89840000  0.27090000  1.0 -0.2696718707
C  C247  1  0.62710000  0.10160000  0.22910000  1.0 -0.2696718707
C  C248  1  0.87290000  0.39840000  0.72910000  1.0 -0.2696718707
C  C249  1  0.07930000  0.38412000  0.19880000  1.0 -0.0214094252
C  C250  1  0.42070000  0.11588000  0.69880000  1.0 -0.0214094252
C  C251  1  0.42070000  0.88412000  0.80120000  1.0 -0.0214094252
C  C252  1  0.07930000  0.61588000  0.30120000  1.0 -0.0214094252
C  C253  1  0.92070000  0.61588000  0.80120000  1.0 -0.0214094252
C  C254  1  0.57930000  0.88412000  0.30120000  1.0 -0.0214094252
C  C255  1  0.57930000  0.11588000  0.19880000  1.0 -0.0214094252
C  C256  1  0.92070000  0.38412000  0.69880000  1.0 -0.0214094252
C  C257  1  0.02470000  0.41500000  0.18790000  1.0 -0.2193247334
C  C258  1  0.47530000  0.08500000  0.68790000  1.0 -0.2193247334
C  C259  1  0.47530000  0.91500000  0.81210000  1.0 -0.2193247334
C  C260  1  0.02470000  0.58500000  0.31210000  1.0 -0.2193247334
C  C261  1  0.97530000  0.58500000  0.81210000  1.0 -0.2193247334
C  C262  1  0.52470000  0.91500000  0.31210000  1.0 -0.2193247334
C  C263  1  0.52470000  0.08500000  0.18790000  1.0 -0.2193247334
C  C264  1  0.97530000  0.41500000  0.68790000  1.0 -0.2193247334
C  C265  1  0.01940000  0.46050000  0.20900000  1.0 -0.213288179
C  C266  1  0.48060000  0.03950000  0.70900000  1.0 -0.213288179
C  C267  1  0.48060000  0.96050000  0.79100000  1.0 -0.213288179
C  C268  1  0.01940000  0.53950000  0.29100000  1.0 -0.213288179
C  C269  1  0.98060000  0.53950000  0.79100000  1.0 -0.213288179
C  C270  1  0.51940000  0.96050000  0.29100000  1.0 -0.213288179
C  C271  1  0.51940000  0.03950000  0.20900000  1.0 -0.213288179
C  C272  1  0.98060000  0.46050000  0.70900000  1.0 -0.213288179
C  C273  1  0.08690000  0.33436000  0.17857000  1.0 0.5455293932
C  C274  1  0.41310000  0.16564000  0.67857000  1.0 0.5455293932
C  C275  1  0.41310000  0.83436000  0.82143000  1.0 0.5455293932
C  C276  1  0.08690000  0.66564000  0.32143000  1.0 0.5455293932
C  C277  1  0.91310000  0.66564000  0.82143000  1.0 0.5455293932
C  C278  1  0.58690000  0.83436000  0.32143000  1.0 0.5455293932
C  C279  1  0.58690000  0.16564000  0.17857000  1.0 0.5455293932
C  C280  1  0.91310000  0.33436000  0.67857000  1.0 0.5455293932
C  C281  1  0.25170000  0.02700000  0.24430000  1.0 -0.0394574
C  C282  1  0.24830000  0.47300000  0.74430000  1.0 -0.0394574
C  C283  1  0.24830000  0.52700000  0.75570000  1.0 -0.0394574
C  C284  1  0.25170000  0.97300000  0.25570000  1.0 -0.0394574
C  C285  1  0.74830000  0.97300000  0.75570000  1.0 -0.0394574
C  C286  1  0.75170000  0.52700000  0.25570000  1.0 -0.0394574
C  C287  1  0.75170000  0.47300000  0.24430000  1.0 -0.0394574
C  C288  1  0.74830000  0.02700000  0.74430000  1.0 -0.0394574
C  C289  1  0.30670000  0.05780000  0.25440000  1.0 0.1864696738
C  C290  1  0.19330000  0.44220000  0.75440000  1.0 0.1864696738
C  C291  1  0.19330000  0.55780000  0.74560000  1.0 0.1864696738
C  C292  1  0.30670000  0.94220000  0.24560000  1.0 0.1864696738
C  C293  1  0.69330000  0.94220000  0.74560000  1.0 0.1864696738
C  C294  1  0.80670000  0.55780000  0.24560000  1.0 0.1864696738
C  C295  1  0.80670000  0.44220000  0.25440000  1.0 0.1864696738
C  C296  1  0.69330000  0.05780000  0.75440000  1.0 0.1864696738
C  C297  1  0.30480000  0.10660000  0.24340000  1.0 -0.2375843683
C  C298  1  0.19520000  0.39340000  0.74340000  1.0 -0.2375843683
C  C299  1  0.19520000  0.60660000  0.75660000  1.0 -0.2375843683
C  C300  1  0.30480000  0.89340000  0.25660000  1.0 -0.2375843683
C  C301  1  0.69520000  0.89340000  0.75660000  1.0 -0.2375843683
C  C302  1  0.80480000  0.60660000  0.25660000  1.0 -0.2375843683
C  C303  1  0.80480000  0.39340000  0.24340000  1.0 -0.2375843683
C  C304  1  0.69520000  0.10660000  0.74340000  1.0 -0.2375843683
C  C305  1  0.24690000  0.12790000  0.22449000  1.0 -0.0321468271
C  C306  1  0.25310000  0.37210000  0.72449000  1.0 -0.0321468271
C  C307  1  0.25310000  0.62790000  0.77551000  1.0 -0.0321468271
C  C308  1  0.24690000  0.87210000  0.27551000  1.0 -0.0321468271
C  C309  1  0.75310000  0.87210000  0.77551000  1.0 -0.0321468271
C  C310  1  0.74690000  0.62790000  0.27551000  1.0 -0.0321468271
C  C311  1  0.74690000  0.37210000  0.22449000  1.0 -0.0321468271
C  C312  1  0.75310000  0.12790000  0.72449000  1.0 -0.0321468271
C  C313  1  0.19180000  0.09697000  0.21470000  1.0 -0.1458347014
C  C314  1  0.30820000  0.40303000  0.71470000  1.0 -0.1458347014
C  C315  1  0.30820000  0.59697000  0.78530000  1.0 -0.1458347014
C  C316  1  0.19180000  0.90303000  0.28530000  1.0 -0.1458347014
C  C317  1  0.80820000  0.90303000  0.78530000  1.0 -0.1458347014
C  C318  1  0.69180000  0.59697000  0.28530000  1.0 -0.1458347014
C  C319  1  0.69180000  0.40303000  0.21470000  1.0 -0.1458347014
C  C320  1  0.80820000  0.09697000  0.71470000  1.0 -0.1458347014
C  C321  1  0.19480000  0.04700000  0.22423000  1.0 -0.1710125497
C  C322  1  0.30520000  0.45300000  0.72423000  1.0 -0.1710125497
C  C323  1  0.30520000  0.54700000  0.77577000  1.0 -0.1710125497
C  C324  1  0.19480000  0.95300000  0.27577000  1.0 -0.1710125497
C  C325  1  0.80520000  0.95300000  0.77577000  1.0 -0.1710125497
C  C326  1  0.69480000  0.54700000  0.27577000  1.0 -0.1710125497
C  C327  1  0.69480000  0.45300000  0.22423000  1.0 -0.1710125497
C  C328  1  0.80520000  0.04700000  0.72423000  1.0 -0.1710125497
C  C329  1  0.24450000  0.18180000  0.21503000  1.0 0.5873656997
C  C330  1  0.25550000  0.31820000  0.71503000  1.0 0.5873656997
C  C331  1  0.25550000  0.68180000  0.78497000  1.0 0.5873656997
C  C332  1  0.24450000  0.81820000  0.28497000  1.0 0.5873656997
C  C333  1  0.75550000  0.81820000  0.78497000  1.0 0.5873656997
C  C334  1  0.74450000  0.68180000  0.28497000  1.0 0.5873656997
C  C335  1  0.74450000  0.31820000  0.21503000  1.0 0.5873656997
C  C336  1  0.75550000  0.18180000  0.71503000  1.0 0.5873656997
C  C337  1  0.94680000  0.18730000  0.10627000  1.0 0.2911195287
C  C338  1  0.55320000  0.31270000  0.60627000  1.0 0.2911195287
C  C339  1  0.55320000  0.68730000  0.89373000  1.0 0.2911195287
C  C340  1  0.94680000  0.81270000  0.39373000  1.0 0.2911195287
C  C341  1  0.05320000  0.81270000  0.89373000  1.0 0.2911195287
C  C342  1  0.44680000  0.68730000  0.39373000  1.0 0.2911195287
C  C343  1  0.44680000  0.31270000  0.10627000  1.0 0.2911195287
C  C344  1  0.05320000  0.18730000  0.60627000  1.0 0.2911195287
C  C345  1  0.98900000  0.18490000  0.03370000  1.0 -0.3509269825
C  C346  1  0.51100000  0.31510000  0.53370000  1.0 -0.3509269825
C  C347  1  0.51100000  0.68490000  0.96630000  1.0 -0.3509269825
C  C348  1  0.98900000  0.81510000  0.46630000  1.0 -0.3509269825
C  C349  1  0.01100000  0.81510000  0.96630000  1.0 -0.3509269825
C  C350  1  0.48900000  0.68490000  0.46630000  1.0 -0.3509269825
C  C351  1  0.48900000  0.31510000  0.03370000  1.0 -0.3509269825
C  C352  1  0.01100000  0.18490000  0.53370000  1.0 -0.3509269825
C  C353  1  0.91040000  0.11810000  0.06140000  1.0 -0.3585506103
C  C354  1  0.58960000  0.38190000  0.56140000  1.0 -0.3585506103
C  C355  1  0.58960000  0.61810000  0.93860000  1.0 -0.3585506103
C  C356  1  0.91040000  0.88190000  0.43860000  1.0 -0.3585506103
C  C357  1  0.08960000  0.88190000  0.93860000  1.0 -0.3585506103
C  C358  1  0.41040000  0.61810000  0.43860000  1.0 -0.3585506103
C  C359  1  0.41040000  0.38190000  0.06140000  1.0 -0.3585506103
C  C360  1  0.08960000  0.11810000  0.56140000  1.0 -0.3585506103
C  C361  1  0.48420000  0.16670000  0.27390000  1.0 0.2577718624
C  C362  1  0.01580000  0.33333333  0.77390000  1.0 0.2577718624
C  C363  1  0.01580000  0.66666667  0.72610000  1.0 0.2577718624
C  C364  1  0.48420000  0.83330000  0.22610000  1.0 0.2577718624
C  C365  1  0.51580000  0.83330000  0.72610000  1.0 0.2577718624
C  C366  1  0.98420000  0.66666667  0.22610000  1.0 0.2577718624
C  C367  1  0.98420000  0.33333333  0.27390000  1.0 0.2577718624
C  C368  1  0.51580000  0.16670000  0.77390000  1.0 0.2577718624
C  C369  1  0.55300000  0.12840000  0.33600000  1.0 -0.3173655963
C  C370  1  0.94700000  0.37160000  0.83600000  1.0 -0.3173655963
C  C371  1  0.94700000  0.62840000  0.66400000  1.0 -0.3173655963
C  C372  1  0.55300000  0.87160000  0.16400000  1.0 -0.3173655963
C  C373  1  0.44700000  0.87160000  0.66400000  1.0 -0.3173655963
C  C374  1  0.05300000  0.62840000  0.16400000  1.0 -0.3173655963
C  C375  1  0.05300000  0.37160000  0.33600000  1.0 -0.3173655963
C  C376  1  0.44700000  0.12840000  0.83600000  1.0 -0.3173655963
C  C377  1  0.56170000  0.21790000  0.29950000  1.0 -0.3585506103
C  C378  1  0.93830000  0.28210000  0.79950000  1.0 -0.3585506103
C  C379  1  0.93830000  0.71790000  0.70050000  1.0 -0.3585506103
C  C380  1  0.56170000  0.78210000  0.20050000  1.0 -0.3585506103
C  C381  1  0.43830000  0.78210000  0.70050000  1.0 -0.3585506103
C  C382  1  0.06170000  0.71790000  0.20050000  1.0 -0.3585506103
C  C383  1  0.06170000  0.28210000  0.29950000  1.0 -0.3585506103
C  C384  1  0.43830000  0.21790000  0.79950000  1.0 -0.3585506103
C  C385  1  0.26990000  0.40920000  0.16440000  1.0 0.1293852983
C  C386  1  0.23010000  0.09080000  0.66440000  1.0 0.1293852983
C  C387  1  0.23010000  0.90920000  0.83560000  1.0 0.1293852983
C  C388  1  0.26990000  0.59080000  0.33560000  1.0 0.1293852983
C  C389  1  0.73010000  0.59080000  0.83560000  1.0 0.1293852983
C  C390  1  0.76990000  0.90920000  0.33560000  1.0 0.1293852983
C  C391  1  0.76990000  0.09080000  0.16440000  1.0 0.1293852983
C  C392  1  0.73010000  0.40920000  0.66440000  1.0 0.1293852983
C  C393  1  0.19130000  0.47650000  0.13120000  1.0 -0.3984339631
C  C394  1  0.30870000  0.02350000  0.63120000  1.0 -0.3984339631
C  C395  1  0.30870000  0.97650000  0.86880000  1.0 -0.3984339631
C  C396  1  0.19130000  0.52350000  0.36880000  1.0 -0.3984339631
C  C397  1  0.80870000  0.52350000  0.86880000  1.0 -0.3984339631
C  C398  1  0.69130000  0.97650000  0.36880000  1.0 -0.3984339631
C  C399  1  0.69130000  0.02350000  0.13120000  1.0 -0.3984339631
C  C400  1  0.80870000  0.47650000  0.63120000  1.0 -0.3984339631
C  C401  1  0.21240000  0.39760000  0.10980000  1.0 -0.2586127392
C  C402  1  0.28760000  0.10240000  0.60980000  1.0 -0.2586127392
C  C403  1  0.28760000  0.89760000  0.89020000  1.0 -0.2586127392
C  C404  1  0.21240000  0.60240000  0.39020000  1.0 -0.2586127392
C  C405  1  0.78760000  0.60240000  0.89020000  1.0 -0.2586127392
C  C406  1  0.71240000  0.89760000  0.39020000  1.0 -0.2586127392
C  C407  1  0.71240000  0.10240000  0.10980000  1.0 -0.2586127392
C  C408  1  0.78760000  0.39760000  0.60980000  1.0 -0.2586127392
C  C409  1  0.15500000  0.29640000  0.06110000  1.0 0.068597022
C  C410  1  0.34500000  0.20360000  0.56110000  1.0 0.068597022
C  C411  1  0.34500000  0.79640000  0.93890000  1.0 0.068597022
C  C412  1  0.15500000  0.70360000  0.43890000  1.0 0.068597022
C  C413  1  0.84500000  0.70360000  0.93890000  1.0 0.068597022
C  C414  1  0.65500000  0.79640000  0.43890000  1.0 0.068597022
C  C415  1  0.65500000  0.20360000  0.06110000  1.0 0.068597022
C  C416  1  0.84500000  0.29640000  0.56110000  1.0 0.068597022
C  C417  1  0.13650000  0.28690000  0.98710000  1.0 -0.1621131951
C  C418  1  0.36350000  0.21310000  0.48710000  1.0 -0.1621131951
C  C419  1  0.36350000  0.78690000  0.01290000  1.0 -0.1621131951
C  C420  1  0.13650000  0.71310000  0.51290000  1.0 -0.1621131951
C  C421  1  0.86350000  0.71310000  0.01290000  1.0 -0.1621131951
C  C422  1  0.63650000  0.78690000  0.51290000  1.0 -0.1621131951
C  C423  1  0.63650000  0.21310000  0.98710000  1.0 -0.1621131951
C  C424  1  0.86350000  0.28690000  0.48710000  1.0 -0.1621131951
C  C425  1  0.22700000  0.34190000  0.01380000  1.0 -0.2696718707
C  C426  1  0.27300000  0.15810000  0.51380000  1.0 -0.2696718707
C  C427  1  0.27300000  0.84190000  0.98620000  1.0 -0.2696718707
C  C428  1  0.22700000  0.65810000  0.48620000  1.0 -0.2696718707
C  C429  1  0.77300000  0.65810000  0.98620000  1.0 -0.2696718707
C  C430  1  0.72700000  0.84190000  0.48620000  1.0 -0.2696718707
C  C431  1  0.72700000  0.15810000  0.01380000  1.0 -0.2696718707
C  C432  1  0.77300000  0.34190000  0.51380000  1.0 -0.2696718707
C  C433  1  0.33200000  0.11050000  0.12850000  1.0 0.1006402762
C  C434  1  0.16800000  0.38950000  0.62850000  1.0 0.1006402762
C  C435  1  0.16800000  0.61050000  0.87150000  1.0 0.1006402762
C  C436  1  0.33200000  0.88950000  0.37150000  1.0 0.1006402762
C  C437  1  0.66800000  0.88950000  0.87150000  1.0 0.1006402762
C  C438  1  0.83200000  0.61050000  0.37150000  1.0 0.1006402762
C  C439  1  0.83200000  0.38950000  0.12850000  1.0 0.1006402762
C  C440  1  0.66800000  0.11050000  0.62850000  1.0 0.1006402762
C  C441  1  0.25920000  0.04260000  0.10610000  1.0 -0.1414659753
C  C442  1  0.24080000  0.45740000  0.60610000  1.0 -0.1414659753
C  C443  1  0.24080000  0.54260000  0.89390000  1.0 -0.1414659753
C  C444  1  0.25920000  0.95740000  0.39390000  1.0 -0.1414659753
C  C445  1  0.74080000  0.95740000  0.89390000  1.0 -0.1414659753
C  C446  1  0.75920000  0.54260000  0.39390000  1.0 -0.1414659753
C  C447  1  0.75920000  0.45740000  0.10610000  1.0 -0.1414659753
C  C448  1  0.74080000  0.04260000  0.60610000  1.0 -0.1414659753
C  C449  1  0.38640000  0.03130000  0.11440000  1.0 -0.2864822991
C  C450  1  0.11360000  0.46870000  0.61440000  1.0 -0.2864822991
C  C451  1  0.11360000  0.53130000  0.88560000  1.0 -0.2864822991
C  C452  1  0.38640000  0.96870000  0.38560000  1.0 -0.2864822991
C  C453  1  0.61360000  0.96870000  0.88560000  1.0 -0.2864822991
C  C454  1  0.88640000  0.53130000  0.38560000  1.0 -0.2864822991
C  C455  1  0.88640000  0.46870000  0.11440000  1.0 -0.2864822991
C  C456  1  0.61360000  0.03130000  0.61440000  1.0 -0.2864822991
C  C457  1  0.24560000  0.39140000  0.13830000  1.0 0.0604541698
C  C458  1  0.25440000  0.10860000  0.63830000  1.0 0.0604541698
C  C459  1  0.25440000  0.89140000  0.86170000  1.0 0.0604541698
C  C460  1  0.24560000  0.60860000  0.36170000  1.0 0.0604541698
C  C461  1  0.75440000  0.60860000  0.86170000  1.0 0.0604541698
C  C462  1  0.74560000  0.89140000  0.36170000  1.0 0.0604541698
C  C463  1  0.74560000  0.10860000  0.13830000  1.0 0.0604541698
C  C464  1  0.75440000  0.39140000  0.63830000  1.0 0.0604541698
C  C465  1  0.28630000  0.45950000  0.18030000  1.0 -0.3362790368
C  C466  1  0.21370000  0.04050000  0.68030000  1.0 -0.3362790368
C  C467  1  0.21370000  0.95950000  0.81970000  1.0 -0.3362790368
C  C468  1  0.28630000  0.54050000  0.31970000  1.0 -0.3362790368
C  C469  1  0.71370000  0.54050000  0.81970000  1.0 -0.3362790368
C  C470  1  0.78630000  0.95950000  0.31970000  1.0 -0.3362790368
C  C471  1  0.78630000  0.04050000  0.18030000  1.0 -0.3362790368
C  C472  1  0.71370000  0.45950000  0.68030000  1.0 -0.3362790368
C  C473  1  0.06770000  0.29710000  0.05600000  1.0 -0.0136189598
C  C474  1  0.43230000  0.20290000  0.55600000  1.0 -0.0136189598
C  C475  1  0.43230000  0.79710000  0.94400000  1.0 -0.0136189598
C  C476  1  0.06770000  0.70290000  0.44400000  1.0 -0.0136189598
C  C477  1  0.93230000  0.70290000  0.94400000  1.0 -0.0136189598
C  C478  1  0.56770000  0.79710000  0.44400000  1.0 -0.0136189598
C  C479  1  0.56770000  0.20290000  0.05600000  1.0 -0.0136189598
C  C480  1  0.93230000  0.29710000  0.55600000  1.0 -0.0136189598
C  C481  1  0.14670000  0.32090000  0.00210000  1.0 0.0184363231
C  C482  1  0.35330000  0.17910000  0.50210000  1.0 0.0184363231
C  C483  1  0.35330000  0.82090000  0.99790000  1.0 0.0184363231
C  C484  1  0.14670000  0.67910000  0.49790000  1.0 0.0184363231
C  C485  1  0.85330000  0.67910000  0.99790000  1.0 0.0184363231
C  C486  1  0.64670000  0.82090000  0.49790000  1.0 0.0184363231
C  C487  1  0.64670000  0.17910000  0.00210000  1.0 0.0184363231
C  C488  1  0.85330000  0.32090000  0.50210000  1.0 0.0184363231
C  C489  1  0.01580000  0.35320000  0.00870000  1.0 -0.3509269825
C  C490  1  0.48420000  0.14680000  0.50870000  1.0 -0.3509269825
C  C491  1  0.48420000  0.85320000  0.99130000  1.0 -0.3509269825
C  C492  1  0.01580000  0.64680000  0.49130000  1.0 -0.3509269825
C  C493  1  0.98420000  0.64680000  0.99130000  1.0 -0.3509269825
C  C494  1  0.51580000  0.85320000  0.49130000  1.0 -0.3509269825
C  C495  1  0.51580000  0.14680000  0.00870000  1.0 -0.3509269825
C  C496  1  0.98420000  0.35320000  0.50870000  1.0 -0.3509269825
C  C497  1  0.32480000  0.05520000  0.13300000  1.0 0.0401616102
C  C498  1  0.17520000  0.44480000  0.63300000  1.0 0.0340494485
C  C499  1  0.17520000  0.55520000  0.86700000  1.0 0.0340494485
C  C500  1  0.32480000  0.94480000  0.36700000  1.0 0.0340494485
C  C501  1  0.67520000  0.94480000  0.86700000  1.0 0.0401616102
C  C502  1  0.82480000  0.55520000  0.36700000  1.0 0.0401616102
C  C503  1  0.82480000  0.44480000  0.13300000  1.0 0.0401616102
C  C504  1  0.67520000  0.05520000  0.63300000  1.0 0.0401616102
C  C505  1  0.36350000  0.12040000  0.09870000  1.0 -0.0136189598
C  C506  1  0.13650000  0.37960000  0.59870000  1.0 -0.0136189598
C  C507  1  0.13650000  0.62040000  0.90130000  1.0 -0.0136189598
C  C508  1  0.36350000  0.87960000  0.40130000  1.0 -0.0136189598
C  C509  1  0.63650000  0.87960000  0.90130000  1.0 -0.0136189598
C  C510  1  0.86350000  0.62040000  0.40130000  1.0 -0.0136189598
C  C511  1  0.86350000  0.37960000  0.09870000  1.0 -0.0136189598
C  C512  1  0.63650000  0.12040000  0.59870000  1.0 -0.0136189598
C  C513  1  0.29340000  0.05660000  0.05740000  1.0 -0.2193247334
C  C514  1  0.20660000  0.44340000  0.55740000  1.0 -0.2193247334
C  C515  1  0.20660000  0.55660000  0.94260000  1.0 -0.2193247334
C  C516  1  0.29340000  0.94340000  0.44260000  1.0 -0.2193247334
C  C517  1  0.70660000  0.94340000  0.94260000  1.0 -0.2193247334
C  C518  1  0.79340000  0.55660000  0.44260000  1.0 -0.2193247334
C  C519  1  0.79340000  0.44340000  0.05740000  1.0 -0.2193247334
C  C520  1  0.70660000  0.05660000  0.55740000  1.0 -0.2193247334
N  N1  1  0.94780000  0.16502000  0.06843000  1.0 0.0184363231
N  N2  1  0.55220000  0.33498000  0.56843000  1.0 0.0184363231
N  N3  1  0.55220000  0.66502000  0.93157000  1.0 0.0184363231
N  N4  1  0.94780000  0.83498000  0.43157000  1.0 0.0184363231
N  N5  1  0.05220000  0.83498000  0.93157000  1.0 0.0184363231
N  N6  1  0.44780000  0.66502000  0.43157000  1.0 0.0184363231
N  N7  1  0.44780000  0.33498000  0.06843000  1.0 0.0184363231
N  N8  1  0.05220000  0.16502000  0.56843000  1.0 0.0184363231
N  N9  1  0.53020000  0.16590000  0.30030000  1.0 0.0027229024
N  N10  1  0.96980000  0.33410000  0.80030000  1.0 0.0027229024
N  N11  1  0.96980000  0.66590000  0.69970000  1.0 0.0027229024
N  N12  1  0.53020000  0.83410000  0.19970000  1.0 0.0027229024
N  N13  1  0.46980000  0.83410000  0.69970000  1.0 0.0027229024
N  N14  1  0.03020000  0.66590000  0.19970000  1.0 0.0027229024
N  N15  1  0.03020000  0.33410000  0.30030000  1.0 0.0027229024
N  N16  1  0.46980000  0.16590000  0.80030000  1.0 0.0027229024
N  N17  1  0.17670000  0.30910000  0.02410000  1.0 0.1006402762
N  N18  1  0.32330000  0.19090000  0.52410000  1.0 0.1006402762
N  N19  1  0.32330000  0.80910000  0.97590000  1.0 0.1006402762
N  N20  1  0.17670000  0.69090000  0.47590000  1.0 0.1006402762
N  N21  1  0.82330000  0.69090000  0.97590000  1.0 0.1006402762
N  N22  1  0.67670000  0.80910000  0.47590000  1.0 0.1006402762
N  N23  1  0.67670000  0.19090000  0.02410000  1.0 0.1006402762
N  N24  1  0.82330000  0.30910000  0.52410000  1.0 0.1006402762
N  N25  1  0.32720000  0.06500000  0.11090000  1.0 0.1753885278
N  N26  1  0.17280000  0.43500000  0.61090000  1.0 0.1753885278
N  N27  1  0.17280000  0.56500000  0.88910000  1.0 0.1753885278
N  N28  1  0.32720000  0.93500000  0.38910000  1.0 0.1753885278
N  N29  1  0.67280000  0.93500000  0.88910000  1.0 0.1753885278
N  N30  1  0.82720000  0.56500000  0.38910000  1.0 0.1753885278
N  N31  1  0.82720000  0.43500000  0.11090000  1.0 0.1753885278
N  N32  1  0.67280000  0.06500000  0.61090000  1.0 0.1753885278
N  N33  1  0.23520000  0.43710000  0.14200000  1.0 0.1485734719
N  N34  1  0.26480000  0.06290000  0.64200000  1.0 0.1485734719
N  N35  1  0.26480000  0.93710000  0.85800000  1.0 0.1485734719
N  N36  1  0.23520000  0.56290000  0.35800000  1.0 0.1485734719
N  N37  1  0.76480000  0.56290000  0.85800000  1.0 0.1485734719
N  N38  1  0.73520000  0.93710000  0.35800000  1.0 0.1485734719
N  N39  1  0.73520000  0.06290000  0.14200000  1.0 0.1485734719
N  N40  1  0.76480000  0.43710000  0.64200000  1.0 0.1485734719
N  N41  1  0.07970000  0.32120000  0.01900000  1.0 -0.0510603441
N  N42  1  0.42030000  0.17880000  0.51900000  1.0 -0.0510603441
N  N43  1  0.42030000  0.82120000  0.98100000  1.0 -0.0510603441
N  N44  1  0.07970000  0.67880000  0.48100000  1.0 -0.0510603441
N  N45  1  0.92030000  0.67880000  0.98100000  1.0 -0.0510603441
N  N46  1  0.57970000  0.82120000  0.48100000  1.0 -0.0510603441
N  N47  1  0.57970000  0.17880000  0.01900000  1.0 -0.0510603441
N  N48  1  0.92030000  0.32120000  0.51900000  1.0 -0.0510603441
N  N49  1  0.32230000  0.08070000  0.09440000  1.0 0.1485734719
N  N50  1  0.17770000  0.41930000  0.59440000  1.0 0.1485734719
N  N51  1  0.17770000  0.58070000  0.90560000  1.0 0.1485734719
N  N52  1  0.32230000  0.91930000  0.40560000  1.0 0.1485734719
N  N53  1  0.67770000  0.91930000  0.90560000  1.0 0.1485734719
N  N54  1  0.82230000  0.58070000  0.40560000  1.0 0.1485734719
N  N55  1  0.82230000  0.41930000  0.09440000  1.0 0.1485734719
N  N56  1  0.67770000  0.08070000  0.59440000  1.0 0.1485734719
O  O1  1  0.25570000  0.41126000  0.44587000  1.0 -0.4222288675
O  O2  1  0.24430000  0.08874000  0.94587000  1.0 -0.4222288675
O  O3  1  0.24430000  0.91126000  0.55413000  1.0 -0.4222288675
O  O4  1  0.25570000  0.58874000  0.05413000  1.0 -0.4222288675
O  O5  1  0.74430000  0.58874000  0.55413000  1.0 -0.4222288675
O  O6  1  0.75570000  0.91126000  0.05413000  1.0 -0.4222288675
O  O7  1  0.75570000  0.08874000  0.44587000  1.0 -0.4222288675
O  O8  1  0.74430000  0.41126000  0.94587000  1.0 -0.4222288675
O  O9  1  0.26758000  0.39700000  0.28739000  1.0 -0.5801905788
O  O10  1  0.23242000  0.10300000  0.78739000  1.0 -0.5801905788
O  O11  1  0.23242000  0.89700000  0.71261000  1.0 -0.5801905788
O  O12  1  0.26758000  0.60300000  0.21261000  1.0 -0.5801905788
O  O13  1  0.73242000  0.60300000  0.71261000  1.0 -0.5801905788
O  O14  1  0.76758000  0.89700000  0.21261000  1.0 -0.5801905788
O  O15  1  0.76758000  0.10300000  0.28739000  1.0 -0.5801905788
O  O16  1  0.73242000  0.39700000  0.78739000  1.0 -0.5801905788
O  O17  1  0.25170000  0.31834000  0.27350000  1.0 -0.6089081041
O  O18  1  0.24830000  0.18166000  0.77350000  1.0 -0.6089081041
O  O19  1  0.24830000  0.81834000  0.72650000  1.0 -0.6089081041
O  O20  1  0.25170000  0.68166000  0.22650000  1.0 -0.6089081041
O  O21  1  0.74830000  0.68166000  0.72650000  1.0 -0.6089081041
O  O22  1  0.75170000  0.81834000  0.22650000  1.0 -0.6089081041
O  O23  1  0.75170000  0.18166000  0.27350000  1.0 -0.6089081041
O  O24  1  0.74830000  0.31834000  0.77350000  1.0 -0.6089081041
O  O25  1  0.33010000  0.36201000  0.50147000  1.0 -0.4507993071
O  O26  1  0.16990000  0.13799000  0.00147000  1.0 -0.4507993071
O  O27  1  0.16990000  0.86201000  0.49853000  1.0 -0.4507993071
O  O28  1  0.33010000  0.63799000  0.99853000  1.0 -0.4507993071
O  O29  1  0.66990000  0.63799000  0.49853000  1.0 -0.4507993071
O  O30  1  0.83010000  0.86201000  0.99853000  1.0 -0.4507993071
O  O31  1  0.83010000  0.13799000  0.50147000  1.0 -0.4507993071
O  O32  1  0.66990000  0.36201000  0.00147000  1.0 -0.4507993071
O  O33  1  0.27764000  0.25883000  0.63149000  1.0 -0.6477243549
O  O34  1  0.22236000  0.24117000  0.13149000  1.0 -0.6477243549
O  O35  1  0.22236000  0.75883000  0.36851000  1.0 -0.6477243549
O  O36  1  0.27764000  0.74117000  0.86851000  1.0 -0.6477243549
O  O37  1  0.72236000  0.74117000  0.36851000  1.0 -0.6477243549
O  O38  1  0.77764000  0.75883000  0.86851000  1.0 -0.6477243549
O  O39  1  0.77764000  0.24117000  0.63149000  1.0 -0.6477243549
O  O40  1  0.72236000  0.25883000  0.13149000  1.0 -0.6477243549
O  O41  1  0.16679000  0.24499000  0.62714000  1.0 -0.6477243549
O  O42  1  0.33321000  0.25501000  0.12714000  1.0 -0.6477243549
O  O43  1  0.33321000  0.74499000  0.37286000  1.0 -0.6477243549
O  O44  1  0.16679000  0.75501000  0.87286000  1.0 -0.6477243549
O  O45  1  0.83321000  0.75501000  0.37286000  1.0 -0.6477243549
O  O46  1  0.66679000  0.74499000  0.87286000  1.0 -0.6477243549
O  O47  1  0.66679000  0.25501000  0.62714000  1.0 -0.6477243549
O  O48  1  0.83321000  0.24499000  0.12714000  1.0 -0.6477243549
O  O49  1  0.38570000  0.44862000  0.30345000  1.0 -0.4507993071
O  O50  1  0.11430000  0.05138000  0.80345000  1.0 -0.4507993071
O  O51  1  0.11430000  0.94862000  0.69655000  1.0 -0.4507993071
O  O52  1  0.38570000  0.55138000  0.19655000  1.0 -0.4507993071
O  O53  1  0.61430000  0.55138000  0.69655000  1.0 -0.4507993071
O  O54  1  0.88570000  0.94862000  0.19655000  1.0 -0.4507993071
O  O55  1  0.88570000  0.05138000  0.30345000  1.0 -0.4507993071
O  O56  1  0.61430000  0.44862000  0.80345000  1.0 -0.4507993071
O  O57  1  0.39542000  0.29504000  0.21309000  1.0 -0.6615826882
O  O58  1  0.10458000  0.20496000  0.71309000  1.0 -0.6615826882
O  O59  1  0.10458000  0.79504000  0.78691000  1.0 -0.6615826882
O  O60  1  0.39542000  0.70496000  0.28691000  1.0 -0.6615826882
O  O61  1  0.60458000  0.70496000  0.78691000  1.0 -0.6615826882
O  O62  1  0.89542000  0.79504000  0.28691000  1.0 -0.6615826882
O  O63  1  0.89542000  0.20496000  0.21309000  1.0 -0.6615826882
O  O64  1  0.60458000  0.29504000  0.71309000  1.0 -0.6615826882
O  O65  1  0.50701000  0.27961000  0.20633000  1.0 -0.6615826882
O  O66  1  0.99299000  0.22039000  0.70633000  1.0 -0.6615826882
O  O67  1  0.99299000  0.77961000  0.79367000  1.0 -0.6615826882
O  O68  1  0.50701000  0.72039000  0.29367000  1.0 -0.6615826882
O  O69  1  0.49299000  0.72039000  0.79367000  1.0 -0.6615826882
O  O70  1  0.00701000  0.77961000  0.29367000  1.0 -0.6615826882
O  O71  1  0.00701000  0.22039000  0.20633000  1.0 -0.6615826882
O  O72  1  0.49299000  0.27961000  0.70633000  1.0 -0.6615826882
O  O73  1  0.58360000  0.42390000  0.37845000  1.0 -0.467257297
O  O74  1  0.91640000  0.07610000  0.87845000  1.0 -0.467257297
O  O75  1  0.91640000  0.92390000  0.62155000  1.0 -0.467257297
O  O76  1  0.58360000  0.57610000  0.12155000  1.0 -0.467257297
O  O77  1  0.41640000  0.57610000  0.62155000  1.0 -0.467257297
O  O78  1  0.08360000  0.92390000  0.12155000  1.0 -0.467257297
O  O79  1  0.08360000  0.07610000  0.37845000  1.0 -0.467257297
O  O80  1  0.41640000  0.42390000  0.87845000  1.0 -0.467257297
O  O81  1  0.59364000  0.64323000  0.37868000  1.0 -0.6615826882
O  O82  1  0.90636000  0.85677000  0.87868000  1.0 -0.6615826882
O  O83  1  0.90636000  0.14323000  0.62132000  1.0 -0.6615826882
O  O84  1  0.59364000  0.35677000  0.12132000  1.0 -0.6615826882
O  O85  1  0.40636000  0.35677000  0.62132000  1.0 -0.6615826882
O  O86  1  0.09364000  0.14323000  0.12132000  1.0 -0.6615826882
O  O87  1  0.09364000  0.85677000  0.37868000  1.0 -0.6615826882
O  O88  1  0.40636000  0.64323000  0.87868000  1.0 -0.6615826882
O  O89  1  0.60880000  0.59515000  0.43598000  1.0 -0.5706762619
O  O90  1  0.89120000  0.90485000  0.93598000  1.0 -0.5706762619
O  O91  1  0.89120000  0.09515000  0.56402000  1.0 -0.5706762619
O  O92  1  0.60880000  0.40485000  0.06402000  1.0 -0.5706762619
O  O93  1  0.39120000  0.40485000  0.56402000  1.0 -0.5706762619
O  O94  1  0.10880000  0.09515000  0.06402000  1.0 -0.5706762619
O  O95  1  0.10880000  0.90485000  0.43598000  1.0 -0.5706762619
O  O96  1  0.39120000  0.59515000  0.93598000  1.0 -0.5706762619
O  O97  1  0.16460000  0.45815000  0.28150000  1.0 -0.4880568258
O  O98  1  0.33540000  0.04185000  0.78150000  1.0 -0.4880568258
O  O99  1  0.33540000  0.95815000  0.71850000  1.0 -0.4880568258
O  O100  1  0.16460000  0.54185000  0.21850000  1.0 -0.4880568258
O  O101  1  0.83540000  0.54185000  0.71850000  1.0 -0.4880568258
O  O102  1  0.66460000  0.95815000  0.21850000  1.0 -0.4880568258
O  O103  1  0.66460000  0.04185000  0.28150000  1.0 -0.4880568258
O  O104  1  0.83540000  0.45815000  0.78150000  1.0 -0.4880568258
O  O105  1  0.14167000  0.31038000  0.18598000  1.0 -0.6698086134
O  O106  1  0.35833000  0.18962000  0.68598000  1.0 -0.6698086134
O  O107  1  0.35833000  0.81038000  0.81402000  1.0 -0.6698086134
O  O108  1  0.14167000  0.68962000  0.31402000  1.0 -0.6698086134
O  O109  1  0.85833000  0.68962000  0.81402000  1.0 -0.6698086134
O  O110  1  0.64167000  0.81038000  0.31402000  1.0 -0.6698086134
O  O111  1  0.64167000  0.18962000  0.18598000  1.0 -0.6698086134
O  O112  1  0.85833000  0.31038000  0.68598000  1.0 -0.6698086134
O  O113  1  0.03866000  0.31708000  0.15683000  1.0 -0.6477243549
O  O114  1  0.46134000  0.18292000  0.65683000  1.0 -0.6477243549
O  O115  1  0.46134000  0.81708000  0.84317000  1.0 -0.6477243549
O  O116  1  0.03866000  0.68292000  0.34317000  1.0 -0.6477243549
O  O117  1  0.96134000  0.68292000  0.84317000  1.0 -0.6477243549
O  O118  1  0.53866000  0.81708000  0.34317000  1.0 -0.6477243549
O  O119  1  0.53866000  0.18292000  0.15683000  1.0 -0.6477243549
O  O120  1  0.96134000  0.31708000  0.65683000  1.0 -0.6477243549
O  O121  1  0.36380000  0.04000000  0.27560000  1.0 -0.5197984449
O  O122  1  0.13620000  0.46000000  0.77560000  1.0 -0.5197984449
O  O123  1  0.13620000  0.54000000  0.72440000  1.0 -0.5197984449
O  O124  1  0.36380000  0.96000000  0.22440000  1.0 -0.5197984449
O  O125  1  0.63620000  0.96000000  0.72440000  1.0 -0.5197984449
O  O126  1  0.86380000  0.54000000  0.22440000  1.0 -0.5197984449
O  O127  1  0.86380000  0.46000000  0.27560000  1.0 -0.5197984449
O  O128  1  0.63620000  0.04000000  0.77560000  1.0 -0.5197984449
O  O129  1  0.30267000  0.20282000  0.21204000  1.0 -0.6851439796
O  O130  1  0.19733000  0.29718000  0.71204000  1.0 -0.6851439796
O  O131  1  0.19733000  0.70282000  0.78796000  1.0 -0.6851439796
O  O132  1  0.30267000  0.79718000  0.28796000  1.0 -0.6851439796
O  O133  1  0.69733000  0.79718000  0.78796000  1.0 -0.6851439796
O  O134  1  0.80267000  0.70282000  0.28796000  1.0 -0.6851439796
O  O135  1  0.80267000  0.29718000  0.21204000  1.0 -0.6851439796
O  O136  1  0.69733000  0.20282000  0.71204000  1.0 -0.6851439796
O  O137  1  0.18869000  0.20287000  0.21161000  1.0 -0.6089081041
O  O138  1  0.31131000  0.29713000  0.71161000  1.0 -0.6089081041
O  O139  1  0.31131000  0.70287000  0.78839000  1.0 -0.6089081041
O  O140  1  0.18869000  0.79713000  0.28839000  1.0 -0.6089081041
O  O141  1  0.81131000  0.79713000  0.78839000  1.0 -0.6089081041
O  O142  1  0.68869000  0.70287000  0.28839000  1.0 -0.6089081041
O  O143  1  0.68869000  0.29713000  0.21161000  1.0 -0.6089081041
O  O144  1  0.81131000  0.20287000  0.71161000  1.0 -0.6089081041
O  O145  1  0.97809000  0.22521000  0.11496000  1.0 -0.5530913345
O  O146  1  0.52191000  0.27479000  0.61496000  1.0 -0.5530913345
O  O147  1  0.52191000  0.72521000  0.88504000  1.0 -0.5530913345
O  O148  1  0.97809000  0.77479000  0.38504000  1.0 -0.5530913345
O  O149  1  0.02191000  0.77479000  0.88504000  1.0 -0.5530913345
O  O150  1  0.47809000  0.72521000  0.38504000  1.0 -0.5530913345
O  O151  1  0.47809000  0.27479000  0.11496000  1.0 -0.5530913345
O  O152  1  0.02191000  0.22521000  0.61496000  1.0 -0.5530913345
O  O153  1  0.45500000  0.17865000  0.24622000  1.0 -0.394186063
O  O154  1  0.04500000  0.32135000  0.74622000  1.0 -0.394186063
O  O155  1  0.04500000  0.67865000  0.75378000  1.0 -0.394186063
O  O156  1  0.45500000  0.82135000  0.25378000  1.0 -0.394186063
O  O157  1  0.54500000  0.82135000  0.75378000  1.0 -0.394186063
O  O158  1  0.95500000  0.67865000  0.25378000  1.0 -0.394186063
O  O159  1  0.95500000  0.32135000  0.24622000  1.0 -0.394186063
O  O160  1  0.54500000  0.17865000  0.74622000  1.0 -0.394186063
O  O161  1  0.28560000  0.36630000  0.15780000  1.0 -0.3000004164
O  O162  1  0.21440000  0.13370000  0.65780000  1.0 -0.3000004164
O  O163  1  0.21440000  0.86630000  0.84220000  1.0 -0.3000004164
O  O164  1  0.28560000  0.63370000  0.34220000  1.0 -0.3000004164
O  O165  1  0.71440000  0.63370000  0.84220000  1.0 -0.3000004164
O  O166  1  0.78560000  0.86630000  0.34220000  1.0 -0.3000004164
O  O167  1  0.78560000  0.13370000  0.15780000  1.0 -0.3000004164
O  O168  1  0.71440000  0.36630000  0.65780000  1.0 -0.3000004164
O  O169  1  0.10800000  0.27002000  0.07443000  1.0 -0.2375843683
O  O170  1  0.39200000  0.22998000  0.57443000  1.0 -0.2375843683
O  O171  1  0.39200000  0.77002000  0.92557000  1.0 -0.2375843683
O  O172  1  0.10800000  0.72998000  0.42557000  1.0 -0.2375843683
O  O173  1  0.89200000  0.72998000  0.92557000  1.0 -0.2375843683
O  O174  1  0.60800000  0.77002000  0.42557000  1.0 -0.2375843683
O  O175  1  0.60800000  0.22998000  0.07443000  1.0 -0.2375843683
O  O176  1  0.89200000  0.27002000  0.57443000  1.0 -0.2375843683
O  O177  1  0.38390000  0.13650000  0.13340000  1.0 -0.3509269825
O  O178  1  0.11610000  0.36350000  0.63340000  1.0 -0.3509269825
O  O179  1  0.11610000  0.63650000  0.86660000  1.0 -0.3509269825
O  O180  1  0.38390000  0.86350000  0.36660000  1.0 -0.3509269825
O  O181  1  0.61610000  0.86350000  0.86660000  1.0 -0.3509269825
O  O182  1  0.88390000  0.63650000  0.36660000  1.0 -0.3509269825
O  O183  1  0.88390000  0.36350000  0.13340000  1.0 -0.3509269825
O  O184  1  0.61610000  0.13650000  0.63340000  1.0 -0.3509269825
