# DDEC6 charges by PACMAN v1.1 (https://github.com/mtap-research/PACMAN-charge/)
data_DIXNUV_ASR_pacman
_symmetry_space_group_name_H-M   'P 1'
_cell_length_a   8.01070000
_cell_length_b   20.46100000
_cell_length_c   11.71870000
_cell_angle_alpha   90.00000000
_cell_angle_beta   132.47800000
_cell_angle_gamma   90.00000000
_symmetry_Int_Tables_number   1
_chemical_formula_structural   CuH16(C7N15)2
_chemical_formula_sum   'Cu2 H32 C28 N60'
_cell_volume   1416.64290120
_cell_formula_units_Z   2
loop_
 _symmetry_equiv_pos_site_id
 _symmetry_equiv_pos_as_xyz
  1  'x, y, z'
loop_
 _atom_site_type_symbol
 _atom_site_label
 _atom_site_symmetry_multiplicity
 _atom_site_fract_x
 _atom_site_fract_y
 _atom_site_fract_z
 _atom_site_occupancy
 _atom_site_charge
Cu  Cu1  1  0.50000000  0.00000000  0.00000000  1.0 0.3784003779
Cu  Cu2  1  0.50000000  0.50000000  0.50000000  1.0 0.3784003779
H  H1  1  0.38720000  0.13760000  0.83560000  1.0 0.1183736647
H  H2  1  0.61280000  0.63760000  0.66440000  1.0 0.1183736647
H  H3  1  0.61280000  0.86240000  0.16440000  1.0 0.1183736647
H  H4  1  0.38720000  0.36240000  0.33560000  1.0 0.1183736647
H  H5  1  0.88940000  0.15240000  0.83420000  1.0 0.1147558167
H  H6  1  0.11060000  0.65240000  0.66580000  1.0 0.1147558167
H  H7  1  0.11060000  0.84760000  0.16580000  1.0 0.1147558167
H  H8  1  0.88940000  0.34760000  0.33420000  1.0 0.1147558167
H  H9  1  0.70960000  0.36010000  0.70760000  1.0 0.1183736647
H  H10  1  0.29040000  0.86010000  0.79240000  1.0 0.1183736647
H  H11  1  0.29040000  0.63990000  0.29240000  1.0 0.1183736647
H  H12  1  0.70960000  0.13990000  0.20760000  1.0 0.1183736647
H  H13  1  0.14590000  0.33820000  0.65240000  1.0 0.1183736647
H  H14  1  0.85410000  0.83820000  0.84760000  1.0 0.1183736647
H  H15  1  0.85410000  0.66180000  0.34760000  1.0 0.1183736647
H  H16  1  0.14590000  0.16180000  0.15240000  1.0 0.1183736647
H  H17  1  0.23360000  0.00360000  0.13080000  1.0 0.138595662
H  H18  1  0.76640000  0.50360000  0.36920000  1.0 0.138595662
H  H19  1  0.76640000  0.99640000  0.86920000  1.0 0.138595662
H  H20  1  0.23360000  0.49640000  0.63080000  1.0 0.138595662
H  H21  1  0.86360000  0.98960000  0.54390000  1.0 0.0938247963
H  H22  1  0.13640000  0.48960000  0.95610000  1.0 0.0938247963
H  H23  1  0.13640000  0.01040000  0.45610000  1.0 0.0938247963
H  H24  1  0.86360000  0.51040000  0.04390000  1.0 0.0938247963
H  H25  1  0.23380000  0.99560000  0.13090000  1.0 0.138595662
H  H26  1  0.76620000  0.49560000  0.36910000  1.0 0.138595662
H  H27  1  0.76620000  0.00440000  0.86910000  1.0 0.138595662
H  H28  1  0.23380000  0.50440000  0.63090000  1.0 0.138595662
H  H29  1  0.86340000  0.01030000  0.54380000  1.0 0.0965100824
H  H30  1  0.13660000  0.51030000  0.95620000  1.0 0.0965100824
H  H31  1  0.13660000  0.98970000  0.45620000  1.0 0.0965100824
H  H32  1  0.86340000  0.48970000  0.04380000  1.0 0.0965100824
C  C1  1  0.28500000  0.12831000  0.84890000  1.0 0.0628816578
C  C2  1  0.71500000  0.62831000  0.65110000  1.0 0.0628816578
C  C3  1  0.71500000  0.87169000  0.15110000  1.0 0.0628816578
C  C4  1  0.28500000  0.37169000  0.34890000  1.0 0.0628816578
C  C5  1  0.01280000  0.13576000  0.84800000  1.0 0.0133304081
C  C6  1  0.98720000  0.63576000  0.65200000  1.0 0.0133304081
C  C7  1  0.98720000  0.86424000  0.15200000  1.0 0.0133304081
C  C8  1  0.01280000  0.36424000  0.34800000  1.0 0.0133304081
C  C9  1  0.79780000  0.36800000  0.68190000  1.0 0.0506178355
C  C10  1  0.20220000  0.86800000  0.81810000  1.0 0.0506178355
C  C11  1  0.20220000  0.63200000  0.31810000  1.0 0.0506178355
C  C12  1  0.79780000  0.13200000  0.18190000  1.0 0.0506178355
C  C13  1  0.03630000  0.35637000  0.65190000  1.0 0.0133304081
C  C14  1  0.96370000  0.85637000  0.84810000  1.0 0.0133304081
C  C15  1  0.96370000  0.64363000  0.34810000  1.0 0.0133304081
C  C16  1  0.03630000  0.14363000  0.15190000  1.0 0.0133304081
C  C17  1  0.39360000  0.99982000  0.20920000  1.0 -0.0366536277
C  C18  1  0.60640000  0.49982000  0.29080000  1.0 -0.0366536277
C  C19  1  0.60640000  0.00018000  0.79080000  1.0 -0.0366536277
C  C20  1  0.39360000  0.50018000  0.70920000  1.0 -0.0366536277
C  C21  1  0.73900000  0.99190000  0.43530000  1.0 0.138595662
C  C22  1  0.26100000  0.49190000  0.06470000  1.0 0.138595662
C  C23  1  0.26100000  0.00810000  0.56470000  1.0 0.138595662
C  C24  1  0.73900000  0.50810000  0.93530000  1.0 0.138595662
C  C25  1  0.73880000  0.00800000  0.43520000  1.0 0.138595662
C  C26  1  0.26120000  0.50800000  0.06480000  1.0 0.138595662
C  C27  1  0.26120000  0.99200000  0.56480000  1.0 0.138595662
C  C28  1  0.73880000  0.49200000  0.93520000  1.0 0.138595662
N  N1  1  0.28060000  0.07490000  0.90700000  1.0 -0.1799556687
N  N2  1  0.71940000  0.57490000  0.59300000  1.0 -0.1799556687
N  N3  1  0.71940000  0.92510000  0.09300000  1.0 -0.1799556687
N  N4  1  0.28060000  0.42510000  0.40700000  1.0 -0.1799556687
N  N5  1  0.10570000  0.07854000  0.90520000  1.0 -0.2178054059
N  N6  1  0.89430000  0.57854000  0.59480000  1.0 -0.2178054059
N  N7  1  0.89430000  0.92146000  0.09480000  1.0 -0.2178054059
N  N8  1  0.10570000  0.42146000  0.40520000  1.0 -0.2141624391
N  N9  1  0.12020000  0.16830000  0.81070000  1.0 0.0687929776
N  N10  1  0.87980000  0.66830000  0.68930000  1.0 0.0687929776
N  N11  1  0.87980000  0.83170000  0.18930000  1.0 0.0687929776
N  N12  1  0.12020000  0.33170000  0.31070000  1.0 0.0687929776
N  N13  1  0.09910000  0.23176000  0.75690000  1.0 -0.06829127
N  N14  1  0.90090000  0.73176000  0.74310000  1.0 -0.06829127
N  N15  1  0.90090000  0.76824000  0.24310000  1.0 -0.06829127
N  N16  1  0.09910000  0.26824000  0.25690000  1.0 -0.06829127
N  N17  1  0.79640000  0.42163000  0.62240000  1.0 -0.2178054059
N  N18  1  0.20360000  0.92163000  0.87760000  1.0 -0.2178054059
N  N19  1  0.20360000  0.57837000  0.37760000  1.0 -0.2178054059
N  N20  1  0.79640000  0.07837000  0.12240000  1.0 -0.2141624391
N  N21  1  0.95070000  0.41474000  0.60360000  1.0 -0.2275808528
N  N22  1  0.04930000  0.91474000  0.89640000  1.0 -0.2275808528
N  N23  1  0.04930000  0.58526000  0.39640000  1.0 -0.2275808528
N  N24  1  0.95070000  0.08526000  0.10360000  1.0 -0.2178054059
N  N25  1  0.94420000  0.32501000  0.70200000  1.0 0.0687929776
N  N26  1  0.05580000  0.82501000  0.79800000  1.0 0.0687929776
N  N27  1  0.05580000  0.67499000  0.29800000  1.0 0.0687929776
N  N28  1  0.94420000  0.17499000  0.20200000  1.0 0.0687929776
N  N29  1  0.96520000  0.26208000  0.75510000  1.0 -0.0646802485
N  N30  1  0.03480000  0.76208000  0.74490000  1.0 -0.0646802485
N  N31  1  0.03480000  0.73792000  0.24490000  1.0 -0.06829127
N  N32  1  0.96520000  0.23792000  0.25510000  1.0 -0.06829127
N  N33  1  0.53380000  0.99987000  0.18810000  1.0 -0.06829127
N  N34  1  0.46620000  0.49987000  0.31190000  1.0 -0.06829127
N  N35  1  0.46620000  0.00013000  0.81190000  1.0 -0.06829127
N  N36  1  0.53380000  0.50013000  0.68810000  1.0 -0.06829127
N  N37  1  0.75360000  0.99420000  0.33140000  1.0 -0.2900974155
N  N38  1  0.24640000  0.49420000  0.16860000  1.0 -0.2900974155
N  N39  1  0.24640000  0.00580000  0.66860000  1.0 -0.2900974155
N  N40  1  0.75360000  0.50580000  0.83140000  1.0 -0.2900974155
N  N41  1  0.51760000  0.99340000  0.36430000  1.0 0.0687929776
N  N42  1  0.48240000  0.49340000  0.13570000  1.0 0.0687929776
N  N43  1  0.48240000  0.00660000  0.63570000  1.0 0.0687929776
N  N44  1  0.51760000  0.50660000  0.86430000  1.0 0.0687929776
N  N45  1  0.42290000  0.99860000  0.42830000  1.0 -0.0772083402
N  N46  1  0.57710000  0.49860000  0.07170000  1.0 -0.0772083402
N  N47  1  0.57710000  0.00140000  0.57170000  1.0 -0.0772083402
N  N48  1  0.42290000  0.50140000  0.92830000  1.0 -0.0772083402
N  N49  1  0.75370000  0.00560000  0.33150000  1.0 -0.2900974155
N  N50  1  0.24630000  0.50560000  0.16850000  1.0 -0.2900974155
N  N51  1  0.24630000  0.99440000  0.66850000  1.0 -0.2900974155
N  N52  1  0.75370000  0.49440000  0.83150000  1.0 -0.2900974155
N  N53  1  0.51730000  0.00690000  0.36410000  1.0 0.0628816578
N  N54  1  0.48270000  0.50690000  0.13590000  1.0 0.0628816578
N  N55  1  0.48270000  0.99310000  0.63590000  1.0 0.0628816578
N  N56  1  0.51730000  0.49310000  0.86410000  1.0 0.0628816578
N  N57  1  0.42250000  0.00180000  0.42810000  1.0 -0.0772083402
N  N58  1  0.57750000  0.50180000  0.07190000  1.0 -0.0772083402
N  N59  1  0.57750000  0.99820000  0.57190000  1.0 -0.0772083402
N  N60  1  0.42250000  0.49820000  0.92810000  1.0 -0.0772083402
