# DDEC6 charges by PACMAN v1.1 (https://github.com/mtap-research/PACMAN-charge/)
data_DODVUQ_ASR_pacman
_symmetry_space_group_name_H-M   'P 1'
_cell_length_a   17.59650000
_cell_length_b   26.25160000
_cell_length_c   26.95200000
_cell_angle_alpha   119.09000000
_cell_angle_beta   99.13500000
_cell_angle_gamma   89.90000000
_symmetry_Int_Tables_number   1
_chemical_formula_structural   Ag19H136C139S7N8O15F28
_chemical_formula_sum   'Ag38 H272 C278 S14 N16 O30 F56'
_cell_volume   10700.48442225
_cell_formula_units_Z   2
loop_
 _symmetry_equiv_pos_site_id
 _symmetry_equiv_pos_as_xyz
  1  'x, y, z'
loop_
 _atom_site_type_symbol
 _atom_site_label
 _atom_site_symmetry_multiplicity
 _atom_site_fract_x
 _atom_site_fract_y
 _atom_site_fract_z
 _atom_site_occupancy
 _atom_site_charge
Ag  Ag1  1  0.81793000  0.05827000  0.00621000  1.0 0.2924549189
Ag  Ag2  1  0.00543000  0.12355000  0.00160000  1.0 0.1894984525
Ag  Ag3  1  0.98156000  0.10346000  0.09477000  1.0 0.1607014072
Ag  Ag4  1  0.85788000  0.94599000  0.88250000  1.0 0.1842140016
Ag  Ag5  1  0.82306000  0.93557000  0.00674000  1.0 0.1510992032
Ag  Ag6  1  0.99055000  0.98996000  0.10197000  1.0 0.1391391055
Ag  Ag7  1  0.30342000  0.37993000  0.60828000  1.0 0.3082716621
Ag  Ag8  1  0.46139000  0.31111000  0.62522000  1.0 0.1298260731
Ag  Ag9  1  0.33851000  0.45155000  0.75566000  1.0 0.2990821359
Ag  Ag10  1  0.17586000  0.41215000  0.68438000  1.0 0.2817318719
Ag  Ag11  1  0.15079000  0.30131000  0.68200000  1.0 0.2669858915
Ag  Ag12  1  0.28694000  0.23716000  0.60701000  1.0 0.3082716621
Ag  Ag13  1  0.32022000  0.30559000  0.74909000  1.0 0.2817318719
Ag  Ag14  1  0.46333000  0.36760000  0.75553000  1.0 0.1298260731
Ag  Ag15  1  0.02730000  0.06693000  0.95266000  1.0 0.040134931
Ag  Ag16  1  0.98557000  0.06364000  0.06286000  1.0 0.0691486962
Ag  Ag17  1  0.84720000  0.92370000  0.87450000  1.0 0.245382255
Ag  Ag18  1  0.80060000  0.92050000  0.98970000  1.0 0.1894984525
Ag  Ag19  1  0.49573000  0.31487000  0.64050000  1.0 0.1196519903
Ag  Ag20  1  0.18207000  0.94173000  0.99379000  1.0 0.2924549189
Ag  Ag21  1  0.99457000  0.87645000  0.99840000  1.0 0.1894984525
Ag  Ag22  1  0.01844000  0.89654000  0.90523000  1.0 0.1607014072
Ag  Ag23  1  0.14212000  0.05401000  0.11750000  1.0 0.1842140016
Ag  Ag24  1  0.17694000  0.06443000  0.99326000  1.0 0.1510992032
Ag  Ag25  1  0.00945000  0.01004000  0.89803000  1.0 0.1391391055
Ag  Ag26  1  0.69658000  0.62007000  0.39172000  1.0 0.3206898991
Ag  Ag27  1  0.53861000  0.68889000  0.37478000  1.0 0.1298260731
Ag  Ag28  1  0.66149000  0.54845000  0.24434000  1.0 0.2990821359
Ag  Ag29  1  0.82414000  0.58785000  0.31562000  1.0 0.2817318719
Ag  Ag30  1  0.84921000  0.69869000  0.31800000  1.0 0.2669858915
Ag  Ag31  1  0.71306000  0.76284000  0.39299000  1.0 0.3082716621
Ag  Ag32  1  0.67978000  0.69441000  0.25091000  1.0 0.2817318719
Ag  Ag33  1  0.53667000  0.63240000  0.24447000  1.0 0.1298260731
Ag  Ag34  1  0.97270000  0.93307000  0.04734000  1.0 0.040134931
Ag  Ag35  1  0.01443000  0.93636000  0.93714000  1.0 0.0783604855
Ag  Ag36  1  0.15280000  0.07630000  0.12550000  1.0 0.2394079474
Ag  Ag37  1  0.19940000  0.07950000  0.01030000  1.0 0.1894984525
Ag  Ag38  1  0.50427000  0.68513000  0.35950000  1.0 0.1196519903
H  H1  1  0.39876000  0.50022000  0.65866000  1.0 0.0691486962
H  H2  1  0.47315000  0.54410000  0.68583000  1.0 0.0591805152
H  H3  1  0.42422000  0.53639000  0.72591000  1.0 0.1004822498
H  H4  1  0.51893000  0.50467000  0.77557000  1.0 0.0591805152
H  H5  1  0.58141000  0.52106000  0.74900000  1.0 0.0591805152
H  H6  1  0.57529000  0.45863000  0.74292000  1.0 0.1095785757
H  H7  1  0.55604000  0.41049000  0.63443000  1.0 0.0691486962
H  H8  1  0.55961000  0.47080000  0.63572000  1.0 0.0783604855
H  H9  1  0.48655000  0.42608000  0.60150000  1.0 0.0691486962
H  H10  1  0.55612000  0.25662000  0.74188000  1.0 0.1196519903
H  H11  1  0.53540000  0.20229000  0.74827000  1.0 0.1095785757
H  H12  1  0.48756000  0.25700000  0.77273000  1.0 0.1095785757
H  H13  1  0.47040000  0.15850000  0.60066000  1.0 0.1298260731
H  H14  1  0.53857000  0.15242000  0.64207000  1.0 0.1298260731
H  H15  1  0.53667000  0.20912000  0.63643000  1.0 0.1095785757
H  H16  1  0.36478000  0.18941000  0.71028000  1.0 0.1196519903
H  H17  1  0.42457000  0.14242000  0.69969000  1.0 0.1095785757
H  H18  1  0.37237000  0.14297000  0.64712000  1.0 0.1196519903
H  H19  1  0.20167000  0.28147000  0.48482000  1.0 0.1196519903
H  H20  1  0.13432000  0.23142000  0.45148000  1.0 0.1391391055
H  H21  1  0.20385000  0.22586000  0.49232000  1.0 0.1095785757
H  H22  1  0.06220000  0.34999000  0.57211000  1.0 0.1004822498
H  H23  1  0.04861000  0.31845000  0.50451000  1.0 0.1391391055
H  H24  1  0.12330000  0.36068000  0.54093000  1.0 0.1196519903
H  H25  1  0.10859000  0.21193000  0.54861000  1.0 0.1196519903
H  H26  1  0.04964000  0.21009000  0.49750000  1.0 0.1298260731
H  H27  1  0.04013000  0.25214000  0.56144000  1.0 0.1004822498
H  H28  1  0.29650000  0.40107000  0.88508000  1.0 0.1196519903
H  H29  1  0.27374000  0.46432000  0.92417000  1.0 0.1196519903
H  H30  1  0.32871000  0.45383000  0.88026000  1.0 0.1095785757
H  H31  1  0.22570000  0.51266000  0.85657000  1.0 0.1196519903
H  H32  1  0.15783000  0.50133000  0.88223000  1.0 0.1298260731
H  H33  1  0.14756000  0.47905000  0.81583000  1.0 0.1196519903
H  H34  1  0.10250000  0.38833000  0.81583000  1.0 0.1196519903
H  H35  1  0.14081000  0.40091000  0.87777000  1.0 0.1298260731
H  H36  1  0.16374000  0.34794000  0.82319000  1.0 0.1196519903
H  H37  1  0.83494000  0.16353000  0.96269000  1.0 0.1298260731
H  H38  1  0.82842000  0.16961000  0.90715000  1.0 0.1196519903
H  H39  1  0.90889000  0.16253000  0.93666000  1.0 0.1391391055
H  H40  1  0.74538000  0.02513000  0.85442000  1.0 0.1298260731
H  H41  1  0.72743000  0.08404000  0.85529000  1.0 0.1196519903
H  H42  1  0.73525000  0.08048000  0.91226000  1.0 0.1196519903
H  H43  1  0.92774000  0.07141000  0.84607000  1.0 0.1298260731
H  H44  1  0.84997000  0.07900000  0.81382000  1.0 0.1196519903
H  H45  1  0.86197000  0.02007000  0.81435000  1.0 0.1298260731
H  H46  1  0.73969000  0.82049000  0.90124000  1.0 0.1095785757
H  H47  1  0.73245000  0.77454000  0.83556000  1.0 0.1298260731
H  H48  1  0.74853000  0.84134000  0.85676000  1.0 0.1196519903
H  H49  1  0.86452000  0.79478000  0.94460000  1.0 0.1298260731
H  H50  1  0.90472000  0.75126000  0.89392000  1.0 0.1391391055
H  H51  1  0.81607000  0.74054000  0.89090000  1.0 0.1095785757
H  H52  1  0.93665000  0.09757000  0.20499000  1.0 0.1298260731
H  H53  1  0.86893000  0.13249000  0.23369000  1.0 0.1298260731
H  H54  1  0.90150000  0.14336000  0.18844000  1.0 0.1298260731
H  H55  1  0.76418000  0.12915000  0.14679000  1.0 0.1196519903
H  H56  1  0.72804000  0.09383000  0.17170000  1.0 0.1196519903
H  H57  1  0.73087000  0.06389000  0.10564000  1.0 0.1095785757
H  H58  1  0.77646000  0.99767000  0.13627000  1.0 0.1004822498
H  H59  1  0.79554000  0.04250000  0.20258000  1.0 0.1196519903
H  H60  1  0.86005000  0.00547000  0.17096000  1.0 0.1298260731
H  H61  1  0.86117000  0.80455000  0.80221000  1.0 0.1391391055
H  H62  1  0.85261000  0.74160000  0.79462000  1.0 0.1196519903
H  H63  1  0.92972000  0.78164000  0.82846000  1.0 0.1391391055
H  H64  1  0.78194000  0.18984000  0.06808000  1.0 0.0897809907
H  H65  1  0.69514000  0.25052000  0.11697000  1.0 0.1196519903
H  H66  1  0.53959000  0.11239000  0.04380000  1.0 0.1196519903
H  H67  1  0.63275000  0.05313000  0.00088000  1.0 0.1004822498
H  H68  1  0.61878000  0.28639000  0.18583000  1.0 0.1004822498
H  H69  1  0.52741000  0.34395000  0.23154000  1.0 0.1196519903
H  H70  1  0.36242000  0.23856000  0.09842000  1.0 0.1196519903
H  H71  1  0.45459000  0.17965000  0.05325000  1.0 0.1095785757
H  H72  1  0.21973000  0.32729000  0.07936000  1.0 0.1196519903
H  H73  1  0.22609000  0.30658000  0.98691000  1.0 0.1095785757
H  H74  1  0.45430000  0.35056000  0.03371000  1.0 0.1004822498
H  H75  1  0.44730000  0.37371000  0.12671000  1.0 0.1298260731
H  H76  1  0.44720000  0.33525000  0.86247000  1.0 0.1004822498
H  H77  1  0.44785000  0.35487000  0.95500000  1.0 0.1196519903
H  H78  1  0.24628000  0.25697000  0.89900000  1.0 0.1196519903
H  H79  1  0.25223000  0.24121000  0.80760000  1.0 0.0897809907
H  H80  1  0.21959000  0.34139000  0.22097000  1.0 0.1196519903
H  H81  1  0.11611000  0.39128000  0.25440000  1.0 0.1196519903
H  H82  1  0.17777000  0.51064000  0.21347000  1.0 0.1095785757
H  H83  1  0.27736000  0.45757000  0.17532000  1.0 0.1298260731
H  H84  1  0.90200000  0.47132000  0.28774000  1.0 0.0897809907
H  H85  1  0.98582000  0.60632000  0.28747000  1.0 0.0897809907
H  H86  1  0.08782000  0.55635000  0.25090000  1.0 0.1298260731
H  H87  1  0.39469000  0.26671000  0.23890000  1.0 0.1196519903
H  H88  1  0.38338000  0.27590000  0.32655000  1.0 0.1095785757
H  H89  1  0.34987000  0.44450000  0.38579000  1.0 0.1196519903
H  H90  1  0.36045000  0.43463000  0.29724000  1.0 0.1196519903
H  H91  1  0.26684000  0.43995000  0.53018000  1.0 0.1004822498
H  H92  1  0.28803000  0.43561000  0.44593000  1.0 0.1196519903
H  H93  1  0.41257000  0.30055000  0.41835000  1.0 0.1298260731
H  H94  1  0.39340000  0.31037000  0.50349000  1.0 0.1004822498
H  H95  1  0.29310000  0.58827000  0.81119000  1.0 0.1004822498
H  H96  1  0.28578000  0.66243000  0.90158000  1.0 0.1196519903
H  H97  1  0.43293000  0.58703000  0.96797000  1.0 0.1196519903
H  H98  1  0.44014000  0.51550000  0.87567000  1.0 0.1004822498
H  H99  1  0.33479000  0.74542000  0.98826000  1.0 0.1095785757
H  H100  1  0.32563000  0.81655000  0.07917000  1.0 0.1196519903
H  H101  1  0.34911000  0.69847000  0.13304000  1.0 0.1196519903
H  H102  1  0.36571000  0.62798000  0.04250000  1.0 0.1095785757
H  H103  1  0.42050000  0.95190000  0.19280000  1.0 0.1196519903
H  H104  1  0.50796000  0.96043000  0.14245000  1.0 0.1095785757
H  H105  1  0.58174000  0.80577000  0.11377000  1.0 0.1004822498
H  H106  1  0.49103000  0.79537000  0.16088000  1.0 0.1095785757
H  H107  1  0.55774000  0.94708000  0.06831000  1.0 0.1298260731
H  H108  1  0.64670000  0.95409000  0.01748000  1.0 0.1004822498
H  H109  1  0.76856000  0.84160000  0.04091000  1.0 0.1004822498
H  H110  1  0.68234000  0.83182000  0.09298000  1.0 0.1196519903
H  H111  1  0.24940000  0.90972000  0.24244000  1.0 0.1095785757
H  H112  1  0.23246000  0.98743000  0.32736000  1.0 0.1196519903
H  H113  1  0.45986000  0.01440000  0.38354000  1.0 0.1196519903
H  H114  1  0.47832000  0.93566000  0.29784000  1.0 0.1196519903
H  H115  1  0.21146000  0.11298000  0.50708000  1.0 0.1004822498
H  H116  1  0.22960000  0.03087000  0.42405000  1.0 0.1298260731
H  H117  1  0.42974000  0.11037000  0.43561000  1.0 0.1298260731
H  H118  1  0.40490000  0.19053000  0.51806000  1.0 0.0897809907
H  H119  1  0.19125000  0.76240000  0.12668000  1.0 0.1095785757
H  H120  1  0.09177000  0.73971000  0.16051000  1.0 0.1196519903
H  H121  1  0.22989000  0.79540000  0.31391000  1.0 0.1196519903
H  H122  1  0.32765000  0.82112000  0.28130000  1.0 0.1196519903
H  H123  1  0.89768000  0.74880000  0.24583000  1.0 0.0897809907
H  H124  1  0.99847000  0.77008000  0.21394000  1.0 0.1196519903
H  H125  1  0.14208000  0.73683000  0.32261000  1.0 0.1298260731
H  H126  1  0.03740000  0.71391000  0.35048000  1.0 0.1004822498
H  H127  1  0.00683000  0.42379000  0.25965000  1.0 0.1196519903
H  H128  1  0.57309000  0.44901000  0.73746000  1.0 0.1004822498
H  H129  1  0.60781000  0.48325000  0.71093000  1.0 0.050377017
H  H130  1  0.58004000  0.41657000  0.67203000  1.0 0.0591805152
H  H131  1  0.53059000  0.47649000  0.62682000  1.0 0.0691486962
H  H132  1  0.44817000  0.49906000  0.63241000  1.0 0.040134931
H  H133  1  0.45732000  0.43168000  0.60133000  1.0 0.0691486962
H  H134  1  0.42190000  0.53173000  0.73276000  1.0 0.0897809907
H  H135  1  0.50287000  0.55810000  0.73469000  1.0 0.050377017
H  H136  1  0.49509000  0.52923000  0.77289000  1.0 0.0591805152
H  H137  1  0.60124000  0.49978000  0.34134000  1.0 0.0691486962
H  H138  1  0.52685000  0.45590000  0.31417000  1.0 0.0591805152
H  H139  1  0.57578000  0.46361000  0.27409000  1.0 0.1004822498
H  H140  1  0.48107000  0.49533000  0.22443000  1.0 0.0591805152
H  H141  1  0.41859000  0.47894000  0.25100000  1.0 0.0591805152
H  H142  1  0.42471000  0.54137000  0.25708000  1.0 0.1004822498
H  H143  1  0.44396000  0.58951000  0.36557000  1.0 0.0691486962
H  H144  1  0.44039000  0.52920000  0.36428000  1.0 0.0783604855
H  H145  1  0.51345000  0.57392000  0.39850000  1.0 0.0691486962
H  H146  1  0.44388000  0.74338000  0.25812000  1.0 0.1196519903
H  H147  1  0.46460000  0.79771000  0.25173000  1.0 0.1095785757
H  H148  1  0.51244000  0.74300000  0.22727000  1.0 0.1095785757
H  H149  1  0.52960000  0.84150000  0.39934000  1.0 0.1298260731
H  H150  1  0.46143000  0.84758000  0.35793000  1.0 0.1298260731
H  H151  1  0.46333000  0.79088000  0.36357000  1.0 0.1095785757
H  H152  1  0.63522000  0.81059000  0.28972000  1.0 0.1196519903
H  H153  1  0.57543000  0.85758000  0.30031000  1.0 0.1095785757
H  H154  1  0.62763000  0.85703000  0.35288000  1.0 0.1196519903
H  H155  1  0.79833000  0.71853000  0.51518000  1.0 0.1196519903
H  H156  1  0.86568000  0.76858000  0.54852000  1.0 0.1391391055
H  H157  1  0.79615000  0.77414000  0.50768000  1.0 0.1095785757
H  H158  1  0.93780000  0.65001000  0.42789000  1.0 0.1004822498
H  H159  1  0.95139000  0.68155000  0.49549000  1.0 0.1391391055
H  H160  1  0.87670000  0.63932000  0.45907000  1.0 0.1196519903
H  H161  1  0.89141000  0.78807000  0.45139000  1.0 0.1196519903
H  H162  1  0.95036000  0.78991000  0.50250000  1.0 0.1298260731
H  H163  1  0.95987000  0.74786000  0.43856000  1.0 0.1004822498
H  H164  1  0.70350000  0.59893000  0.11492000  1.0 0.1196519903
H  H165  1  0.72626000  0.53568000  0.07583000  1.0 0.1196519903
H  H166  1  0.67129000  0.54617000  0.11974000  1.0 0.1095785757
H  H167  1  0.77430000  0.48734000  0.14343000  1.0 0.1196519903
H  H168  1  0.84217000  0.49867000  0.11777000  1.0 0.1298260731
H  H169  1  0.85244000  0.52095000  0.18417000  1.0 0.1196519903
H  H170  1  0.89750000  0.61167000  0.18417000  1.0 0.1196519903
H  H171  1  0.85919000  0.59909000  0.12223000  1.0 0.1298260731
H  H172  1  0.83626000  0.65206000  0.17681000  1.0 0.1196519903
H  H173  1  0.16506000  0.83647000  0.03731000  1.0 0.1298260731
H  H174  1  0.17158000  0.83039000  0.09285000  1.0 0.1196519903
H  H175  1  0.09111000  0.83747000  0.06334000  1.0 0.1391391055
H  H176  1  0.25462000  0.97487000  0.14558000  1.0 0.1298260731
H  H177  1  0.27257000  0.91596000  0.14471000  1.0 0.1196519903
H  H178  1  0.26475000  0.91952000  0.08774000  1.0 0.1196519903
H  H179  1  0.07226000  0.92859000  0.15393000  1.0 0.1298260731
H  H180  1  0.15003000  0.92100000  0.18618000  1.0 0.1196519903
H  H181  1  0.13803000  0.97993000  0.18565000  1.0 0.1298260731
H  H182  1  0.26031000  0.17951000  0.09876000  1.0 0.1095785757
H  H183  1  0.26755000  0.22546000  0.16444000  1.0 0.1298260731
H  H184  1  0.25147000  0.15866000  0.14324000  1.0 0.1196519903
H  H185  1  0.13548000  0.20522000  0.05540000  1.0 0.1298260731
H  H186  1  0.09528000  0.24874000  0.10608000  1.0 0.1391391055
H  H187  1  0.18393000  0.25946000  0.10910000  1.0 0.1095785757
H  H188  1  0.06335000  0.90243000  0.79501000  1.0 0.1298260731
H  H189  1  0.13107000  0.86751000  0.76631000  1.0 0.1298260731
H  H190  1  0.09850000  0.85664000  0.81156000  1.0 0.1298260731
H  H191  1  0.23582000  0.87085000  0.85321000  1.0 0.1196519903
H  H192  1  0.27196000  0.90617000  0.82830000  1.0 0.1196519903
H  H193  1  0.26913000  0.93611000  0.89436000  1.0 0.1095785757
H  H194  1  0.22354000  0.00233000  0.86373000  1.0 0.1004822498
H  H195  1  0.20446000  0.95750000  0.79742000  1.0 0.1196519903
H  H196  1  0.13995000  0.99453000  0.82904000  1.0 0.1298260731
H  H197  1  0.13883000  0.19545000  0.19779000  1.0 0.1391391055
H  H198  1  0.14739000  0.25840000  0.20538000  1.0 0.1196519903
H  H199  1  0.07028000  0.21836000  0.17154000  1.0 0.1391391055
H  H200  1  0.21806000  0.81016000  0.93192000  1.0 0.0897809907
H  H201  1  0.30486000  0.74948000  0.88303000  1.0 0.1196519903
H  H202  1  0.46041000  0.88761000  0.95620000  1.0 0.1196519903
H  H203  1  0.36725000  0.94687000  0.99912000  1.0 0.1004822498
H  H204  1  0.38122000  0.71361000  0.81417000  1.0 0.1004822498
H  H205  1  0.47259000  0.65605000  0.76846000  1.0 0.1196519903
H  H206  1  0.63758000  0.76144000  0.90158000  1.0 0.1196519903
H  H207  1  0.54541000  0.82035000  0.94675000  1.0 0.1095785757
H  H208  1  0.78027000  0.67271000  0.92064000  1.0 0.1196519903
H  H209  1  0.77391000  0.69342000  0.01309000  1.0 0.1095785757
H  H210  1  0.54570000  0.64944000  0.96629000  1.0 0.1004822498
H  H211  1  0.55270000  0.62629000  0.87329000  1.0 0.1298260731
H  H212  1  0.55280000  0.66475000  0.13753000  1.0 0.1004822498
H  H213  1  0.55215000  0.64513000  0.04500000  1.0 0.1196519903
H  H214  1  0.75372000  0.74303000  0.10100000  1.0 0.1196519903
H  H215  1  0.74777000  0.75879000  0.19240000  1.0 0.0897809907
H  H216  1  0.78041000  0.65861000  0.77903000  1.0 0.1196519903
H  H217  1  0.88389000  0.60872000  0.74560000  1.0 0.1196519903
H  H218  1  0.82223000  0.48936000  0.78653000  1.0 0.1095785757
H  H219  1  0.72264000  0.54243000  0.82468000  1.0 0.1298260731
H  H220  1  0.09800000  0.52868000  0.71226000  1.0 0.0897809907
H  H221  1  0.01418000  0.39368000  0.71253000  1.0 0.0897809907
H  H222  1  0.91218000  0.44365000  0.74910000  1.0 0.1298260731
H  H223  1  0.60531000  0.73329000  0.76110000  1.0 0.1196519903
H  H224  1  0.61662000  0.72410000  0.67345000  1.0 0.1095785757
H  H225  1  0.65013000  0.55550000  0.61421000  1.0 0.1196519903
H  H226  1  0.63955000  0.56537000  0.70276000  1.0 0.1196519903
H  H227  1  0.73316000  0.56005000  0.46982000  1.0 0.1004822498
H  H228  1  0.71197000  0.56439000  0.55407000  1.0 0.1196519903
H  H229  1  0.58743000  0.69945000  0.58165000  1.0 0.1298260731
H  H230  1  0.60660000  0.68963000  0.49651000  1.0 0.1004822498
H  H231  1  0.70690000  0.41173000  0.18881000  1.0 0.1004822498
H  H232  1  0.71422000  0.33757000  0.09842000  1.0 0.1196519903
H  H233  1  0.56707000  0.41297000  0.03203000  1.0 0.1196519903
H  H234  1  0.55986000  0.48450000  0.12433000  1.0 0.1004822498
H  H235  1  0.66521000  0.25458000  0.01174000  1.0 0.1095785757
H  H236  1  0.67437000  0.18345000  0.92083000  1.0 0.1196519903
H  H237  1  0.65089000  0.30153000  0.86696000  1.0 0.1196519903
H  H238  1  0.63429000  0.37202000  0.95750000  1.0 0.1095785757
H  H239  1  0.57950000  0.04810000  0.80720000  1.0 0.1196519903
H  H240  1  0.49204000  0.03957000  0.85755000  1.0 0.1095785757
H  H241  1  0.41826000  0.19423000  0.88623000  1.0 0.1004822498
H  H242  1  0.50897000  0.20463000  0.83912000  1.0 0.1095785757
H  H243  1  0.44226000  0.05292000  0.93169000  1.0 0.1298260731
H  H244  1  0.35330000  0.04591000  0.98252000  1.0 0.1004822498
H  H245  1  0.23144000  0.15840000  0.95909000  1.0 0.1004822498
H  H246  1  0.31766000  0.16818000  0.90702000  1.0 0.1196519903
H  H247  1  0.75060000  0.09028000  0.75756000  1.0 0.1095785757
H  H248  1  0.76754000  0.01257000  0.67264000  1.0 0.1196519903
H  H249  1  0.54014000  0.98560000  0.61646000  1.0 0.1196519903
H  H250  1  0.52168000  0.06434000  0.70216000  1.0 0.1196519903
H  H251  1  0.78854000  0.88702000  0.49292000  1.0 0.1004822498
H  H252  1  0.77040000  0.96913000  0.57595000  1.0 0.1298260731
H  H253  1  0.57026000  0.88963000  0.56439000  1.0 0.1298260731
H  H254  1  0.59510000  0.80947000  0.48194000  1.0 0.0897809907
H  H255  1  0.80875000  0.23760000  0.87332000  1.0 0.1095785757
H  H256  1  0.90823000  0.26029000  0.83949000  1.0 0.1196519903
H  H257  1  0.77011000  0.20460000  0.68609000  1.0 0.1196519903
H  H258  1  0.67235000  0.17888000  0.71870000  1.0 0.1196519903
H  H259  1  0.10232000  0.25120000  0.75417000  1.0 0.0897809907
H  H260  1  0.00153000  0.22992000  0.78606000  1.0 0.1196519903
H  H261  1  0.85792000  0.26317000  0.67739000  1.0 0.1298260731
H  H262  1  0.96260000  0.28609000  0.64952000  1.0 0.1004822498
H  H263  1  0.99317000  0.57621000  0.74035000  1.0 0.1196519903
H  H264  1  0.42691000  0.55099000  0.26254000  1.0 0.1004822498
H  H265  1  0.39219000  0.51675000  0.28907000  1.0 0.050377017
H  H266  1  0.41996000  0.58343000  0.32797000  1.0 0.0591805152
H  H267  1  0.46941000  0.52351000  0.37318000  1.0 0.0691486962
H  H268  1  0.55183000  0.50094000  0.36759000  1.0 0.040134931
H  H269  1  0.54268000  0.56832000  0.39867000  1.0 0.0691486962
H  H270  1  0.57810000  0.46827000  0.26724000  1.0 0.0897809907
H  H271  1  0.49713000  0.44190000  0.26531000  1.0 0.050377017
H  H272  1  0.50491000  0.47077000  0.22711000  1.0 0.0591805152
C  C1  1  0.44220000  0.51670000  0.68980000  1.0 -0.2107707476
C  C2  1  0.54650000  0.49010000  0.74400000  1.0 -0.2008140266
C  C3  1  0.52640000  0.44150000  0.63520000  1.0 -0.21802775
C  C4  1  0.60020000  0.26750000  0.48700000  1.0 0.3335868177
C  C5  1  0.55900000  0.27400000  0.53520000  1.0 0.1298260731
C  C6  1  0.49030000  0.46840000  0.68840000  1.0 0.1510992032
C  C7  1  0.46050000  0.20720000  0.68580000  1.0 0.3206898991
C  C8  1  0.51470000  0.23310000  0.74220000  1.0 -0.4429641831
C  C9  1  0.50570000  0.17920000  0.63670000  1.0 -0.4492158773
C  C10  1  0.40010000  0.16690000  0.68580000  1.0 -0.4429641831
C  C11  1  0.12740000  0.28300000  0.53790000  1.0 0.2990821359
C  C12  1  0.17090000  0.25260000  0.48680000  1.0 -0.4429641831
C  C13  1  0.08690000  0.33230000  0.53900000  1.0 -0.4429641831
C  C14  1  0.07670000  0.23480000  0.53620000  1.0 -0.4429641831
C  C15  1  0.21430000  0.42730000  0.84000000  1.0 0.3352567908
C  C16  1  0.28500000  0.43760000  0.88680000  1.0 -0.4620444867
C  C17  1  0.18350000  0.48550000  0.84960000  1.0 -0.4620444867
C  C18  1  0.14920000  0.38730000  0.83910000  1.0 -0.4620444867
C  C19  1  0.23970000  0.51260000  0.67040000  1.0 0.1714208034
C  C20  1  0.24790000  0.57350000  0.67750000  1.0 0.3879454987
C  C21  1  0.19870000  0.17470000  0.66160000  1.0 0.2990821359
C  C22  1  0.17200000  0.12460000  0.66840000  1.0 0.3206898991
C  C23  1  0.84010000  0.08490000  0.89000000  1.0 0.3206898991
C  C24  1  0.85440000  0.15130000  0.92760000  1.0 -0.4620444867
C  C25  1  0.75410000  0.06700000  0.87680000  1.0 -0.4682139698
C  C26  1  0.87280000  0.06180000  0.83630000  1.0 -0.4620444867
C  C27  1  0.84340000  0.80540000  0.87520000  1.0 0.2990821359
C  C28  1  0.75840000  0.81090000  0.86640000  1.0 -0.4795822891
C  C29  1  0.85810000  0.76990000  0.90360000  1.0 -0.4492158773
C  C30  1  0.83680000  0.07090000  0.15470000  1.0 0.2669858915
C  C31  1  0.89010000  0.11440000  0.19890000  1.0 -0.4302693052
C  C32  1  0.75760000  0.09130000  0.14370000  1.0 -0.4302693052
C  C33  1  0.81540000  0.02520000  0.16720000  1.0 -0.4302693052
C  C34  1  0.92660000  0.87520000  0.09920000  1.0 0.3879454987
C  C35  1  0.90620000  0.83570000  0.12870000  1.0 0.5511407015
C  C36  1  0.87450000  0.78110000  0.82020000  1.0 -0.4492158773
C  C37  1  0.68410000  0.94510000  0.89760000  1.0 0.369155964
C  C38  1  0.59600000  0.92900000  0.87680000  1.0 0.5288190004
C  C39  1  0.73280000  0.17360000  0.06380000  1.0 0.0897809907
C  C40  1  0.68050000  0.21080000  0.09260000  1.0 -0.2107707476
C  C41  1  0.60570000  0.18850000  0.08500000  1.0 0.1095785757
C  C42  1  0.58920000  0.12900000  0.04990000  1.0 -0.2008140266
C  C43  1  0.64520000  0.09330000  0.02350000  1.0 0.0691486962
C  C44  1  0.54780000  0.22730000  0.11420000  1.0 0.0591805152
C  C45  1  0.56720000  0.27660000  0.16780000  1.0 -0.1407555941
C  C46  1  0.51240000  0.31160000  0.19500000  1.0 -0.1809459694
C  C47  1  0.43530000  0.29970000  0.16930000  1.0 0.0691486962
C  C48  1  0.41420000  0.24870000  0.11580000  1.0 -0.1407555941
C  C49  1  0.46950000  0.21330000  0.08880000  1.0 -0.1407555941
C  C50  1  0.37660000  0.33900000  0.19840000  1.0 -0.0308057013
C  C51  1  0.32700000  0.36070000  0.17130000  1.0 -0.0473850872
C  C52  1  0.33333333  0.35100000  0.11290000  1.0 0.0691486962
C  C53  1  0.26720000  0.33170000  0.07020000  1.0 -0.1486762316
C  C54  1  0.27110000  0.31890000  0.01450000  1.0 -0.1407555941
C  C55  1  0.34080000  0.32420000  0.99900000  1.0 0.050377017
C  C56  1  0.40690000  0.34550000  0.04260000  1.0 -0.1486762316
C  C57  1  0.40290000  0.35900000  0.09850000  1.0 -0.1486762316
C  C58  1  0.40580000  0.31970000  0.86990000  1.0 0.0591805152
C  C59  1  0.40630000  0.33210000  0.92610000  1.0 -0.2107707476
C  C60  1  0.34530000  0.31070000  0.93970000  1.0 0.1095785757
C  C61  1  0.28740000  0.27450000  0.89320000  1.0 -0.21802775
C  C62  1  0.29200000  0.26460000  0.83790000  1.0 0.0783604855
C  C63  1  0.26110000  0.39470000  0.19580000  1.0 0.0691486962
C  C64  1  0.21110000  0.37540000  0.21900000  1.0 -0.1407555941
C  C65  1  0.14910000  0.40540000  0.23920000  1.0 -0.1292467225
C  C66  1  0.13450000  0.45680000  0.23750000  1.0 0.0591805152
C  C67  1  0.18510000  0.47600000  0.21430000  1.0 -0.1407555941
C  C68  1  0.24600000  0.44480000  0.19250000  1.0 -0.1606368366
C  C69  1  0.06690000  0.48840000  0.25910000  1.0 0.1004822498
C  C70  1  0.94310000  0.49120000  0.28470000  1.0 0.0591805152
C  C71  1  0.99030000  0.56940000  0.28380000  1.0 0.0691486962
C  C72  1  0.05350000  0.53950000  0.26280000  1.0 -0.2008140266
C  C73  1  0.37460000  0.34790000  0.25730000  1.0 0.0591805152
C  C74  1  0.38380000  0.30250000  0.26800000  1.0 -0.1486762316
C  C75  1  0.37760000  0.30800000  0.32090000  1.0 -0.1292467225
C  C76  1  0.36330000  0.36120000  0.36510000  1.0 0.0591805152
C  C77  1  0.35770000  0.40820000  0.35590000  1.0 -0.1407555941
C  C78  1  0.36370000  0.40230000  0.30270000  1.0 -0.1905207237
C  C79  1  0.29660000  0.41150000  0.50730000  1.0 0.0691486962
C  C80  1  0.30890000  0.40900000  0.45660000  1.0 -0.1905207237
C  C81  1  0.35250000  0.36660000  0.42200000  1.0 0.1004822498
C  C82  1  0.38300000  0.32960000  0.44050000  1.0 -0.1809459694
C  C83  1  0.37020000  0.33520000  0.49120000  1.0 0.050377017
C  C84  1  0.32200000  0.58780000  0.84300000  1.0 0.050377017
C  C85  1  0.31700000  0.63250000  0.89760000  1.0 -0.1905207237
C  C86  1  0.35700000  0.63340000  0.94580000  1.0 0.1004822498
C  C87  1  0.40390000  0.58830000  0.93670000  1.0 -0.2107707476
C  C88  1  0.40760000  0.54500000  0.88070000  1.0 0.0591805152
C  C89  1  0.35000000  0.67900000  0.00440000  1.0 0.050377017
C  C90  1  0.33870000  0.73580000  0.01750000  1.0 -0.1407555941
C  C91  1  0.33300000  0.77860000  0.07200000  1.0 -0.1292467225
C  C92  1  0.33830000  0.76550000  0.11750000  1.0 0.0591805152
C  C93  1  0.34800000  0.70850000  0.10430000  1.0 -0.1486762316
C  C94  1  0.35620000  0.66560000  0.04950000  1.0 -0.1606368366
C  C95  1  0.33160000  0.81070000  0.17660000  1.0 -0.0308057013
C  C96  1  0.37740000  0.86230000  0.20470000  1.0 -0.0233987983
C  C97  1  0.44180000  0.87100000  0.17950000  1.0 0.0591805152
C  C98  1  0.45110000  0.92140000  0.17530000  1.0 -0.1407555941
C  C99  1  0.50440000  0.92690000  0.14580000  1.0 -0.1486762316
C  C100  1  0.55350000  0.88300000  0.12060000  1.0 0.050377017
C  C101  1  0.54790000  0.83460000  0.12820000  1.0 -0.1407555941
C  C102  1  0.49360000  0.82840000  0.15670000  1.0 -0.1407555941
C  C103  1  0.61010000  0.88880000  0.08750000  1.0 0.1095785757
C  C104  1  0.60050000  0.92540000  0.06380000  1.0 -0.2008140266
C  C105  1  0.65460000  0.92970000  0.03350000  1.0 0.0591805152
C  C106  1  0.72620000  0.86380000  0.04720000  1.0 0.0691486962
C  C107  1  0.67390000  0.85740000  0.07840000  1.0 -0.2008140266
C  C108  1  0.36600000  0.91280000  0.26040000  1.0 0.0691486962
C  C109  1  0.29230000  0.93040000  0.27080000  1.0 -0.1292467225
C  C110  1  0.28220000  0.97700000  0.32160000  1.0 -0.1201270836
C  C111  1  0.34440000  0.00900000  0.36460000  1.0 0.0591805152
C  C112  1  0.41730000  0.99310000  0.35500000  1.0 -0.1407555941
C  C113  1  0.42840000  0.94560000  0.30350000  1.0 -0.1486762316
C  C114  1  0.25640000  0.11230000  0.49280000  1.0 0.0897809907
C  C115  1  0.26640000  0.06290000  0.44240000  1.0 -0.1809459694
C  C116  1  0.33140000  0.06130000  0.41900000  1.0 0.1095785757
C  C117  1  0.38430000  0.10970000  0.44890000  1.0 -0.1905207237
C  C118  1  0.36950000  0.15770000  0.49940000  1.0 0.0783604855
C  C119  1  0.27040000  0.79590000  0.20070000  1.0 0.0691486962
C  C120  1  0.19870000  0.77030000  0.16480000  1.0 -0.1486762316
C  C121  1  0.13900000  0.75640000  0.18500000  1.0 -0.1292467225
C  C122  1  0.14900000  0.76730000  0.24150000  1.0 0.0591805152
C  C123  1  0.22140000  0.79010000  0.27670000  1.0 -0.1407555941
C  C124  1  0.28030000  0.80490000  0.25680000  1.0 -0.1407555941
C  C125  1  0.94750000  0.74510000  0.26070000  1.0 0.0591805152
C  C126  1  0.00800000  0.75820000  0.24160000  1.0 -0.1905207237
C  C127  1  0.08360000  0.75400000  0.26300000  1.0 0.1095785757
C  C128  1  0.09270000  0.73840000  0.30530000  1.0 -0.2008140266
C  C129  1  0.02910000  0.72500000  0.32220000  1.0 0.0591805152
C  C130  1  0.92370000  0.22640000  0.10710000  1.0 0.3815539437
C  C131  1  0.89530000  0.28820000  0.14030000  1.0 0.5206199345
C  C132  1  0.00540000  0.46220000  0.26680000  1.0 -0.2008140266
C  C133  1  0.57010000  0.45290000  0.70400000  1.0 -0.2107707476
C  C134  1  0.48000000  0.46920000  0.63230000  1.0 -0.1730023119
C  C135  1  0.47600000  0.52730000  0.73650000  1.0 -0.2107707476
C  C136  1  0.57500000  0.25340000  0.54770000  1.0 0.1894984525
C  C137  1  0.90980000  0.92120000  0.75810000  1.0 0.369155964
C  C138  1  0.88900000  0.89720000  0.69300000  1.0 0.5288190004
C  C139  1  0.60880000  0.20820000  0.49550000  1.0 0.3206898991
C  C140  1  0.55780000  0.48330000  0.31020000  1.0 -0.2107707476
C  C141  1  0.45350000  0.50990000  0.25600000  1.0 -0.2008140266
C  C142  1  0.47360000  0.55850000  0.36480000  1.0 -0.21802775
C  C143  1  0.39980000  0.73250000  0.51300000  1.0 0.3335868177
C  C144  1  0.44100000  0.72600000  0.46480000  1.0 0.1298260731
C  C145  1  0.50970000  0.53160000  0.31160000  1.0 0.1510992032
C  C146  1  0.53950000  0.79280000  0.31420000  1.0 0.3206898991
C  C147  1  0.48530000  0.76690000  0.25780000  1.0 -0.4429641831
C  C148  1  0.49430000  0.82080000  0.36330000  1.0 -0.4492158773
C  C149  1  0.59990000  0.83310000  0.31420000  1.0 -0.4429641831
C  C150  1  0.87260000  0.71700000  0.46210000  1.0 0.2990821359
C  C151  1  0.82910000  0.74740000  0.51320000  1.0 -0.4492158773
C  C152  1  0.91310000  0.66770000  0.46100000  1.0 -0.4429641831
C  C153  1  0.92330000  0.76520000  0.46380000  1.0 -0.4492158773
C  C154  1  0.78570000  0.57270000  0.16000000  1.0 0.3352567908
C  C155  1  0.71500000  0.56240000  0.11320000  1.0 -0.4620444867
C  C156  1  0.81650000  0.51450000  0.15040000  1.0 -0.4620444867
C  C157  1  0.85080000  0.61270000  0.16090000  1.0 -0.4620444867
C  C158  1  0.76030000  0.48740000  0.32960000  1.0 0.1714208034
C  C159  1  0.75210000  0.42650000  0.32250000  1.0 0.3879454987
C  C160  1  0.80130000  0.82530000  0.33840000  1.0 0.2990821359
C  C161  1  0.82800000  0.87540000  0.33160000  1.0 0.3206898991
C  C162  1  0.15990000  0.91510000  0.11000000  1.0 0.3206898991
C  C163  1  0.14560000  0.84870000  0.07240000  1.0 -0.4620444867
C  C164  1  0.24590000  0.93300000  0.12320000  1.0 -0.4682139698
C  C165  1  0.12720000  0.93820000  0.16370000  1.0 -0.4620444867
C  C166  1  0.15660000  0.19460000  0.12480000  1.0 0.2990821359
C  C167  1  0.24160000  0.18910000  0.13360000  1.0 -0.4795822891
C  C168  1  0.14190000  0.23010000  0.09640000  1.0 -0.4492158773
C  C169  1  0.16320000  0.92910000  0.84530000  1.0 0.2669858915
C  C170  1  0.10990000  0.88560000  0.80110000  1.0 -0.4302693052
C  C171  1  0.24240000  0.90870000  0.85630000  1.0 -0.4302693052
C  C172  1  0.18460000  0.97480000  0.83280000  1.0 -0.4302693052
C  C173  1  0.07340000  0.12480000  0.90080000  1.0 0.3815539437
C  C174  1  0.09380000  0.16430000  0.87130000  1.0 0.5511407015
C  C175  1  0.12550000  0.21890000  0.17980000  1.0 -0.4492158773
C  C176  1  0.31590000  0.05490000  0.10240000  1.0 0.369155964
C  C177  1  0.40400000  0.07100000  0.12320000  1.0 0.5288190004
C  C178  1  0.26720000  0.82640000  0.93620000  1.0 0.0897809907
C  C179  1  0.31950000  0.78920000  0.90740000  1.0 -0.2107707476
C  C180  1  0.39430000  0.81150000  0.91500000  1.0 0.1095785757
C  C181  1  0.41080000  0.87100000  0.95010000  1.0 -0.2008140266
C  C182  1  0.35480000  0.90670000  0.97650000  1.0 0.0691486962
C  C183  1  0.45220000  0.77270000  0.88580000  1.0 0.0591805152
C  C184  1  0.43280000  0.72340000  0.83220000  1.0 -0.1407555941
C  C185  1  0.48760000  0.68840000  0.80500000  1.0 -0.1809459694
C  C186  1  0.56470000  0.70030000  0.83070000  1.0 0.0691486962
C  C187  1  0.58580000  0.75130000  0.88420000  1.0 -0.1407555941
C  C188  1  0.53050000  0.78670000  0.91120000  1.0 -0.1407555941
C  C189  1  0.62340000  0.66100000  0.80160000  1.0 -0.0308057013
C  C190  1  0.67300000  0.63930000  0.82870000  1.0 -0.0473850872
C  C191  1  0.66666667  0.64900000  0.88710000  1.0 0.0691486962
C  C192  1  0.73280000  0.66830000  0.92980000  1.0 -0.1486762316
C  C193  1  0.72890000  0.68110000  0.98550000  1.0 -0.1407555941
C  C194  1  0.65920000  0.67580000  0.00100000  1.0 0.050377017
C  C195  1  0.59310000  0.65450000  0.95740000  1.0 -0.1486762316
C  C196  1  0.59710000  0.64100000  0.90150000  1.0 -0.1486762316
C  C197  1  0.59420000  0.68030000  0.13010000  1.0 0.0591805152
C  C198  1  0.59370000  0.66790000  0.07390000  1.0 -0.2107707476
C  C199  1  0.65470000  0.68930000  0.06030000  1.0 0.1095785757
C  C200  1  0.71260000  0.72550000  0.10680000  1.0 -0.21802775
C  C201  1  0.70800000  0.73540000  0.16210000  1.0 0.0783604855
C  C202  1  0.73890000  0.60530000  0.80420000  1.0 0.0691486962
C  C203  1  0.78890000  0.62460000  0.78100000  1.0 -0.1407555941
C  C204  1  0.85090000  0.59460000  0.76080000  1.0 -0.1292467225
C  C205  1  0.86550000  0.54320000  0.76250000  1.0 0.0591805152
C  C206  1  0.81490000  0.52400000  0.78570000  1.0 -0.1407555941
C  C207  1  0.75400000  0.55520000  0.80750000  1.0 -0.1606368366
C  C208  1  0.93310000  0.51160000  0.74090000  1.0 0.1004822498
C  C209  1  0.05690000  0.50880000  0.71530000  1.0 0.0591805152
C  C210  1  0.00970000  0.43060000  0.71620000  1.0 0.0691486962
C  C211  1  0.94650000  0.46050000  0.73720000  1.0 -0.2008140266
C  C212  1  0.62540000  0.65210000  0.74270000  1.0 0.0591805152
C  C213  1  0.61620000  0.69750000  0.73200000  1.0 -0.1486762316
C  C214  1  0.62240000  0.69200000  0.67910000  1.0 -0.1292467225
C  C215  1  0.63670000  0.63880000  0.63490000  1.0 0.0591805152
C  C216  1  0.64230000  0.59180000  0.64410000  1.0 -0.1407555941
C  C217  1  0.63630000  0.59770000  0.69730000  1.0 -0.1905207237
C  C218  1  0.70340000  0.58850000  0.49270000  1.0 0.0691486962
C  C219  1  0.69110000  0.59100000  0.54340000  1.0 -0.1905207237
C  C220  1  0.64750000  0.63340000  0.57800000  1.0 0.1004822498
C  C221  1  0.61700000  0.67040000  0.55950000  1.0 -0.1809459694
C  C222  1  0.62980000  0.66480000  0.50880000  1.0 0.050377017
C  C223  1  0.67800000  0.41220000  0.15700000  1.0 0.050377017
C  C224  1  0.68300000  0.36750000  0.10240000  1.0 -0.1905207237
C  C225  1  0.64300000  0.36660000  0.05420000  1.0 0.1004822498
C  C226  1  0.59610000  0.41170000  0.06330000  1.0 -0.2107707476
C  C227  1  0.59240000  0.45500000  0.11930000  1.0 0.0591805152
C  C228  1  0.65000000  0.32100000  0.99560000  1.0 0.050377017
C  C229  1  0.66130000  0.26420000  0.98250000  1.0 -0.1407555941
C  C230  1  0.66700000  0.22140000  0.92800000  1.0 -0.1292467225
C  C231  1  0.66170000  0.23450000  0.88250000  1.0 0.0591805152
C  C232  1  0.65200000  0.29150000  0.89570000  1.0 -0.1486762316
C  C233  1  0.64380000  0.33440000  0.95050000  1.0 -0.1606368366
C  C234  1  0.66840000  0.18930000  0.82340000  1.0 -0.0308057013
C  C235  1  0.62260000  0.13770000  0.79530000  1.0 -0.0233987983
C  C236  1  0.55820000  0.12900000  0.82050000  1.0 0.0591805152
C  C237  1  0.54890000  0.07860000  0.82470000  1.0 -0.1407555941
C  C238  1  0.49560000  0.07310000  0.85420000  1.0 -0.1486762316
C  C239  1  0.44650000  0.11700000  0.87940000  1.0 0.050377017
C  C240  1  0.45210000  0.16540000  0.87180000  1.0 -0.1407555941
C  C241  1  0.50640000  0.17160000  0.84330000  1.0 -0.1407555941
C  C242  1  0.38990000  0.11120000  0.91250000  1.0 0.1095785757
C  C243  1  0.39950000  0.07460000  0.93620000  1.0 -0.2008140266
C  C244  1  0.34540000  0.07030000  0.96650000  1.0 0.0591805152
C  C245  1  0.27380000  0.13620000  0.95280000  1.0 0.0691486962
C  C246  1  0.32610000  0.14260000  0.92160000  1.0 -0.2008140266
C  C247  1  0.63400000  0.08720000  0.73960000  1.0 0.0691486962
C  C248  1  0.70770000  0.06960000  0.72920000  1.0 -0.1292467225
C  C249  1  0.71780000  0.02300000  0.67840000  1.0 -0.1201270836
C  C250  1  0.65560000  0.99100000  0.63540000  1.0 0.0591805152
C  C251  1  0.58270000  0.00690000  0.64500000  1.0 -0.1407555941
C  C252  1  0.57160000  0.05440000  0.69650000  1.0 -0.1486762316
C  C253  1  0.74360000  0.88770000  0.50720000  1.0 0.0897809907
C  C254  1  0.73360000  0.93710000  0.55760000  1.0 -0.1809459694
C  C255  1  0.66860000  0.93870000  0.58100000  1.0 0.1095785757
C  C256  1  0.61570000  0.89030000  0.55110000  1.0 -0.1905207237
C  C257  1  0.63050000  0.84230000  0.50060000  1.0 0.0783604855
C  C258  1  0.72960000  0.20410000  0.79930000  1.0 0.0691486962
C  C259  1  0.80130000  0.22970000  0.83520000  1.0 -0.1486762316
C  C260  1  0.86100000  0.24360000  0.81500000  1.0 -0.1292467225
C  C261  1  0.85100000  0.23270000  0.75850000  1.0 0.0591805152
C  C262  1  0.77860000  0.20990000  0.72330000  1.0 -0.1407555941
C  C263  1  0.71970000  0.19510000  0.74320000  1.0 -0.1407555941
C  C264  1  0.05250000  0.25490000  0.73930000  1.0 0.0591805152
C  C265  1  0.99200000  0.24180000  0.75840000  1.0 -0.1905207237
C  C266  1  0.91640000  0.24600000  0.73700000  1.0 0.1095785757
C  C267  1  0.90730000  0.26160000  0.69470000  1.0 -0.2008140266
C  C268  1  0.97090000  0.27500000  0.67780000  1.0 0.0591805152
C  C269  1  0.07630000  0.77360000  0.89290000  1.0 0.3815539437
C  C270  1  0.10470000  0.71180000  0.85970000  1.0 0.5206199345
C  C271  1  0.99460000  0.53780000  0.73320000  1.0 -0.2008140266
C  C272  1  0.42990000  0.54710000  0.29600000  1.0 -0.2107707476
C  C273  1  0.52000000  0.53080000  0.36770000  1.0 -0.1730023119
C  C274  1  0.52400000  0.47270000  0.26350000  1.0 -0.2107707476
C  C275  1  0.42500000  0.74660000  0.45230000  1.0 0.1894984525
C  C276  1  0.09020000  0.07880000  0.24190000  1.0 0.369155964
C  C277  1  0.11100000  0.10280000  0.30700000  1.0 0.5288190004
C  C278  1  0.39120000  0.79180000  0.50450000  1.0 0.3206898991
S  S1  1  0.87538000  0.03553000  0.08492000  1.0 -0.2781921643
S  S2  1  0.89286000  0.88117000  0.92640000  1.0 -0.2878536451
S  S3  1  0.89071000  0.05351000  0.93354000  1.0 -0.2527279797
S  S4  1  0.20189000  0.31165000  0.60486000  1.0 -0.352166796
S  S5  1  0.42207000  0.41057000  0.68280000  1.0 -0.3593175652
S  S6  1  0.24434000  0.39036000  0.76825000  1.0 -0.3705304655
S  S7  1  0.41038000  0.26659000  0.67937000  1.0 -0.2878536451
S  S8  1  0.12462000  0.96447000  0.91508000  1.0 -0.2781921643
S  S9  1  0.10714000  0.11883000  0.07360000  1.0 -0.2878536451
S  S10  1  0.10929000  0.94649000  0.06646000  1.0 -0.2527279797
S  S11  1  0.79811000  0.68835000  0.39514000  1.0 -0.352166796
S  S12  1  0.57793000  0.58943000  0.31720000  1.0 -0.3593175652
S  S13  1  0.75566000  0.60964000  0.23175000  1.0 -0.3705304655
S  S14  1  0.58962000  0.73341000  0.32063000  1.0 -0.2878536451
N  N1  1  0.36670000  0.54380000  0.83400000  1.0 -0.21802775
N  N2  1  0.71750000  0.90020000  0.02630000  1.0 -0.1606368366
N  N3  1  0.30790000  0.15880000  0.52180000  1.0 -0.21802775
N  N4  1  0.95670000  0.72700000  0.30030000  1.0 -0.2008140266
N  N5  1  0.32600000  0.37420000  0.52440000  1.0 -0.2107707476
N  N6  1  0.93740000  0.54770000  0.29830000  1.0 -0.1730023119
N  N7  1  0.34970000  0.28690000  0.82630000  1.0 -0.2107707476
N  N8  1  0.71820000  0.11620000  0.03030000  1.0 -0.1905207237
N  N9  1  0.63330000  0.45620000  0.16600000  1.0 -0.21802775
N  N10  1  0.28250000  0.09980000  0.97370000  1.0 -0.1606368366
N  N11  1  0.69210000  0.84120000  0.47820000  1.0 -0.21802775
N  N12  1  0.04330000  0.27300000  0.69970000  1.0 -0.2008140266
N  N13  1  0.67400000  0.62580000  0.47560000  1.0 -0.2107707476
N  N14  1  0.06260000  0.45230000  0.70170000  1.0 -0.1730023119
N  N15  1  0.65030000  0.71310000  0.17370000  1.0 -0.2107707476
N  N16  1  0.28180000  0.88380000  0.96970000  1.0 -0.1905207237
O  O1  1  0.93210000  0.84160000  0.05000000  1.0 -0.4119396451
O  O2  1  0.93630000  0.92320000  0.13080000  1.0 -0.3593175652
O  O3  1  0.71920000  0.93070000  0.85770000  1.0 -0.3758438173
O  O4  1  0.70500000  0.96990000  0.95000000  1.0 -0.4620444867
O  O5  1  0.20340000  0.16390000  0.61350000  1.0 -0.4179207701
O  O6  1  0.21180000  0.22150000  0.70728000  1.0 -0.4620444867
O  O7  1  0.23370000  0.47280000  0.62160000  1.0 -0.4179207701
O  O8  1  0.23710000  0.51050000  0.71478000  1.0 -0.4492158773
O  O9  1  0.60400000  0.29700000  0.59310000  1.0 -0.0088994255
O  O10  1  0.50280000  0.26610000  0.54220000  1.0 -0.2107707476
O  O11  1  0.92880000  0.19940000  0.13260000  1.0 -0.4179207701
O  O12  1  0.94520000  0.21520000  0.06280000  1.0 -0.4179207701
O  O13  1  0.96470000  0.95700000  0.78740000  1.0 -0.3871986362
O  O14  1  0.86200000  0.89790000  0.78120000  1.0 -0.5236909631
O  O15  1  0.62400000  0.26720000  0.60250000  1.0 -0.1407555941
O  O16  1  0.06790000  0.15840000  0.95000000  1.0 -0.4119396451
O  O17  1  0.06370000  0.07680000  0.86920000  1.0 -0.3593175652
O  O18  1  0.28080000  0.06930000  0.14230000  1.0 -0.3758438173
O  O19  1  0.29500000  0.03010000  0.05000000  1.0 -0.4620444867
O  O20  1  0.79660000  0.83610000  0.38650000  1.0 -0.4179207701
O  O21  1  0.78820000  0.77850000  0.29272000  1.0 -0.4620444867
O  O22  1  0.76630000  0.52720000  0.37840000  1.0 -0.4179207701
O  O23  1  0.76290000  0.48950000  0.28522000  1.0 -0.4492158773
O  O24  1  0.39600000  0.70300000  0.40690000  1.0 -0.0088994255
O  O25  1  0.49720000  0.73390000  0.45780000  1.0 -0.2107707476
O  O26  1  0.07120000  0.80060000  0.86740000  1.0 -0.4179207701
O  O27  1  0.05480000  0.78480000  0.93720000  1.0 -0.4179207701
O  O28  1  0.03530000  0.04300000  0.21260000  1.0 -0.3871986362
O  O29  1  0.13800000  0.10210000  0.21880000  1.0 -0.5236909631
O  O30  1  0.37600000  0.73280000  0.39750000  1.0 -0.1407555941
F  F1  1  0.17990000  0.59550000  0.67630000  1.0 0.050377017
F  F2  1  0.29500000  0.61170000  0.72460000  1.0 0.0099054972
F  F3  1  0.27480000  0.57150000  0.63300000  1.0 -0.0473850872
F  F4  1  0.09940000  0.10530000  0.64100000  1.0 -0.0604677106
F  F5  1  0.17800000  0.13360000  0.72170000  1.0 0.0099054972
F  F6  1  0.20760000  0.07670000  0.64210000  1.0 0.040134931
F  F7  1  0.66800000  0.24170000  0.49310000  1.0 -0.1486762316
F  F8  1  0.56350000  0.21130000  0.44990000  1.0 -0.1201270836
F  F9  1  0.56670000  0.94600000  0.84170000  1.0 -0.1730023119
F  F10  1  0.57730000  0.87480000  0.85390000  1.0 -0.1730023119
F  F11  1  0.55450000  0.95440000  0.91770000  1.0 -0.2008140266
F  F12  1  0.96970000  0.83320000  0.16010000  1.0 -0.2008140266
F  F13  1  0.86950000  0.78670000  0.09470000  1.0 -0.2008140266
F  F14  1  0.85790000  0.86550000  0.16550000  1.0 -0.2107707476
F  F15  1  0.58400000  0.31940000  0.48620000  1.0 -0.2781921643
F  F16  1  0.85000000  0.29200000  0.17000000  1.0 -0.1905207237
F  F17  1  0.95490000  0.32570000  0.16790000  1.0 -0.2008140266
F  F18  1  0.86130000  0.30450000  0.10150000  1.0 -0.2107707476
F  F19  1  0.31590000  0.60390000  0.70520000  1.0 0.0099054972
F  F20  1  0.23030000  0.58810000  0.63700000  1.0 0.1004822498
F  F21  1  0.20270000  0.60640000  0.71460000  1.0 0.0099054972
F  F22  1  0.23320000  0.10360000  0.68550000  1.0 0.0274132342
F  F23  1  0.15200000  0.07320000  0.62200000  1.0 0.040134931
F  F24  1  0.13260000  0.13710000  0.71000000  1.0 0.0218332159
F  F25  1  0.83920000  0.85520000  0.66920000  1.0 -0.2008140266
F  F26  1  0.86830000  0.93870000  0.68240000  1.0 -0.2327175568
F  F27  1  0.95450000  0.87820000  0.67190000  1.0 -0.2327175568
F  F28  1  0.59480000  0.15610000  0.49570000  1.0 -0.2403533551
F  F29  1  0.82010000  0.40450000  0.32370000  1.0 0.040134931
F  F30  1  0.70500000  0.38830000  0.27540000  1.0 0.0039676242
F  F31  1  0.72520000  0.42850000  0.36700000  1.0 -0.0473850872
F  F32  1  0.90060000  0.89470000  0.35900000  1.0 -0.0604677106
F  F33  1  0.82200000  0.86640000  0.27830000  1.0 0.0099054972
F  F34  1  0.79240000  0.92330000  0.35790000  1.0 0.040134931
F  F35  1  0.33200000  0.75830000  0.50690000  1.0 -0.1486762316
F  F36  1  0.43650000  0.78870000  0.55010000  1.0 -0.1201270836
F  F37  1  0.43330000  0.05400000  0.15830000  1.0 -0.1606368366
F  F38  1  0.42270000  0.12520000  0.14610000  1.0 -0.1730023119
F  F39  1  0.44550000  0.04560000  0.08230000  1.0 -0.2008140266
F  F40  1  0.03030000  0.16680000  0.83990000  1.0 -0.2008140266
F  F41  1  0.13050000  0.21330000  0.90530000  1.0 -0.2008140266
F  F42  1  0.14210000  0.13450000  0.83450000  1.0 -0.2107707476
F  F43  1  0.41600000  0.68060000  0.51380000  1.0 -0.2781921643
F  F44  1  0.15000000  0.70800000  0.83000000  1.0 -0.1905207237
F  F45  1  0.04510000  0.67430000  0.83210000  1.0 -0.2008140266
F  F46  1  0.13870000  0.69550000  0.89850000  1.0 -0.2107707476
F  F47  1  0.68410000  0.39610000  0.29480000  1.0 0.0099054972
F  F48  1  0.76970000  0.41190000  0.36300000  1.0 0.1004822498
F  F49  1  0.79730000  0.39360000  0.28540000  1.0 0.0099054972
F  F50  1  0.76680000  0.89640000  0.31450000  1.0 0.0274132342
F  F51  1  0.84800000  0.92680000  0.37800000  1.0 0.040134931
F  F52  1  0.86740000  0.86290000  0.29000000  1.0 0.0218332159
F  F53  1  0.16080000  0.14480000  0.33080000  1.0 -0.2008140266
F  F54  1  0.13170000  0.06130000  0.31760000  1.0 -0.2327175568
F  F55  1  0.04550000  0.12180000  0.32810000  1.0 -0.2327175568
F  F56  1  0.40520000  0.84390000  0.50430000  1.0 -0.2403533551
