# DDEC6 charges by PACMAN v1.1 (https://github.com/mtap-research/PACMAN-charge/)
data_DOFTID_ASR_pacman
_symmetry_space_group_name_H-M   'P 1'
_cell_length_a   19.59650000
_cell_length_b   19.59650000
_cell_length_c   19.59650000
_cell_angle_alpha   134.51400000
_cell_angle_beta   102.34200000
_cell_angle_gamma   94.88640000
_symmetry_Int_Tables_number   1
_chemical_formula_structural   ZnPH12PtC20(ClO2)2
_chemical_formula_sum   'Zn4 P4 H48 Pt4 C80 Cl8 O16'
_cell_volume   4934.85583661
_cell_formula_units_Z   4
loop_
 _symmetry_equiv_pos_site_id
 _symmetry_equiv_pos_as_xyz
  1  'x, y, z'
loop_
 _atom_site_type_symbol
 _atom_site_label
 _atom_site_symmetry_multiplicity
 _atom_site_fract_x
 _atom_site_fract_y
 _atom_site_fract_z
 _atom_site_occupancy
 _atom_site_charge
Zn  Zn1  1  0.96510000  0.38390000  0.41880000  1.0 0.9675151072
Zn  Zn2  1  0.53490000  0.95370000  0.41880000  1.0 0.9675151072
Zn  Zn3  1  0.46510000  0.04630000  0.58120000  1.0 0.9675151072
Zn  Zn4  1  0.03490000  0.61610000  0.58120000  1.0 0.9675151072
P  P1  1  0.55860000  0.55860000  0.50000000  1.0 0.2508863074
P  P2  1  0.94140000  0.44140000  0.00000000  1.0 0.2508863074
P  P3  1  0.44140000  0.44140000  0.50000000  1.0 0.2415248118
P  P4  1  0.05860000  0.55860000  0.00000000  1.0 0.2508863074
H  H1  1  0.61590000  0.38910000  0.39320000  1.0 0.0891376976
H  H2  1  0.88410000  0.27730000  0.77320000  1.0 0.0891376976
H  H3  1  0.49590000  0.72270000  0.60680000  1.0 0.0891376976
H  H4  1  0.00410000  0.61090000  0.22680000  1.0 0.0891376976
H  H5  1  0.38410000  0.61090000  0.60680000  1.0 0.0891376976
H  H6  1  0.11590000  0.72270000  0.22680000  1.0 0.0891376976
H  H7  1  0.50410000  0.27730000  0.39320000  1.0 0.0891376976
H  H8  1  0.99590000  0.38910000  0.77320000  1.0 0.0891376976
H  H9  1  0.73370000  0.37340000  0.39490000  1.0 0.1062448558
H  H10  1  0.76630000  0.16120000  0.63970000  1.0 0.1062448558
H  H11  1  0.47850000  0.83880000  0.60510000  1.0 0.1062448558
H  H12  1  0.02150000  0.62660000  0.36030000  1.0 0.1062448558
H  H13  1  0.26630000  0.62660000  0.60510000  1.0 0.1062448558
H  H14  1  0.23370000  0.83880000  0.36030000  1.0 0.1062448558
H  H15  1  0.52150000  0.16120000  0.39490000  1.0 0.1062448558
H  H16  1  0.97850000  0.37340000  0.63970000  1.0 0.1062448558
H  H17  1  0.82550000  0.67730000  0.59460000  1.0 0.1035492417
H  H18  1  0.67450000  0.26910000  0.85180000  1.0 0.1035492417
H  H19  1  0.58270000  0.73090000  0.40540000  1.0 0.1035492417
H  H20  1  0.91730000  0.32270000  0.14820000  1.0 0.1035492417
H  H21  1  0.17450000  0.32270000  0.40540000  1.0 0.1035492417
H  H22  1  0.32550000  0.73090000  0.14820000  1.0 0.1035492417
H  H23  1  0.41730000  0.26910000  0.59460000  1.0 0.1035492417
H  H24  1  0.08270000  0.67730000  0.85180000  1.0 0.1035492417
H  H25  1  0.70820000  0.69650000  0.59590000  1.0 0.0891376976
H  H26  1  0.79180000  0.38770000  0.98830000  1.0 0.0891376976
H  H27  1  0.60060000  0.61230000  0.40410000  1.0 0.0891376976
H  H28  1  0.89940000  0.30350000  0.01170000  1.0 0.0891376976
H  H29  1  0.29180000  0.30350000  0.40410000  1.0 0.0891376976
H  H30  1  0.20820000  0.61230000  0.01170000  1.0 0.0891376976
H  H31  1  0.39940000  0.38770000  0.59590000  1.0 0.0891376976
H  H32  1  0.10060000  0.69650000  0.98830000  1.0 0.0891376976
H  H33  1  0.65460000  0.73900000  0.71580000  1.0 0.1749399416
H  H34  1  0.84540000  0.56120000  0.08440000  1.0 0.1757647209
H  H35  1  0.52320000  0.43880000  0.28420000  1.0 0.1749399416
H  H36  1  0.97680000  0.26100000  0.91560000  1.0 0.1749399416
H  H37  1  0.34540000  0.26100000  0.28420000  1.0 0.1757647209
H  H38  1  0.15460000  0.43880000  0.91560000  1.0 0.1749399416
H  H39  1  0.47680000  0.56120000  0.71580000  1.0 0.1749399416
H  H40  1  0.02320000  0.73900000  0.08440000  1.0 0.1757647209
H  H41  1  0.65870000  0.80420000  0.87370000  1.0 0.1035492417
H  H42  1  0.84130000  0.71500000  0.14550000  1.0 0.1035492417
H  H43  1  0.43050000  0.28500000  0.12630000  1.0 0.1035492417
H  H44  1  0.06950000  0.19580000  0.85450000  1.0 0.1035492417
H  H45  1  0.34130000  0.19580000  0.12630000  1.0 0.1035492417
H  H46  1  0.15870000  0.28500000  0.85450000  1.0 0.1035492417
H  H47  1  0.56950000  0.71500000  0.87370000  1.0 0.1035492417
H  H48  1  0.93050000  0.80420000  0.14550000  1.0 0.1062448558
Pt  Pt1  1  0.45940000  0.40950000  0.36890000  1.0 0.013617265
Pt  Pt2  1  0.04060000  0.40950000  0.95010000  1.0 0.0154730305
Pt  Pt3  1  0.54060000  0.59050000  0.63110000  1.0 0.0154730305
Pt  Pt4  1  0.95940000  0.59050000  0.04990000  1.0 0.013617265
C  C1  1  0.64900000  0.54500000  0.49400000  1.0 -0.129289262
C  C2  1  0.85100000  0.34500000  0.89600000  1.0 -0.129289262
C  C3  1  0.55100000  0.65500000  0.50600000  1.0 -0.129289262
C  C4  1  0.94900000  0.45500000  0.10400000  1.0 -0.129289262
C  C5  1  0.35100000  0.45500000  0.50600000  1.0 -0.129289262
C  C6  1  0.14900000  0.65500000  0.10400000  1.0 -0.129289262
C  C7  1  0.44900000  0.34500000  0.49400000  1.0 -0.129289262
C  C8  1  0.05100000  0.54500000  0.89600000  1.0 -0.129289262
C  C9  1  0.65700000  0.44600000  0.43300000  1.0 -0.1518510562
C  C10  1  0.84300000  0.27600000  0.78900000  1.0 -0.1518510562
C  C11  1  0.51300000  0.72400000  0.56700000  1.0 -0.1518510562
C  C12  1  0.98700000  0.55400000  0.21100000  1.0 -0.1518510562
C  C13  1  0.34300000  0.55400000  0.56700000  1.0 -0.1518510562
C  C14  1  0.15700000  0.72400000  0.21100000  1.0 -0.1518510562
C  C15  1  0.48700000  0.27600000  0.43300000  1.0 -0.1518510562
C  C16  1  0.01300000  0.44600000  0.78900000  1.0 -0.1518510562
C  C17  1  0.72800000  0.43600000  0.43400000  1.0 -0.0839328468
C  C18  1  0.77200000  0.20600000  0.70800000  1.0 -0.0855841334
C  C19  1  0.50200000  0.79400000  0.56600000  1.0 -0.0855841334
C  C20  1  0.99800000  0.56400000  0.29200000  1.0 -0.0855841334
C  C21  1  0.27200000  0.56400000  0.56600000  1.0 -0.0855841334
C  C22  1  0.22800000  0.79400000  0.29200000  1.0 -0.0839328468
C  C23  1  0.49800000  0.20600000  0.43400000  1.0 -0.0855841334
C  C24  1  0.00200000  0.43600000  0.70800000  1.0 -0.0839328468
C  C25  1  0.79100000  0.52300000  0.49400000  1.0 -0.0179492954
C  C26  1  0.70900000  0.20300000  0.73200000  1.0 -0.0179492954
C  C27  1  0.52900000  0.79700000  0.50600000  1.0 -0.0179492954
C  C28  1  0.97100000  0.47700000  0.26800000  1.0 -0.0179492954
C  C29  1  0.20900000  0.47700000  0.50600000  1.0 -0.0179492954
C  C30  1  0.29100000  0.79700000  0.26800000  1.0 -0.0179492954
C  C31  1  0.47100000  0.20300000  0.49400000  1.0 -0.0179492954
C  C32  1  0.02900000  0.52300000  0.73200000  1.0 -0.0179492954
C  C33  1  0.78400000  0.62100000  0.55500000  1.0 -0.0855841334
C  C34  1  0.71600000  0.27100000  0.83700000  1.0 -0.0855841334
C  C35  1  0.56600000  0.72900000  0.44500000  1.0 -0.0839328468
C  C36  1  0.93400000  0.37900000  0.16300000  1.0 -0.0839328468
C  C37  1  0.21600000  0.37900000  0.44500000  1.0 -0.0839328468
C  C38  1  0.28400000  0.72900000  0.16300000  1.0 -0.0855841334
C  C39  1  0.43400000  0.27100000  0.55500000  1.0 -0.0839328468
C  C40  1  0.06600000  0.62100000  0.83700000  1.0 -0.0839328468
C  C41  1  0.71300000  0.63300000  0.55600000  1.0 -0.129289262
C  C42  1  0.78700000  0.34300000  0.92000000  1.0 -0.1358751643
C  C43  1  0.57700000  0.65700000  0.44400000  1.0 -0.1358751643
C  C44  1  0.92300000  0.36700000  0.08000000  1.0 -0.1358751643
C  C45  1  0.28700000  0.36700000  0.44400000  1.0 -0.1358751643
C  C46  1  0.21300000  0.65700000  0.08000000  1.0 -0.129289262
C  C47  1  0.42300000  0.34300000  0.55600000  1.0 -0.1358751643
C  C48  1  0.07700000  0.63300000  0.92000000  1.0 -0.1358751643
C  C49  1  0.86800000  0.51400000  0.49600000  1.0 0.5796809904
C  C50  1  0.63200000  0.12800000  0.64600000  1.0 0.5796809904
C  C51  1  0.51800000  0.87200000  0.50400000  1.0 0.5796809904
C  C52  1  0.98200000  0.48600000  0.35400000  1.0 0.5796809904
C  C53  1  0.13200000  0.48600000  0.50400000  1.0 0.5796809904
C  C54  1  0.36800000  0.87200000  0.35400000  1.0 0.5796809904
C  C55  1  0.48200000  0.12800000  0.49600000  1.0 0.5796809904
C  C56  1  0.01800000  0.51400000  0.64600000  1.0 0.5796809904
C  C57  1  0.56300000  0.61100000  0.62000000  1.0 -0.0855841334
C  C58  1  0.93700000  0.55700000  0.04800000  1.0 -0.0839328468
C  C59  1  0.49100000  0.44300000  0.38000000  1.0 -0.0855841334
C  C60  1  0.00900000  0.38900000  0.95200000  1.0 -0.0855841334
C  C61  1  0.43700000  0.38900000  0.38000000  1.0 -0.0855841334
C  C62  1  0.06300000  0.44300000  0.95200000  1.0 -0.0855841334
C  C63  1  0.50900000  0.55700000  0.62000000  1.0 -0.0855841334
C  C64  1  0.99100000  0.61100000  0.04800000  1.0 -0.0839328468
C  C65  1  0.62200000  0.74300000  0.81100000  1.0 -0.0278945048
C  C66  1  0.87800000  0.68900000  0.12100000  1.0 -0.0278945048
C  C67  1  0.43200000  0.31100000  0.18900000  1.0 -0.0278945048
C  C68  1  0.06800000  0.25700000  0.87900000  1.0 -0.0278945048
C  C69  1  0.37800000  0.25700000  0.18900000  1.0 -0.0278945048
C  C70  1  0.12200000  0.31100000  0.87900000  1.0 -0.0278945048
C  C71  1  0.56800000  0.68900000  0.81100000  1.0 -0.0278945048
C  C72  1  0.93200000  0.74300000  0.12100000  1.0 -0.0278945048
C  C73  1  0.62000000  0.70400000  0.71600000  1.0 -0.0020163409
C  C74  1  0.88000000  0.59600000  0.08400000  1.0 -0.0020163409
C  C75  1  0.48800000  0.40400000  0.28400000  1.0 -0.0020163409
C  C76  1  0.01200000  0.29600000  0.91600000  1.0 -0.0020163409
C  C77  1  0.38000000  0.29600000  0.28400000  1.0 -0.0020163409
C  C78  1  0.12000000  0.40400000  0.91600000  1.0 -0.0020163409
C  C79  1  0.51200000  0.59600000  0.71600000  1.0 -0.0020163409
C  C80  1  0.98800000  0.70400000  0.08400000  1.0 -0.0020163409
Cl  Cl1  1  0.64500000  0.74500000  0.76200000  1.0 -0.0179492954
Cl  Cl2  1  0.85500000  0.61700000  0.10000000  1.0 -0.0179492954
Cl  Cl3  1  0.48300000  0.38300000  0.23800000  1.0 -0.0179492954
Cl  Cl4  1  0.01700000  0.25500000  0.90000000  1.0 -0.0179492954
Cl  Cl5  1  0.35500000  0.25500000  0.23800000  1.0 -0.0179492954
Cl  Cl6  1  0.14500000  0.38300000  0.90000000  1.0 -0.0179492954
Cl  Cl7  1  0.51700000  0.61700000  0.76200000  1.0 -0.0179492954
Cl  Cl8  1  0.98300000  0.74500000  0.10000000  1.0 -0.0179492954
O  O1  1  0.86900000  0.42200000  0.43500000  1.0 -0.5709123053
O  O2  1  0.63100000  0.06600000  0.55300000  1.0 -0.5709123053
O  O3  1  0.48700000  0.93400000  0.56500000  1.0 -0.5709123053
O  O4  1  0.01300000  0.57800000  0.44700000  1.0 -0.5709123053
O  O5  1  0.13100000  0.57800000  0.56500000  1.0 -0.5709123053
O  O6  1  0.36900000  0.93400000  0.44700000  1.0 -0.5709123053
O  O7  1  0.51300000  0.06600000  0.43500000  1.0 -0.5709123053
O  O8  1  0.98700000  0.42200000  0.55300000  1.0 -0.5709123053
O  O9  1  0.92200000  0.59400000  0.55400000  1.0 -0.5558396786
O  O10  1  0.57800000  0.13200000  0.67200000  1.0 -0.5524019637
O  O11  1  0.54000000  0.86800000  0.44600000  1.0 -0.5558396786
O  O12  1  0.96000000  0.40600000  0.32800000  1.0 -0.5558396786
O  O13  1  0.07800000  0.40600000  0.44600000  1.0 -0.5558396786
O  O14  1  0.42200000  0.86800000  0.32800000  1.0 -0.5558396786
O  O15  1  0.46000000  0.13200000  0.55400000  1.0 -0.5558396786
O  O16  1  0.04000000  0.59400000  0.67200000  1.0 -0.5558396786
