# DDEC6 charges by PACMAN v1.1 (https://github.com/mtap-research/PACMAN-charge/)
data_DOFYIJ_ASR_pacman
_symmetry_space_group_name_H-M   'P 1'
_cell_length_a   16.85210000
_cell_length_b   6.95190000
_cell_length_c   20.86700000
_cell_angle_alpha   90.00000000
_cell_angle_beta   109.39000000
_cell_angle_gamma   90.00000000
_symmetry_Int_Tables_number   1
_chemical_formula_structural   Zn2H11C19N4O5
_chemical_formula_sum   'Zn8 H44 C76 N16 O20'
_cell_volume   2305.99557835
_cell_formula_units_Z   4
loop_
 _symmetry_equiv_pos_site_id
 _symmetry_equiv_pos_as_xyz
  1  'x, y, z'
loop_
 _atom_site_type_symbol
 _atom_site_label
 _atom_site_symmetry_multiplicity
 _atom_site_fract_x
 _atom_site_fract_y
 _atom_site_fract_z
 _atom_site_occupancy
 _atom_site_charge
Zn  Zn1  1  0.00068000  0.47947000  0.24896000  1.0 0.8241674307
Zn  Zn2  1  0.19405000  0.22338000  0.29906000  1.0 0.8931077721
Zn  Zn3  1  0.99932000  0.97947000  0.25104000  1.0 0.8241674307
Zn  Zn4  1  0.80595000  0.72338000  0.20094000  1.0 0.8931077721
Zn  Zn5  1  0.99932000  0.52053000  0.75104000  1.0 0.8241674307
Zn  Zn6  1  0.80595000  0.77662000  0.70094000  1.0 0.8953520658
Zn  Zn7  1  0.00068000  0.02053000  0.74896000  1.0 0.8250210884
Zn  Zn8  1  0.19405000  0.27662000  0.79906000  1.0 0.8931077721
H  H1  1  0.38370000  0.27610000  0.69610000  1.0 0.1224400217
H  H2  1  0.16420000  0.25990000  0.54180000  1.0 0.127131481
H  H3  1  0.38160000  0.24330000  0.50310000  1.0 0.1224400217
H  H4  1  0.65080000  0.01550000  0.61900000  1.0 0.127131481
H  H5  1  0.50770000  0.02040000  0.57810000  1.0 0.108486254
H  H6  1  0.50960000  0.49290000  0.68860000  1.0 0.1039853322
H  H7  1  0.65330000  0.50490000  0.71900000  1.0 0.127131481
H  H8  1  0.65190000  0.51550000  0.61810000  1.0 0.127131481
H  H9  1  0.50870000  0.03280000  0.68990000  1.0 0.1039853322
H  H10  1  0.65400000  0.02790000  0.72310000  1.0 0.127131481
H  H11  1  0.50570000  0.49430000  0.57330000  1.0 0.108486254
H  H12  1  0.61630000  0.77610000  0.80390000  1.0 0.1224400217
H  H13  1  0.83580000  0.75990000  0.95820000  1.0 0.127131481
H  H14  1  0.61840000  0.74330000  0.99690000  1.0 0.1224400217
H  H15  1  0.34920000  0.51550000  0.88100000  1.0 0.127131481
H  H16  1  0.49230000  0.52040000  0.92190000  1.0 0.108486254
H  H17  1  0.49040000  0.99290000  0.81140000  1.0 0.1039853322
H  H18  1  0.34670000  0.00490000  0.78100000  1.0 0.127131481
H  H19  1  0.34810000  0.01550000  0.88190000  1.0 0.127131481
H  H20  1  0.49130000  0.53280000  0.81010000  1.0 0.1039853322
H  H21  1  0.34600000  0.52790000  0.77690000  1.0 0.127131481
H  H22  1  0.49430000  0.99430000  0.92670000  1.0 0.108486254
H  H23  1  0.61630000  0.72390000  0.30390000  1.0 0.1224400217
H  H24  1  0.83580000  0.74010000  0.45820000  1.0 0.127131481
H  H25  1  0.61840000  0.75670000  0.49690000  1.0 0.1224400217
H  H26  1  0.34920000  0.98450000  0.38100000  1.0 0.127131481
H  H27  1  0.49230000  0.97960000  0.42190000  1.0 0.108486254
H  H28  1  0.49040000  0.50710000  0.31140000  1.0 0.1039853322
H  H29  1  0.34670000  0.49510000  0.28100000  1.0 0.127131481
H  H30  1  0.34810000  0.48450000  0.38190000  1.0 0.127131481
H  H31  1  0.49130000  0.96720000  0.31010000  1.0 0.1039853322
H  H32  1  0.34600000  0.97210000  0.27690000  1.0 0.127131481
H  H33  1  0.49430000  0.50570000  0.42670000  1.0 0.108486254
H  H34  1  0.38370000  0.22390000  0.19610000  1.0 0.1224400217
H  H35  1  0.16420000  0.24010000  0.04180000  1.0 0.127131481
H  H36  1  0.38160000  0.25670000  0.00310000  1.0 0.1224400217
H  H37  1  0.65080000  0.48450000  0.11900000  1.0 0.127131481
H  H38  1  0.50770000  0.47960000  0.07810000  1.0 0.108486254
H  H39  1  0.50960000  0.00710000  0.18860000  1.0 0.1039853322
H  H40  1  0.65330000  0.99510000  0.21900000  1.0 0.127131481
H  H41  1  0.65190000  0.98450000  0.11810000  1.0 0.127131481
H  H42  1  0.50870000  0.46720000  0.18990000  1.0 0.1039853322
H  H43  1  0.65400000  0.47210000  0.22310000  1.0 0.127131481
H  H44  1  0.50570000  0.00570000  0.07330000  1.0 0.108486254
C  C1  1  0.76050000  0.26750000  0.69350000  1.0 0.2475560198
C  C2  1  0.66680000  0.26570000  0.67210000  1.0 0.0573417392
C  C3  1  0.49230000  0.26210000  0.62720000  1.0 0.0573417392
C  C4  1  0.39840000  0.26070000  0.60460000  1.0 0.0573417392
C  C5  1  0.35440000  0.26990000  0.64970000  1.0 -0.1695946471
C  C6  1  0.26670000  0.27000000  0.62690000  1.0 -0.0100547069
C  C7  1  0.22270000  0.25970000  0.55720000  1.0 -0.0998402012
C  C8  1  0.26530000  0.24930000  0.51120000  1.0 -0.0100547069
C  C9  1  0.35280000  0.24990000  0.53410000  1.0 -0.1695946471
C  C10  1  0.21890000  0.27390000  0.67590000  1.0 0.5532834533
C  C11  1  0.21600000  0.24040000  0.43690000  1.0 0.5579167607
C  C12  1  0.62180000  0.11610000  0.63060000  1.0 -0.0765584885
C  C13  1  0.53680000  0.11690000  0.60740000  1.0 -0.0700202582
C  C14  1  0.53780000  0.40120000  0.67190000  1.0 -0.0647027291
C  C15  1  0.62400000  0.40490000  0.69170000  1.0 -0.0529358785
C  C16  1  0.62330000  0.41400000  0.62960000  1.0 -0.0765584885
C  C17  1  0.53700000  0.12400000  0.67320000  1.0 -0.0647027291
C  C18  1  0.62410000  0.12400000  0.69410000  1.0 -0.0529358785
C  C19  1  0.53580000  0.40400000  0.60510000  1.0 -0.0765584885
C  C20  1  0.23950000  0.76750000  0.80650000  1.0 0.2475560198
C  C21  1  0.33320000  0.76570000  0.82790000  1.0 0.0573417392
C  C22  1  0.50770000  0.76210000  0.87280000  1.0 0.0573417392
C  C23  1  0.60160000  0.76070000  0.89540000  1.0 0.0573417392
C  C24  1  0.64560000  0.76990000  0.85030000  1.0 -0.1695946471
C  C25  1  0.73330000  0.77000000  0.87310000  1.0 -0.0100547069
C  C26  1  0.77730000  0.75970000  0.94280000  1.0 -0.0998402012
C  C27  1  0.73470000  0.74930000  0.98880000  1.0 -0.0100547069
C  C28  1  0.64720000  0.74990000  0.96590000  1.0 -0.1695946471
C  C29  1  0.78110000  0.77390000  0.82410000  1.0 0.5532834533
C  C30  1  0.78400000  0.74040000  0.06310000  1.0 0.5579167607
C  C31  1  0.37820000  0.61610000  0.86940000  1.0 -0.0765584885
C  C32  1  0.46320000  0.61690000  0.89260000  1.0 -0.0700202582
C  C33  1  0.46220000  0.90120000  0.82810000  1.0 -0.0647027291
C  C34  1  0.37600000  0.90490000  0.80830000  1.0 -0.0529358785
C  C35  1  0.37670000  0.91400000  0.87040000  1.0 -0.0765584885
C  C36  1  0.46300000  0.62400000  0.82680000  1.0 -0.0647027291
C  C37  1  0.37590000  0.62400000  0.80590000  1.0 -0.0529358785
C  C38  1  0.46420000  0.90400000  0.89490000  1.0 -0.0765584885
C  C39  1  0.23950000  0.73250000  0.30650000  1.0 0.2475560198
C  C40  1  0.33320000  0.73430000  0.32790000  1.0 0.0573417392
C  C41  1  0.50770000  0.73790000  0.37280000  1.0 0.0573417392
C  C42  1  0.60160000  0.73930000  0.39540000  1.0 0.0573417392
C  C43  1  0.64560000  0.73010000  0.35030000  1.0 -0.1695946471
C  C44  1  0.73330000  0.73000000  0.37310000  1.0 -0.0100547069
C  C45  1  0.77730000  0.74030000  0.44280000  1.0 -0.0998402012
C  C46  1  0.73470000  0.75070000  0.48880000  1.0 -0.0100547069
C  C47  1  0.64720000  0.75010000  0.46590000  1.0 -0.1695946471
C  C48  1  0.78110000  0.72610000  0.32410000  1.0 0.5532834533
C  C49  1  0.78400000  0.75960000  0.56310000  1.0 0.5579167607
C  C50  1  0.37820000  0.88390000  0.36940000  1.0 -0.0765584885
C  C51  1  0.46320000  0.88310000  0.39260000  1.0 -0.0700202582
C  C52  1  0.46220000  0.59880000  0.32810000  1.0 -0.0700202582
C  C53  1  0.37600000  0.59510000  0.30830000  1.0 -0.0529358785
C  C54  1  0.37670000  0.58600000  0.37040000  1.0 -0.0765584885
C  C55  1  0.46300000  0.87600000  0.32680000  1.0 -0.0647027291
C  C56  1  0.37590000  0.87600000  0.30590000  1.0 -0.0529358785
C  C57  1  0.46420000  0.59600000  0.39490000  1.0 -0.0765584885
C  C58  1  0.76050000  0.23250000  0.19350000  1.0 0.2475560198
C  C59  1  0.66680000  0.23430000  0.17210000  1.0 0.0573417392
C  C60  1  0.49230000  0.23790000  0.12720000  1.0 0.0573417392
C  C61  1  0.39840000  0.23930000  0.10460000  1.0 0.0573417392
C  C62  1  0.35440000  0.23010000  0.14970000  1.0 -0.1695946471
C  C63  1  0.26670000  0.23000000  0.12690000  1.0 -0.0100547069
C  C64  1  0.22270000  0.24030000  0.05720000  1.0 -0.0998402012
C  C65  1  0.26530000  0.25070000  0.01120000  1.0 -0.0100547069
C  C66  1  0.35280000  0.25010000  0.03410000  1.0 -0.1695946471
C  C67  1  0.21890000  0.22610000  0.17590000  1.0 0.5532834533
C  C68  1  0.21600000  0.25960000  0.93690000  1.0 0.5579167607
C  C69  1  0.62180000  0.38390000  0.13060000  1.0 -0.0765584885
C  C70  1  0.53680000  0.38310000  0.10740000  1.0 -0.0700202582
C  C71  1  0.53780000  0.09880000  0.17190000  1.0 -0.0700202582
C  C72  1  0.62400000  0.09510000  0.19170000  1.0 -0.0529358785
C  C73  1  0.62330000  0.08600000  0.12960000  1.0 -0.0765584885
C  C74  1  0.53700000  0.37600000  0.17320000  1.0 -0.0647027291
C  C75  1  0.62410000  0.37600000  0.19410000  1.0 -0.0529358785
C  C76  1  0.53580000  0.09600000  0.10510000  1.0 -0.0765584885
N  N1  1  0.80750000  0.42570000  0.70580000  1.0 -0.2053102811
N  N2  1  0.88550000  0.36280000  0.72300000  1.0 -0.0164826761
N  N3  1  0.88680000  0.17620000  0.72070000  1.0 -0.0100547069
N  N4  1  0.80820000  0.11050000  0.70240000  1.0 -0.2150274959
N  N5  1  0.19250000  0.92570000  0.79420000  1.0 -0.2053102811
N  N6  1  0.11450000  0.86280000  0.77700000  1.0 -0.0164826761
N  N7  1  0.11320000  0.67620000  0.77930000  1.0 -0.0100547069
N  N8  1  0.19180000  0.61050000  0.79760000  1.0 -0.2150274959
N  N9  1  0.19250000  0.57430000  0.29420000  1.0 -0.2053102811
N  N10  1  0.11450000  0.63720000  0.27700000  1.0 -0.0164826761
N  N11  1  0.11320000  0.82380000  0.27930000  1.0 -0.0100547069
N  N12  1  0.19180000  0.88950000  0.29760000  1.0 -0.2150274959
N  N13  1  0.80750000  0.07430000  0.20580000  1.0 -0.2053102811
N  N14  1  0.88550000  0.13720000  0.22300000  1.0 -0.0164826761
N  N15  1  0.88680000  0.32380000  0.22070000  1.0 -0.0100547069
N  N16  1  0.80820000  0.38950000  0.20240000  1.0 -0.2150274959
O  O1  1  0.13880000  0.23450000  0.41940000  1.0 -0.4600545463
O  O2  1  0.25880000  0.23670000  0.39610000  1.0 -0.5962009427
O  O3  1  0.14020000  0.27360000  0.65230000  1.0 -0.525890052
O  O4  1  0.26110000  0.27870000  0.73840000  1.0 -0.587709218
O  O5  1  0.07080000  0.23020000  0.28200000  1.0 -0.9408112314
O  O6  1  0.86120000  0.73450000  0.08060000  1.0 -0.4600545463
O  O7  1  0.74120000  0.73670000  0.10390000  1.0 -0.5962009427
O  O8  1  0.85980000  0.77360000  0.84770000  1.0 -0.525890052
O  O9  1  0.73890000  0.77870000  0.76160000  1.0 -0.587709218
O  O10  1  0.92920000  0.73020000  0.21800000  1.0 -0.9408112314
O  O11  1  0.86120000  0.76550000  0.58060000  1.0 -0.4600545463
O  O12  1  0.74120000  0.76330000  0.60390000  1.0 -0.5962009427
O  O13  1  0.85980000  0.72640000  0.34770000  1.0 -0.525890052
O  O14  1  0.73890000  0.72130000  0.26160000  1.0 -0.587709218
O  O15  1  0.92920000  0.76980000  0.71800000  1.0 -0.9408112314
O  O16  1  0.13880000  0.26550000  0.91940000  1.0 -0.4600545463
O  O17  1  0.25880000  0.26330000  0.89610000  1.0 -0.5962009427
O  O18  1  0.14020000  0.22640000  0.15230000  1.0 -0.525890052
O  O19  1  0.26110000  0.22130000  0.23840000  1.0 -0.587709218
O  O20  1  0.07080000  0.26980000  0.78200000  1.0 -0.9408112314
