# DDEC6 charges by PACMAN v1.1 (https://github.com/mtap-research/PACMAN-charge/)
data_DOGBAE_ASR_pacman
_symmetry_space_group_name_H-M   'P 1'
_cell_length_a   33.31170000
_cell_length_b   33.31170000
_cell_length_c   33.31170000
_cell_angle_alpha   109.47100000
_cell_angle_beta   109.47100000
_cell_angle_gamma   109.47100000
_symmetry_Int_Tables_number   1
_chemical_formula_structural   Zr15H96C192(N3O5)8
_chemical_formula_sum   'Zr30 H192 C384 N48 O80'
_cell_volume   28455.88170963
_cell_formula_units_Z   2
loop_
 _symmetry_equiv_pos_site_id
 _symmetry_equiv_pos_as_xyz
  1  'x, y, z'
loop_
 _atom_site_type_symbol
 _atom_site_label
 _atom_site_symmetry_multiplicity
 _atom_site_fract_x
 _atom_site_fract_y
 _atom_site_fract_z
 _atom_site_occupancy
 _atom_site_charge
Zr  Zr1  1  0.41430000  0.47889000  0.47889000  1.0 2.3726639822
Zr  Zr2  1  0.47889000  0.00000000  0.06459000  1.0 2.3726639822
Zr  Zr3  1  0.00000000  0.93541000  0.52111000  1.0 2.3726639822
Zr  Zr4  1  0.93541000  0.41430000  0.93541000  1.0 2.3726639822
Zr  Zr5  1  0.00000000  0.47889000  0.06459000  1.0 2.3726639822
Zr  Zr6  1  0.58570000  0.06459000  0.06459000  1.0 2.3726639822
Zr  Zr7  1  0.00000000  0.06459000  0.47889000  1.0 2.3726639822
Zr  Zr8  1  0.93541000  0.93541000  0.41430000  1.0 2.3781032041
Zr  Zr9  1  0.00000000  0.52111000  0.93541000  1.0 2.3726639822
Zr  Zr10  1  0.47889000  0.06459000  0.00000000  1.0 2.3781032041
Zr  Zr11  1  0.47889000  0.41430000  0.47889000  1.0 2.3726639822
Zr  Zr12  1  0.47889000  0.47889000  0.41430000  1.0 2.3726639822
Zr  Zr13  1  0.06459000  0.06459000  0.58570000  1.0 2.3726639822
Zr  Zr14  1  0.52111000  0.00000000  0.93541000  1.0 2.3726639822
Zr  Zr15  1  0.93541000  0.52111000  0.00000000  1.0 2.3781032041
Zr  Zr16  1  0.93541000  0.00000000  0.52111000  1.0 2.3726639822
Zr  Zr17  1  0.06459000  0.58570000  0.06459000  1.0 2.3726639822
Zr  Zr18  1  0.52111000  0.93541000  0.00000000  1.0 2.3781032041
Zr  Zr19  1  0.06459000  0.00000000  0.47889000  1.0 2.3726639822
Zr  Zr20  1  0.52111000  0.58570000  0.52111000  1.0 2.3726639822
Zr  Zr21  1  0.41430000  0.93541000  0.93541000  1.0 2.3726639822
Zr  Zr22  1  0.58570000  0.52111000  0.52111000  1.0 2.3726639822
Zr  Zr23  1  0.06459000  0.47889000  0.00000000  1.0 2.3726639822
Zr  Zr24  1  0.52111000  0.52111000  0.58570000  1.0 2.3726639822
Zr  Zr25  1  0.25000000  0.75000000  0.50000000  1.0 0.1896299012
Zr  Zr26  1  0.75000000  0.25000000  0.50000000  1.0 0.1957265213
Zr  Zr27  1  0.75000000  0.50000000  0.25000000  1.0 0.1896299012
Zr  Zr28  1  0.25000000  0.50000000  0.75000000  1.0 0.1896299012
Zr  Zr29  1  0.50000000  0.75000000  0.25000000  1.0 0.1896299012
Zr  Zr30  1  0.50000000  0.25000000  0.75000000  1.0 0.1957265213
H  H1  1  0.32560000  0.55320000  0.48060000  1.0 0.1072341896
H  H2  1  0.55320000  0.07260000  0.22760000  1.0 0.1072341896
H  H3  1  0.07260000  0.84500000  0.51940000  1.0 0.1072341896
H  H4  1  0.84500000  0.32560000  0.77240000  1.0 0.1072341896
H  H5  1  0.92740000  0.48060000  0.15500000  1.0 0.1072341896
H  H6  1  0.67440000  0.15500000  0.22760000  1.0 0.1072341896
H  H7  1  0.07260000  0.22760000  0.55320000  1.0 0.1072341896
H  H8  1  0.77240000  0.84500000  0.32560000  1.0 0.1072341896
H  H9  1  0.92740000  0.44680000  0.77240000  1.0 0.1072341896
H  H10  1  0.48060000  0.15500000  0.92740000  1.0 0.1072341896
H  H11  1  0.48060000  0.32560000  0.55320000  1.0 0.1072341896
H  H12  1  0.55320000  0.48060000  0.32560000  1.0 0.1072341896
H  H13  1  0.15500000  0.22760000  0.67440000  1.0 0.1072341896
H  H14  1  0.51940000  0.07260000  0.84500000  1.0 0.1072341896
H  H15  1  0.84500000  0.51940000  0.07260000  1.0 0.1072341896
H  H16  1  0.77240000  0.92740000  0.44680000  1.0 0.1072341896
H  H17  1  0.22760000  0.67440000  0.15500000  1.0 0.1072341896
H  H18  1  0.44680000  0.77240000  0.92740000  1.0 0.1072341896
H  H19  1  0.15500000  0.92740000  0.48060000  1.0 0.1072341896
H  H20  1  0.44680000  0.67440000  0.51940000  1.0 0.1072341896
H  H21  1  0.32560000  0.77240000  0.84500000  1.0 0.1072341896
H  H22  1  0.67440000  0.51940000  0.44680000  1.0 0.1072341896
H  H23  1  0.22760000  0.55320000  0.07260000  1.0 0.1072341896
H  H24  1  0.51940000  0.44680000  0.67440000  1.0 0.1072341896
H  H25  1  0.67440000  0.44680000  0.51940000  1.0 0.1072341896
H  H26  1  0.44680000  0.92740000  0.77240000  1.0 0.1072341896
H  H27  1  0.92740000  0.15500000  0.48060000  1.0 0.1072341896
H  H28  1  0.15500000  0.67440000  0.22760000  1.0 0.1072341896
H  H29  1  0.07260000  0.51940000  0.84500000  1.0 0.1072341896
H  H30  1  0.32560000  0.84500000  0.77240000  1.0 0.1072341896
H  H31  1  0.92740000  0.77240000  0.44680000  1.0 0.1072341896
H  H32  1  0.22760000  0.15500000  0.67440000  1.0 0.1072341896
H  H33  1  0.07260000  0.55320000  0.22760000  1.0 0.1072341896
H  H34  1  0.51940000  0.84500000  0.07260000  1.0 0.1072341896
H  H35  1  0.51940000  0.67440000  0.44680000  1.0 0.1072341896
H  H36  1  0.44680000  0.51940000  0.67440000  1.0 0.1072341896
H  H37  1  0.84500000  0.77240000  0.32560000  1.0 0.1072341896
H  H38  1  0.48060000  0.92740000  0.15500000  1.0 0.1072341896
H  H39  1  0.15500000  0.48060000  0.92740000  1.0 0.1072341896
H  H40  1  0.22760000  0.07260000  0.55320000  1.0 0.1072341896
H  H41  1  0.77240000  0.32560000  0.84500000  1.0 0.1072341896
H  H42  1  0.55320000  0.22760000  0.07260000  1.0 0.1072341896
H  H43  1  0.84500000  0.07260000  0.51940000  1.0 0.1072341896
H  H44  1  0.55320000  0.32560000  0.48060000  1.0 0.1072341896
H  H45  1  0.67440000  0.22760000  0.15500000  1.0 0.1072341896
H  H46  1  0.32560000  0.48060000  0.55320000  1.0 0.1072341896
H  H47  1  0.77240000  0.44680000  0.92740000  1.0 0.1072341896
H  H48  1  0.48060000  0.55320000  0.32560000  1.0 0.1072341896
H  H49  1  0.28230000  0.59580000  0.47930000  1.0 0.0999078413
H  H50  1  0.59580000  0.11650000  0.31350000  1.0 0.0999078413
H  H51  1  0.11650000  0.80300000  0.52070000  1.0 0.0999078413
H  H52  1  0.80300000  0.28230000  0.68650000  1.0 0.0999078413
H  H53  1  0.88350000  0.47930000  0.19700000  1.0 0.0999078413
H  H54  1  0.71770000  0.19700000  0.31350000  1.0 0.0999078413
H  H55  1  0.11650000  0.31350000  0.59580000  1.0 0.0999078413
H  H56  1  0.68650000  0.80300000  0.28230000  1.0 0.0999078413
H  H57  1  0.88350000  0.40420000  0.68650000  1.0 0.0999078413
H  H58  1  0.47930000  0.19700000  0.88350000  1.0 0.0999078413
H  H59  1  0.47930000  0.28230000  0.59580000  1.0 0.0999078413
H  H60  1  0.59580000  0.47930000  0.28230000  1.0 0.0999078413
H  H61  1  0.19700000  0.31350000  0.71770000  1.0 0.0999078413
H  H62  1  0.52070000  0.11650000  0.80300000  1.0 0.0999078413
H  H63  1  0.80300000  0.52070000  0.11650000  1.0 0.0999078413
H  H64  1  0.68650000  0.88350000  0.40420000  1.0 0.0999078413
H  H65  1  0.31350000  0.71770000  0.19700000  1.0 0.0999078413
H  H66  1  0.40420000  0.68650000  0.88350000  1.0 0.0999078413
H  H67  1  0.19700000  0.88350000  0.47930000  1.0 0.0999078413
H  H68  1  0.40420000  0.71770000  0.52070000  1.0 0.0999078413
H  H69  1  0.28230000  0.68650000  0.80300000  1.0 0.0999078413
H  H70  1  0.71770000  0.52070000  0.40420000  1.0 0.0999078413
H  H71  1  0.31350000  0.59580000  0.11650000  1.0 0.0999078413
H  H72  1  0.52070000  0.40420000  0.71770000  1.0 0.0999078413
H  H73  1  0.71770000  0.40420000  0.52070000  1.0 0.0999078413
H  H74  1  0.40420000  0.88350000  0.68650000  1.0 0.0999078413
H  H75  1  0.88350000  0.19700000  0.47930000  1.0 0.0999078413
H  H76  1  0.19700000  0.71770000  0.31350000  1.0 0.0999078413
H  H77  1  0.11650000  0.52070000  0.80300000  1.0 0.0999078413
H  H78  1  0.28230000  0.80300000  0.68650000  1.0 0.0999078413
H  H79  1  0.88350000  0.68650000  0.40420000  1.0 0.0999078413
H  H80  1  0.31350000  0.19700000  0.71770000  1.0 0.0999078413
H  H81  1  0.11650000  0.59580000  0.31350000  1.0 0.0999078413
H  H82  1  0.52070000  0.80300000  0.11650000  1.0 0.0999078413
H  H83  1  0.52070000  0.71770000  0.40420000  1.0 0.0999078413
H  H84  1  0.40420000  0.52070000  0.71770000  1.0 0.0999078413
H  H85  1  0.80300000  0.68650000  0.28230000  1.0 0.0999078413
H  H86  1  0.47930000  0.88350000  0.19700000  1.0 0.0999078413
H  H87  1  0.19700000  0.47930000  0.88350000  1.0 0.0999078413
H  H88  1  0.31350000  0.11650000  0.59580000  1.0 0.0999078413
H  H89  1  0.68650000  0.28230000  0.80300000  1.0 0.0999078413
H  H90  1  0.59580000  0.31350000  0.11650000  1.0 0.0999078413
H  H91  1  0.80300000  0.11650000  0.52070000  1.0 0.0999078413
H  H92  1  0.59580000  0.28230000  0.47930000  1.0 0.0999078413
H  H93  1  0.71770000  0.31350000  0.19700000  1.0 0.0999078413
H  H94  1  0.28230000  0.47930000  0.59580000  1.0 0.0999078413
H  H95  1  0.68650000  0.40420000  0.88350000  1.0 0.0999078413
H  H96  1  0.47930000  0.59580000  0.28230000  1.0 0.0999078413
H  H97  1  0.35420000  0.69500000  0.59180000  1.0 0.1072341896
H  H98  1  0.69500000  0.10320000  0.34080000  1.0 0.1072341896
H  H99  1  0.10320000  0.76240000  0.40820000  1.0 0.1072341896
H  H100  1  0.76240000  0.35420000  0.65920000  1.0 0.1072341896
H  H101  1  0.89680000  0.59180000  0.23760000  1.0 0.1072341896
H  H102  1  0.64580000  0.23760000  0.34080000  1.0 0.1072341896
H  H103  1  0.10320000  0.34080000  0.69500000  1.0 0.1072341896
H  H104  1  0.65920000  0.76240000  0.35420000  1.0 0.1072341896
H  H105  1  0.89680000  0.30500000  0.65920000  1.0 0.1072341896
H  H106  1  0.59180000  0.23760000  0.89680000  1.0 0.1072341896
H  H107  1  0.59180000  0.35420000  0.69500000  1.0 0.1072341896
H  H108  1  0.69500000  0.59180000  0.35420000  1.0 0.1072341896
H  H109  1  0.23760000  0.34080000  0.64580000  1.0 0.1072341896
H  H110  1  0.40820000  0.10320000  0.76240000  1.0 0.1072341896
H  H111  1  0.76240000  0.40820000  0.10320000  1.0 0.1072341896
H  H112  1  0.65920000  0.89680000  0.30500000  1.0 0.1072341896
H  H113  1  0.34080000  0.64580000  0.23760000  1.0 0.1072341896
H  H114  1  0.30500000  0.65920000  0.89680000  1.0 0.1072341896
H  H115  1  0.23760000  0.89680000  0.59180000  1.0 0.1072341896
H  H116  1  0.30500000  0.64580000  0.40820000  1.0 0.1072341896
H  H117  1  0.35420000  0.65920000  0.76240000  1.0 0.1072341896
H  H118  1  0.64580000  0.40820000  0.30500000  1.0 0.1072341896
H  H119  1  0.34080000  0.69500000  0.10320000  1.0 0.1072341896
H  H120  1  0.40820000  0.30500000  0.64580000  1.0 0.1072341896
H  H121  1  0.64580000  0.30500000  0.40820000  1.0 0.1072341896
H  H122  1  0.30500000  0.89680000  0.65920000  1.0 0.1072341896
H  H123  1  0.89680000  0.23760000  0.59180000  1.0 0.1072341896
H  H124  1  0.23760000  0.64580000  0.34080000  1.0 0.1072341896
H  H125  1  0.10320000  0.40820000  0.76240000  1.0 0.1072341896
H  H126  1  0.35420000  0.76240000  0.65920000  1.0 0.1072341896
H  H127  1  0.89680000  0.65920000  0.30500000  1.0 0.1072341896
H  H128  1  0.34080000  0.23760000  0.64580000  1.0 0.1072341896
H  H129  1  0.10320000  0.69500000  0.34080000  1.0 0.1072341896
H  H130  1  0.40820000  0.76240000  0.10320000  1.0 0.1072341896
H  H131  1  0.40820000  0.64580000  0.30500000  1.0 0.1072341896
H  H132  1  0.30500000  0.40820000  0.64580000  1.0 0.1072341896
H  H133  1  0.76240000  0.65920000  0.35420000  1.0 0.1072341896
H  H134  1  0.59180000  0.89680000  0.23760000  1.0 0.1072341896
H  H135  1  0.23760000  0.59180000  0.89680000  1.0 0.1072341896
H  H136  1  0.34080000  0.10320000  0.69500000  1.0 0.1072341896
H  H137  1  0.65920000  0.35420000  0.76240000  1.0 0.1072341896
H  H138  1  0.69500000  0.34080000  0.10320000  1.0 0.1072341896
H  H139  1  0.76240000  0.10320000  0.40820000  1.0 0.1072341896
H  H140  1  0.69500000  0.35420000  0.59180000  1.0 0.1072341896
H  H141  1  0.64580000  0.34080000  0.23760000  1.0 0.1072341896
H  H142  1  0.35420000  0.59180000  0.69500000  1.0 0.1072341896
H  H143  1  0.65920000  0.30500000  0.89680000  1.0 0.1072341896
H  H144  1  0.59180000  0.69500000  0.35420000  1.0 0.1072341896
H  H145  1  0.39350000  0.73120000  0.59390000  1.0 0.0999078413
H  H146  1  0.73120000  0.13730000  0.33770000  1.0 0.0999078413
H  H147  1  0.13730000  0.79960000  0.40610000  1.0 0.0999078413
H  H148  1  0.79960000  0.39350000  0.66230000  1.0 0.0999078413
H  H149  1  0.86270000  0.59390000  0.20040000  1.0 0.0999078413
H  H150  1  0.60650000  0.20040000  0.33770000  1.0 0.0999078413
H  H151  1  0.13730000  0.33770000  0.73120000  1.0 0.0999078413
H  H152  1  0.66230000  0.79960000  0.39350000  1.0 0.0999078413
H  H153  1  0.86270000  0.26880000  0.66230000  1.0 0.0999078413
H  H154  1  0.59390000  0.20040000  0.86270000  1.0 0.0999078413
H  H155  1  0.59390000  0.39350000  0.73120000  1.0 0.0999078413
H  H156  1  0.73120000  0.59390000  0.39350000  1.0 0.0999078413
H  H157  1  0.20040000  0.33770000  0.60650000  1.0 0.0999078413
H  H158  1  0.40610000  0.13730000  0.79960000  1.0 0.0999078413
H  H159  1  0.79960000  0.40610000  0.13730000  1.0 0.0999078413
H  H160  1  0.66230000  0.86270000  0.26880000  1.0 0.0999078413
H  H161  1  0.33770000  0.60650000  0.20040000  1.0 0.0999078413
H  H162  1  0.26880000  0.66230000  0.86270000  1.0 0.0999078413
H  H163  1  0.20040000  0.86270000  0.59390000  1.0 0.0999078413
H  H164  1  0.26880000  0.60650000  0.40610000  1.0 0.0999078413
H  H165  1  0.39350000  0.66230000  0.79960000  1.0 0.0999078413
H  H166  1  0.60650000  0.40610000  0.26880000  1.0 0.0999078413
H  H167  1  0.33770000  0.73120000  0.13730000  1.0 0.0999078413
H  H168  1  0.40610000  0.26880000  0.60650000  1.0 0.0999078413
H  H169  1  0.60650000  0.26880000  0.40610000  1.0 0.0999078413
H  H170  1  0.26880000  0.86270000  0.66230000  1.0 0.0999078413
H  H171  1  0.86270000  0.20040000  0.59390000  1.0 0.0999078413
H  H172  1  0.20040000  0.60650000  0.33770000  1.0 0.0999078413
H  H173  1  0.13730000  0.40610000  0.79960000  1.0 0.0999078413
H  H174  1  0.39350000  0.79960000  0.66230000  1.0 0.0999078413
H  H175  1  0.86270000  0.66230000  0.26880000  1.0 0.0999078413
H  H176  1  0.33770000  0.20040000  0.60650000  1.0 0.0999078413
H  H177  1  0.13730000  0.73120000  0.33770000  1.0 0.0999078413
H  H178  1  0.40610000  0.79960000  0.13730000  1.0 0.0999078413
H  H179  1  0.40610000  0.60650000  0.26880000  1.0 0.0999078413
H  H180  1  0.26880000  0.40610000  0.60650000  1.0 0.0999078413
H  H181  1  0.79960000  0.66230000  0.39350000  1.0 0.0999078413
H  H182  1  0.59390000  0.86270000  0.20040000  1.0 0.0999078413
H  H183  1  0.20040000  0.59390000  0.86270000  1.0 0.0999078413
H  H184  1  0.33770000  0.13730000  0.73120000  1.0 0.0999078413
H  H185  1  0.66230000  0.39350000  0.79960000  1.0 0.0999078413
H  H186  1  0.73120000  0.33770000  0.13730000  1.0 0.0999078413
H  H187  1  0.79960000  0.13730000  0.40610000  1.0 0.0999078413
H  H188  1  0.73120000  0.39350000  0.59390000  1.0 0.0999078413
H  H189  1  0.60650000  0.33770000  0.20040000  1.0 0.0999078413
H  H190  1  0.39350000  0.59390000  0.73120000  1.0 0.0999078413
H  H191  1  0.66230000  0.26880000  0.86270000  1.0 0.0999078413
H  H192  1  0.59390000  0.73120000  0.39350000  1.0 0.0999078413
C  C1  1  0.41710000  0.58290000  0.50000000  1.0 0.5960499594
C  C2  1  0.58290000  0.08290000  0.16580000  1.0 0.5960499594
C  C3  1  0.08290000  0.91710000  0.50000000  1.0 0.5960499594
C  C4  1  0.91710000  0.41710000  0.83420000  1.0 0.5960499594
C  C5  1  0.91710000  0.50000000  0.08290000  1.0 0.5960499594
C  C6  1  0.08290000  0.16580000  0.58290000  1.0 0.5960499594
C  C7  1  0.83420000  0.91710000  0.41710000  1.0 0.5960499594
C  C8  1  0.50000000  0.08290000  0.91710000  1.0 0.5960499594
C  C9  1  0.50000000  0.41710000  0.58290000  1.0 0.5960499594
C  C10  1  0.58290000  0.50000000  0.41710000  1.0 0.5960499594
C  C11  1  0.16580000  0.58290000  0.08290000  1.0 0.5960499594
C  C12  1  0.41710000  0.83420000  0.91710000  1.0 0.5960499594
C  C13  1  0.58290000  0.41710000  0.50000000  1.0 0.5960499594
C  C14  1  0.41710000  0.91710000  0.83420000  1.0 0.5960499594
C  C15  1  0.91710000  0.08290000  0.50000000  1.0 0.5960499594
C  C16  1  0.08290000  0.58290000  0.16580000  1.0 0.5960499594
C  C17  1  0.08290000  0.50000000  0.91710000  1.0 0.5960499594
C  C18  1  0.91710000  0.83420000  0.41710000  1.0 0.5960499594
C  C19  1  0.16580000  0.08290000  0.58290000  1.0 0.5960499594
C  C20  1  0.50000000  0.91710000  0.08290000  1.0 0.5960499594
C  C21  1  0.50000000  0.58290000  0.41710000  1.0 0.5960499594
C  C22  1  0.41710000  0.50000000  0.58290000  1.0 0.5960499594
C  C23  1  0.83420000  0.41710000  0.91710000  1.0 0.5960499594
C  C24  1  0.58290000  0.16580000  0.08290000  1.0 0.5960499594
C  C25  1  0.39036000  0.60964000  0.50000000  1.0 -0.0913584547
C  C26  1  0.60964000  0.10964000  0.21928000  1.0 -0.0913584547
C  C27  1  0.10964000  0.89036000  0.50000000  1.0 -0.0913584547
C  C28  1  0.89036000  0.39036000  0.78072000  1.0 -0.0913584547
C  C29  1  0.89036000  0.50000000  0.10964000  1.0 -0.0913584547
C  C30  1  0.10964000  0.21928000  0.60964000  1.0 -0.0913584547
C  C31  1  0.78072000  0.89036000  0.39036000  1.0 -0.0913584547
C  C32  1  0.50000000  0.10964000  0.89036000  1.0 -0.0913584547
C  C33  1  0.50000000  0.39036000  0.60964000  1.0 -0.0913584547
C  C34  1  0.60964000  0.50000000  0.39036000  1.0 -0.0913584547
C  C35  1  0.21928000  0.60964000  0.10964000  1.0 -0.0913584547
C  C36  1  0.39036000  0.78072000  0.89036000  1.0 -0.0913584547
C  C37  1  0.60964000  0.39036000  0.50000000  1.0 -0.0913584547
C  C38  1  0.39036000  0.89036000  0.78072000  1.0 -0.0913584547
C  C39  1  0.89036000  0.10964000  0.50000000  1.0 -0.0913584547
C  C40  1  0.10964000  0.60964000  0.21928000  1.0 -0.0913584547
C  C41  1  0.10964000  0.50000000  0.89036000  1.0 -0.0913584547
C  C42  1  0.89036000  0.78072000  0.39036000  1.0 -0.0913584547
C  C43  1  0.21928000  0.10964000  0.60964000  1.0 -0.0913584547
C  C44  1  0.50000000  0.89036000  0.10964000  1.0 -0.0913584547
C  C45  1  0.50000000  0.60964000  0.39036000  1.0 -0.0913584547
C  C46  1  0.39036000  0.50000000  0.60964000  1.0 -0.0913584547
C  C47  1  0.78072000  0.39036000  0.89036000  1.0 -0.0913584547
C  C48  1  0.60964000  0.21928000  0.10964000  1.0 -0.0913584547
C  C49  1  0.34138000  0.58648000  0.48830000  1.0 -0.0913584547
C  C50  1  0.58648000  0.09818000  0.24510000  1.0 -0.0913584547
C  C51  1  0.09818000  0.85308000  0.51170000  1.0 -0.0913584547
C  C52  1  0.85308000  0.34138000  0.75490000  1.0 -0.0913584547
C  C53  1  0.90182000  0.48830000  0.14692000  1.0 -0.0913584547
C  C54  1  0.65862000  0.14692000  0.24510000  1.0 -0.0913584547
C  C55  1  0.09818000  0.24510000  0.58648000  1.0 -0.0913584547
C  C56  1  0.75490000  0.85308000  0.34138000  1.0 -0.0913584547
C  C57  1  0.90182000  0.41352000  0.75490000  1.0 -0.0913584547
C  C58  1  0.48830000  0.14692000  0.90182000  1.0 -0.0913584547
C  C59  1  0.48830000  0.34138000  0.58648000  1.0 -0.0913584547
C  C60  1  0.58648000  0.48830000  0.34138000  1.0 -0.0913584547
C  C61  1  0.14692000  0.24510000  0.65862000  1.0 -0.0913584547
C  C62  1  0.51170000  0.09818000  0.85308000  1.0 -0.0913584547
C  C63  1  0.85308000  0.51170000  0.09818000  1.0 -0.0913584547
C  C64  1  0.75490000  0.90182000  0.41352000  1.0 -0.0913584547
C  C65  1  0.24510000  0.65862000  0.14692000  1.0 -0.0913584547
C  C66  1  0.41352000  0.75490000  0.90182000  1.0 -0.0913584547
C  C67  1  0.14692000  0.90182000  0.48830000  1.0 -0.0913584547
C  C68  1  0.41352000  0.65862000  0.51170000  1.0 -0.0913584547
C  C69  1  0.34138000  0.75490000  0.85308000  1.0 -0.0913584547
C  C70  1  0.65862000  0.51170000  0.41352000  1.0 -0.0913584547
C  C71  1  0.24510000  0.58648000  0.09818000  1.0 -0.0913584547
C  C72  1  0.51170000  0.41352000  0.65862000  1.0 -0.0913584547
C  C73  1  0.65862000  0.41352000  0.51170000  1.0 -0.0913584547
C  C74  1  0.41352000  0.90182000  0.75490000  1.0 -0.0913584547
C  C75  1  0.90182000  0.14692000  0.48830000  1.0 -0.0913584547
C  C76  1  0.14692000  0.65862000  0.24510000  1.0 -0.0913584547
C  C77  1  0.09818000  0.51170000  0.85308000  1.0 -0.0913584547
C  C78  1  0.34138000  0.85308000  0.75490000  1.0 -0.0913584547
C  C79  1  0.90182000  0.75490000  0.41352000  1.0 -0.0913584547
C  C80  1  0.24510000  0.14692000  0.65862000  1.0 -0.0913584547
C  C81  1  0.09818000  0.58648000  0.24510000  1.0 -0.0913584547
C  C82  1  0.51170000  0.85308000  0.09818000  1.0 -0.0913584547
C  C83  1  0.51170000  0.65862000  0.41352000  1.0 -0.0913584547
C  C84  1  0.41352000  0.51170000  0.65862000  1.0 -0.0913584547
C  C85  1  0.85308000  0.75490000  0.34138000  1.0 -0.0913584547
C  C86  1  0.48830000  0.90182000  0.14692000  1.0 -0.0913584547
C  C87  1  0.14692000  0.48830000  0.90182000  1.0 -0.0913584547
C  C88  1  0.24510000  0.09818000  0.58648000  1.0 -0.0913584547
C  C89  1  0.75490000  0.34138000  0.85308000  1.0 -0.0913584547
C  C90  1  0.58648000  0.24510000  0.09818000  1.0 -0.0913584547
C  C91  1  0.85308000  0.09818000  0.51170000  1.0 -0.0913584547
C  C92  1  0.58648000  0.34138000  0.48830000  1.0 -0.0913584547
C  C93  1  0.65862000  0.24510000  0.14692000  1.0 -0.0913584547
C  C94  1  0.34138000  0.48830000  0.58648000  1.0 -0.0913584547
C  C95  1  0.75490000  0.41352000  0.90182000  1.0 -0.0913584547
C  C96  1  0.48830000  0.58648000  0.34138000  1.0 -0.0913584547
C  C97  1  0.31582000  0.61192000  0.48790000  1.0 -0.1971501301
C  C98  1  0.61192000  0.12402000  0.29610000  1.0 -0.1971501301
C  C99  1  0.12402000  0.82792000  0.51210000  1.0 -0.1971501301
C  C100  1  0.82792000  0.31582000  0.70390000  1.0 -0.1971501301
C  C101  1  0.87598000  0.48790000  0.17208000  1.0 -0.1971501301
C  C102  1  0.68418000  0.17208000  0.29610000  1.0 -0.1971501301
C  C103  1  0.12402000  0.29610000  0.61192000  1.0 -0.1971501301
C  C104  1  0.70390000  0.82792000  0.31582000  1.0 -0.1971501301
C  C105  1  0.87598000  0.38808000  0.70390000  1.0 -0.1971501301
C  C106  1  0.48790000  0.17208000  0.87598000  1.0 -0.1971501301
C  C107  1  0.48790000  0.31582000  0.61192000  1.0 -0.1971501301
C  C108  1  0.61192000  0.48790000  0.31582000  1.0 -0.1971501301
C  C109  1  0.17208000  0.29610000  0.68418000  1.0 -0.1971501301
C  C110  1  0.51210000  0.12402000  0.82792000  1.0 -0.1971501301
C  C111  1  0.82792000  0.51210000  0.12402000  1.0 -0.1971501301
C  C112  1  0.70390000  0.87598000  0.38808000  1.0 -0.1971501301
C  C113  1  0.29610000  0.68418000  0.17208000  1.0 -0.1971501301
C  C114  1  0.38808000  0.70390000  0.87598000  1.0 -0.1971501301
C  C115  1  0.17208000  0.87598000  0.48790000  1.0 -0.1971501301
C  C116  1  0.38808000  0.68418000  0.51210000  1.0 -0.1971501301
C  C117  1  0.31582000  0.70390000  0.82792000  1.0 -0.1971501301
C  C118  1  0.68418000  0.51210000  0.38808000  1.0 -0.1971501301
C  C119  1  0.29610000  0.61192000  0.12402000  1.0 -0.1971501301
C  C120  1  0.51210000  0.38808000  0.68418000  1.0 -0.1971501301
C  C121  1  0.68418000  0.38808000  0.51210000  1.0 -0.1971501301
C  C122  1  0.38808000  0.87598000  0.70390000  1.0 -0.1971501301
C  C123  1  0.87598000  0.17208000  0.48790000  1.0 -0.1971501301
C  C124  1  0.17208000  0.68418000  0.29610000  1.0 -0.1971501301
C  C125  1  0.12402000  0.51210000  0.82792000  1.0 -0.1971501301
C  C126  1  0.31582000  0.82792000  0.70390000  1.0 -0.1971501301
C  C127  1  0.87598000  0.70390000  0.38808000  1.0 -0.1971501301
C  C128  1  0.29610000  0.17208000  0.68418000  1.0 -0.1971501301
C  C129  1  0.12402000  0.61192000  0.29610000  1.0 -0.1971501301
C  C130  1  0.51210000  0.82792000  0.12402000  1.0 -0.1971501301
C  C131  1  0.51210000  0.68418000  0.38808000  1.0 -0.1971501301
C  C132  1  0.38808000  0.51210000  0.68418000  1.0 -0.1971501301
C  C133  1  0.82792000  0.70390000  0.31582000  1.0 -0.1971501301
C  C134  1  0.48790000  0.87598000  0.17208000  1.0 -0.1971501301
C  C135  1  0.17208000  0.48790000  0.87598000  1.0 -0.1971501301
C  C136  1  0.29610000  0.12402000  0.61192000  1.0 -0.1971501301
C  C137  1  0.70390000  0.31582000  0.82792000  1.0 -0.1971501301
C  C138  1  0.61192000  0.29610000  0.12402000  1.0 -0.1971501301
C  C139  1  0.82792000  0.12402000  0.51210000  1.0 -0.1971501301
C  C140  1  0.61192000  0.31582000  0.48790000  1.0 -0.1971501301
C  C141  1  0.68418000  0.29610000  0.17208000  1.0 -0.1971501301
C  C142  1  0.31582000  0.48790000  0.61192000  1.0 -0.1971501301
C  C143  1  0.70390000  0.38808000  0.87598000  1.0 -0.1971501301
C  C144  1  0.48790000  0.61192000  0.31582000  1.0 -0.1971501301
C  C145  1  0.33910000  0.66090000  0.50000000  1.0 0.0483670278
C  C146  1  0.66090000  0.16090000  0.32180000  1.0 0.0483670278
C  C147  1  0.16090000  0.83910000  0.50000000  1.0 0.0483670278
C  C148  1  0.83910000  0.33910000  0.67820000  1.0 0.0483670278
C  C149  1  0.83910000  0.50000000  0.16090000  1.0 0.0483670278
C  C150  1  0.16090000  0.32180000  0.66090000  1.0 0.0483670278
C  C151  1  0.67820000  0.83910000  0.33910000  1.0 0.0483670278
C  C152  1  0.50000000  0.16090000  0.83910000  1.0 0.0483670278
C  C153  1  0.50000000  0.33910000  0.66090000  1.0 0.0483670278
C  C154  1  0.66090000  0.50000000  0.33910000  1.0 0.0483670278
C  C155  1  0.32180000  0.66090000  0.16090000  1.0 0.0483670278
C  C156  1  0.33910000  0.67820000  0.83910000  1.0 0.0483670278
C  C157  1  0.66090000  0.33910000  0.50000000  1.0 0.0483670278
C  C158  1  0.33910000  0.83910000  0.67820000  1.0 0.0483670278
C  C159  1  0.83910000  0.16090000  0.50000000  1.0 0.0483670278
C  C160  1  0.16090000  0.66090000  0.32180000  1.0 0.0483670278
C  C161  1  0.16090000  0.50000000  0.83910000  1.0 0.0483670278
C  C162  1  0.83910000  0.67820000  0.33910000  1.0 0.0483670278
C  C163  1  0.32180000  0.16090000  0.66090000  1.0 0.0483670278
C  C164  1  0.50000000  0.83910000  0.16090000  1.0 0.0483670278
C  C165  1  0.50000000  0.66090000  0.33910000  1.0 0.0483670278
C  C166  1  0.33910000  0.50000000  0.66090000  1.0 0.0483670278
C  C167  1  0.67820000  0.33910000  0.83910000  1.0 0.0483670278
C  C168  1  0.66090000  0.32180000  0.16090000  1.0 0.0483670278
C  C169  1  0.31390000  0.68610000  0.50000000  1.0 -0.0288147323
C  C170  1  0.68610000  0.18610000  0.37220000  1.0 -0.0288147323
C  C171  1  0.18610000  0.81390000  0.50000000  1.0 -0.0288147323
C  C172  1  0.81390000  0.31390000  0.62780000  1.0 -0.0288147323
C  C173  1  0.81390000  0.50000000  0.18610000  1.0 -0.0288147323
C  C174  1  0.18610000  0.37220000  0.68610000  1.0 -0.0288147323
C  C175  1  0.62780000  0.81390000  0.31390000  1.0 -0.0288147323
C  C176  1  0.50000000  0.18610000  0.81390000  1.0 -0.0288147323
C  C177  1  0.50000000  0.31390000  0.68610000  1.0 -0.0288147323
C  C178  1  0.68610000  0.50000000  0.31390000  1.0 -0.0288147323
C  C179  1  0.37220000  0.68610000  0.18610000  1.0 -0.0288147323
C  C180  1  0.31390000  0.62780000  0.81390000  1.0 -0.0288147323
C  C181  1  0.68610000  0.31390000  0.50000000  1.0 -0.0288147323
C  C182  1  0.31390000  0.81390000  0.62780000  1.0 -0.0288147323
C  C183  1  0.81390000  0.18610000  0.50000000  1.0 -0.0288147323
C  C184  1  0.18610000  0.68610000  0.37220000  1.0 -0.0288147323
C  C185  1  0.18610000  0.50000000  0.81390000  1.0 -0.0288147323
C  C186  1  0.81390000  0.62780000  0.31390000  1.0 -0.0288147323
C  C187  1  0.37220000  0.18610000  0.68610000  1.0 -0.0288147323
C  C188  1  0.50000000  0.81390000  0.18610000  1.0 -0.0288147323
C  C189  1  0.50000000  0.68610000  0.31390000  1.0 -0.0288147323
C  C190  1  0.31390000  0.50000000  0.68610000  1.0 -0.0288147323
C  C191  1  0.62780000  0.31390000  0.81390000  1.0 -0.0288147323
C  C192  1  0.68610000  0.37220000  0.18610000  1.0 -0.0288147323
C  C193  1  0.31100000  0.71050000  0.54470000  1.0 0.0409071646
C  C194  1  0.71050000  0.16580000  0.39950000  1.0 0.0409071646
C  C195  1  0.16580000  0.76630000  0.45530000  1.0 0.0409071646
C  C196  1  0.76630000  0.31100000  0.60050000  1.0 0.0409071646
C  C197  1  0.83420000  0.54470000  0.23370000  1.0 0.0409071646
C  C198  1  0.68900000  0.23370000  0.39950000  1.0 0.0409071646
C  C199  1  0.16580000  0.39950000  0.71050000  1.0 0.0409071646
C  C200  1  0.60050000  0.76630000  0.31100000  1.0 0.0409071646
C  C201  1  0.83420000  0.28950000  0.60050000  1.0 0.0409071646
C  C202  1  0.54470000  0.23370000  0.83420000  1.0 0.0409071646
C  C203  1  0.54470000  0.31100000  0.71050000  1.0 0.0409071646
C  C204  1  0.71050000  0.54470000  0.31100000  1.0 0.0409071646
C  C205  1  0.23370000  0.39950000  0.68900000  1.0 0.0409071646
C  C206  1  0.45530000  0.16580000  0.76630000  1.0 0.0409071646
C  C207  1  0.76630000  0.45530000  0.16580000  1.0 0.0409071646
C  C208  1  0.60050000  0.83420000  0.28950000  1.0 0.0409071646
C  C209  1  0.39950000  0.68900000  0.23370000  1.0 0.0409071646
C  C210  1  0.28950000  0.60050000  0.83420000  1.0 0.0409071646
C  C211  1  0.23370000  0.83420000  0.54470000  1.0 0.0409071646
C  C212  1  0.28950000  0.68900000  0.45530000  1.0 0.0409071646
C  C213  1  0.31100000  0.60050000  0.76630000  1.0 0.0409071646
C  C214  1  0.68900000  0.45530000  0.28950000  1.0 0.0409071646
C  C215  1  0.39950000  0.71050000  0.16580000  1.0 0.0409071646
C  C216  1  0.45530000  0.28950000  0.68900000  1.0 0.0409071646
C  C217  1  0.68900000  0.28950000  0.45530000  1.0 0.0409071646
C  C218  1  0.28950000  0.83420000  0.60050000  1.0 0.0409071646
C  C219  1  0.83420000  0.23370000  0.54470000  1.0 0.0409071646
C  C220  1  0.23370000  0.68900000  0.39950000  1.0 0.0409071646
C  C221  1  0.16580000  0.45530000  0.76630000  1.0 0.0409071646
C  C222  1  0.31100000  0.76630000  0.60050000  1.0 0.0409071646
C  C223  1  0.83420000  0.60050000  0.28950000  1.0 0.0409071646
C  C224  1  0.39950000  0.23370000  0.68900000  1.0 0.0409071646
C  C225  1  0.16580000  0.71050000  0.39950000  1.0 0.0409071646
C  C226  1  0.45530000  0.76630000  0.16580000  1.0 0.0409071646
C  C227  1  0.45530000  0.68900000  0.28950000  1.0 0.0409071646
C  C228  1  0.28950000  0.45530000  0.68900000  1.0 0.0409071646
C  C229  1  0.76630000  0.60050000  0.31100000  1.0 0.0409071646
C  C230  1  0.54470000  0.83420000  0.23370000  1.0 0.0409071646
C  C231  1  0.23370000  0.54470000  0.83420000  1.0 0.0409071646
C  C232  1  0.39950000  0.16580000  0.71050000  1.0 0.0409071646
C  C233  1  0.60050000  0.31100000  0.76630000  1.0 0.0409071646
C  C234  1  0.71050000  0.39950000  0.16580000  1.0 0.0409071646
C  C235  1  0.76630000  0.16580000  0.45530000  1.0 0.0409071646
C  C236  1  0.71050000  0.31100000  0.54470000  1.0 0.0409071646
C  C237  1  0.68900000  0.39950000  0.23370000  1.0 0.0409071646
C  C238  1  0.31100000  0.54470000  0.71050000  1.0 0.0409071646
C  C239  1  0.60050000  0.28950000  0.83420000  1.0 0.0409071646
C  C240  1  0.54470000  0.71050000  0.31100000  1.0 0.0409071646
C  C241  1  0.33850000  0.71362000  0.58752000  1.0 -0.1011939737
C  C242  1  0.71362000  0.12610000  0.37512000  1.0 -0.1011939737
C  C243  1  0.12610000  0.75098000  0.41248000  1.0 -0.1011939737
C  C244  1  0.75098000  0.33850000  0.62488000  1.0 -0.1011939737
C  C245  1  0.87390000  0.58752000  0.24902000  1.0 -0.1011939737
C  C246  1  0.66150000  0.24902000  0.37512000  1.0 -0.1011939737
C  C247  1  0.12610000  0.37512000  0.71362000  1.0 -0.1011939737
C  C248  1  0.62488000  0.75098000  0.33850000  1.0 -0.1011939737
C  C249  1  0.87390000  0.28638000  0.62488000  1.0 -0.1011939737
C  C250  1  0.58752000  0.24902000  0.87390000  1.0 -0.1011939737
C  C251  1  0.58752000  0.33850000  0.71362000  1.0 -0.1011939737
C  C252  1  0.71362000  0.58752000  0.33850000  1.0 -0.1011939737
C  C253  1  0.24902000  0.37512000  0.66150000  1.0 -0.1011939737
C  C254  1  0.41248000  0.12610000  0.75098000  1.0 -0.1011939737
C  C255  1  0.75098000  0.41248000  0.12610000  1.0 -0.1011939737
C  C256  1  0.62488000  0.87390000  0.28638000  1.0 -0.1011939737
C  C257  1  0.37512000  0.66150000  0.24902000  1.0 -0.1011939737
C  C258  1  0.28638000  0.62488000  0.87390000  1.0 -0.1011939737
C  C259  1  0.24902000  0.87390000  0.58752000  1.0 -0.1011939737
C  C260  1  0.28638000  0.66150000  0.41248000  1.0 -0.1011939737
C  C261  1  0.33850000  0.62488000  0.75098000  1.0 -0.1011939737
C  C262  1  0.66150000  0.41248000  0.28638000  1.0 -0.1011939737
C  C263  1  0.37512000  0.71362000  0.12610000  1.0 -0.1011939737
C  C264  1  0.41248000  0.28638000  0.66150000  1.0 -0.1011939737
C  C265  1  0.66150000  0.28638000  0.41248000  1.0 -0.1011939737
C  C266  1  0.28638000  0.87390000  0.62488000  1.0 -0.1011939737
C  C267  1  0.87390000  0.24902000  0.58752000  1.0 -0.1011939737
C  C268  1  0.24902000  0.66150000  0.37512000  1.0 -0.1011939737
C  C269  1  0.12610000  0.41248000  0.75098000  1.0 -0.1011939737
C  C270  1  0.33850000  0.75098000  0.62488000  1.0 -0.1011939737
C  C271  1  0.87390000  0.62488000  0.28638000  1.0 -0.1011939737
C  C272  1  0.37512000  0.24902000  0.66150000  1.0 -0.1011939737
C  C273  1  0.12610000  0.71362000  0.37512000  1.0 -0.1011939737
C  C274  1  0.41248000  0.75098000  0.12610000  1.0 -0.1011939737
C  C275  1  0.41248000  0.66150000  0.28638000  1.0 -0.1011939737
C  C276  1  0.28638000  0.41248000  0.66150000  1.0 -0.1011939737
C  C277  1  0.75098000  0.62488000  0.33850000  1.0 -0.1011939737
C  C278  1  0.58752000  0.87390000  0.24902000  1.0 -0.1011939737
C  C279  1  0.24902000  0.58752000  0.87390000  1.0 -0.1011939737
C  C280  1  0.37512000  0.12610000  0.71362000  1.0 -0.1011939737
C  C281  1  0.62488000  0.33850000  0.75098000  1.0 -0.1011939737
C  C282  1  0.71362000  0.37512000  0.12610000  1.0 -0.1011939737
C  C283  1  0.75098000  0.12610000  0.41248000  1.0 -0.1011939737
C  C284  1  0.71362000  0.33850000  0.58752000  1.0 -0.1011939737
C  C285  1  0.66150000  0.37512000  0.24902000  1.0 -0.1011939737
C  C286  1  0.33850000  0.58752000  0.71362000  1.0 -0.1011939737
C  C287  1  0.62488000  0.28638000  0.87390000  1.0 -0.1011939737
C  C288  1  0.58752000  0.71362000  0.33850000  1.0 -0.1011939737
C  C289  1  0.33420000  0.73350000  0.54850000  1.0 0.0483670278
C  C290  1  0.73350000  0.18500000  0.39930000  1.0 0.0483670278
C  C291  1  0.18500000  0.78570000  0.45150000  1.0 0.0483670278
C  C292  1  0.78570000  0.33420000  0.60070000  1.0 0.0483670278
C  C293  1  0.81500000  0.54850000  0.21430000  1.0 0.0483670278
C  C294  1  0.66580000  0.21430000  0.39930000  1.0 0.0483670278
C  C295  1  0.18500000  0.39930000  0.73350000  1.0 0.0483670278
C  C296  1  0.60070000  0.78570000  0.33420000  1.0 0.0483670278
C  C297  1  0.81500000  0.26650000  0.60070000  1.0 0.0483670278
C  C298  1  0.54850000  0.21430000  0.81500000  1.0 0.0483670278
C  C299  1  0.54850000  0.33420000  0.73350000  1.0 0.0483670278
C  C300  1  0.73350000  0.54850000  0.33420000  1.0 0.0483670278
C  C301  1  0.21430000  0.39930000  0.66580000  1.0 0.0483670278
C  C302  1  0.45150000  0.18500000  0.78570000  1.0 0.0483670278
C  C303  1  0.78570000  0.45150000  0.18500000  1.0 0.0483670278
C  C304  1  0.60070000  0.81500000  0.26650000  1.0 0.0483670278
C  C305  1  0.39930000  0.66580000  0.21430000  1.0 0.0483670278
C  C306  1  0.26650000  0.60070000  0.81500000  1.0 0.0483670278
C  C307  1  0.21430000  0.81500000  0.54850000  1.0 0.0483670278
C  C308  1  0.26650000  0.66580000  0.45150000  1.0 0.0483670278
C  C309  1  0.33420000  0.60070000  0.78570000  1.0 0.0483670278
C  C310  1  0.66580000  0.45150000  0.26650000  1.0 0.0483670278
C  C311  1  0.39930000  0.73350000  0.18500000  1.0 0.0483670278
C  C312  1  0.45150000  0.26650000  0.66580000  1.0 0.0483670278
C  C313  1  0.66580000  0.26650000  0.45150000  1.0 0.0483670278
C  C314  1  0.26650000  0.81500000  0.60070000  1.0 0.0483670278
C  C315  1  0.81500000  0.21430000  0.54850000  1.0 0.0483670278
C  C316  1  0.21430000  0.66580000  0.39930000  1.0 0.0483670278
C  C317  1  0.18500000  0.45150000  0.78570000  1.0 0.0483670278
C  C318  1  0.33420000  0.78570000  0.60070000  1.0 0.0483670278
C  C319  1  0.81500000  0.60070000  0.26650000  1.0 0.0483670278
C  C320  1  0.39930000  0.21430000  0.66580000  1.0 0.0483670278
C  C321  1  0.18500000  0.73350000  0.39930000  1.0 0.0483670278
C  C322  1  0.45150000  0.78570000  0.18500000  1.0 0.0483670278
C  C323  1  0.45150000  0.66580000  0.26650000  1.0 0.0483670278
C  C324  1  0.26650000  0.45150000  0.66580000  1.0 0.0483670278
C  C325  1  0.78570000  0.60070000  0.33420000  1.0 0.0483670278
C  C326  1  0.54850000  0.81500000  0.21430000  1.0 0.0483670278
C  C327  1  0.21430000  0.54850000  0.81500000  1.0 0.0483670278
C  C328  1  0.39930000  0.18500000  0.73350000  1.0 0.0483670278
C  C329  1  0.60070000  0.33420000  0.78570000  1.0 0.0483670278
C  C330  1  0.73350000  0.39930000  0.18500000  1.0 0.0483670278
C  C331  1  0.78570000  0.18500000  0.45150000  1.0 0.0483670278
C  C332  1  0.73350000  0.33420000  0.54850000  1.0 0.0483670278
C  C333  1  0.66580000  0.39930000  0.21430000  1.0 0.0483670278
C  C334  1  0.33420000  0.54850000  0.73350000  1.0 0.0483670278
C  C335  1  0.60070000  0.26650000  0.81500000  1.0 0.0483670278
C  C336  1  0.54850000  0.73350000  0.33420000  1.0 0.0483670278
C  C337  1  0.37240000  0.74470000  0.59030000  1.0 -0.1170240383
C  C338  1  0.74470000  0.15440000  0.37230000  1.0 -0.1170240383
C  C339  1  0.15440000  0.78210000  0.40970000  1.0 -0.1170240383
C  C340  1  0.78210000  0.37240000  0.62770000  1.0 -0.1170240383
C  C341  1  0.84560000  0.59030000  0.21790000  1.0 -0.1170240383
C  C342  1  0.62760000  0.21790000  0.37230000  1.0 -0.1170240383
C  C343  1  0.15440000  0.37230000  0.74470000  1.0 -0.1170240383
C  C344  1  0.62770000  0.78210000  0.37240000  1.0 -0.1170240383
C  C345  1  0.84560000  0.25530000  0.62770000  1.0 -0.1170240383
C  C346  1  0.59030000  0.21790000  0.84560000  1.0 -0.1170240383
C  C347  1  0.59030000  0.37240000  0.74470000  1.0 -0.1170240383
C  C348  1  0.74470000  0.59030000  0.37240000  1.0 -0.1170240383
C  C349  1  0.21790000  0.37230000  0.62760000  1.0 -0.1170240383
C  C350  1  0.40970000  0.15440000  0.78210000  1.0 -0.1170240383
C  C351  1  0.78210000  0.40970000  0.15440000  1.0 -0.1170240383
C  C352  1  0.62770000  0.84560000  0.25530000  1.0 -0.1170240383
C  C353  1  0.37230000  0.62760000  0.21790000  1.0 -0.1170240383
C  C354  1  0.25530000  0.62770000  0.84560000  1.0 -0.1170240383
C  C355  1  0.21790000  0.84560000  0.59030000  1.0 -0.1170240383
C  C356  1  0.25530000  0.62760000  0.40970000  1.0 -0.1170240383
C  C357  1  0.37240000  0.62770000  0.78210000  1.0 -0.1170240383
C  C358  1  0.62760000  0.40970000  0.25530000  1.0 -0.1170240383
C  C359  1  0.37230000  0.74470000  0.15440000  1.0 -0.1170240383
C  C360  1  0.40970000  0.25530000  0.62760000  1.0 -0.1170240383
C  C361  1  0.62760000  0.25530000  0.40970000  1.0 -0.1170240383
C  C362  1  0.25530000  0.84560000  0.62770000  1.0 -0.1170240383
C  C363  1  0.84560000  0.21790000  0.59030000  1.0 -0.1170240383
C  C364  1  0.21790000  0.62760000  0.37230000  1.0 -0.1170240383
C  C365  1  0.15440000  0.40970000  0.78210000  1.0 -0.1170240383
C  C366  1  0.37240000  0.78210000  0.62770000  1.0 -0.1170240383
C  C367  1  0.84560000  0.62770000  0.25530000  1.0 -0.1170240383
C  C368  1  0.37230000  0.21790000  0.62760000  1.0 -0.1170240383
C  C369  1  0.15440000  0.74470000  0.37230000  1.0 -0.1170240383
C  C370  1  0.40970000  0.78210000  0.15440000  1.0 -0.1170240383
C  C371  1  0.40970000  0.62760000  0.25530000  1.0 -0.1170240383
C  C372  1  0.25530000  0.40970000  0.62760000  1.0 -0.1170240383
C  C373  1  0.78210000  0.62770000  0.37240000  1.0 -0.1170240383
C  C374  1  0.59030000  0.84560000  0.21790000  1.0 -0.1170240383
C  C375  1  0.21790000  0.59030000  0.84560000  1.0 -0.1170240383
C  C376  1  0.37230000  0.15440000  0.74470000  1.0 -0.1170240383
C  C377  1  0.62770000  0.37240000  0.78210000  1.0 -0.1170240383
C  C378  1  0.74470000  0.37230000  0.15440000  1.0 -0.1170240383
C  C379  1  0.78210000  0.15440000  0.40970000  1.0 -0.1170240383
C  C380  1  0.74470000  0.37240000  0.59030000  1.0 -0.1170240383
C  C381  1  0.62760000  0.37230000  0.21790000  1.0 -0.1170240383
C  C382  1  0.37240000  0.59030000  0.74470000  1.0 -0.1170240383
C  C383  1  0.62770000  0.25530000  0.84560000  1.0 -0.1170240383
C  C384  1  0.59030000  0.74470000  0.37240000  1.0 -0.1170240383
N  N1  1  0.29250000  0.74260000  0.54990000  1.0 -0.1011939737
N  N2  1  0.74260000  0.19270000  0.45010000  1.0 -0.1011939737
N  N3  1  0.19270000  0.74260000  0.45010000  1.0 -0.1011939737
N  N4  1  0.74260000  0.29250000  0.54990000  1.0 -0.1011939737
N  N5  1  0.80730000  0.54990000  0.25740000  1.0 -0.1011939737
N  N6  1  0.70750000  0.25740000  0.45010000  1.0 -0.1011939737
N  N7  1  0.19270000  0.45010000  0.74260000  1.0 -0.1011939737
N  N8  1  0.54990000  0.74260000  0.29250000  1.0 -0.1011939737
N  N9  1  0.80730000  0.25740000  0.54990000  1.0 -0.1011939737
N  N10  1  0.54990000  0.25740000  0.80730000  1.0 -0.1011939737
N  N11  1  0.54990000  0.29250000  0.74260000  1.0 -0.1011939737
N  N12  1  0.74260000  0.54990000  0.29250000  1.0 -0.1011939737
N  N13  1  0.25740000  0.45010000  0.70750000  1.0 -0.1011939737
N  N14  1  0.45010000  0.19270000  0.74260000  1.0 -0.1011939737
N  N15  1  0.74260000  0.45010000  0.19270000  1.0 -0.1011939737
N  N16  1  0.54990000  0.80730000  0.25740000  1.0 -0.1011939737
N  N17  1  0.45010000  0.70750000  0.25740000  1.0 -0.1011939737
N  N18  1  0.25740000  0.54990000  0.80730000  1.0 -0.1011939737
N  N19  1  0.25740000  0.80730000  0.54990000  1.0 -0.1011939737
N  N20  1  0.25740000  0.70750000  0.45010000  1.0 -0.1011939737
N  N21  1  0.29250000  0.54990000  0.74260000  1.0 -0.1011939737
N  N22  1  0.70750000  0.45010000  0.25740000  1.0 -0.1011939737
N  N23  1  0.45010000  0.74260000  0.19270000  1.0 -0.1011939737
N  N24  1  0.45010000  0.25740000  0.70750000  1.0 -0.1011939737
N  N25  1  0.30670000  0.75690000  0.54980000  1.0 -0.0913584547
N  N26  1  0.75690000  0.20710000  0.45020000  1.0 -0.0913584547
N  N27  1  0.20710000  0.75690000  0.45020000  1.0 -0.0913584547
N  N28  1  0.75690000  0.30670000  0.54980000  1.0 -0.0913584547
N  N29  1  0.79290000  0.54980000  0.24310000  1.0 -0.0913584547
N  N30  1  0.69330000  0.24310000  0.45020000  1.0 -0.0913584547
N  N31  1  0.20710000  0.45020000  0.75690000  1.0 -0.0913584547
N  N32  1  0.54980000  0.75690000  0.30670000  1.0 -0.0913584547
N  N33  1  0.79290000  0.24310000  0.54980000  1.0 -0.0913584547
N  N34  1  0.54980000  0.24310000  0.79290000  1.0 -0.0913584547
N  N35  1  0.54980000  0.30670000  0.75690000  1.0 -0.0913584547
N  N36  1  0.75690000  0.54980000  0.30670000  1.0 -0.0913584547
N  N37  1  0.24310000  0.45020000  0.69330000  1.0 -0.0913584547
N  N38  1  0.45020000  0.20710000  0.75690000  1.0 -0.0913584547
N  N39  1  0.75690000  0.45020000  0.20710000  1.0 -0.0913584547
N  N40  1  0.54980000  0.79290000  0.24310000  1.0 -0.0913584547
N  N41  1  0.45020000  0.69330000  0.24310000  1.0 -0.0913584547
N  N42  1  0.24310000  0.54980000  0.79290000  1.0 -0.0913584547
N  N43  1  0.24310000  0.79290000  0.54980000  1.0 -0.0913584547
N  N44  1  0.24310000  0.69330000  0.45020000  1.0 -0.0913584547
N  N45  1  0.30670000  0.54980000  0.75690000  1.0 -0.0913584547
N  N46  1  0.69330000  0.45020000  0.24310000  1.0 -0.0913584547
N  N47  1  0.45020000  0.75690000  0.20710000  1.0 -0.0913584547
N  N48  1  0.45020000  0.24310000  0.69330000  1.0 -0.0913584547
O  O1  1  0.47580000  0.53680000  0.53680000  1.0 -1.0686024949
O  O2  1  0.53680000  0.00000000  0.06100000  1.0 -1.0686024949
O  O3  1  0.00000000  0.93900000  0.46320000  1.0 -1.078107588
O  O4  1  0.93900000  0.47580000  0.93900000  1.0 -1.0622269238
O  O5  1  0.00000000  0.53680000  0.06100000  1.0 -1.0686024949
O  O6  1  0.52420000  0.06100000  0.06100000  1.0 -1.0686024949
O  O7  1  0.00000000  0.06100000  0.53680000  1.0 -1.0686024949
O  O8  1  0.93900000  0.93900000  0.47580000  1.0 -1.0686024949
O  O9  1  0.00000000  0.46320000  0.93900000  1.0 -1.0622269238
O  O10  1  0.53680000  0.06100000  0.00000000  1.0 -1.0686024949
O  O11  1  0.53680000  0.47580000  0.53680000  1.0 -1.0686024949
O  O12  1  0.53680000  0.53680000  0.47580000  1.0 -1.0686024949
O  O13  1  0.06100000  0.06100000  0.52420000  1.0 -1.0686024949
O  O14  1  0.46320000  0.00000000  0.93900000  1.0 -1.0686024949
O  O15  1  0.93900000  0.46320000  0.00000000  1.0 -1.0686024949
O  O16  1  0.93900000  0.00000000  0.46320000  1.0 -1.0686024949
O  O17  1  0.06100000  0.52420000  0.06100000  1.0 -1.0622269238
O  O18  1  0.46320000  0.93900000  0.00000000  1.0 -1.0686024949
O  O19  1  0.06100000  0.00000000  0.53680000  1.0 -1.0686024949
O  O20  1  0.46320000  0.52420000  0.46320000  1.0 -1.0686024949
O  O21  1  0.47580000  0.93900000  0.93900000  1.0 -1.0686024949
O  O22  1  0.52420000  0.46320000  0.46320000  1.0 -1.0686024949
O  O23  1  0.06100000  0.53680000  0.00000000  1.0 -1.0686024949
O  O24  1  0.46320000  0.46320000  0.52420000  1.0 -1.0686024949
O  O25  1  0.39210000  0.53580000  0.48670000  1.0 -0.6286692408
O  O26  1  0.53580000  0.04910000  0.14370000  1.0 -0.6286692408
O  O27  1  0.04910000  0.90540000  0.51330000  1.0 -0.6286692408
O  O28  1  0.90540000  0.39210000  0.85630000  1.0 -0.6286692408
O  O29  1  0.95090000  0.48670000  0.09460000  1.0 -0.6286692408
O  O30  1  0.60790000  0.09460000  0.14370000  1.0 -0.6286692408
O  O31  1  0.04910000  0.14370000  0.53580000  1.0 -0.6286692408
O  O32  1  0.85630000  0.90540000  0.39210000  1.0 -0.6286692408
O  O33  1  0.95090000  0.46420000  0.85630000  1.0 -0.6286692408
O  O34  1  0.48670000  0.09460000  0.95090000  1.0 -0.6286692408
O  O35  1  0.48670000  0.39210000  0.53580000  1.0 -0.6286692408
O  O36  1  0.53580000  0.48670000  0.39210000  1.0 -0.6286692408
O  O37  1  0.09460000  0.14370000  0.60790000  1.0 -0.6286692408
O  O38  1  0.51330000  0.04910000  0.90540000  1.0 -0.6286692408
O  O39  1  0.90540000  0.51330000  0.04910000  1.0 -0.6286692408
O  O40  1  0.85630000  0.95090000  0.46420000  1.0 -0.6286692408
O  O41  1  0.14370000  0.60790000  0.09460000  1.0 -0.6286692408
O  O42  1  0.46420000  0.85630000  0.95090000  1.0 -0.6286692408
O  O43  1  0.09460000  0.95090000  0.48670000  1.0 -0.6286692408
O  O44  1  0.46420000  0.60790000  0.51330000  1.0 -0.6286692408
O  O45  1  0.39210000  0.85630000  0.90540000  1.0 -0.6286692408
O  O46  1  0.60790000  0.51330000  0.46420000  1.0 -0.6286692408
O  O47  1  0.14370000  0.53580000  0.04910000  1.0 -0.6286692408
O  O48  1  0.51330000  0.46420000  0.60790000  1.0 -0.6286692408
O  O49  1  0.60790000  0.46420000  0.51330000  1.0 -0.6286692408
O  O50  1  0.46420000  0.95090000  0.85630000  1.0 -0.6286692408
O  O51  1  0.95090000  0.09460000  0.48670000  1.0 -0.6286692408
O  O52  1  0.09460000  0.60790000  0.14370000  1.0 -0.6286692408
O  O53  1  0.04910000  0.51330000  0.90540000  1.0 -0.6286692408
O  O54  1  0.39210000  0.90540000  0.85630000  1.0 -0.6286692408
O  O55  1  0.95090000  0.85630000  0.46420000  1.0 -0.6286692408
O  O56  1  0.14370000  0.09460000  0.60790000  1.0 -0.6286692408
O  O57  1  0.04910000  0.53580000  0.14370000  1.0 -0.6286692408
O  O58  1  0.51330000  0.90540000  0.04910000  1.0 -0.6286692408
O  O59  1  0.51330000  0.60790000  0.46420000  1.0 -0.6286692408
O  O60  1  0.46420000  0.51330000  0.60790000  1.0 -0.6286692408
O  O61  1  0.90540000  0.85630000  0.39210000  1.0 -0.6286692408
O  O62  1  0.48670000  0.95090000  0.09460000  1.0 -0.6286692408
O  O63  1  0.09460000  0.48670000  0.95090000  1.0 -0.6286692408
O  O64  1  0.14370000  0.04910000  0.53580000  1.0 -0.6286692408
O  O65  1  0.85630000  0.39210000  0.90540000  1.0 -0.6286692408
O  O66  1  0.53580000  0.14370000  0.04910000  1.0 -0.6286692408
O  O67  1  0.90540000  0.04910000  0.51330000  1.0 -0.6286692408
O  O68  1  0.53580000  0.39210000  0.48670000  1.0 -0.6286692408
O  O69  1  0.60790000  0.14370000  0.09460000  1.0 -0.6286692408
O  O70  1  0.39210000  0.48670000  0.53580000  1.0 -0.6286692408
O  O71  1  0.85630000  0.46420000  0.95090000  1.0 -0.6286692408
O  O72  1  0.48670000  0.53580000  0.39210000  1.0 -0.6286692408
O  O73  1  0.43306000  0.43306000  0.43306000  1.0 -1.2606203482
O  O74  1  0.43306000  0.00000000  0.00000000  1.0 -1.2693713432
O  O75  1  0.00000000  0.00000000  0.56694000  1.0 -1.2606203482
O  O76  1  0.00000000  0.43306000  0.00000000  1.0 -1.2693713432
O  O77  1  0.56694000  0.00000000  0.00000000  1.0 -1.2606203482
O  O78  1  0.00000000  0.00000000  0.43306000  1.0 -1.2606203482
O  O79  1  0.00000000  0.56694000  0.00000000  1.0 -1.2693713432
O  O80  1  0.56694000  0.56694000  0.56694000  1.0 -1.2606203482
