# DDEC6 charges by PACMAN v1.1 (https://github.com/mtap-research/PACMAN-charge/)
data_DOGMET_FSR_pacman
_symmetry_space_group_name_H-M   'P 1'
_cell_length_a   13.30200000
_cell_length_b   13.35200000
_cell_length_c   19.89400000
_cell_angle_alpha   95.63000000
_cell_angle_beta   104.80000000
_cell_angle_gamma   117.75000000
_symmetry_Int_Tables_number   1
_chemical_formula_structural   GdCuP4H23C12N4ClO12
_chemical_formula_sum   'Gd4 Cu4 P16 H92 C48 N16 Cl4 O48'
_cell_volume   2924.33615691
_cell_formula_units_Z   4
loop_
 _symmetry_equiv_pos_site_id
 _symmetry_equiv_pos_as_xyz
  1  'x, y, z'
loop_
 _atom_site_type_symbol
 _atom_site_label
 _atom_site_symmetry_multiplicity
 _atom_site_fract_x
 _atom_site_fract_y
 _atom_site_fract_z
 _atom_site_occupancy
 _atom_site_charge
Gd  Gd1  1  0.66186000  0.94605000  0.59540000  1.0 2.2541308997
Gd  Gd2  1  0.33814000  0.05395000  0.40460000  1.0 2.2541308997
Gd  Gd3  1  0.81987000  0.03774000  0.90470000  1.0 2.2321276067
Gd  Gd4  1  0.18013000  0.96226000  0.09530000  1.0 2.2321276067
Cu  Cu1  1  0.77260000  0.00226000  0.24741000  1.0 0.569005668
Cu  Cu2  1  0.22740000  0.99774000  0.75259000  1.0 0.569005668
Cu  Cu3  1  0.74359000  0.48346000  0.75072000  1.0 0.5619285105
Cu  Cu4  1  0.25641000  0.51654000  0.24928000  1.0 0.5619285105
P  P1  1  0.86940000  0.07330000  0.49879000  1.0 1.3101318477
P  P2  1  0.13060000  0.92670000  0.50121000  1.0 1.3101318477
P  P3  1  0.63815000  0.19729000  0.54283000  1.0 1.3795307277
P  P4  1  0.36185000  0.80271000  0.45717000  1.0 1.3795307277
P  P5  1  0.87873000  0.80311000  0.94609000  1.0 1.3525434134
P  P6  1  0.12127000  0.19689000  0.05391000  1.0 1.3525434134
P  P7  1  0.46318000  0.08922000  0.25632000  1.0 1.3626694677
P  P8  1  0.53682000  0.91078000  0.74368000  1.0 1.3626694677
P  P9  1  0.05787000  0.88314000  0.24193000  1.0 1.3795307277
P  P10  1  0.94213000  0.11686000  0.75807000  1.0 1.3795307277
P  P11  1  0.61770000  0.87050000  0.99508000  1.0 1.2896375952
P  P12  1  0.38230000  0.12950000  0.00492000  1.0 1.2896375952
P  P13  1  0.61040000  0.65315000  0.57958000  1.0 1.278742492
P  P14  1  0.38960000  0.34685000  0.42042000  1.0 1.278742492
P  P15  1  0.89420000  0.34176000  0.93390000  1.0 1.2896375952
P  P16  1  0.10580000  0.65824000  0.06610000  1.0 1.2896375952
H  H1  1  0.59350000  0.33930000  0.81770000  1.0 0.1303738707
H  H2  1  0.40650000  0.66070000  0.18230000  1.0 0.1303738707
H  H3  1  0.67200000  0.32290000  0.88460000  1.0 0.1512727311
H  H4  1  0.32800000  0.67710000  0.11540000  1.0 0.1512727311
H  H5  1  0.92020000  0.49290000  0.87820000  1.0 0.1599043553
H  H6  1  0.07980000  0.50710000  0.12180000  1.0 0.1599043553
H  H7  1  0.91930000  0.39400000  0.82880000  1.0 0.1783160143
H  H8  1  0.08070000  0.60600000  0.17120000  1.0 0.1783160143
H  H9  1  0.51290000  0.96490000  0.20130000  1.0 0.1697662955
H  H10  1  0.48710000  0.03510000  0.79870000  1.0 0.1697662955
H  H11  1  0.55960000  0.98330000  0.28420000  1.0 0.1599043553
H  H12  1  0.44040000  0.01670000  0.71580000  1.0 0.1599043553
H  H13  1  0.46280000  0.44760000  0.63580000  1.0 0.1599043553
H  H14  1  0.53720000  0.55240000  0.36420000  1.0 0.1599043553
H  H15  1  0.49850000  0.40490000  0.70410000  1.0 0.124408297
H  H16  1  0.50150000  0.59510000  0.29590000  1.0 0.124408297
H  H17  1  0.91320000  0.87020000  0.28970000  1.0 0.1697662955
H  H18  1  0.08680000  0.12980000  0.71030000  1.0 0.1697662955
H  H19  1  0.85740000  0.83100000  0.20600000  1.0 0.1783160143
H  H20  1  0.14260000  0.16900000  0.79400000  1.0 0.1783160143
H  H21  1  0.80930000  0.94340000  0.39110000  1.0 0.1783160143
H  H22  1  0.19070000  0.05660000  0.60890000  1.0 0.1783160143
H  H23  1  0.72370000  0.99390000  0.38550000  1.0 0.1697662955
H  H24  1  0.27630000  0.00610000  0.61450000  1.0 0.1697662955
H  H25  1  0.92210000  0.66760000  0.90040000  1.0 0.1697662955
H  H26  1  0.07790000  0.33240000  0.09960000  1.0 0.1697662955
H  H27  1  0.88610000  0.72320000  0.84020000  1.0 0.1512727311
H  H28  1  0.11390000  0.27680000  0.15980000  1.0 0.1512727311
H  H29  1  0.54530000  0.36520000  0.57560000  1.0 0.1512727311
H  H30  1  0.45470000  0.63480000  0.42440000  1.0 0.1512727311
H  H31  1  0.46020000  0.26730000  0.60560000  1.0 0.1599043553
H  H32  1  0.53980000  0.73270000  0.39440000  1.0 0.1599043553
H  H33  1  0.73550000  0.39590000  0.59700000  1.0 0.1697662955
H  H34  1  0.26450000  0.60410000  0.40300000  1.0 0.1697662955
H  H35  1  0.78420000  0.33510000  0.64840000  1.0 0.1697662955
H  H36  1  0.21580000  0.66490000  0.35160000  1.0 0.1697662955
H  H37  1  0.53270000  0.22820000  0.71060000  1.0 0.1303738707
H  H38  1  0.46730000  0.77180000  0.28940000  1.0 0.1303738707
H  H39  1  0.57110000  0.16370000  0.66140000  1.0 0.1512727311
H  H40  1  0.42890000  0.83630000  0.33860000  1.0 0.1512727311
H  H41  1  0.76340000  0.25180000  0.74480000  1.0 0.1599043553
H  H42  1  0.23660000  0.74820000  0.25520000  1.0 0.1599043553
H  H43  1  0.67150000  0.19390000  0.78480000  1.0 0.1512727311
H  H44  1  0.32850000  0.80610000  0.21520000  1.0 0.1512727311
H  H45  1  0.64650000  0.65450000  0.85110000  1.0 0.1599043553
H  H46  1  0.35350000  0.34550000  0.14890000  1.0 0.1599043553
H  H47  1  0.56640000  0.52240000  0.80800000  1.0 0.1303738707
H  H48  1  0.43360000  0.47760000  0.19200000  1.0 0.1303738707
H  H49  1  0.66120000  0.49630000  0.91220000  1.0 0.1512727311
H  H50  1  0.33880000  0.50370000  0.08780000  1.0 0.1512727311
H  H51  1  0.79480000  0.52280000  0.93260000  1.0 0.1599043553
H  H52  1  0.20520000  0.47720000  0.06740000  1.0 0.1599043553
H  H53  1  0.56770000  0.63520000  0.72530000  1.0 0.1599043553
H  H54  1  0.43230000  0.36480000  0.27470000  1.0 0.1599043553
H  H55  1  0.70980000  0.70820000  0.75440000  1.0 0.1512727311
H  H56  1  0.29020000  0.29180000  0.24560000  1.0 0.1512727311
H  H57  1  0.69260000  0.53780000  0.60770000  1.0 0.1599043553
H  H58  1  0.30740000  0.46220000  0.39230000  1.0 0.1599043553
H  H59  1  0.77210000  0.66050000  0.66230000  1.0 0.1599043553
H  H60  1  0.22790000  0.33950000  0.33770000  1.0 0.1599043553
H  H61  1  0.58930000  0.85200000  0.10370000  1.0 0.1599043553
H  H62  1  0.41070000  0.14800000  0.89630000  1.0 0.1599043553
H  H63  1  0.70080000  0.84160000  0.10290000  1.0 0.1697662955
H  H64  1  0.29920000  0.15840000  0.89710000  1.0 0.1697662955
H  H65  1  0.02900000  0.17010000  0.28350000  1.0 0.1379400508
H  H66  1  0.97100000  0.82990000  0.71650000  1.0 0.1379400508
H  H67  1  0.09670000  0.10220000  0.30630000  1.0 0.1599043553
H  H68  1  0.90330000  0.89780000  0.69370000  1.0 0.1599043553
H  H69  1  0.76680000  0.21900000  0.20370000  1.0 0.1379400508
H  H70  1  0.23320000  0.78100000  0.79630000  1.0 0.1379400508
H  H71  1  0.62650000  0.16200000  0.17290000  1.0 0.1599043553
H  H72  1  0.37350000  0.83800000  0.82710000  1.0 0.1599043553
H  H73  1  0.05780000  0.17040000  0.39820000  1.0 0.1599043553
H  H74  1  0.94220000  0.82960000  0.60180000  1.0 0.1599043553
H  H75  1  0.99560000  0.03390000  0.37920000  1.0 0.1599043553
H  H76  1  0.00440000  0.96610000  0.62080000  1.0 0.1599043553
H  H77  1  0.89590000  0.94700000  0.13190000  1.0 0.1599043553
H  H78  1  0.10410000  0.05300000  0.86810000  1.0 0.1599043553
H  H79  1  0.01090000  0.07180000  0.16700000  1.0 0.1512727311
H  H80  1  0.98910000  0.92820000  0.83300000  1.0 0.1512727311
H  H81  1  0.85650000  0.07170000  0.08860000  1.0 0.1697662955
H  H82  1  0.14350000  0.92830000  0.91140000  1.0 0.1697662955
H  H83  1  0.90110000  0.15140000  0.16590000  1.0 0.1303738707
H  H84  1  0.09890000  0.84860000  0.83410000  1.0 0.1303738707
H  H85  1  0.72590000  0.13200000  0.10110000  1.0 0.1599043553
H  H86  1  0.27410000  0.86800000  0.89890000  1.0 0.1599043553
H  H87  1  0.60260000  0.02810000  0.09850000  1.0 0.1512727311
H  H88  1  0.39740000  0.97190000  0.90150000  1.0 0.1512727311
H  H89  1  0.88990000  0.23310000  0.40780000  1.0 0.185977563
H  H90  1  0.11010000  0.76690000  0.59220000  1.0 0.185977563
H  H91  1  0.92150000  0.24310000  0.33750000  1.0 0.1512727311
H  H92  1  0.07850000  0.75690000  0.66250000  1.0 0.1512727311
C  C1  1  0.67480000  0.37180000  0.85130000  1.0 -0.1068765523
C  C2  1  0.32520000  0.62820000  0.14870000  1.0 -0.1068765523
C  C3  1  0.87780000  0.40890000  0.85860000  1.0 -0.3669014575
C  C4  1  0.12220000  0.59110000  0.14140000  1.0 -0.3669014575
C  C5  1  0.55690000  0.02410000  0.24670000  1.0 -0.3782984095
C  C6  1  0.44310000  0.97590000  0.75330000  1.0 -0.3782984095
C  C7  1  0.52350000  0.43370000  0.66480000  1.0 -0.1194438676
C  C8  1  0.47650000  0.56630000  0.33520000  1.0 -0.1194438676
C  C9  1  0.92690000  0.89090000  0.24620000  1.0 -0.4061234223
C  C10  1  0.07310000  0.10910000  0.75380000  1.0 -0.4061234223
C  C11  1  0.80800000  0.01530000  0.40120000  1.0 -0.3939970138
C  C12  1  0.19200000  0.98470000  0.59880000  1.0 -0.3939970138
C  C13  1  0.86310000  0.68860000  0.87840000  1.0 -0.4061234223
C  C14  1  0.13690000  0.31140000  0.12160000  1.0 -0.4061234223
C  C15  1  0.53390000  0.34280000  0.61910000  1.0 -0.092988377
C  C16  1  0.46610000  0.65720000  0.38090000  1.0 -0.092988377
C  C17  1  0.71110000  0.32830000  0.61690000  1.0 -0.3966160568
C  C18  1  0.28890000  0.67170000  0.38310000  1.0 -0.3966160568
C  C19  1  0.59940000  0.23590000  0.69580000  1.0 -0.0992247288
C  C20  1  0.40060000  0.76410000  0.30420000  1.0 -0.0992247288
C  C21  1  0.70150000  0.25540000  0.76040000  1.0 -0.092988377
C  C22  1  0.29850000  0.74460000  0.23960000  1.0 -0.092988377
C  C23  1  0.64110000  0.59470000  0.81610000  1.0 -0.0992247288
C  C24  1  0.35890000  0.40530000  0.18390000  1.0 -0.0992247288
C  C25  1  0.72080000  0.49600000  0.89270000  1.0 -0.0992247288
C  C26  1  0.27920000  0.50400000  0.10730000  1.0 -0.0992247288
C  C27  1  0.63990000  0.63120000  0.74550000  1.0 -0.0838040786
C  C28  1  0.36010000  0.36880000  0.25450000  1.0 -0.0838040786
C  C29  1  0.68940000  0.59690000  0.63810000  1.0 -0.3966160568
C  C30  1  0.31060000  0.40310000  0.36190000  1.0 -0.3966160568
C  C31  1  0.66280000  0.88760000  0.09200000  1.0 -0.3782984095
C  C32  1  0.33720000  0.11240000  0.90800000  1.0 -0.3782984095
C  C33  1  0.02080000  0.10050000  0.29840000  1.0 -0.0838040786
C  C34  1  0.97920000  0.89950000  0.70160000  1.0 -0.0838040786
C  C35  1  0.69100000  0.14500000  0.18770000  1.0 -0.1068765523
C  C36  1  0.30900000  0.85500000  0.81230000  1.0 -0.1068765523
C  C37  1  0.99450000  0.09910000  0.36210000  1.0 -0.1279792788
C  C38  1  0.00550000  0.90090000  0.63790000  1.0 -0.1279792788
C  C39  1  0.92820000  0.02200000  0.16480000  1.0 -0.1194438676
C  C40  1  0.07180000  0.97800000  0.83520000  1.0 -0.1194438676
C  C41  1  0.86210000  0.07120000  0.13810000  1.0 -0.0992247288
C  C42  1  0.13790000  0.92880000  0.86190000  1.0 -0.0992247288
C  C43  1  0.75890000  0.18650000  0.32460000  1.0 0.0709055734
C  C44  1  0.24110000  0.81350000  0.67540000  1.0 0.0709055734
C  C45  1  0.68700000  0.07940000  0.12850000  1.0 -0.092988377
C  C46  1  0.31300000  0.92060000  0.87150000  1.0 -0.092988377
C  C47  1  0.86270000  0.19350000  0.35760000  1.0 -0.1625365095
C  C48  1  0.13730000  0.80650000  0.64240000  1.0 -0.1625365095
N  N1  1  0.64240000  0.54500000  0.69410000  1.0 -0.0217053135
N  N2  1  0.35760000  0.45500000  0.30590000  1.0 -0.0217053135
N  N3  1  0.63920000  0.33440000  0.66140000  1.0 -0.0217053135
N  N4  1  0.36080000  0.66560000  0.33860000  1.0 -0.0271615779
N  N5  1  0.74470000  0.57810000  0.84410000  1.0 -0.0127756944
N  N6  1  0.25530000  0.42190000  0.15590000  1.0 -0.0127756944
N  N7  1  0.75540000  0.37230000  0.81160000  1.0 -0.0127756944
N  N8  1  0.24460000  0.62770000  0.18840000  1.0 -0.0127756944
N  N9  1  0.68080000  0.09510000  0.24860000  1.0 -0.0217053135
N  N10  1  0.31920000  0.90490000  0.75140000  1.0 -0.0271615779
N  N11  1  0.92900000  0.00210000  0.24540000  1.0 -0.0044671839
N  N12  1  0.07100000  0.99790000  0.75460000  1.0 -0.0127756944
N  N13  1  0.74410000  0.00500000  0.14200000  1.0 -0.0217053135
N  N14  1  0.25590000  0.99500000  0.85800000  1.0 -0.0217053135
N  N15  1  0.86480000  0.08810000  0.35470000  1.0 0.0009961601
N  N16  1  0.13520000  0.91190000  0.64530000  1.0 0.0009961601
Cl  Cl1  1  0.93926000  0.59707000  0.74292000  1.0 -0.6089104757
Cl  Cl2  1  0.06074000  0.40293000  0.25708000  1.0 -0.6089104757
Cl  Cl3  1  0.64510000  0.80416000  0.24565000  1.0 -0.6001188757
Cl  Cl4  1  0.35490000  0.19584000  0.75435000  1.0 -0.6001188757
O  O1  1  0.00830000  0.86690000  0.99580000  1.0 -0.8501580147
O  O2  1  0.99170000  0.13310000  0.00420000  1.0 -0.8501580147
O  O3  1  0.51420000  0.17070000  0.50050000  1.0 -0.8409486813
O  O4  1  0.48580000  0.82930000  0.49950000  1.0 -0.8409486813
O  O5  1  0.15900000  0.95140000  0.31280000  1.0 -0.8501580147
O  O6  1  0.84100000  0.04860000  0.68720000  1.0 -0.8501580147
O  O7  1  0.66130000  0.77910000  0.61330000  1.0 -0.8501580147
O  O8  1  0.33870000  0.22090000  0.38670000  1.0 -0.8501580147
O  O9  1  0.43160000  0.06070000  0.32156000  1.0 -0.8409486813
O  O10  1  0.56840000  0.93930000  0.67844000  1.0 -0.8409486813
O  O11  1  0.83830000  0.87510000  0.90570000  1.0 -0.8501580147
O  O12  1  0.16170000  0.12490000  0.09430000  1.0 -0.8501580147
O  O13  1  0.08360000  0.91960000  0.17640000  1.0 -0.8501580147
O  O14  1  0.91640000  0.08040000  0.82360000  1.0 -0.8501580147
O  O15  1  0.82340000  0.21030000  0.90840000  1.0 -0.8501580147
O  O16  1  0.17660000  0.78970000  0.09160000  1.0 -0.8501580147
O  O17  1  0.71080000  0.97480000  0.97890000  1.0 -0.8409486813
O  O18  1  0.28920000  0.02520000  0.02110000  1.0 -0.8409486813
O  O19  1  0.54326000  0.22420000  0.26940000  1.0 -0.6573362055
O  O20  1  0.45674000  0.77580000  0.73060000  1.0 -0.6573362055
O  O21  1  0.60130000  0.75390000  0.96370000  1.0 -0.6216731669
O  O22  1  0.39870000  0.24610000  0.03630000  1.0 -0.6216731669
O  O23  1  0.64480000  0.10100000  0.57420000  1.0 -0.8628831508
O  O24  1  0.35520000  0.89900000  0.42580000  1.0 -0.8628831508
O  O25  1  0.77850000  0.98140000  0.52400000  1.0 -0.8242446782
O  O26  1  0.22150000  0.01860000  0.47600000  1.0 -0.8242446782
O  O27  1  0.01270000  0.74900000  0.23010000  1.0 -0.6374376021
O  O28  1  0.98730000  0.25100000  0.76990000  1.0 -0.6374376021
O  O29  1  0.36150000  0.04349000  0.18660000  1.0 -0.8501580147
O  O30  1  0.63850000  0.95651000  0.81340000  1.0 -0.8501580147
O  O31  1  0.71940000  0.23430000  0.49490000  1.0 -0.5790849032
O  O32  1  0.28060000  0.76570000  0.50510000  1.0 -0.5790849032
O  O33  1  0.64980000  0.64430000  0.51250000  1.0 -0.6089104757
O  O34  1  0.35020000  0.35570000  0.48750000  1.0 -0.6001188757
O  O35  1  0.99370000  0.08410000  0.52500000  1.0 -0.5927345606
O  O36  1  0.00630000  0.91590000  0.47500000  1.0 -0.5927345606
O  O37  1  0.79220000  0.74060000  0.98800000  1.0 -0.5927345606
O  O38  1  0.20780000  0.25940000  0.01200000  1.0 -0.5927345606
O  O39  1  0.47540000  0.57460000  0.55880000  1.0 -0.6089104757
O  O40  1  0.52460000  0.42540000  0.44120000  1.0 -0.6089104757
O  O41  1  0.86370000  0.39130000  0.99260000  1.0 -0.6089104757
O  O42  1  0.13630000  0.60870000  0.00740000  1.0 -0.6089104757
O  O43  1  0.49780000  0.86780000  0.97200000  1.0 -0.6374376021
O  O44  1  0.50220000  0.13220000  0.02800000  1.0 -0.6374376021
O  O45  1  0.88680000  0.19400000  0.51850000  1.0 -0.6374376021
O  O46  1  0.11320000  0.80600000  0.48150000  1.0 -0.6374376021
O  O47  1  0.03210000  0.38580000  0.95860000  1.0 -0.5790849032
O  O48  1  0.96790000  0.61420000  0.04140000  1.0 -0.5790849032
