# DDEC6 charges by PACMAN v1.1 (https://github.com/mtap-research/PACMAN-charge/)
data_DOKHET_ASR_pacman
_symmetry_space_group_name_H-M   'P 1'
_cell_length_a   16.93160000
_cell_length_b   19.75610000
_cell_length_c   22.02420000
_cell_angle_alpha   90.00000000
_cell_angle_beta   90.00000000
_cell_angle_gamma   90.00000000
_symmetry_Int_Tables_number   1
_chemical_formula_structural   EuAg2H36C68(NO)8
_chemical_formula_sum   'Eu4 Ag8 H144 C272 N32 O32'
_cell_volume   7367.14737838
_cell_formula_units_Z   4
loop_
 _symmetry_equiv_pos_site_id
 _symmetry_equiv_pos_as_xyz
  1  'x, y, z'
loop_
 _atom_site_type_symbol
 _atom_site_label
 _atom_site_symmetry_multiplicity
 _atom_site_fract_x
 _atom_site_fract_y
 _atom_site_fract_z
 _atom_site_occupancy
 _atom_site_charge
Eu  Eu1  1  0.25000000  0.00000000  0.87298000  1.0 2.0801551386
Eu  Eu2  1  0.25000000  0.50000000  0.37298000  1.0 2.0801551386
Eu  Eu3  1  0.75000000  0.50000000  0.62702000  1.0 2.0801551386
Eu  Eu4  1  0.75000000  0.00000000  0.12702000  1.0 2.0801551386
Ag  Ag1  1  0.25000000  0.00000000  0.66895000  1.0 0.4182844653
Ag  Ag2  1  0.25000000  0.00000000  0.07671000  1.0 0.4680410966
Ag  Ag3  1  0.25000000  0.50000000  0.16895000  1.0 0.4182844653
Ag  Ag4  1  0.25000000  0.50000000  0.57671000  1.0 0.4680410966
Ag  Ag5  1  0.75000000  0.50000000  0.83105000  1.0 0.4182844653
Ag  Ag6  1  0.75000000  0.50000000  0.42329000  1.0 0.4680410966
Ag  Ag7  1  0.75000000  0.00000000  0.33105000  1.0 0.4182844653
Ag  Ag8  1  0.75000000  0.00000000  0.92329000  1.0 0.4680410966
H  H1  1  0.12880000  0.04940000  0.05810000  1.0 0.1211934201
H  H2  1  0.10030000  0.85260000  0.96500000  1.0 0.1291863413
H  H3  1  0.03010000  0.98690000  0.09040000  1.0 0.1291863413
H  H4  1  0.02850000  0.76880000  0.01340000  1.0 0.1211934201
H  H5  1  0.95860000  0.90480000  0.13790000  1.0 0.1211934201
H  H6  1  0.10490000  0.15250000  0.08320000  1.0 0.1211934201
H  H7  1  0.25720000  0.20210000  0.95320000  1.0 0.1380403086
H  H8  1  0.11570000  0.25970000  0.12410000  1.0 0.1133432991
H  H9  1  0.26590000  0.31110000  0.99010000  1.0 0.1211934201
H  H10  1  0.12610000  0.94680000  0.69010000  1.0 0.1211934201
H  H11  1  0.10950000  0.84350000  0.66350000  1.0 0.1211934201
H  H12  1  0.25020000  0.79550000  0.80030000  1.0 0.1380403086
H  H13  1  0.12710000  0.73700000  0.62350000  1.0 0.1133432991
H  H14  1  0.26490000  0.68690000  0.76480000  1.0 0.1291863413
H  H15  1  0.10370000  0.14650000  0.77000000  1.0 0.1291863413
H  H16  1  0.00760000  0.00020000  0.67390000  1.0 0.1291863413
H  H17  1  0.02520000  0.22600000  0.72240000  1.0 0.1211934201
H  H18  1  0.92470000  0.07600000  0.62770000  1.0 0.1291863413
H  H19  1  0.37120000  0.95060000  0.05810000  1.0 0.1211934201
H  H20  1  0.39970000  0.14740000  0.96500000  1.0 0.1291863413
H  H21  1  0.46990000  0.01310000  0.09040000  1.0 0.1291863413
H  H22  1  0.47150000  0.23120000  0.01340000  1.0 0.1211934201
H  H23  1  0.54140000  0.09520000  0.13790000  1.0 0.1211934201
H  H24  1  0.39510000  0.84750000  0.08320000  1.0 0.1211934201
H  H25  1  0.24280000  0.79790000  0.95320000  1.0 0.1380403086
H  H26  1  0.38430000  0.74030000  0.12410000  1.0 0.1133432991
H  H27  1  0.23410000  0.68890000  0.99010000  1.0 0.1211934201
H  H28  1  0.37390000  0.05320000  0.69010000  1.0 0.1211934201
H  H29  1  0.39050000  0.15650000  0.66350000  1.0 0.1211934201
H  H30  1  0.24980000  0.20450000  0.80030000  1.0 0.1380403086
H  H31  1  0.37290000  0.26300000  0.62350000  1.0 0.1133432991
H  H32  1  0.23510000  0.31310000  0.76480000  1.0 0.1291863413
H  H33  1  0.39630000  0.85350000  0.77000000  1.0 0.1291863413
H  H34  1  0.49240000  0.99980000  0.67390000  1.0 0.1291863413
H  H35  1  0.47480000  0.77400000  0.72240000  1.0 0.1211934201
H  H36  1  0.57530000  0.92400000  0.62770000  1.0 0.1291863413
H  H37  1  0.37120000  0.54940000  0.55810000  1.0 0.1211934201
H  H38  1  0.39970000  0.35260000  0.46500000  1.0 0.1291863413
H  H39  1  0.46990000  0.48690000  0.59040000  1.0 0.1291863413
H  H40  1  0.47150000  0.26880000  0.51340000  1.0 0.1211934201
H  H41  1  0.54140000  0.40480000  0.63790000  1.0 0.1211934201
H  H42  1  0.39510000  0.65250000  0.58320000  1.0 0.1211934201
H  H43  1  0.24280000  0.70210000  0.45320000  1.0 0.1380403086
H  H44  1  0.38430000  0.75970000  0.62410000  1.0 0.1133432991
H  H45  1  0.23410000  0.81110000  0.49010000  1.0 0.1211934201
H  H46  1  0.37390000  0.44680000  0.19010000  1.0 0.1211934201
H  H47  1  0.39050000  0.34350000  0.16350000  1.0 0.1211934201
H  H48  1  0.24980000  0.29550000  0.30030000  1.0 0.1380403086
H  H49  1  0.37290000  0.23700000  0.12350000  1.0 0.1133432991
H  H50  1  0.23510000  0.18690000  0.26480000  1.0 0.1291863413
H  H51  1  0.39630000  0.64650000  0.27000000  1.0 0.1291863413
H  H52  1  0.49240000  0.50020000  0.17390000  1.0 0.1291863413
H  H53  1  0.47480000  0.72600000  0.22240000  1.0 0.1211934201
H  H54  1  0.57530000  0.57600000  0.12770000  1.0 0.1291863413
H  H55  1  0.12880000  0.45060000  0.55810000  1.0 0.1211934201
H  H56  1  0.10030000  0.64740000  0.46500000  1.0 0.1291863413
H  H57  1  0.03010000  0.51310000  0.59040000  1.0 0.1291863413
H  H58  1  0.02850000  0.73120000  0.51340000  1.0 0.1211934201
H  H59  1  0.95860000  0.59520000  0.63790000  1.0 0.1211934201
H  H60  1  0.10490000  0.34750000  0.58320000  1.0 0.1211934201
H  H61  1  0.25720000  0.29790000  0.45320000  1.0 0.1380403086
H  H62  1  0.11570000  0.24030000  0.62410000  1.0 0.1133432991
H  H63  1  0.26590000  0.18890000  0.49010000  1.0 0.1211934201
H  H64  1  0.12610000  0.55320000  0.19010000  1.0 0.1211934201
H  H65  1  0.10950000  0.65650000  0.16350000  1.0 0.1211934201
H  H66  1  0.25020000  0.70450000  0.30030000  1.0 0.1380403086
H  H67  1  0.12710000  0.76300000  0.12350000  1.0 0.1133432991
H  H68  1  0.26490000  0.81310000  0.26480000  1.0 0.1291863413
H  H69  1  0.10370000  0.35350000  0.27000000  1.0 0.1291863413
H  H70  1  0.00760000  0.49980000  0.17390000  1.0 0.1291863413
H  H71  1  0.02520000  0.27400000  0.22240000  1.0 0.1211934201
H  H72  1  0.92470000  0.42400000  0.12770000  1.0 0.1291863413
H  H73  1  0.62880000  0.45060000  0.44190000  1.0 0.1211934201
H  H74  1  0.60030000  0.64740000  0.53500000  1.0 0.1291863413
H  H75  1  0.53010000  0.51310000  0.40960000  1.0 0.1291863413
H  H76  1  0.52850000  0.73120000  0.48660000  1.0 0.1211934201
H  H77  1  0.45860000  0.59520000  0.36210000  1.0 0.1211934201
H  H78  1  0.60490000  0.34750000  0.41680000  1.0 0.1211934201
H  H79  1  0.75720000  0.29790000  0.54680000  1.0 0.1380403086
H  H80  1  0.61570000  0.24030000  0.37590000  1.0 0.1133432991
H  H81  1  0.76590000  0.18890000  0.50990000  1.0 0.1211934201
H  H82  1  0.62610000  0.55320000  0.80990000  1.0 0.1211934201
H  H83  1  0.60950000  0.65650000  0.83650000  1.0 0.1211934201
H  H84  1  0.75020000  0.70450000  0.69970000  1.0 0.1380403086
H  H85  1  0.62710000  0.76300000  0.87650000  1.0 0.1133432991
H  H86  1  0.76490000  0.81310000  0.73520000  1.0 0.1291863413
H  H87  1  0.60370000  0.35350000  0.73000000  1.0 0.1291863413
H  H88  1  0.50760000  0.49980000  0.82610000  1.0 0.1291863413
H  H89  1  0.52520000  0.27400000  0.77760000  1.0 0.1211934201
H  H90  1  0.42470000  0.42400000  0.87230000  1.0 0.1291863413
H  H91  1  0.87120000  0.54940000  0.44190000  1.0 0.1211934201
H  H92  1  0.89970000  0.35260000  0.53500000  1.0 0.1291863413
H  H93  1  0.96990000  0.48690000  0.40960000  1.0 0.1291863413
H  H94  1  0.97150000  0.26880000  0.48660000  1.0 0.1211934201
H  H95  1  0.04140000  0.40480000  0.36210000  1.0 0.1211934201
H  H96  1  0.89510000  0.65250000  0.41680000  1.0 0.1211934201
H  H97  1  0.74280000  0.70210000  0.54680000  1.0 0.1380403086
H  H98  1  0.88430000  0.75970000  0.37590000  1.0 0.1133432991
H  H99  1  0.73410000  0.81110000  0.50990000  1.0 0.1211934201
H  H100  1  0.87390000  0.44680000  0.80990000  1.0 0.1211934201
H  H101  1  0.89050000  0.34350000  0.83650000  1.0 0.1211934201
H  H102  1  0.74980000  0.29550000  0.69970000  1.0 0.1380403086
H  H103  1  0.87290000  0.23700000  0.87650000  1.0 0.1133432991
H  H104  1  0.73510000  0.18690000  0.73520000  1.0 0.1291863413
H  H105  1  0.89630000  0.64650000  0.73000000  1.0 0.1291863413
H  H106  1  0.99240000  0.50020000  0.82610000  1.0 0.1291863413
H  H107  1  0.97480000  0.72600000  0.77760000  1.0 0.1211934201
H  H108  1  0.07530000  0.57600000  0.87230000  1.0 0.1291863413
H  H109  1  0.87120000  0.95060000  0.94190000  1.0 0.1211934201
H  H110  1  0.89970000  0.14740000  0.03500000  1.0 0.1291863413
H  H111  1  0.96990000  0.01310000  0.90960000  1.0 0.1291863413
H  H112  1  0.97150000  0.23120000  0.98660000  1.0 0.1211934201
H  H113  1  0.04140000  0.09520000  0.86210000  1.0 0.1211934201
H  H114  1  0.89510000  0.84750000  0.91680000  1.0 0.1211934201
H  H115  1  0.74280000  0.79790000  0.04680000  1.0 0.1380403086
H  H116  1  0.88430000  0.74030000  0.87590000  1.0 0.1133432991
H  H117  1  0.73410000  0.68890000  0.00990000  1.0 0.1211934201
H  H118  1  0.87390000  0.05320000  0.30990000  1.0 0.1211934201
H  H119  1  0.89050000  0.15650000  0.33650000  1.0 0.1211934201
H  H120  1  0.74980000  0.20450000  0.19970000  1.0 0.1380403086
H  H121  1  0.87290000  0.26300000  0.37650000  1.0 0.1133432991
H  H122  1  0.73510000  0.31310000  0.23520000  1.0 0.1291863413
H  H123  1  0.89630000  0.85350000  0.23000000  1.0 0.1291863413
H  H124  1  0.99240000  0.99980000  0.32610000  1.0 0.1291863413
H  H125  1  0.97480000  0.77400000  0.27760000  1.0 0.1211934201
H  H126  1  0.07530000  0.92400000  0.37230000  1.0 0.1291863413
H  H127  1  0.62880000  0.04940000  0.94190000  1.0 0.1211934201
H  H128  1  0.60030000  0.85260000  0.03500000  1.0 0.1291863413
H  H129  1  0.53010000  0.98690000  0.90960000  1.0 0.1291863413
H  H130  1  0.52850000  0.76880000  0.98660000  1.0 0.1211934201
H  H131  1  0.45860000  0.90480000  0.86210000  1.0 0.1211934201
H  H132  1  0.60490000  0.15250000  0.91680000  1.0 0.1211934201
H  H133  1  0.75720000  0.20210000  0.04680000  1.0 0.1380403086
H  H134  1  0.61570000  0.25970000  0.87590000  1.0 0.1133432991
H  H135  1  0.76590000  0.31110000  0.00990000  1.0 0.1211934201
H  H136  1  0.62610000  0.94680000  0.30990000  1.0 0.1211934201
H  H137  1  0.60950000  0.84350000  0.33650000  1.0 0.1211934201
H  H138  1  0.75020000  0.79550000  0.19970000  1.0 0.1380403086
H  H139  1  0.62710000  0.73700000  0.37650000  1.0 0.1133432991
H  H140  1  0.76490000  0.68690000  0.23520000  1.0 0.1291863413
H  H141  1  0.60370000  0.14650000  0.23000000  1.0 0.1291863413
H  H142  1  0.50760000  0.00020000  0.32610000  1.0 0.1291863413
H  H143  1  0.52520000  0.22600000  0.27760000  1.0 0.1211934201
H  H144  1  0.42470000  0.07600000  0.37230000  1.0 0.1291863413
C  C1  1  0.17590000  0.09760000  0.98480000  1.0 0.4078018411
C  C2  1  0.14030000  0.04370000  0.01720000  1.0 -0.5008336224
C  C3  1  0.12180000  0.98110000  0.98860000  1.0 0.3990584731
C  C4  1  0.07390000  0.92920000  0.02210000  1.0 0.0126827218
C  C5  1  0.07180000  0.86320000  0.99990000  1.0 -0.1005554749
C  C6  1  0.02980000  0.94330000  0.07470000  1.0 -0.1051735381
C  C7  1  0.02860000  0.81290000  0.02840000  1.0 -0.1455504534
C  C8  1  0.98700000  0.89460000  0.10290000  1.0 -0.1005554749
C  C9  1  0.98590000  0.82960000  0.07940000  1.0 0.0547636233
C  C10  1  0.93990000  0.77850000  0.11060000  1.0 0.2481276251
C  C11  1  0.17900000  0.16650000  0.01320000  1.0 0.0126827218
C  C12  1  0.13770000  0.18420000  0.06470000  1.0 -0.1293650901
C  C13  1  0.22780000  0.21420000  0.98720000  1.0 -0.1005554749
C  C14  1  0.14410000  0.24830000  0.08950000  1.0 -0.1293650901
C  C15  1  0.23460000  0.27900000  0.00950000  1.0 -0.1293650901
C  C16  1  0.19280000  0.29500000  0.06250000  1.0 0.0335612465
C  C17  1  0.20140000  0.36060000  0.08950000  1.0 0.2847177579
C  C18  1  0.11850000  0.01730000  0.75760000  1.0 0.4078018411
C  C19  1  0.13790000  0.95360000  0.73090000  1.0 -0.5008336224
C  C20  1  0.17370000  0.90070000  0.76300000  1.0 0.3990584731
C  C21  1  0.17980000  0.83180000  0.73590000  1.0 0.0210350339
C  C22  1  0.14200000  0.81270000  0.68340000  1.0 -0.1293650901
C  C23  1  0.22470000  0.78340000  0.76450000  1.0 -0.1005554749
C  C24  1  0.15150000  0.74860000  0.65990000  1.0 -0.1293650901
C  C25  1  0.23460000  0.71840000  0.74380000  1.0 -0.1366117721
C  C26  1  0.19650000  0.70230000  0.68950000  1.0 0.0392287994
C  C27  1  0.20550000  0.63670000  0.66260000  1.0 0.2882567242
C  C28  1  0.06410000  0.06670000  0.72590000  1.0 0.0210350339
C  C29  1  0.06820000  0.13260000  0.74030000  1.0 -0.1005554749
C  C30  1  0.01080000  0.04580000  0.68380000  1.0 -0.1174234471
C  C31  1  0.02100000  0.18050000  0.71230000  1.0 -0.1366117721
C  C32  1  0.96190000  0.09120000  0.65570000  1.0 -0.1293650901
C  C33  1  0.96740000  0.15900000  0.66860000  1.0 0.0392287994
C  C34  1  0.91940000  0.20770000  0.63630000  1.0 0.2481276251
C  C35  1  0.32410000  0.90240000  0.98480000  1.0 0.4078018411
C  C36  1  0.35970000  0.95630000  0.01720000  1.0 -0.5008336224
C  C37  1  0.37820000  0.01890000  0.98860000  1.0 0.3990584731
C  C38  1  0.42610000  0.07080000  0.02210000  1.0 0.0126827218
C  C39  1  0.42820000  0.13680000  0.99990000  1.0 -0.1051735381
C  C40  1  0.47020000  0.05670000  0.07470000  1.0 -0.1051735381
C  C41  1  0.47140000  0.18710000  0.02840000  1.0 -0.1455504534
C  C42  1  0.51300000  0.10540000  0.10290000  1.0 -0.1005554749
C  C43  1  0.51410000  0.17040000  0.07940000  1.0 0.0547636233
C  C44  1  0.56010000  0.22150000  0.11060000  1.0 0.2481276251
C  C45  1  0.32100000  0.83350000  0.01320000  1.0 0.0126827218
C  C46  1  0.36230000  0.81580000  0.06470000  1.0 -0.1293650901
C  C47  1  0.27220000  0.78580000  0.98720000  1.0 -0.1005554749
C  C48  1  0.35590000  0.75170000  0.08950000  1.0 -0.1293650901
C  C49  1  0.26540000  0.72100000  0.00950000  1.0 -0.1293650901
C  C50  1  0.30720000  0.70500000  0.06250000  1.0 0.0335612465
C  C51  1  0.29860000  0.63940000  0.08950000  1.0 0.2847177579
C  C52  1  0.38150000  0.98270000  0.75760000  1.0 0.4078018411
C  C53  1  0.36210000  0.04640000  0.73090000  1.0 -0.5008336224
C  C54  1  0.32630000  0.09930000  0.76300000  1.0 0.3990584731
C  C55  1  0.32020000  0.16820000  0.73590000  1.0 0.0210350339
C  C56  1  0.35800000  0.18730000  0.68340000  1.0 -0.1293650901
C  C57  1  0.27530000  0.21660000  0.76450000  1.0 -0.1005554749
C  C58  1  0.34850000  0.25140000  0.65990000  1.0 -0.1293650901
C  C59  1  0.26540000  0.28160000  0.74380000  1.0 -0.1366117721
C  C60  1  0.30350000  0.29770000  0.68950000  1.0 0.0392287994
C  C61  1  0.29450000  0.36330000  0.66260000  1.0 0.2882567242
C  C62  1  0.43590000  0.93330000  0.72590000  1.0 0.0210350339
C  C63  1  0.43180000  0.86740000  0.74030000  1.0 -0.1005554749
C  C64  1  0.48920000  0.95420000  0.68380000  1.0 -0.1174234471
C  C65  1  0.47900000  0.81950000  0.71230000  1.0 -0.1366117721
C  C66  1  0.53810000  0.90880000  0.65570000  1.0 -0.1293650901
C  C67  1  0.53260000  0.84100000  0.66860000  1.0 0.0392287994
C  C68  1  0.58060000  0.79230000  0.63630000  1.0 0.2481276251
C  C69  1  0.32410000  0.59760000  0.48480000  1.0 0.4078018411
C  C70  1  0.35970000  0.54370000  0.51720000  1.0 -0.5008336224
C  C71  1  0.37820000  0.48110000  0.48860000  1.0 0.3990584731
C  C72  1  0.42610000  0.42920000  0.52210000  1.0 0.0126827218
C  C73  1  0.42820000  0.36320000  0.49990000  1.0 -0.1051735381
C  C74  1  0.47020000  0.44330000  0.57470000  1.0 -0.1051735381
C  C75  1  0.47140000  0.31290000  0.52840000  1.0 -0.1455504534
C  C76  1  0.51300000  0.39460000  0.60290000  1.0 -0.1005554749
C  C77  1  0.51410000  0.32960000  0.57940000  1.0 0.0547636233
C  C78  1  0.56010000  0.27850000  0.61060000  1.0 0.2481276251
C  C79  1  0.32100000  0.66650000  0.51320000  1.0 0.0126827218
C  C80  1  0.36230000  0.68420000  0.56470000  1.0 -0.1293650901
C  C81  1  0.27220000  0.71420000  0.48720000  1.0 -0.1005554749
C  C82  1  0.35590000  0.74830000  0.58950000  1.0 -0.1293650901
C  C83  1  0.26540000  0.77900000  0.50950000  1.0 -0.1293650901
C  C84  1  0.30720000  0.79500000  0.56250000  1.0 0.0335612465
C  C85  1  0.29860000  0.86060000  0.58950000  1.0 0.2847177579
C  C86  1  0.38150000  0.51730000  0.25760000  1.0 0.4078018411
C  C87  1  0.36210000  0.45360000  0.23090000  1.0 -0.5008336224
C  C88  1  0.32630000  0.40070000  0.26300000  1.0 0.3990584731
C  C89  1  0.32020000  0.33180000  0.23590000  1.0 0.0210350339
C  C90  1  0.35800000  0.31270000  0.18340000  1.0 -0.1293650901
C  C91  1  0.27530000  0.28340000  0.26450000  1.0 -0.1005554749
C  C92  1  0.34850000  0.24860000  0.15990000  1.0 -0.1293650901
C  C93  1  0.26540000  0.21840000  0.24380000  1.0 -0.1366117721
C  C94  1  0.30350000  0.20230000  0.18950000  1.0 0.0392287994
C  C95  1  0.29450000  0.13670000  0.16260000  1.0 0.2882567242
C  C96  1  0.43590000  0.56670000  0.22590000  1.0 0.0210350339
C  C97  1  0.43180000  0.63260000  0.24030000  1.0 -0.1005554749
C  C98  1  0.48920000  0.54580000  0.18380000  1.0 -0.1174234471
C  C99  1  0.47900000  0.68050000  0.21230000  1.0 -0.1366117721
C  C100  1  0.53810000  0.59120000  0.15570000  1.0 -0.1293650901
C  C101  1  0.53260000  0.65900000  0.16860000  1.0 0.0392287994
C  C102  1  0.58060000  0.70770000  0.13630000  1.0 0.2481276251
C  C103  1  0.17590000  0.40240000  0.48480000  1.0 0.4078018411
C  C104  1  0.14030000  0.45630000  0.51720000  1.0 -0.5008336224
C  C105  1  0.12180000  0.51890000  0.48860000  1.0 0.3990584731
C  C106  1  0.07390000  0.57080000  0.52210000  1.0 0.0126827218
C  C107  1  0.07180000  0.63680000  0.49990000  1.0 -0.1005554749
C  C108  1  0.02980000  0.55670000  0.57470000  1.0 -0.1051735381
C  C109  1  0.02860000  0.68710000  0.52840000  1.0 -0.1455504534
C  C110  1  0.98700000  0.60540000  0.60290000  1.0 -0.1005554749
C  C111  1  0.98590000  0.67040000  0.57940000  1.0 0.0547636233
C  C112  1  0.93990000  0.72150000  0.61060000  1.0 0.2481276251
C  C113  1  0.17900000  0.33350000  0.51320000  1.0 0.0126827218
C  C114  1  0.13770000  0.31580000  0.56470000  1.0 -0.1293650901
C  C115  1  0.22780000  0.28580000  0.48720000  1.0 -0.1005554749
C  C116  1  0.14410000  0.25170000  0.58950000  1.0 -0.1293650901
C  C117  1  0.23460000  0.22100000  0.50950000  1.0 -0.1293650901
C  C118  1  0.19280000  0.20500000  0.56250000  1.0 0.0335612465
C  C119  1  0.20140000  0.13940000  0.58950000  1.0 0.2847177579
C  C120  1  0.11850000  0.48270000  0.25760000  1.0 0.4078018411
C  C121  1  0.13790000  0.54640000  0.23090000  1.0 -0.5008336224
C  C122  1  0.17370000  0.59930000  0.26300000  1.0 0.3990584731
C  C123  1  0.17980000  0.66820000  0.23590000  1.0 0.0210350339
C  C124  1  0.14200000  0.68730000  0.18340000  1.0 -0.1293650901
C  C125  1  0.22470000  0.71660000  0.26450000  1.0 -0.1005554749
C  C126  1  0.15150000  0.75140000  0.15990000  1.0 -0.1293650901
C  C127  1  0.23460000  0.78160000  0.24380000  1.0 -0.1366117721
C  C128  1  0.19650000  0.79770000  0.18950000  1.0 0.0392287994
C  C129  1  0.20550000  0.86330000  0.16260000  1.0 0.2882567242
C  C130  1  0.06410000  0.43330000  0.22590000  1.0 0.0210350339
C  C131  1  0.06820000  0.36740000  0.24030000  1.0 -0.1005554749
C  C132  1  0.01080000  0.45420000  0.18380000  1.0 -0.1174234471
C  C133  1  0.02100000  0.31950000  0.21230000  1.0 -0.1366117721
C  C134  1  0.96190000  0.40880000  0.15570000  1.0 -0.1293650901
C  C135  1  0.96740000  0.34100000  0.16860000  1.0 0.0392287994
C  C136  1  0.91940000  0.29230000  0.13630000  1.0 0.2481276251
C  C137  1  0.67590000  0.40240000  0.51520000  1.0 0.4078018411
C  C138  1  0.64030000  0.45630000  0.48280000  1.0 -0.5008336224
C  C139  1  0.62180000  0.51890000  0.51140000  1.0 0.3990584731
C  C140  1  0.57390000  0.57080000  0.47790000  1.0 0.0126827218
C  C141  1  0.57180000  0.63680000  0.50010000  1.0 -0.1005554749
C  C142  1  0.52980000  0.55670000  0.42530000  1.0 -0.1051735381
C  C143  1  0.52860000  0.68710000  0.47160000  1.0 -0.1455504534
C  C144  1  0.48700000  0.60540000  0.39710000  1.0 -0.1005554749
C  C145  1  0.48590000  0.67040000  0.42060000  1.0 0.0547636233
C  C146  1  0.43990000  0.72150000  0.38940000  1.0 0.2481276251
C  C147  1  0.67900000  0.33350000  0.48680000  1.0 0.0126827218
C  C148  1  0.63770000  0.31580000  0.43530000  1.0 -0.1293650901
C  C149  1  0.72780000  0.28580000  0.51280000  1.0 -0.1005554749
C  C150  1  0.64410000  0.25170000  0.41050000  1.0 -0.1293650901
C  C151  1  0.73460000  0.22100000  0.49050000  1.0 -0.1293650901
C  C152  1  0.69280000  0.20500000  0.43750000  1.0 0.0335612465
C  C153  1  0.70140000  0.13940000  0.41050000  1.0 0.2847177579
C  C154  1  0.61850000  0.48270000  0.74240000  1.0 0.4078018411
C  C155  1  0.63790000  0.54640000  0.76910000  1.0 -0.5008336224
C  C156  1  0.67370000  0.59930000  0.73700000  1.0 0.3990584731
C  C157  1  0.67980000  0.66820000  0.76410000  1.0 0.0210350339
C  C158  1  0.64200000  0.68730000  0.81660000  1.0 -0.1293650901
C  C159  1  0.72470000  0.71660000  0.73550000  1.0 -0.1005554749
C  C160  1  0.65150000  0.75140000  0.84010000  1.0 -0.1293650901
C  C161  1  0.73460000  0.78160000  0.75620000  1.0 -0.1366117721
C  C162  1  0.69650000  0.79770000  0.81050000  1.0 0.0335612465
C  C163  1  0.70550000  0.86330000  0.83740000  1.0 0.2882567242
C  C164  1  0.56410000  0.43330000  0.77410000  1.0 0.0210350339
C  C165  1  0.56820000  0.36740000  0.75970000  1.0 -0.1005554749
C  C166  1  0.51080000  0.45420000  0.81620000  1.0 -0.1174234471
C  C167  1  0.52100000  0.31950000  0.78770000  1.0 -0.1366117721
C  C168  1  0.46190000  0.40880000  0.84430000  1.0 -0.1293650901
C  C169  1  0.46740000  0.34100000  0.83140000  1.0 0.0392287994
C  C170  1  0.41940000  0.29230000  0.86370000  1.0 0.2481276251
C  C171  1  0.82410000  0.59760000  0.51520000  1.0 0.4078018411
C  C172  1  0.85970000  0.54370000  0.48280000  1.0 -0.5008336224
C  C173  1  0.87820000  0.48110000  0.51140000  1.0 0.3990584731
C  C174  1  0.92610000  0.42920000  0.47790000  1.0 0.0126827218
C  C175  1  0.92820000  0.36320000  0.50010000  1.0 -0.1051735381
C  C176  1  0.97020000  0.44330000  0.42530000  1.0 -0.1051735381
C  C177  1  0.97140000  0.31290000  0.47160000  1.0 -0.1455504534
C  C178  1  0.01300000  0.39460000  0.39710000  1.0 -0.1005554749
C  C179  1  0.01410000  0.32960000  0.42060000  1.0 0.0547636233
C  C180  1  0.06010000  0.27850000  0.38940000  1.0 0.2481276251
C  C181  1  0.82100000  0.66650000  0.48680000  1.0 0.0126827218
C  C182  1  0.86230000  0.68420000  0.43530000  1.0 -0.1293650901
C  C183  1  0.77220000  0.71420000  0.51280000  1.0 -0.1005554749
C  C184  1  0.85590000  0.74830000  0.41050000  1.0 -0.1293650901
C  C185  1  0.76540000  0.77900000  0.49050000  1.0 -0.1293650901
C  C186  1  0.80720000  0.79500000  0.43750000  1.0 0.0335612465
C  C187  1  0.79860000  0.86060000  0.41050000  1.0 0.2847177579
C  C188  1  0.88150000  0.51730000  0.74240000  1.0 0.4078018411
C  C189  1  0.86210000  0.45360000  0.76910000  1.0 -0.5008336224
C  C190  1  0.82630000  0.40070000  0.73700000  1.0 0.3990584731
C  C191  1  0.82020000  0.33180000  0.76410000  1.0 0.0210350339
C  C192  1  0.85800000  0.31270000  0.81660000  1.0 -0.1293650901
C  C193  1  0.77530000  0.28340000  0.73550000  1.0 -0.1005554749
C  C194  1  0.84850000  0.24860000  0.84010000  1.0 -0.1293650901
C  C195  1  0.76540000  0.21840000  0.75620000  1.0 -0.1366117721
C  C196  1  0.80350000  0.20230000  0.81050000  1.0 0.0392287994
C  C197  1  0.79450000  0.13670000  0.83740000  1.0 0.2882567242
C  C198  1  0.93590000  0.56670000  0.77410000  1.0 0.0210350339
C  C199  1  0.93180000  0.63260000  0.75970000  1.0 -0.1005554749
C  C200  1  0.98920000  0.54580000  0.81620000  1.0 -0.1174234471
C  C201  1  0.97900000  0.68050000  0.78770000  1.0 -0.1366117721
C  C202  1  0.03810000  0.59120000  0.84430000  1.0 -0.1293650901
C  C203  1  0.03260000  0.65900000  0.83140000  1.0 0.0392287994
C  C204  1  0.08060000  0.70770000  0.86370000  1.0 0.2481276251
C  C205  1  0.82410000  0.90240000  0.01520000  1.0 0.4078018411
C  C206  1  0.85970000  0.95630000  0.98280000  1.0 -0.5008336224
C  C207  1  0.87820000  0.01890000  0.01140000  1.0 0.3990584731
C  C208  1  0.92610000  0.07080000  0.97790000  1.0 0.0126827218
C  C209  1  0.92820000  0.13680000  0.00010000  1.0 -0.1005554749
C  C210  1  0.97020000  0.05670000  0.92530000  1.0 -0.1051735381
C  C211  1  0.97140000  0.18710000  0.97160000  1.0 -0.1455504534
C  C212  1  0.01300000  0.10540000  0.89710000  1.0 -0.1005554749
C  C213  1  0.01410000  0.17040000  0.92060000  1.0 0.0547636233
C  C214  1  0.06010000  0.22150000  0.88940000  1.0 0.2481276251
C  C215  1  0.82100000  0.83350000  0.98680000  1.0 0.0126827218
C  C216  1  0.86230000  0.81580000  0.93530000  1.0 -0.1293650901
C  C217  1  0.77220000  0.78580000  0.01280000  1.0 -0.1005554749
C  C218  1  0.85590000  0.75170000  0.91050000  1.0 -0.1293650901
C  C219  1  0.76540000  0.72100000  0.99050000  1.0 -0.1293650901
C  C220  1  0.80720000  0.70500000  0.93750000  1.0 0.0335612465
C  C221  1  0.79860000  0.63940000  0.91050000  1.0 0.2847177579
C  C222  1  0.88150000  0.98270000  0.24240000  1.0 0.4078018411
C  C223  1  0.86210000  0.04640000  0.26910000  1.0 -0.5008336224
C  C224  1  0.82630000  0.09930000  0.23700000  1.0 0.3990584731
C  C225  1  0.82020000  0.16820000  0.26410000  1.0 0.0210350339
C  C226  1  0.85800000  0.18730000  0.31660000  1.0 -0.1293650901
C  C227  1  0.77530000  0.21660000  0.23550000  1.0 -0.1005554749
C  C228  1  0.84850000  0.25140000  0.34010000  1.0 -0.1293650901
C  C229  1  0.76540000  0.28160000  0.25620000  1.0 -0.1293650901
C  C230  1  0.80350000  0.29770000  0.31050000  1.0 0.0392287994
C  C231  1  0.79450000  0.36330000  0.33740000  1.0 0.2882567242
C  C232  1  0.93590000  0.93330000  0.27410000  1.0 0.0210350339
C  C233  1  0.93180000  0.86740000  0.25970000  1.0 -0.1005554749
C  C234  1  0.98920000  0.95420000  0.31620000  1.0 -0.1174234471
C  C235  1  0.97900000  0.81950000  0.28770000  1.0 -0.1366117721
C  C236  1  0.03810000  0.90880000  0.34430000  1.0 -0.1293650901
C  C237  1  0.03260000  0.84100000  0.33140000  1.0 0.0392287994
C  C238  1  0.08060000  0.79230000  0.36370000  1.0 0.2481276251
C  C239  1  0.67590000  0.09760000  0.01520000  1.0 0.4078018411
C  C240  1  0.64030000  0.04370000  0.98280000  1.0 -0.5008336224
C  C241  1  0.62180000  0.98110000  0.01140000  1.0 0.3990584731
C  C242  1  0.57390000  0.92920000  0.97790000  1.0 0.0126827218
C  C243  1  0.57180000  0.86320000  0.00010000  1.0 -0.1051735381
C  C244  1  0.52980000  0.94330000  0.92530000  1.0 -0.1051735381
C  C245  1  0.52860000  0.81290000  0.97160000  1.0 -0.1455504534
C  C246  1  0.48700000  0.89460000  0.89710000  1.0 -0.1005554749
C  C247  1  0.48590000  0.82960000  0.92060000  1.0 0.0547636233
C  C248  1  0.43990000  0.77850000  0.88940000  1.0 0.2481276251
C  C249  1  0.67900000  0.16650000  0.98680000  1.0 0.0126827218
C  C250  1  0.63770000  0.18420000  0.93530000  1.0 -0.1293650901
C  C251  1  0.72780000  0.21420000  0.01280000  1.0 -0.1005554749
C  C252  1  0.64410000  0.24830000  0.91050000  1.0 -0.1293650901
C  C253  1  0.73460000  0.27900000  0.99050000  1.0 -0.1293650901
C  C254  1  0.69280000  0.29500000  0.93750000  1.0 0.0335612465
C  C255  1  0.70140000  0.36060000  0.91050000  1.0 0.2847177579
C  C256  1  0.61850000  0.01730000  0.24240000  1.0 0.4078018411
C  C257  1  0.63790000  0.95360000  0.26910000  1.0 -0.5008336224
C  C258  1  0.67370000  0.90070000  0.23700000  1.0 0.3990584731
C  C259  1  0.67980000  0.83180000  0.26410000  1.0 0.0210350339
C  C260  1  0.64200000  0.81270000  0.31660000  1.0 -0.1293650901
C  C261  1  0.72470000  0.78340000  0.23550000  1.0 -0.1005554749
C  C262  1  0.65150000  0.74860000  0.34010000  1.0 -0.1293650901
C  C263  1  0.73460000  0.71840000  0.25620000  1.0 -0.1366117721
C  C264  1  0.69650000  0.70230000  0.31050000  1.0 0.0392287994
C  C265  1  0.70550000  0.63670000  0.33740000  1.0 0.2882567242
C  C266  1  0.56410000  0.06670000  0.27410000  1.0 0.0210350339
C  C267  1  0.56820000  0.13260000  0.25970000  1.0 -0.1005554749
C  C268  1  0.51080000  0.04580000  0.31620000  1.0 -0.1174234471
C  C269  1  0.52100000  0.18050000  0.28770000  1.0 -0.1366117721
C  C270  1  0.46190000  0.09120000  0.34430000  1.0 -0.1293650901
C  C271  1  0.46740000  0.15900000  0.33140000  1.0 0.0392287994
C  C272  1  0.41940000  0.20770000  0.36370000  1.0 0.2481276251
N  N1  1  0.20890000  0.41110000  0.11230000  1.0 -0.3904323012
N  N2  1  0.90560000  0.73650000  0.13720000  1.0 -0.3834326
N  N3  1  0.21280000  0.58480000  0.64030000  1.0 -0.3990979598
N  N4  1  0.88690000  0.24590000  0.61090000  1.0 -0.3433293581
N  N5  1  0.29110000  0.58890000  0.11230000  1.0 -0.3904323012
N  N6  1  0.59440000  0.26350000  0.13720000  1.0 -0.3834326
N  N7  1  0.28720000  0.41520000  0.64030000  1.0 -0.3990979598
N  N8  1  0.61310000  0.75410000  0.61090000  1.0 -0.3433293581
N  N9  1  0.29110000  0.91110000  0.61230000  1.0 -0.3904323012
N  N10  1  0.59440000  0.23650000  0.63720000  1.0 -0.3834326
N  N11  1  0.28720000  0.08480000  0.14030000  1.0 -0.3990979598
N  N12  1  0.61310000  0.74590000  0.11090000  1.0 -0.3433293581
N  N13  1  0.20890000  0.08890000  0.61230000  1.0 -0.3904323012
N  N14  1  0.90560000  0.76350000  0.63720000  1.0 -0.3834326
N  N15  1  0.21280000  0.91520000  0.14030000  1.0 -0.3990979598
N  N16  1  0.88690000  0.25410000  0.11090000  1.0 -0.3433293581
N  N17  1  0.70890000  0.08890000  0.38770000  1.0 -0.3904323012
N  N18  1  0.40560000  0.76350000  0.36280000  1.0 -0.3834326
N  N19  1  0.71280000  0.91520000  0.85970000  1.0 -0.3990979598
N  N20  1  0.38690000  0.25410000  0.88910000  1.0 -0.3433293581
N  N21  1  0.79110000  0.91110000  0.38770000  1.0 -0.3904323012
N  N22  1  0.09440000  0.23650000  0.36280000  1.0 -0.3834326
N  N23  1  0.78720000  0.08480000  0.85970000  1.0 -0.3990979598
N  N24  1  0.11310000  0.74590000  0.88910000  1.0 -0.3433293581
N  N25  1  0.79110000  0.58890000  0.88770000  1.0 -0.3904323012
N  N26  1  0.09440000  0.26350000  0.86280000  1.0 -0.3834326
N  N27  1  0.78720000  0.41520000  0.35970000  1.0 -0.3990979598
N  N28  1  0.11310000  0.75410000  0.38910000  1.0 -0.3433293581
N  N29  1  0.70890000  0.41110000  0.88770000  1.0 -0.3904323012
N  N30  1  0.40560000  0.73650000  0.86280000  1.0 -0.3834326
N  N31  1  0.71280000  0.58480000  0.35970000  1.0 -0.3990979598
N  N32  1  0.38690000  0.24590000  0.38910000  1.0 -0.3433293581
O  O1  1  0.20470000  0.09200000  0.93350000  1.0 -0.5320562229
O  O2  1  0.14430000  0.96470000  0.93654000  1.0 -0.5608230264
O  O3  1  0.14610000  0.03720000  0.80699000  1.0 -0.5608230264
O  O4  1  0.20210000  0.90750000  0.81502000  1.0 -0.5537290379
O  O5  1  0.29530000  0.90800000  0.93350000  1.0 -0.5320562229
O  O6  1  0.35570000  0.03530000  0.93654000  1.0 -0.5608230264
O  O7  1  0.35390000  0.96280000  0.80699000  1.0 -0.5608230264
O  O8  1  0.29790000  0.09250000  0.81502000  1.0 -0.5537290379
O  O9  1  0.29530000  0.59200000  0.43350000  1.0 -0.5320562229
O  O10  1  0.35570000  0.46470000  0.43654000  1.0 -0.5608230264
O  O11  1  0.35390000  0.53720000  0.30699000  1.0 -0.5608230264
O  O12  1  0.29790000  0.40750000  0.31502000  1.0 -0.5537290379
O  O13  1  0.20470000  0.40800000  0.43350000  1.0 -0.5320562229
O  O14  1  0.14430000  0.53530000  0.43654000  1.0 -0.5608230264
O  O15  1  0.14610000  0.46280000  0.30699000  1.0 -0.5608230264
O  O16  1  0.20210000  0.59250000  0.31502000  1.0 -0.5537290379
O  O17  1  0.70470000  0.40800000  0.56650000  1.0 -0.5320562229
O  O18  1  0.64430000  0.53530000  0.56346000  1.0 -0.5608230264
O  O19  1  0.64610000  0.46280000  0.69301000  1.0 -0.5608230264
O  O20  1  0.70210000  0.59250000  0.68498000  1.0 -0.5537290379
O  O21  1  0.79530000  0.59200000  0.56650000  1.0 -0.5320562229
O  O22  1  0.85570000  0.46470000  0.56346000  1.0 -0.5608230264
O  O23  1  0.85390000  0.53720000  0.69301000  1.0 -0.5608230264
O  O24  1  0.79790000  0.40750000  0.68498000  1.0 -0.5537290379
O  O25  1  0.79530000  0.90800000  0.06650000  1.0 -0.5320562229
O  O26  1  0.85570000  0.03530000  0.06346000  1.0 -0.5608230264
O  O27  1  0.85390000  0.96280000  0.19301000  1.0 -0.5608230264
O  O28  1  0.79790000  0.09250000  0.18498000  1.0 -0.5537290379
O  O29  1  0.70470000  0.09200000  0.06650000  1.0 -0.5320562229
O  O30  1  0.64430000  0.96470000  0.06346000  1.0 -0.5608230264
O  O31  1  0.64610000  0.03720000  0.19301000  1.0 -0.5608230264
O  O32  1  0.70210000  0.90750000  0.18498000  1.0 -0.5537290379
