# DDEC6 charges by PACMAN v1.1 (https://github.com/mtap-research/PACMAN-charge/)
data_DOLGUJ_ASR_pacman
_symmetry_space_group_name_H-M   'P 1'
_cell_length_a   25.85550000
_cell_length_b   25.85550000
_cell_length_c   10.75340000
_cell_angle_alpha   90.00000000
_cell_angle_beta   90.00000000
_cell_angle_gamma   90.00000000
_symmetry_Int_Tables_number   1
_chemical_formula_structural   Cu5H88C128(NO)16
_chemical_formula_sum   'Cu10 H176 C256 N32 O32'
_cell_volume   7188.72188608
_cell_formula_units_Z   2
loop_
 _symmetry_equiv_pos_site_id
 _symmetry_equiv_pos_as_xyz
  1  'x, y, z'
loop_
 _atom_site_type_symbol
 _atom_site_label
 _atom_site_symmetry_multiplicity
 _atom_site_fract_x
 _atom_site_fract_y
 _atom_site_fract_z
 _atom_site_occupancy
 _atom_site_charge
Cu  Cu1  1  0.33933000  0.50000000  0.84465000  1.0 0.6898554027
Cu  Cu2  1  0.66067000  0.50000000  0.84465000  1.0 0.6898554027
Cu  Cu3  1  0.00000000  0.83933000  0.84465000  1.0 0.6898554027
Cu  Cu4  1  0.00000000  0.16067000  0.84465000  1.0 0.6898554027
Cu  Cu5  1  0.50000000  0.00000000  0.75480000  1.0 0.0037410047
Cu  Cu6  1  0.83933000  0.00000000  0.15535000  1.0 0.6898554027
Cu  Cu7  1  0.16067000  0.00000000  0.15535000  1.0 0.6898554027
Cu  Cu8  1  0.50000000  0.66067000  0.15535000  1.0 0.6898554027
Cu  Cu9  1  0.50000000  0.33933000  0.15535000  1.0 0.6898554027
Cu  Cu10  1  0.00000000  0.50000000  0.24520000  1.0 0.0037410047
H  H1  1  0.37677000  0.76638000  0.81540000  1.0 0.1294510513
H  H2  1  0.39214000  0.68514000  0.82814000  1.0 0.1294510513
H  H3  1  0.23943000  0.66029000  0.84107000  1.0 0.1356080085
H  H4  1  0.40491000  0.59746000  0.83786000  1.0 0.1109604875
H  H5  1  0.25566000  0.57442000  0.85296000  1.0 0.1210176501
H  H6  1  0.48192000  0.90171000  0.89412000  1.0 0.0826585154
H  H7  1  0.40417000  0.84020000  0.64751000  1.0 0.1109604875
H  H8  1  0.42148000  0.84113000  0.92235000  1.0 0.1210176501
H  H9  1  0.46509000  0.90334000  0.62328000  1.0 0.0941372174
H  H10  1  0.62323000  0.23362000  0.81540000  1.0 0.1294510513
H  H11  1  0.60786000  0.31486000  0.82814000  1.0 0.1294510513
H  H12  1  0.76057000  0.33971000  0.84107000  1.0 0.1356080085
H  H13  1  0.59509000  0.40254000  0.83786000  1.0 0.1109604875
H  H14  1  0.74434000  0.42558000  0.85296000  1.0 0.1210176501
H  H15  1  0.51808000  0.09829000  0.89412000  1.0 0.0826585154
H  H16  1  0.59583000  0.15980000  0.64751000  1.0 0.1109604875
H  H17  1  0.57852000  0.15887000  0.92235000  1.0 0.1210176501
H  H18  1  0.53491000  0.09666000  0.62328000  1.0 0.0941372174
H  H19  1  0.73362000  0.87677000  0.81540000  1.0 0.1294510513
H  H20  1  0.81486000  0.89214000  0.82814000  1.0 0.1294510513
H  H21  1  0.83971000  0.73943000  0.84107000  1.0 0.1356080085
H  H22  1  0.90254000  0.90491000  0.83786000  1.0 0.1109604875
H  H23  1  0.92558000  0.75566000  0.85296000  1.0 0.1210176501
H  H24  1  0.59829000  0.98192000  0.89412000  1.0 0.0826585154
H  H25  1  0.65980000  0.90417000  0.64751000  1.0 0.1109604875
H  H26  1  0.65887000  0.92148000  0.92235000  1.0 0.1210176501
H  H27  1  0.59666000  0.96509000  0.62328000  1.0 0.0941372174
H  H28  1  0.26638000  0.12323000  0.81540000  1.0 0.1294510513
H  H29  1  0.18514000  0.10786000  0.82814000  1.0 0.1294510513
H  H30  1  0.16029000  0.26057000  0.84107000  1.0 0.1356080085
H  H31  1  0.09746000  0.09509000  0.83786000  1.0 0.1109604875
H  H32  1  0.07442000  0.24434000  0.85296000  1.0 0.1210176501
H  H33  1  0.40171000  0.01808000  0.89412000  1.0 0.0826585154
H  H34  1  0.34020000  0.09583000  0.64751000  1.0 0.1109604875
H  H35  1  0.34113000  0.07852000  0.92235000  1.0 0.1210176501
H  H36  1  0.40334000  0.03491000  0.62328000  1.0 0.0941372174
H  H37  1  0.62323000  0.76638000  0.81540000  1.0 0.1294510513
H  H38  1  0.60786000  0.68514000  0.82814000  1.0 0.1294510513
H  H39  1  0.76057000  0.66029000  0.84107000  1.0 0.1356080085
H  H40  1  0.59509000  0.59746000  0.83786000  1.0 0.1109604875
H  H41  1  0.74434000  0.57442000  0.85296000  1.0 0.1210176501
H  H42  1  0.51808000  0.90171000  0.89412000  1.0 0.0826585154
H  H43  1  0.59583000  0.84020000  0.64751000  1.0 0.1109604875
H  H44  1  0.57852000  0.84113000  0.92235000  1.0 0.1210176501
H  H45  1  0.53491000  0.90334000  0.62328000  1.0 0.0941372174
H  H46  1  0.37677000  0.23362000  0.81540000  1.0 0.1294510513
H  H47  1  0.39214000  0.31486000  0.82814000  1.0 0.1294510513
H  H48  1  0.23943000  0.33971000  0.84107000  1.0 0.1356080085
H  H49  1  0.40491000  0.40254000  0.83786000  1.0 0.1109604875
H  H50  1  0.25566000  0.42558000  0.85296000  1.0 0.1210176501
H  H51  1  0.48192000  0.09829000  0.89412000  1.0 0.0826585154
H  H52  1  0.40417000  0.15980000  0.64751000  1.0 0.1109604875
H  H53  1  0.42148000  0.15887000  0.92235000  1.0 0.1210176501
H  H54  1  0.46509000  0.09666000  0.62328000  1.0 0.0941372174
H  H55  1  0.26638000  0.87677000  0.81540000  1.0 0.1294510513
H  H56  1  0.18514000  0.89214000  0.82814000  1.0 0.1294510513
H  H57  1  0.16029000  0.73943000  0.84107000  1.0 0.1356080085
H  H58  1  0.09746000  0.90491000  0.83786000  1.0 0.1109604875
H  H59  1  0.07442000  0.75566000  0.85296000  1.0 0.1210176501
H  H60  1  0.40171000  0.98192000  0.89412000  1.0 0.0826585154
H  H61  1  0.34020000  0.90417000  0.64751000  1.0 0.1109604875
H  H62  1  0.34113000  0.92148000  0.92235000  1.0 0.1210176501
H  H63  1  0.40334000  0.96509000  0.62328000  1.0 0.0941372174
H  H64  1  0.73362000  0.12323000  0.81540000  1.0 0.1294510513
H  H65  1  0.81486000  0.10786000  0.82814000  1.0 0.1294510513
H  H66  1  0.83971000  0.26057000  0.84107000  1.0 0.1356080085
H  H67  1  0.90254000  0.09509000  0.83786000  1.0 0.1109604875
H  H68  1  0.92558000  0.24434000  0.85296000  1.0 0.1210176501
H  H69  1  0.59829000  0.01808000  0.89412000  1.0 0.0826585154
H  H70  1  0.65980000  0.09583000  0.64751000  1.0 0.1109604875
H  H71  1  0.65887000  0.07852000  0.92235000  1.0 0.1210176501
H  H72  1  0.59666000  0.03491000  0.62328000  1.0 0.0941372174
H  H73  1  0.37159000  0.50000000  0.45428000  1.0 0.1210176501
H  H74  1  0.37188000  0.50000000  0.23650000  1.0 0.1109604875
H  H75  1  0.21929000  0.50000000  0.22692000  1.0 0.1109604875
H  H76  1  0.21226000  0.50000000  0.44209000  1.0 0.1109604875
H  H77  1  0.62841000  0.50000000  0.45428000  1.0 0.1210176501
H  H78  1  0.62812000  0.50000000  0.23650000  1.0 0.1109604875
H  H79  1  0.78071000  0.50000000  0.22692000  1.0 0.1109604875
H  H80  1  0.78774000  0.50000000  0.44209000  1.0 0.1109604875
H  H81  1  0.00000000  0.87159000  0.45428000  1.0 0.1210176501
H  H82  1  0.00000000  0.87188000  0.23650000  1.0 0.1109604875
H  H83  1  0.00000000  0.71929000  0.22692000  1.0 0.1109604875
H  H84  1  0.00000000  0.71226000  0.44209000  1.0 0.1109604875
H  H85  1  0.00000000  0.12841000  0.45428000  1.0 0.1210176501
H  H86  1  0.00000000  0.12812000  0.23650000  1.0 0.1109604875
H  H87  1  0.00000000  0.28071000  0.22692000  1.0 0.1109604875
H  H88  1  0.00000000  0.28774000  0.44209000  1.0 0.1109604875
H  H89  1  0.87677000  0.73362000  0.18460000  1.0 0.1294510513
H  H90  1  0.89214000  0.81486000  0.17186000  1.0 0.1294510513
H  H91  1  0.73943000  0.83971000  0.15893000  1.0 0.1356080085
H  H92  1  0.90491000  0.90254000  0.16214000  1.0 0.1109604875
H  H93  1  0.75566000  0.92558000  0.14704000  1.0 0.1210176501
H  H94  1  0.98192000  0.59829000  0.10588000  1.0 0.0826585154
H  H95  1  0.90417000  0.65980000  0.35249000  1.0 0.1109604875
H  H96  1  0.92148000  0.65887000  0.07765000  1.0 0.1210176501
H  H97  1  0.96509000  0.59666000  0.37672000  1.0 0.0941372174
H  H98  1  0.12323000  0.26638000  0.18460000  1.0 0.1294510513
H  H99  1  0.10786000  0.18514000  0.17186000  1.0 0.1294510513
H  H100  1  0.26057000  0.16029000  0.15893000  1.0 0.1356080085
H  H101  1  0.09509000  0.09746000  0.16214000  1.0 0.1109604875
H  H102  1  0.24434000  0.07442000  0.14704000  1.0 0.1210176501
H  H103  1  0.01808000  0.40171000  0.10588000  1.0 0.0826585154
H  H104  1  0.09583000  0.34020000  0.35249000  1.0 0.1109604875
H  H105  1  0.07852000  0.34113000  0.07765000  1.0 0.1210176501
H  H106  1  0.03491000  0.40334000  0.37672000  1.0 0.0941372174
H  H107  1  0.23362000  0.62323000  0.18460000  1.0 0.1294510513
H  H108  1  0.31486000  0.60786000  0.17186000  1.0 0.1294510513
H  H109  1  0.33971000  0.76057000  0.15893000  1.0 0.1356080085
H  H110  1  0.40254000  0.59509000  0.16214000  1.0 0.1109604875
H  H111  1  0.42558000  0.74434000  0.14704000  1.0 0.1210176501
H  H112  1  0.09829000  0.51808000  0.10588000  1.0 0.0826585154
H  H113  1  0.15980000  0.59583000  0.35249000  1.0 0.1109604875
H  H114  1  0.15887000  0.57852000  0.07765000  1.0 0.1210176501
H  H115  1  0.09666000  0.53491000  0.37672000  1.0 0.0941372174
H  H116  1  0.76638000  0.37677000  0.18460000  1.0 0.1294510513
H  H117  1  0.68514000  0.39214000  0.17186000  1.0 0.1294510513
H  H118  1  0.66029000  0.23943000  0.15893000  1.0 0.1356080085
H  H119  1  0.59746000  0.40491000  0.16214000  1.0 0.1109604875
H  H120  1  0.57442000  0.25566000  0.14704000  1.0 0.1210176501
H  H121  1  0.90171000  0.48192000  0.10588000  1.0 0.0826585154
H  H122  1  0.84020000  0.40417000  0.35249000  1.0 0.1109604875
H  H123  1  0.84113000  0.42148000  0.07765000  1.0 0.1210176501
H  H124  1  0.90334000  0.46509000  0.37672000  1.0 0.0941372174
H  H125  1  0.12323000  0.73362000  0.18460000  1.0 0.1294510513
H  H126  1  0.10786000  0.81486000  0.17186000  1.0 0.1294510513
H  H127  1  0.26057000  0.83971000  0.15893000  1.0 0.1356080085
H  H128  1  0.09509000  0.90254000  0.16214000  1.0 0.1109604875
H  H129  1  0.24434000  0.92558000  0.14704000  1.0 0.1210176501
H  H130  1  0.01808000  0.59829000  0.10588000  1.0 0.0826585154
H  H131  1  0.09583000  0.65980000  0.35249000  1.0 0.1109604875
H  H132  1  0.07852000  0.65887000  0.07765000  1.0 0.1210176501
H  H133  1  0.03491000  0.59666000  0.37672000  1.0 0.0941372174
H  H134  1  0.87677000  0.26638000  0.18460000  1.0 0.1294510513
H  H135  1  0.89214000  0.18514000  0.17186000  1.0 0.1294510513
H  H136  1  0.73943000  0.16029000  0.15893000  1.0 0.1356080085
H  H137  1  0.90491000  0.09746000  0.16214000  1.0 0.1109604875
H  H138  1  0.75566000  0.07442000  0.14704000  1.0 0.1210176501
H  H139  1  0.98192000  0.40171000  0.10588000  1.0 0.0826585154
H  H140  1  0.90417000  0.34020000  0.35249000  1.0 0.1109604875
H  H141  1  0.92148000  0.34113000  0.07765000  1.0 0.1210176501
H  H142  1  0.96509000  0.40334000  0.37672000  1.0 0.0941372174
H  H143  1  0.76638000  0.62323000  0.18460000  1.0 0.1294510513
H  H144  1  0.68514000  0.60786000  0.17186000  1.0 0.1294510513
H  H145  1  0.66029000  0.76057000  0.15893000  1.0 0.1356080085
H  H146  1  0.59746000  0.59509000  0.16214000  1.0 0.1109604875
H  H147  1  0.57442000  0.74434000  0.14704000  1.0 0.1210176501
H  H148  1  0.90171000  0.51808000  0.10588000  1.0 0.0826585154
H  H149  1  0.84020000  0.59583000  0.35249000  1.0 0.1109604875
H  H150  1  0.84113000  0.57852000  0.07765000  1.0 0.1210176501
H  H151  1  0.90334000  0.53491000  0.37672000  1.0 0.0941372174
H  H152  1  0.23362000  0.37677000  0.18460000  1.0 0.1294510513
H  H153  1  0.31486000  0.39214000  0.17186000  1.0 0.1294510513
H  H154  1  0.33971000  0.23943000  0.15893000  1.0 0.1356080085
H  H155  1  0.40254000  0.40491000  0.16214000  1.0 0.1109604875
H  H156  1  0.42558000  0.25566000  0.14704000  1.0 0.1210176501
H  H157  1  0.09829000  0.48192000  0.10588000  1.0 0.0826585154
H  H158  1  0.15980000  0.40417000  0.35249000  1.0 0.1109604875
H  H159  1  0.15887000  0.42148000  0.07765000  1.0 0.1210176501
H  H160  1  0.09666000  0.46509000  0.37672000  1.0 0.0941372174
H  H161  1  0.87159000  0.00000000  0.54572000  1.0 0.1210176501
H  H162  1  0.87188000  0.00000000  0.76350000  1.0 0.1109604875
H  H163  1  0.71929000  0.00000000  0.77308000  1.0 0.1109604875
H  H164  1  0.71226000  0.00000000  0.55791000  1.0 0.1109604875
H  H165  1  0.12841000  0.00000000  0.54572000  1.0 0.1210176501
H  H166  1  0.12812000  0.00000000  0.76350000  1.0 0.1109604875
H  H167  1  0.28071000  0.00000000  0.77308000  1.0 0.1109604875
H  H168  1  0.28774000  0.00000000  0.55791000  1.0 0.1109604875
H  H169  1  0.50000000  0.62841000  0.54572000  1.0 0.1210176501
H  H170  1  0.50000000  0.62812000  0.76350000  1.0 0.1109604875
H  H171  1  0.50000000  0.78071000  0.77308000  1.0 0.1109604875
H  H172  1  0.50000000  0.78774000  0.55791000  1.0 0.1109604875
H  H173  1  0.50000000  0.37159000  0.54572000  1.0 0.1210176501
H  H174  1  0.50000000  0.37188000  0.76350000  1.0 0.1109604875
H  H175  1  0.50000000  0.21929000  0.77308000  1.0 0.1109604875
H  H176  1  0.50000000  0.21226000  0.55791000  1.0 0.1109604875
C  C1  1  0.30320000  0.74030000  0.82830000  1.0 0.2001020819
C  C2  1  0.31420000  0.68370000  0.83620000  1.0 0.0941372174
C  C3  1  0.34230000  0.77670000  0.81590000  1.0 -0.2375433786
C  C4  1  0.36380000  0.66310000  0.83360000  1.0 -0.1854925134
C  C5  1  0.27340000  0.64850000  0.84160000  1.0 -0.1742894311
C  C6  1  0.37130000  0.61030000  0.83900000  1.0 0.0826585154
C  C7  1  0.28350000  0.59710000  0.84750000  1.0 0.0826585154
C  C8  1  0.45130000  0.90370000  0.84880000  1.0 -0.0711848215
C  C9  1  0.40470000  0.86770000  0.70320000  1.0 -0.0824956024
C  C10  1  0.41600000  0.86750000  0.86520000  1.0 -0.1237002999
C  C11  1  0.44180000  0.90550000  0.68900000  1.0 -0.0028713094
C  C12  1  0.69680000  0.25970000  0.82830000  1.0 0.2001020819
C  C13  1  0.68580000  0.31630000  0.83620000  1.0 0.0941372174
C  C14  1  0.65770000  0.22330000  0.81590000  1.0 -0.2375433786
C  C15  1  0.63620000  0.33690000  0.83360000  1.0 -0.1854925134
C  C16  1  0.72660000  0.35150000  0.84160000  1.0 -0.1742894311
C  C17  1  0.62870000  0.38970000  0.83900000  1.0 0.0826585154
C  C18  1  0.71650000  0.40290000  0.84750000  1.0 0.0826585154
C  C19  1  0.54870000  0.09630000  0.84880000  1.0 -0.0711848215
C  C20  1  0.59530000  0.13230000  0.70320000  1.0 -0.0824956024
C  C21  1  0.58400000  0.13250000  0.86520000  1.0 -0.1237002999
C  C22  1  0.55820000  0.09450000  0.68900000  1.0 -0.0028713094
C  C23  1  0.75970000  0.80320000  0.82830000  1.0 0.2001020819
C  C24  1  0.81630000  0.81420000  0.83620000  1.0 0.0941372174
C  C25  1  0.72330000  0.84230000  0.81590000  1.0 -0.2375433786
C  C26  1  0.83690000  0.86380000  0.83360000  1.0 -0.1854925134
C  C27  1  0.85150000  0.77340000  0.84160000  1.0 -0.1742894311
C  C28  1  0.88970000  0.87130000  0.83900000  1.0 0.0826585154
C  C29  1  0.90290000  0.78350000  0.84750000  1.0 0.0826585154
C  C30  1  0.59630000  0.95130000  0.84880000  1.0 -0.0711848215
C  C31  1  0.63230000  0.90470000  0.70320000  1.0 -0.0824956024
C  C32  1  0.63250000  0.91600000  0.86520000  1.0 -0.1237002999
C  C33  1  0.59450000  0.94180000  0.68900000  1.0 -0.0028713094
C  C34  1  0.24030000  0.19680000  0.82830000  1.0 0.2001020819
C  C35  1  0.18370000  0.18580000  0.83620000  1.0 0.0941372174
C  C36  1  0.27670000  0.15770000  0.81590000  1.0 -0.2375433786
C  C37  1  0.16310000  0.13620000  0.83360000  1.0 -0.1854925134
C  C38  1  0.14850000  0.22660000  0.84160000  1.0 -0.1742894311
C  C39  1  0.11030000  0.12870000  0.83900000  1.0 0.0826585154
C  C40  1  0.09710000  0.21650000  0.84750000  1.0 0.0826585154
C  C41  1  0.40370000  0.04870000  0.84880000  1.0 -0.0711848215
C  C42  1  0.36770000  0.09530000  0.70320000  1.0 -0.0824956024
C  C43  1  0.36750000  0.08400000  0.86520000  1.0 -0.1237002999
C  C44  1  0.40550000  0.05820000  0.68900000  1.0 -0.0028713094
C  C45  1  0.69680000  0.74030000  0.82830000  1.0 0.2001020819
C  C46  1  0.68580000  0.68370000  0.83620000  1.0 0.0941372174
C  C47  1  0.65770000  0.77670000  0.81590000  1.0 -0.2375433786
C  C48  1  0.63620000  0.66310000  0.83360000  1.0 -0.1854925134
C  C49  1  0.72660000  0.64850000  0.84160000  1.0 -0.1742894311
C  C50  1  0.62870000  0.61030000  0.83900000  1.0 0.0826585154
C  C51  1  0.71650000  0.59710000  0.84750000  1.0 0.0826585154
C  C52  1  0.54870000  0.90370000  0.84880000  1.0 -0.0711848215
C  C53  1  0.59530000  0.86770000  0.70320000  1.0 -0.0824956024
C  C54  1  0.58400000  0.86750000  0.86520000  1.0 -0.1237002999
C  C55  1  0.55820000  0.90550000  0.68900000  1.0 -0.0028713094
C  C56  1  0.30320000  0.25970000  0.82830000  1.0 0.2001020819
C  C57  1  0.31420000  0.31630000  0.83620000  1.0 0.0941372174
C  C58  1  0.34230000  0.22330000  0.81590000  1.0 -0.2375433786
C  C59  1  0.36380000  0.33690000  0.83360000  1.0 -0.1854925134
C  C60  1  0.27340000  0.35150000  0.84160000  1.0 -0.1742894311
C  C61  1  0.37130000  0.38970000  0.83900000  1.0 0.0826585154
C  C62  1  0.28350000  0.40290000  0.84750000  1.0 0.0826585154
C  C63  1  0.45130000  0.09630000  0.84880000  1.0 -0.0711848215
C  C64  1  0.40470000  0.13230000  0.70320000  1.0 -0.0824956024
C  C65  1  0.41600000  0.13250000  0.86520000  1.0 -0.1237002999
C  C66  1  0.44180000  0.09450000  0.68900000  1.0 -0.0028713094
C  C67  1  0.24030000  0.80320000  0.82830000  1.0 0.2001020819
C  C68  1  0.18370000  0.81420000  0.83620000  1.0 0.0941372174
C  C69  1  0.27670000  0.84230000  0.81590000  1.0 -0.2375433786
C  C70  1  0.16310000  0.86380000  0.83360000  1.0 -0.1854925134
C  C71  1  0.14850000  0.77340000  0.84160000  1.0 -0.1742894311
C  C72  1  0.11030000  0.87130000  0.83900000  1.0 0.0826585154
C  C73  1  0.09710000  0.78350000  0.84750000  1.0 0.0826585154
C  C74  1  0.40370000  0.95130000  0.84880000  1.0 -0.0711848215
C  C75  1  0.36770000  0.90470000  0.70320000  1.0 -0.0824956024
C  C76  1  0.36750000  0.91600000  0.86520000  1.0 -0.1237002999
C  C77  1  0.40550000  0.94180000  0.68900000  1.0 -0.0028713094
C  C78  1  0.75970000  0.19680000  0.82830000  1.0 0.2001020819
C  C79  1  0.81630000  0.18580000  0.83620000  1.0 0.0941372174
C  C80  1  0.72330000  0.15770000  0.81590000  1.0 -0.2375433786
C  C81  1  0.83690000  0.13620000  0.83360000  1.0 -0.1854925134
C  C82  1  0.85150000  0.22660000  0.84160000  1.0 -0.1742894311
C  C83  1  0.88970000  0.12870000  0.83900000  1.0 0.0826585154
C  C84  1  0.90290000  0.21650000  0.84750000  1.0 0.0826585154
C  C85  1  0.59630000  0.04870000  0.84880000  1.0 -0.0711848215
C  C86  1  0.63230000  0.09530000  0.70320000  1.0 -0.0824956024
C  C87  1  0.63250000  0.08400000  0.86520000  1.0 -0.1237002999
C  C88  1  0.59450000  0.05820000  0.68900000  1.0 -0.0028713094
C  C89  1  0.34060000  0.50000000  0.41050000  1.0 -0.1237002999
C  C90  1  0.34020000  0.50000000  0.27740000  1.0 -0.1318815328
C  C91  1  0.29430000  0.50000000  0.20280000  1.0 -0.0711848215
C  C92  1  0.25000000  0.50000000  0.27200000  1.0 -0.1318815328
C  C93  1  0.29850000  0.50000000  0.06660000  1.0 0.514592132
C  C94  1  0.29230000  0.50000000  0.61310000  1.0 0.5528232664
C  C95  1  0.29380000  0.50000000  0.47230000  1.0 0.0037410047
C  C96  1  0.24430000  0.50000000  0.40290000  1.0 -0.1443827764
C  C97  1  0.65940000  0.50000000  0.41050000  1.0 -0.1237002999
C  C98  1  0.65980000  0.50000000  0.27740000  1.0 -0.1318815328
C  C99  1  0.70570000  0.50000000  0.20280000  1.0 -0.0711848215
C  C100  1  0.75000000  0.50000000  0.27200000  1.0 -0.1318815328
C  C101  1  0.70150000  0.50000000  0.06660000  1.0 0.514592132
C  C102  1  0.70770000  0.50000000  0.61310000  1.0 0.5528232664
C  C103  1  0.70620000  0.50000000  0.47230000  1.0 0.0037410047
C  C104  1  0.75570000  0.50000000  0.40290000  1.0 -0.1443827764
C  C105  1  0.00000000  0.84060000  0.41050000  1.0 -0.1237002999
C  C106  1  0.00000000  0.84020000  0.27740000  1.0 -0.1318815328
C  C107  1  0.00000000  0.79430000  0.20280000  1.0 -0.0711848215
C  C108  1  0.00000000  0.75000000  0.27200000  1.0 -0.1318815328
C  C109  1  0.00000000  0.79850000  0.06660000  1.0 0.514592132
C  C110  1  0.00000000  0.79230000  0.61310000  1.0 0.5528232664
C  C111  1  0.00000000  0.79380000  0.47230000  1.0 0.0037410047
C  C112  1  0.00000000  0.74430000  0.40290000  1.0 -0.1443827764
C  C113  1  0.00000000  0.15940000  0.41050000  1.0 -0.1237002999
C  C114  1  0.00000000  0.15980000  0.27740000  1.0 -0.1318815328
C  C115  1  0.00000000  0.20570000  0.20280000  1.0 -0.0711848215
C  C116  1  0.00000000  0.25000000  0.27200000  1.0 -0.1318815328
C  C117  1  0.00000000  0.20150000  0.06660000  1.0 0.514592132
C  C118  1  0.00000000  0.20770000  0.61310000  1.0 0.5528232664
C  C119  1  0.00000000  0.20620000  0.47230000  1.0 0.0037410047
C  C120  1  0.00000000  0.25570000  0.40290000  1.0 -0.1443827764
C  C121  1  0.32940000  0.82940000  0.80410000  1.0 0.0941372174
C  C122  1  0.36910000  0.86910000  0.79470000  1.0 0.0481644407
C  C123  1  0.67060000  0.17060000  0.80410000  1.0 0.0941372174
C  C124  1  0.63090000  0.13090000  0.79470000  1.0 0.0481644407
C  C125  1  0.67060000  0.82940000  0.80410000  1.0 0.0941372174
C  C126  1  0.63090000  0.86910000  0.79470000  1.0 0.0481644407
C  C127  1  0.32940000  0.17060000  0.80410000  1.0 0.0941372174
C  C128  1  0.36910000  0.13090000  0.79470000  1.0 0.0481644407
C  C129  1  0.80320000  0.75970000  0.17170000  1.0 0.2001020819
C  C130  1  0.81420000  0.81630000  0.16380000  1.0 0.0941372174
C  C131  1  0.84230000  0.72330000  0.18410000  1.0 -0.2375433786
C  C132  1  0.86380000  0.83690000  0.16640000  1.0 -0.1854925134
C  C133  1  0.77340000  0.85150000  0.15840000  1.0 -0.1742894311
C  C134  1  0.87130000  0.88970000  0.16100000  1.0 0.0826585154
C  C135  1  0.78350000  0.90290000  0.15250000  1.0 0.0826585154
C  C136  1  0.95130000  0.59630000  0.15120000  1.0 -0.0711848215
C  C137  1  0.90470000  0.63230000  0.29680000  1.0 -0.0824956024
C  C138  1  0.91600000  0.63250000  0.13480000  1.0 -0.1237002999
C  C139  1  0.94180000  0.59450000  0.31100000  1.0 -0.0028713094
C  C140  1  0.19680000  0.24030000  0.17170000  1.0 0.2001020819
C  C141  1  0.18580000  0.18370000  0.16380000  1.0 0.0941372174
C  C142  1  0.15770000  0.27670000  0.18410000  1.0 -0.2375433786
C  C143  1  0.13620000  0.16310000  0.16640000  1.0 -0.1854925134
C  C144  1  0.22660000  0.14850000  0.15840000  1.0 -0.1742894311
C  C145  1  0.12870000  0.11030000  0.16100000  1.0 0.0826585154
C  C146  1  0.21650000  0.09710000  0.15250000  1.0 0.0826585154
C  C147  1  0.04870000  0.40370000  0.15120000  1.0 -0.0711848215
C  C148  1  0.09530000  0.36770000  0.29680000  1.0 -0.0824956024
C  C149  1  0.08400000  0.36750000  0.13480000  1.0 -0.1237002999
C  C150  1  0.05820000  0.40550000  0.31100000  1.0 -0.0028713094
C  C151  1  0.25970000  0.69680000  0.17170000  1.0 0.2001020819
C  C152  1  0.31630000  0.68580000  0.16380000  1.0 0.0941372174
C  C153  1  0.22330000  0.65770000  0.18410000  1.0 -0.2375433786
C  C154  1  0.33690000  0.63620000  0.16640000  1.0 -0.1854925134
C  C155  1  0.35150000  0.72660000  0.15840000  1.0 -0.1742894311
C  C156  1  0.38970000  0.62870000  0.16100000  1.0 0.0826585154
C  C157  1  0.40290000  0.71650000  0.15250000  1.0 0.0826585154
C  C158  1  0.09630000  0.54870000  0.15120000  1.0 -0.0711848215
C  C159  1  0.13230000  0.59530000  0.29680000  1.0 -0.0824956024
C  C160  1  0.13250000  0.58400000  0.13480000  1.0 -0.1237002999
C  C161  1  0.09450000  0.55820000  0.31100000  1.0 -0.0028713094
C  C162  1  0.74030000  0.30320000  0.17170000  1.0 0.2001020819
C  C163  1  0.68370000  0.31420000  0.16380000  1.0 0.0941372174
C  C164  1  0.77670000  0.34230000  0.18410000  1.0 -0.2375433786
C  C165  1  0.66310000  0.36380000  0.16640000  1.0 -0.1854925134
C  C166  1  0.64850000  0.27340000  0.15840000  1.0 -0.1742894311
C  C167  1  0.61030000  0.37130000  0.16100000  1.0 0.0826585154
C  C168  1  0.59710000  0.28350000  0.15250000  1.0 0.0826585154
C  C169  1  0.90370000  0.45130000  0.15120000  1.0 -0.0711848215
C  C170  1  0.86770000  0.40470000  0.29680000  1.0 -0.0824956024
C  C171  1  0.86750000  0.41600000  0.13480000  1.0 -0.1237002999
C  C172  1  0.90550000  0.44180000  0.31100000  1.0 -0.0028713094
C  C173  1  0.19680000  0.75970000  0.17170000  1.0 0.2001020819
C  C174  1  0.18580000  0.81630000  0.16380000  1.0 0.0941372174
C  C175  1  0.15770000  0.72330000  0.18410000  1.0 -0.2375433786
C  C176  1  0.13620000  0.83690000  0.16640000  1.0 -0.1854925134
C  C177  1  0.22660000  0.85150000  0.15840000  1.0 -0.1742894311
C  C178  1  0.12870000  0.88970000  0.16100000  1.0 0.0826585154
C  C179  1  0.21650000  0.90290000  0.15250000  1.0 0.0826585154
C  C180  1  0.04870000  0.59630000  0.15120000  1.0 -0.0711848215
C  C181  1  0.09530000  0.63230000  0.29680000  1.0 -0.0824956024
C  C182  1  0.08400000  0.63250000  0.13480000  1.0 -0.1237002999
C  C183  1  0.05820000  0.59450000  0.31100000  1.0 -0.0028713094
C  C184  1  0.80320000  0.24030000  0.17170000  1.0 0.2001020819
C  C185  1  0.81420000  0.18370000  0.16380000  1.0 0.0941372174
C  C186  1  0.84230000  0.27670000  0.18410000  1.0 -0.2375433786
C  C187  1  0.86380000  0.16310000  0.16640000  1.0 -0.1854925134
C  C188  1  0.77340000  0.14850000  0.15840000  1.0 -0.1742894311
C  C189  1  0.87130000  0.11030000  0.16100000  1.0 0.0826585154
C  C190  1  0.78350000  0.09710000  0.15250000  1.0 0.0826585154
C  C191  1  0.95130000  0.40370000  0.15120000  1.0 -0.0711848215
C  C192  1  0.90470000  0.36770000  0.29680000  1.0 -0.0824956024
C  C193  1  0.91600000  0.36750000  0.13480000  1.0 -0.1237002999
C  C194  1  0.94180000  0.40550000  0.31100000  1.0 -0.0028713094
C  C195  1  0.74030000  0.69680000  0.17170000  1.0 0.2001020819
C  C196  1  0.68370000  0.68580000  0.16380000  1.0 0.0941372174
C  C197  1  0.77670000  0.65770000  0.18410000  1.0 -0.2375433786
C  C198  1  0.66310000  0.63620000  0.16640000  1.0 -0.1854925134
C  C199  1  0.64850000  0.72660000  0.15840000  1.0 -0.1742894311
C  C200  1  0.61030000  0.62870000  0.16100000  1.0 0.0826585154
C  C201  1  0.59710000  0.71650000  0.15250000  1.0 0.0826585154
C  C202  1  0.90370000  0.54870000  0.15120000  1.0 -0.0711848215
C  C203  1  0.86770000  0.59530000  0.29680000  1.0 -0.0824956024
C  C204  1  0.86750000  0.58400000  0.13480000  1.0 -0.1237002999
C  C205  1  0.90550000  0.55820000  0.31100000  1.0 -0.0028713094
C  C206  1  0.25970000  0.30320000  0.17170000  1.0 0.2001020819
C  C207  1  0.31630000  0.31420000  0.16380000  1.0 0.0941372174
C  C208  1  0.22330000  0.34230000  0.18410000  1.0 -0.2375433786
C  C209  1  0.33690000  0.36380000  0.16640000  1.0 -0.1854925134
C  C210  1  0.35150000  0.27340000  0.15840000  1.0 -0.1742894311
C  C211  1  0.38970000  0.37130000  0.16100000  1.0 0.0826585154
C  C212  1  0.40290000  0.28350000  0.15250000  1.0 0.0826585154
C  C213  1  0.09630000  0.45130000  0.15120000  1.0 -0.0711848215
C  C214  1  0.13230000  0.40470000  0.29680000  1.0 -0.0824956024
C  C215  1  0.13250000  0.41600000  0.13480000  1.0 -0.1237002999
C  C216  1  0.09450000  0.44180000  0.31100000  1.0 -0.0028713094
C  C217  1  0.84060000  0.00000000  0.58950000  1.0 -0.1237002999
C  C218  1  0.84020000  0.00000000  0.72260000  1.0 -0.1318815328
C  C219  1  0.79430000  0.00000000  0.79720000  1.0 -0.0711848215
C  C220  1  0.75000000  0.00000000  0.72800000  1.0 -0.1318815328
C  C221  1  0.79850000  0.00000000  0.93340000  1.0 0.514592132
C  C222  1  0.79230000  0.00000000  0.38690000  1.0 0.5528232664
C  C223  1  0.79380000  0.00000000  0.52770000  1.0 0.0037410047
C  C224  1  0.74430000  0.00000000  0.59710000  1.0 -0.1443827764
C  C225  1  0.15940000  0.00000000  0.58950000  1.0 -0.1237002999
C  C226  1  0.15980000  0.00000000  0.72260000  1.0 -0.1318815328
C  C227  1  0.20570000  0.00000000  0.79720000  1.0 -0.0711848215
C  C228  1  0.25000000  0.00000000  0.72800000  1.0 -0.1318815328
C  C229  1  0.20150000  0.00000000  0.93340000  1.0 0.514592132
C  C230  1  0.20770000  0.00000000  0.38690000  1.0 0.5528232664
C  C231  1  0.20620000  0.00000000  0.52770000  1.0 0.0037410047
C  C232  1  0.25570000  0.00000000  0.59710000  1.0 -0.1443827764
C  C233  1  0.50000000  0.65940000  0.58950000  1.0 -0.1237002999
C  C234  1  0.50000000  0.65980000  0.72260000  1.0 -0.1318815328
C  C235  1  0.50000000  0.70570000  0.79720000  1.0 -0.0711848215
C  C236  1  0.50000000  0.75000000  0.72800000  1.0 -0.1318815328
C  C237  1  0.50000000  0.70150000  0.93340000  1.0 0.514592132
C  C238  1  0.50000000  0.70770000  0.38690000  1.0 0.5528232664
C  C239  1  0.50000000  0.70620000  0.52770000  1.0 0.0037410047
C  C240  1  0.50000000  0.75570000  0.59710000  1.0 -0.1443827764
C  C241  1  0.50000000  0.34060000  0.58950000  1.0 -0.1237002999
C  C242  1  0.50000000  0.34020000  0.72260000  1.0 -0.1318815328
C  C243  1  0.50000000  0.29430000  0.79720000  1.0 -0.0711848215
C  C244  1  0.50000000  0.25000000  0.72800000  1.0 -0.1318815328
C  C245  1  0.50000000  0.29850000  0.93340000  1.0 0.514592132
C  C246  1  0.50000000  0.29230000  0.38690000  1.0 0.5528232664
C  C247  1  0.50000000  0.29380000  0.52770000  1.0 0.0037410047
C  C248  1  0.50000000  0.24430000  0.59710000  1.0 -0.1443827764
C  C249  1  0.82940000  0.67060000  0.19590000  1.0 0.0941372174
C  C250  1  0.86910000  0.63090000  0.20530000  1.0 0.0481644407
C  C251  1  0.17060000  0.32940000  0.19590000  1.0 0.0941372174
C  C252  1  0.13090000  0.36910000  0.20530000  1.0 0.0481644407
C  C253  1  0.17060000  0.67060000  0.19590000  1.0 0.0941372174
C  C254  1  0.13090000  0.63090000  0.20530000  1.0 0.0481644407
C  C255  1  0.82940000  0.32940000  0.19590000  1.0 0.0941372174
C  C256  1  0.86910000  0.36910000  0.20530000  1.0 0.0481644407
N  N1  1  0.33160000  0.57690000  0.84600000  1.0 -0.2375433786
N  N2  1  0.66840000  0.42310000  0.84600000  1.0 -0.2375433786
N  N3  1  0.92310000  0.83160000  0.84600000  1.0 -0.2375433786
N  N4  1  0.07690000  0.16840000  0.84600000  1.0 -0.2375433786
N  N5  1  0.66840000  0.57690000  0.84600000  1.0 -0.2375433786
N  N6  1  0.33160000  0.42310000  0.84600000  1.0 -0.2375433786
N  N7  1  0.07690000  0.83160000  0.84600000  1.0 -0.2375433786
N  N8  1  0.92310000  0.16840000  0.84600000  1.0 -0.2375433786
N  N9  1  0.25320000  0.75320000  0.83430000  1.0 -0.3199581295
N  N10  1  0.44460000  0.94460000  0.76640000  1.0 -0.0471109409
N  N11  1  0.74680000  0.24680000  0.83430000  1.0 -0.3199581295
N  N12  1  0.55540000  0.05540000  0.76640000  1.0 -0.0471109409
N  N13  1  0.74680000  0.75320000  0.83430000  1.0 -0.3199581295
N  N14  1  0.55540000  0.94460000  0.76640000  1.0 -0.0471109409
N  N15  1  0.25320000  0.24680000  0.83430000  1.0 -0.3199581295
N  N16  1  0.44460000  0.05540000  0.76640000  1.0 -0.0471109409
N  N17  1  0.83160000  0.92310000  0.15400000  1.0 -0.2375433786
N  N18  1  0.16840000  0.07690000  0.15400000  1.0 -0.2375433786
N  N19  1  0.42310000  0.66840000  0.15400000  1.0 -0.2375433786
N  N20  1  0.57690000  0.33160000  0.15400000  1.0 -0.2375433786
N  N21  1  0.16840000  0.92310000  0.15400000  1.0 -0.2375433786
N  N22  1  0.83160000  0.07690000  0.15400000  1.0 -0.2375433786
N  N23  1  0.57690000  0.66840000  0.15400000  1.0 -0.2375433786
N  N24  1  0.42310000  0.33160000  0.15400000  1.0 -0.2375433786
N  N25  1  0.75320000  0.74680000  0.16570000  1.0 -0.3199581295
N  N26  1  0.94460000  0.55540000  0.23360000  1.0 -0.0471109409
N  N27  1  0.24680000  0.25320000  0.16570000  1.0 -0.3199581295
N  N28  1  0.05540000  0.44460000  0.23360000  1.0 -0.0471109409
N  N29  1  0.24680000  0.74680000  0.16570000  1.0 -0.3199581295
N  N30  1  0.05540000  0.55540000  0.23360000  1.0 -0.0471109409
N  N31  1  0.75320000  0.25320000  0.16570000  1.0 -0.3199581295
N  N32  1  0.94460000  0.44460000  0.23360000  1.0 -0.0471109409
O  O1  1  0.34230000  0.50000000  0.02610000  1.0 -0.4980586447
O  O2  1  0.33460000  0.50000000  0.66340000  1.0 -0.5173258573
O  O3  1  0.25640000  0.50000000  0.01400000  1.0 -0.53736929
O  O4  1  0.24830000  0.50000000  0.66960000  1.0 -0.5946894303
O  O5  1  0.65770000  0.50000000  0.02610000  1.0 -0.4980586447
O  O6  1  0.66540000  0.50000000  0.66340000  1.0 -0.5173258573
O  O7  1  0.74360000  0.50000000  0.01400000  1.0 -0.53736929
O  O8  1  0.75170000  0.50000000  0.66960000  1.0 -0.5946894303
O  O9  1  0.00000000  0.84230000  0.02610000  1.0 -0.4980586447
O  O10  1  0.00000000  0.83460000  0.66340000  1.0 -0.5173258573
O  O11  1  0.00000000  0.75640000  0.01400000  1.0 -0.53736929
O  O12  1  0.00000000  0.74830000  0.66960000  1.0 -0.5946894303
O  O13  1  0.00000000  0.15770000  0.02610000  1.0 -0.4980586447
O  O14  1  0.00000000  0.16540000  0.66340000  1.0 -0.5173258573
O  O15  1  0.00000000  0.24360000  0.01400000  1.0 -0.53736929
O  O16  1  0.00000000  0.25170000  0.66960000  1.0 -0.5946894303
O  O17  1  0.84230000  0.00000000  0.97390000  1.0 -0.4980586447
O  O18  1  0.83460000  0.00000000  0.33660000  1.0 -0.5173258573
O  O19  1  0.75640000  0.00000000  0.98600000  1.0 -0.53736929
O  O20  1  0.74830000  0.00000000  0.33040000  1.0 -0.5946894303
O  O21  1  0.15770000  0.00000000  0.97390000  1.0 -0.4980586447
O  O22  1  0.16540000  0.00000000  0.33660000  1.0 -0.5173258573
O  O23  1  0.24360000  0.00000000  0.98600000  1.0 -0.53736929
O  O24  1  0.25170000  0.00000000  0.33040000  1.0 -0.5946894303
O  O25  1  0.50000000  0.65770000  0.97390000  1.0 -0.4980586447
O  O26  1  0.50000000  0.66540000  0.33660000  1.0 -0.5173258573
O  O27  1  0.50000000  0.74360000  0.98600000  1.0 -0.53736929
O  O28  1  0.50000000  0.75170000  0.33040000  1.0 -0.5946894303
O  O29  1  0.50000000  0.34230000  0.97390000  1.0 -0.4980586447
O  O30  1  0.50000000  0.33460000  0.33660000  1.0 -0.5173258573
O  O31  1  0.50000000  0.25640000  0.98600000  1.0 -0.53736929
O  O32  1  0.50000000  0.24830000  0.33040000  1.0 -0.5946894303
