# DDEC6 charges by PACMAN v1.1 (https://github.com/mtap-research/PACMAN-charge/)
data_DOLRAZ_ion_pacman
_symmetry_space_group_name_H-M   'P 1'
_cell_length_a   11.35930000
_cell_length_b   22.58230000
_cell_length_c   16.59230000
_cell_angle_alpha   90.00000000
_cell_angle_beta   92.12900000
_cell_angle_gamma   90.00000000
_symmetry_Int_Tables_number   1
_chemical_formula_structural   Mg3H28C36NO15
_chemical_formula_sum   'Mg12 H112 C144 N4 O60'
_cell_volume   4253.30419696
_cell_formula_units_Z   4
loop_
 _symmetry_equiv_pos_site_id
 _symmetry_equiv_pos_as_xyz
  1  'x, y, z'
loop_
 _atom_site_type_symbol
 _atom_site_label
 _atom_site_symmetry_multiplicity
 _atom_site_fract_x
 _atom_site_fract_y
 _atom_site_fract_z
 _atom_site_occupancy
 _atom_site_charge
Mg  Mg1  1  0.53590000  0.74944000  0.46785000  1.0 1.3474761213
Mg  Mg2  1  0.46410000  0.24944000  0.03215000  1.0 1.3474761213
Mg  Mg3  1  0.46410000  0.25056000  0.53215000  1.0 1.3474761213
Mg  Mg4  1  0.53590000  0.75056000  0.96785000  1.0 1.3474761213
Mg  Mg5  1  0.41430000  0.69156000  0.28593000  1.0 1.3286108936
Mg  Mg6  1  0.58570000  0.19156000  0.21407000  1.0 1.3286108936
Mg  Mg7  1  0.58570000  0.30844000  0.71407000  1.0 1.3286108936
Mg  Mg8  1  0.41430000  0.80844000  0.78593000  1.0 1.3286108936
Mg  Mg9  1  0.63980000  0.82571000  0.64569000  1.0 1.3578172888
Mg  Mg10  1  0.36020000  0.32571000  0.85431000  1.0 1.3578172888
Mg  Mg11  1  0.36020000  0.17429000  0.35431000  1.0 1.3578172888
Mg  Mg12  1  0.63980000  0.67429000  0.14569000  1.0 1.3578172888
H  H1  1  0.69130000  0.98240000  0.51060000  1.0 0.1103127961
H  H2  1  0.30870000  0.48240000  0.98940000  1.0 0.1103127961
H  H3  1  0.30870000  0.01760000  0.48940000  1.0 0.1103127961
H  H4  1  0.69130000  0.51760000  0.01060000  1.0 0.1103127961
H  H5  1  0.70140000  0.07080000  0.43920000  1.0 0.1208548053
H  H6  1  0.29860000  0.57080000  0.06080000  1.0 0.1208548053
H  H7  1  0.29860000  0.92920000  0.56080000  1.0 0.1208548053
H  H8  1  0.70140000  0.42920000  0.93920000  1.0 0.1208548053
H  H9  1  0.42620000  0.86490000  0.35820000  1.0 0.1271087903
H  H10  1  0.57380000  0.36490000  0.14180000  1.0 0.1271087903
H  H11  1  0.57380000  0.13510000  0.64180000  1.0 0.1271087903
H  H12  1  0.42620000  0.63510000  0.85820000  1.0 0.1271087903
H  H13  1  0.32270000  0.87610000  0.24010000  1.0 0.1103127961
H  H14  1  0.67730000  0.37610000  0.25990000  1.0 0.1103127961
H  H15  1  0.67730000  0.12390000  0.75990000  1.0 0.1103127961
H  H16  1  0.32270000  0.62390000  0.74010000  1.0 0.1103127961
H  H17  1  0.33390000  0.96600000  0.16630000  1.0 0.1015402413
H  H18  1  0.66610000  0.46600000  0.33370000  1.0 0.1015402413
H  H19  1  0.66610000  0.03400000  0.83370000  1.0 0.1015402413
H  H20  1  0.33390000  0.53400000  0.66630000  1.0 0.1015402413
H  H21  1  0.44990000  0.04260000  0.21710000  1.0 0.1208548053
H  H22  1  0.55010000  0.54260000  0.28290000  1.0 0.1208548053
H  H23  1  0.55010000  0.95740000  0.78290000  1.0 0.1208548053
H  H24  1  0.44990000  0.45740000  0.71710000  1.0 0.1208548053
H  H25  1  0.25780000  0.58180000  0.43710000  1.0 0.1103127961
H  H26  1  0.74220000  0.08180000  0.06290000  1.0 0.1103127961
H  H27  1  0.74220000  0.41820000  0.56290000  1.0 0.1103127961
H  H28  1  0.25780000  0.91820000  0.93710000  1.0 0.1103127961
H  H29  1  0.08980000  0.52490000  0.45240000  1.0 0.1015402413
H  H30  1  0.91020000  0.02490000  0.04760000  1.0 0.1015402413
H  H31  1  0.91020000  0.47510000  0.54760000  1.0 0.1015402413
H  H32  1  0.08980000  0.97510000  0.95240000  1.0 0.1015402413
H  H33  1  0.92680000  0.67240000  0.48870000  1.0 0.1208548053
H  H34  1  0.07320000  0.17240000  0.01130000  1.0 0.1208548053
H  H35  1  0.07320000  0.32760000  0.51130000  1.0 0.1208548053
H  H36  1  0.92680000  0.82760000  0.98870000  1.0 0.1208548053
H  H37  1  0.12100000  0.66630000  0.44840000  1.0 0.1208548053
H  H38  1  0.87900000  0.16630000  0.05160000  1.0 0.1208548053
H  H39  1  0.87900000  0.33370000  0.55160000  1.0 0.1208548053
H  H40  1  0.12100000  0.83370000  0.94840000  1.0 0.1208548053
H  H41  1  0.84150000  0.87280000  0.49880000  1.0 0.1208548053
H  H42  1  0.15850000  0.37280000  0.00120000  1.0 0.1208548053
H  H43  1  0.15850000  0.12720000  0.50120000  1.0 0.1208548053
H  H44  1  0.84150000  0.62720000  0.99880000  1.0 0.1208548053
H  H45  1  0.94180000  0.95810000  0.46600000  1.0 0.1015402413
H  H46  1  0.05820000  0.45810000  0.03400000  1.0 0.1015402413
H  H47  1  0.05820000  0.04190000  0.53400000  1.0 0.1015402413
H  H48  1  0.94180000  0.54190000  0.96600000  1.0 0.1015402413
H  H49  1  0.13540000  0.95290000  0.41950000  1.0 0.1103127961
H  H50  1  0.86460000  0.45290000  0.08050000  1.0 0.1103127961
H  H51  1  0.86460000  0.04710000  0.58050000  1.0 0.1103127961
H  H52  1  0.13540000  0.54710000  0.91950000  1.0 0.1103127961
H  H53  1  0.23050000  0.86340000  0.41220000  1.0 0.1208548053
H  H54  1  0.76950000  0.36340000  0.08780000  1.0 0.1208548053
H  H55  1  0.76950000  0.13660000  0.58780000  1.0 0.1208548053
H  H56  1  0.23050000  0.63660000  0.91220000  1.0 0.1208548053
H  H57  1  0.40160000  0.70630000  0.59760000  1.0 0.1103127961
H  H58  1  0.59840000  0.20630000  0.90240000  1.0 0.1015402413
H  H59  1  0.59840000  0.29370000  0.40240000  1.0 0.1103127961
H  H60  1  0.40160000  0.79370000  0.09760000  1.0 0.1103127961
H  H61  1  0.69510000  0.77860000  0.33180000  1.0 0.1015402413
H  H62  1  0.30490000  0.27860000  0.16820000  1.0 0.1015402413
H  H63  1  0.30490000  0.22140000  0.66820000  1.0 0.1015402413
H  H64  1  0.69510000  0.72140000  0.83180000  1.0 0.1015402413
H  H65  1  0.76390000  0.90570000  0.74750000  1.0 0.3554077114
H  H66  1  0.23610000  0.40570000  0.75250000  1.0 0.3554077114
H  H67  1  0.23610000  0.09430000  0.25250000  1.0 0.354858097
H  H68  1  0.76390000  0.59430000  0.24750000  1.0 0.3554077114
H  H69  1  0.82310000  0.89620000  0.67820000  1.0 0.3437276448
H  H70  1  0.17690000  0.39620000  0.82180000  1.0 0.3437276448
H  H71  1  0.17690000  0.10380000  0.32180000  1.0 0.3437276448
H  H72  1  0.82310000  0.60380000  0.17820000  1.0 0.3437276448
H  H73  1  0.70250000  0.60880000  0.46280000  1.0 0.1103127961
H  H74  1  0.29750000  0.10880000  0.03720000  1.0 0.1103127961
H  H75  1  0.29750000  0.39120000  0.53720000  1.0 0.1103127961
H  H76  1  0.70250000  0.89120000  0.96280000  1.0 0.1208548053
H  H77  1  0.90340000  0.57240000  0.48080000  1.0 0.1015402413
H  H78  1  0.09660000  0.07240000  0.01920000  1.0 0.1015402413
H  H79  1  0.09660000  0.42760000  0.51920000  1.0 0.1015402413
H  H80  1  0.90340000  0.92760000  0.98080000  1.0 0.1015402413
H  H81  1  0.91310000  0.78320000  0.71840000  1.0 0.1406002905
H  H82  1  0.98280000  0.80950000  0.79600000  1.0 0.1208548053
H  H83  1  0.93900000  0.74210000  0.79560000  1.0 0.1271087903
H  H84  1  0.05300000  0.77930000  0.62040000  1.0 0.1208548053
H  H85  1  0.15930000  0.73390000  0.63670000  1.0 0.1208548053
H  H86  1  0.17410000  0.80190000  0.66200000  1.0 0.1481963399
H  H87  1  0.13470000  0.76930000  0.76700000  1.0 0.2568206306
H  H88  1  0.07780000  0.71560000  0.73410000  1.0 0.2568206306
H  H89  1  0.08690000  0.28320000  0.78160000  1.0 0.1406002905
H  H90  1  0.01720000  0.30950000  0.70400000  1.0 0.1208548053
H  H91  1  0.06100000  0.24210000  0.70440000  1.0 0.1271087903
H  H92  1  0.94700000  0.27930000  0.87960000  1.0 0.1208548053
H  H93  1  0.84070000  0.23390000  0.86330000  1.0 0.1208548053
H  H94  1  0.82590000  0.30190000  0.83800000  1.0 0.1481963399
H  H95  1  0.86530000  0.26930000  0.73300000  1.0 0.2568206306
H  H96  1  0.92220000  0.21560000  0.76590000  1.0 0.2568206306
H  H97  1  0.08690000  0.21680000  0.28160000  1.0 0.1406002905
H  H98  1  0.01720000  0.19050000  0.20400000  1.0 0.1208548053
H  H99  1  0.06100000  0.25790000  0.20440000  1.0 0.1271087903
H  H100  1  0.94700000  0.22070000  0.37960000  1.0 0.1208548053
H  H101  1  0.84070000  0.26610000  0.36330000  1.0 0.1208548053
H  H102  1  0.82590000  0.19810000  0.33800000  1.0 0.1481963399
H  H103  1  0.86530000  0.23070000  0.23300000  1.0 0.2568206306
H  H104  1  0.92220000  0.28440000  0.26590000  1.0 0.2568206306
H  H105  1  0.91310000  0.71680000  0.21840000  1.0 0.1406002905
H  H106  1  0.98280000  0.69050000  0.29600000  1.0 0.1208548053
H  H107  1  0.93900000  0.75790000  0.29560000  1.0 0.1271087903
H  H108  1  0.05300000  0.72070000  0.12040000  1.0 0.1208548053
H  H109  1  0.15930000  0.76610000  0.13670000  1.0 0.1208548053
H  H110  1  0.17410000  0.69810000  0.16200000  1.0 0.1481963399
H  H111  1  0.13470000  0.73070000  0.26700000  1.0 0.2568206306
H  H112  1  0.07780000  0.78440000  0.23410000  1.0 0.2568206306
C  C1  1  0.58600000  0.88310000  0.48490000  1.0 0.6169607009
C  C2  1  0.41400000  0.38310000  0.01510000  1.0 0.6169607009
C  C3  1  0.41400000  0.11690000  0.51510000  1.0 0.6169607009
C  C4  1  0.58600000  0.61690000  0.98490000  1.0 0.6169607009
C  C5  1  0.57940000  0.94030000  0.43530000  1.0 -0.0715964415
C  C6  1  0.42060000  0.44030000  0.06470000  1.0 -0.0715964415
C  C7  1  0.42060000  0.05970000  0.56470000  1.0 -0.0715964415
C  C8  1  0.57940000  0.55970000  0.93530000  1.0 -0.0715964415
C  C9  1  0.64620000  0.98650000  0.46160000  1.0 -0.1101993785
C  C10  1  0.35380000  0.48650000  0.03840000  1.0 -0.1101993785
C  C11  1  0.35380000  0.01350000  0.53840000  1.0 -0.1101993785
C  C12  1  0.64620000  0.51350000  0.96160000  1.0 -0.1101993785
C  C13  1  0.65130000  0.03990000  0.41960000  1.0 -0.120330429
C  C14  1  0.34870000  0.53990000  0.08040000  1.0 -0.120330429
C  C15  1  0.34870000  0.96010000  0.58040000  1.0 -0.120330429
C  C16  1  0.65130000  0.46010000  0.91960000  1.0 -0.120330429
C  C17  1  0.58510000  0.04790000  0.35070000  1.0 -0.0385699912
C  C18  1  0.41490000  0.54790000  0.14930000  1.0 -0.0385699912
C  C19  1  0.41490000  0.95210000  0.64930000  1.0 -0.0385699912
C  C20  1  0.58510000  0.45210000  0.85070000  1.0 -0.0385699912
C  C21  1  0.51070000  0.00080000  0.31930000  1.0 0.061008815
C  C22  1  0.48930000  0.50080000  0.18070000  1.0 0.061008815
C  C23  1  0.48930000  0.99920000  0.68070000  1.0 0.061008815
C  C24  1  0.51070000  0.49920000  0.81930000  1.0 0.061008815
C  C25  1  0.50750000  0.94610000  0.36250000  1.0 0.061008815
C  C26  1  0.49250000  0.44610000  0.13750000  1.0 0.061008815
C  C27  1  0.49250000  0.05390000  0.63750000  1.0 0.061008815
C  C28  1  0.50750000  0.55390000  0.86250000  1.0 0.061008815
C  C29  1  0.43260000  0.90110000  0.32960000  1.0 -0.1394088551
C  C30  1  0.56740000  0.40110000  0.17040000  1.0 -0.1394088551
C  C31  1  0.56740000  0.09890000  0.67040000  1.0 -0.1394088551
C  C32  1  0.43260000  0.59890000  0.82960000  1.0 -0.1394088551
C  C33  1  0.37090000  0.90760000  0.26010000  1.0 -0.0974541955
C  C34  1  0.62910000  0.40760000  0.23990000  1.0 -0.0974541955
C  C35  1  0.62910000  0.09240000  0.73990000  1.0 -0.0974541955
C  C36  1  0.37090000  0.59240000  0.76010000  1.0 -0.0974541955
C  C37  1  0.37700000  0.96140000  0.21600000  1.0 -0.1101993785
C  C38  1  0.62300000  0.46140000  0.28400000  1.0 -0.1101993785
C  C39  1  0.62300000  0.03860000  0.78400000  1.0 -0.1101993785
C  C40  1  0.37700000  0.53860000  0.71600000  1.0 -0.1101993785
C  C41  1  0.44600000  0.00650000  0.24630000  1.0 -0.1394088551
C  C42  1  0.55400000  0.50650000  0.25370000  1.0 -0.1394088551
C  C43  1  0.55400000  0.99350000  0.75370000  1.0 -0.1394088551
C  C44  1  0.44600000  0.49350000  0.74630000  1.0 -0.1394088551
C  C45  1  0.58820000  0.10600000  0.30770000  1.0 0.5991286005
C  C46  1  0.41180000  0.60600000  0.19230000  1.0 0.5991286005
C  C47  1  0.41180000  0.89400000  0.69230000  1.0 0.5991286005
C  C48  1  0.58820000  0.39400000  0.80770000  1.0 0.5991286005
C  C49  1  0.47150000  0.62070000  0.43940000  1.0 0.6279475655
C  C50  1  0.52850000  0.12070000  0.06060000  1.0 0.6279475655
C  C51  1  0.52850000  0.37930000  0.56060000  1.0 0.6279475655
C  C52  1  0.47150000  0.87930000  0.93940000  1.0 0.6279475655
C  C53  1  0.59710000  0.53690000  0.49250000  1.0 0.0708663578
C  C54  1  0.40290000  0.03690000  0.00750000  1.0 0.0708663578
C  C55  1  0.40290000  0.46310000  0.50750000  1.0 0.0708663578
C  C56  1  0.59710000  0.96310000  0.99250000  1.0 0.0708663578
C  C57  1  0.48610000  0.55790000  0.47090000  1.0 -0.120330429
C  C58  1  0.51390000  0.05790000  0.02910000  1.0 -0.120330429
C  C59  1  0.51390000  0.44210000  0.52910000  1.0 -0.120330429
C  C60  1  0.48610000  0.94210000  0.97090000  1.0 -0.120330429
C  C61  1  0.38910000  0.52230000  0.47670000  1.0 0.061008815
C  C62  1  0.61090000  0.02230000  0.02330000  1.0 0.061008815
C  C63  1  0.61090000  0.47770000  0.52330000  1.0 0.061008815
C  C64  1  0.38910000  0.97770000  0.97670000  1.0 0.061008815
C  C65  1  0.26760000  0.54290000  0.45810000  1.0 -0.1306217756
C  C66  1  0.73240000  0.04290000  0.04190000  1.0 -0.1306217756
C  C67  1  0.73240000  0.45710000  0.54190000  1.0 -0.1306217756
C  C68  1  0.26760000  0.95710000  0.95810000  1.0 -0.1306217756
C  C69  1  0.16400000  0.50850000  0.46950000  1.0 -0.1101993785
C  C70  1  0.83600000  0.00850000  0.03050000  1.0 -0.1101993785
C  C71  1  0.83600000  0.49150000  0.53050000  1.0 -0.1101993785
C  C72  1  0.16400000  0.99150000  0.96950000  1.0 -0.1101993785
C  C73  1  0.79140000  0.76160000  0.52230000  1.0 0.6078299548
C  C74  1  0.20860000  0.26160000  0.97770000  1.0 0.6078299548
C  C75  1  0.20860000  0.23840000  0.47770000  1.0 0.6078299548
C  C76  1  0.79140000  0.73840000  0.02230000  1.0 0.6078299548
C  C77  1  0.91390000  0.75980000  0.49050000  1.0 -0.0715964415
C  C78  1  0.08610000  0.25980000  0.00950000  1.0 -0.0715964415
C  C79  1  0.08610000  0.24020000  0.50950000  1.0 -0.0715964415
C  C80  1  0.91390000  0.74020000  0.99050000  1.0 -0.0715964415
C  C81  1  0.96870000  0.70800000  0.47930000  1.0 -0.1101993785
C  C82  1  0.03130000  0.20800000  0.02070000  1.0 -0.1101993785
C  C83  1  0.03130000  0.29200000  0.52070000  1.0 -0.1101993785
C  C84  1  0.96870000  0.79200000  0.97930000  1.0 -0.1101993785
C  C85  1  0.08510000  0.70390000  0.45460000  1.0 -0.1394088551
C  C86  1  0.91490000  0.20390000  0.04540000  1.0 -0.1394088551
C  C87  1  0.91490000  0.29610000  0.54540000  1.0 -0.1394088551
C  C88  1  0.08510000  0.79610000  0.95460000  1.0 -0.1394088551
C  C89  1  0.14700000  0.75480000  0.43920000  1.0 -0.0715964415
C  C90  1  0.85300000  0.25480000  0.06080000  1.0 -0.0715964415
C  C91  1  0.85300000  0.24520000  0.56080000  1.0 -0.0715964415
C  C92  1  0.14700000  0.74520000  0.93920000  1.0 -0.0715964415
C  C93  1  0.09360000  0.81070000  0.44770000  1.0 0.0431888107
C  C94  1  0.90640000  0.31070000  0.05230000  1.0 0.0431888107
C  C95  1  0.90640000  0.18930000  0.55230000  1.0 0.0431888107
C  C96  1  0.09360000  0.68930000  0.94770000  1.0 0.0431888107
C  C97  1  0.97460000  0.81390000  0.47360000  1.0 0.049065322
C  C98  1  0.02540000  0.31390000  0.02640000  1.0 0.049065322
C  C99  1  0.02540000  0.18610000  0.52640000  1.0 0.049065322
C  C100  1  0.97460000  0.68610000  0.97360000  1.0 0.049065322
C  C101  1  0.91960000  0.87020000  0.48060000  1.0 -0.1468899489
C  C102  1  0.08040000  0.37020000  0.01940000  1.0 -0.1468899489
C  C103  1  0.08040000  0.12980000  0.51940000  1.0 -0.1468899489
C  C104  1  0.91960000  0.62980000  0.98060000  1.0 -0.1468899489
C  C105  1  0.97910000  0.92070000  0.46120000  1.0 -0.0974541955
C  C106  1  0.02090000  0.42070000  0.03880000  1.0 -0.0974541955
C  C107  1  0.02090000  0.07930000  0.53880000  1.0 -0.0974541955
C  C108  1  0.97910000  0.57930000  0.96120000  1.0 -0.0974541955
C  C109  1  0.09580000  0.91770000  0.43410000  1.0 -0.0974541955
C  C110  1  0.90420000  0.41770000  0.06590000  1.0 -0.0974541955
C  C111  1  0.90420000  0.08230000  0.56590000  1.0 -0.0974541955
C  C112  1  0.09580000  0.58230000  0.93410000  1.0 -0.0974541955
C  C113  1  0.15140000  0.86450000  0.42880000  1.0 -0.1468899489
C  C114  1  0.84860000  0.36450000  0.07120000  1.0 -0.1468899489
C  C115  1  0.84860000  0.13550000  0.57120000  1.0 -0.1468899489
C  C116  1  0.15140000  0.63550000  0.92880000  1.0 -0.1468899489
C  C117  1  0.26990000  0.74940000  0.40890000  1.0 0.6078299548
C  C118  1  0.73010000  0.24940000  0.09110000  1.0 0.6078299548
C  C119  1  0.73010000  0.25060000  0.59110000  1.0 0.6078299548
C  C120  1  0.26990000  0.75060000  0.90890000  1.0 0.6078299548
C  C121  1  0.43800000  0.73780000  0.62720000  1.0 0.5419348743
C  C122  1  0.56200000  0.23780000  0.87280000  1.0 0.5419348743
C  C123  1  0.56200000  0.26220000  0.37280000  1.0 0.5419348743
C  C124  1  0.43800000  0.76220000  0.12720000  1.0 0.5419348743
C  C125  1  0.64440000  0.75080000  0.30500000  1.0 0.5419348743
C  C126  1  0.35560000  0.25080000  0.19500000  1.0 0.5419348743
C  C127  1  0.35560000  0.24920000  0.69500000  1.0 0.5419348743
C  C128  1  0.64440000  0.74920000  0.80500000  1.0 0.5419348743
C  C129  1  0.71160000  0.56920000  0.48130000  1.0 -0.120330429
C  C130  1  0.28840000  0.06920000  0.01870000  1.0 -0.120330429
C  C131  1  0.28840000  0.43080000  0.51870000  1.0 -0.120330429
C  C132  1  0.71160000  0.93080000  0.98130000  1.0 -0.120330429
C  C133  1  0.83580000  0.55010000  0.49410000  1.0 -0.1553244625
C  C134  1  0.16420000  0.05010000  0.00590000  1.0 -0.1553244625
C  C135  1  0.16420000  0.44990000  0.50590000  1.0 -0.1553244625
C  C136  1  0.83580000  0.94990000  0.99410000  1.0 -0.1553244625
C  C137  1  0.96990000  0.77410000  0.76260000  1.0 -0.3021935855
C  C138  1  0.11880000  0.76870000  0.65750000  1.0 -0.245217431
C  C139  1  0.03010000  0.27410000  0.73740000  1.0 -0.3021935855
C  C140  1  0.88120000  0.26870000  0.84250000  1.0 -0.2446609919
C  C141  1  0.03010000  0.22590000  0.23740000  1.0 -0.3021935855
C  C142  1  0.88120000  0.23130000  0.34250000  1.0 -0.245217431
C  C143  1  0.96990000  0.72590000  0.26260000  1.0 -0.3021935855
C  C144  1  0.11880000  0.73130000  0.15750000  1.0 -0.245217431
N  N1  1  0.07740000  0.75630000  0.73060000  1.0 -0.0767425407
N  N2  1  0.92260000  0.25630000  0.76940000  1.0 -0.0767425407
N  N3  1  0.92260000  0.24370000  0.26940000  1.0 -0.0767425407
N  N4  1  0.07740000  0.74370000  0.23060000  1.0 -0.0767425407
O  O1  1  0.56660000  0.83580000  0.44780000  1.0 -0.6400631055
O  O2  1  0.43340000  0.33580000  0.05220000  1.0 -0.6400631055
O  O3  1  0.43340000  0.16420000  0.55220000  1.0 -0.6400631055
O  O4  1  0.56660000  0.66420000  0.94780000  1.0 -0.6400631055
O  O5  1  0.61550000  0.88760000  0.55710000  1.0 -0.6200718268
O  O6  1  0.38450000  0.38760000  0.94290000  1.0 -0.6200718268
O  O7  1  0.38450000  0.11240000  0.44290000  1.0 -0.6200718268
O  O8  1  0.61550000  0.61240000  0.05710000  1.0 -0.6200718268
O  O9  1  0.75960000  0.88240000  0.70340000  1.0 -0.7429289703
O  O10  1  0.24040000  0.38240000  0.79660000  1.0 -0.7429289703
O  O11  1  0.24040000  0.11760000  0.29660000  1.0 -0.7429289703
O  O12  1  0.75960000  0.61760000  0.20340000  1.0 -0.7429289703
O  O13  1  0.49200000  0.13380000  0.28990000  1.0 -0.7231428657
O  O14  1  0.50800000  0.63380000  0.21010000  1.0 -0.7231428657
O  O15  1  0.50800000  0.86620000  0.71010000  1.0 -0.7231428657
O  O16  1  0.49200000  0.36620000  0.78990000  1.0 -0.7231428657
O  O17  1  0.68510000  0.12670000  0.28650000  1.0 -0.5798811499
O  O18  1  0.31490000  0.62670000  0.21350000  1.0 -0.5798811499
O  O19  1  0.31490000  0.87330000  0.71350000  1.0 -0.5798811499
O  O20  1  0.68510000  0.37330000  0.78650000  1.0 -0.5798811499
O  O21  1  0.42190000  0.62680000  0.37220000  1.0 -0.6087534164
O  O22  1  0.57810000  0.12680000  0.12780000  1.0 -0.6087534164
O  O23  1  0.57810000  0.37320000  0.62780000  1.0 -0.6087534164
O  O24  1  0.42190000  0.87320000  0.87220000  1.0 -0.6087534164
O  O25  1  0.51350000  0.66080000  0.48360000  1.0 -0.6400631055
O  O26  1  0.48650000  0.16080000  0.01640000  1.0 -0.6400631055
O  O27  1  0.48650000  0.33920000  0.51640000  1.0 -0.6400631055
O  O28  1  0.51350000  0.83920000  0.98360000  1.0 -0.6400631055
O  O29  1  0.71430000  0.73350000  0.48220000  1.0 -0.6323102747
O  O30  1  0.28570000  0.23350000  0.01780000  1.0 -0.6323102747
O  O31  1  0.28570000  0.26650000  0.51780000  1.0 -0.6323102747
O  O32  1  0.71430000  0.76650000  0.98220000  1.0 -0.6323102747
O  O33  1  0.77760000  0.78890000  0.58580000  1.0 -0.6200718268
O  O34  1  0.22240000  0.28890000  0.91420000  1.0 -0.6200718268
O  O35  1  0.22240000  0.21110000  0.41420000  1.0 -0.6200718268
O  O36  1  0.77760000  0.71110000  0.08580000  1.0 -0.6200718268
O  O37  1  0.27570000  0.73070000  0.33750000  1.0 -0.6400631055
O  O38  1  0.72430000  0.23070000  0.16250000  1.0 -0.6400631055
O  O39  1  0.72430000  0.26930000  0.66250000  1.0 -0.6400631055
O  O40  1  0.27570000  0.76930000  0.83750000  1.0 -0.6400631055
O  O41  1  0.35470000  0.76240000  0.45450000  1.0 -0.6200718268
O  O42  1  0.64530000  0.26240000  0.04550000  1.0 -0.6200718268
O  O43  1  0.64530000  0.23760000  0.54550000  1.0 -0.6200718268
O  O44  1  0.35470000  0.73760000  0.95450000  1.0 -0.6200718268
O  O45  1  0.51730000  0.76520000  0.59230000  1.0 -0.6601282392
O  O46  1  0.48270000  0.26520000  0.90770000  1.0 -0.6601282392
O  O47  1  0.48270000  0.23480000  0.40770000  1.0 -0.6601282392
O  O48  1  0.51730000  0.73480000  0.09230000  1.0 -0.6601282392
O  O49  1  0.40080000  0.74680000  0.69610000  1.0 -0.593809012
O  O50  1  0.59920000  0.24680000  0.80390000  1.0 -0.593809012
O  O51  1  0.59920000  0.25320000  0.30390000  1.0 -0.593809012
O  O52  1  0.40080000  0.75320000  0.19610000  1.0 -0.593809012
O  O53  1  0.55290000  0.73500000  0.34170000  1.0 -0.6808865999
O  O54  1  0.44710000  0.23500000  0.15830000  1.0 -0.6808865999
O  O55  1  0.44710000  0.26500000  0.65830000  1.0 -0.6808865999
O  O56  1  0.55290000  0.76500000  0.84170000  1.0 -0.6808865999
O  O57  1  0.67290000  0.73360000  0.23890000  1.0 -0.5652616058
O  O58  1  0.32710000  0.23360000  0.26110000  1.0 -0.5652616058
O  O59  1  0.32710000  0.26640000  0.76110000  1.0 -0.5652616058
O  O60  1  0.67290000  0.76640000  0.73890000  1.0 -0.5652616058
