# DDEC6 charges by PACMAN v1.1 (https://github.com/mtap-research/PACMAN-charge/)
data_DOLWEI_ASR_pacman
_symmetry_space_group_name_H-M   'P 1'
_cell_length_a   24.75500000
_cell_length_b   24.75500000
_cell_length_c   24.75500000
_cell_angle_alpha   90.00000000
_cell_angle_beta   90.00000000
_cell_angle_gamma   90.00000000
_symmetry_Int_Tables_number   1
_chemical_formula_structural   CoH6C12(NO3)2
_chemical_formula_sum   'Co24 H144 C288 N48 O144'
_cell_volume   15170.11216887
_cell_formula_units_Z   24
loop_
 _symmetry_equiv_pos_site_id
 _symmetry_equiv_pos_as_xyz
  1  'x, y, z'
loop_
 _atom_site_type_symbol
 _atom_site_label
 _atom_site_symmetry_multiplicity
 _atom_site_fract_x
 _atom_site_fract_y
 _atom_site_fract_z
 _atom_site_occupancy
 _atom_site_charge
Co  Co1  1  0.41481000  0.21026000  0.20530000  1.0 0.788003326
Co  Co2  1  0.08519000  0.78974000  0.70530000  1.0 0.788003326
Co  Co3  1  0.58519000  0.71026000  0.29470000  1.0 0.788003326
Co  Co4  1  0.91481000  0.28974000  0.79470000  1.0 0.788003326
Co  Co5  1  0.20530000  0.41481000  0.21026000  1.0 0.788003326
Co  Co6  1  0.70530000  0.08519000  0.78974000  1.0 0.788003326
Co  Co7  1  0.29470000  0.58519000  0.71026000  1.0 0.788003326
Co  Co8  1  0.79470000  0.91481000  0.28974000  1.0 0.788003326
Co  Co9  1  0.21026000  0.20530000  0.41481000  1.0 0.788003326
Co  Co10  1  0.78974000  0.70530000  0.08519000  1.0 0.788003326
Co  Co11  1  0.71026000  0.29470000  0.58519000  1.0 0.788003326
Co  Co12  1  0.28974000  0.79470000  0.91481000  1.0 0.788003326
Co  Co13  1  0.58519000  0.78974000  0.79470000  1.0 0.788003326
Co  Co14  1  0.91481000  0.21026000  0.29470000  1.0 0.788003326
Co  Co15  1  0.41481000  0.28974000  0.70530000  1.0 0.788003326
Co  Co16  1  0.08519000  0.71026000  0.20530000  1.0 0.788003326
Co  Co17  1  0.79470000  0.58519000  0.78974000  1.0 0.788003326
Co  Co18  1  0.29470000  0.91481000  0.21026000  1.0 0.788003326
Co  Co19  1  0.70530000  0.41481000  0.28974000  1.0 0.788003326
Co  Co20  1  0.20530000  0.08519000  0.71026000  1.0 0.788003326
Co  Co21  1  0.78974000  0.79470000  0.58519000  1.0 0.788003326
Co  Co22  1  0.21026000  0.29470000  0.91481000  1.0 0.788003326
Co  Co23  1  0.28974000  0.70530000  0.41481000  1.0 0.788003326
Co  Co24  1  0.71026000  0.20530000  0.08519000  1.0 0.788003326
H  H1  1  0.34040000  0.21040000  0.30790000  1.0 0.1394119392
H  H2  1  0.15960000  0.78960000  0.80790000  1.0 0.1394119392
H  H3  1  0.65960000  0.71040000  0.19210000  1.0 0.1394119392
H  H4  1  0.84040000  0.28960000  0.69210000  1.0 0.1394119392
H  H5  1  0.30790000  0.34040000  0.21040000  1.0 0.1394119392
H  H6  1  0.80790000  0.15960000  0.78960000  1.0 0.1394119392
H  H7  1  0.19210000  0.65960000  0.71040000  1.0 0.1394119392
H  H8  1  0.69210000  0.84040000  0.28960000  1.0 0.1394119392
H  H9  1  0.21040000  0.30790000  0.34040000  1.0 0.1394119392
H  H10  1  0.78960000  0.80790000  0.15960000  1.0 0.1394119392
H  H11  1  0.71040000  0.19210000  0.65960000  1.0 0.1394119392
H  H12  1  0.28960000  0.69210000  0.84040000  1.0 0.1394119392
H  H13  1  0.65960000  0.78960000  0.69210000  1.0 0.1394119392
H  H14  1  0.84040000  0.21040000  0.19210000  1.0 0.1394119392
H  H15  1  0.34040000  0.28960000  0.80790000  1.0 0.1394119392
H  H16  1  0.15960000  0.71040000  0.30790000  1.0 0.1394119392
H  H17  1  0.69210000  0.65960000  0.78960000  1.0 0.1394119392
H  H18  1  0.19210000  0.84040000  0.21040000  1.0 0.1394119392
H  H19  1  0.80790000  0.34040000  0.28960000  1.0 0.1394119392
H  H20  1  0.30790000  0.15960000  0.71040000  1.0 0.1394119392
H  H21  1  0.78960000  0.69210000  0.65960000  1.0 0.1394119392
H  H22  1  0.21040000  0.19210000  0.84040000  1.0 0.1394119392
H  H23  1  0.28960000  0.80790000  0.34040000  1.0 0.1394119392
H  H24  1  0.71040000  0.30790000  0.15960000  1.0 0.1394119392
H  H25  1  0.43360000  0.20580000  0.43860000  1.0 0.1030389821
H  H26  1  0.06640000  0.79420000  0.93860000  1.0 0.1030389821
H  H27  1  0.56640000  0.70580000  0.06140000  1.0 0.1030389821
H  H28  1  0.93360000  0.29420000  0.56140000  1.0 0.1030389821
H  H29  1  0.43860000  0.43360000  0.20580000  1.0 0.1030389821
H  H30  1  0.93860000  0.06640000  0.79420000  1.0 0.1030389821
H  H31  1  0.06140000  0.56640000  0.70580000  1.0 0.1030389821
H  H32  1  0.56140000  0.93360000  0.29420000  1.0 0.1030389821
H  H33  1  0.20580000  0.43860000  0.43360000  1.0 0.1030389821
H  H34  1  0.79420000  0.93860000  0.06640000  1.0 0.1030389821
H  H35  1  0.70580000  0.06140000  0.56640000  1.0 0.1030389821
H  H36  1  0.29420000  0.56140000  0.93360000  1.0 0.1030389821
H  H37  1  0.56640000  0.79420000  0.56140000  1.0 0.1030389821
H  H38  1  0.93360000  0.20580000  0.06140000  1.0 0.1030389821
H  H39  1  0.43360000  0.29420000  0.93860000  1.0 0.1030389821
H  H40  1  0.06640000  0.70580000  0.43860000  1.0 0.1030389821
H  H41  1  0.56140000  0.56640000  0.79420000  1.0 0.1030389821
H  H42  1  0.06140000  0.93360000  0.20580000  1.0 0.1030389821
H  H43  1  0.93860000  0.43360000  0.29420000  1.0 0.1030389821
H  H44  1  0.43860000  0.06640000  0.70580000  1.0 0.1030389821
H  H45  1  0.79420000  0.56140000  0.56640000  1.0 0.1030389821
H  H46  1  0.20580000  0.06140000  0.93360000  1.0 0.1030389821
H  H47  1  0.29420000  0.93860000  0.43360000  1.0 0.1030389821
H  H48  1  0.70580000  0.43860000  0.06640000  1.0 0.1030389821
H  H49  1  0.50880000  0.20230000  0.38210000  1.0 0.1394119392
H  H50  1  0.99120000  0.79770000  0.88210000  1.0 0.1394119392
H  H51  1  0.49120000  0.70230000  0.11790000  1.0 0.1394119392
H  H52  1  0.00880000  0.29770000  0.61790000  1.0 0.1394119392
H  H53  1  0.38210000  0.50880000  0.20230000  1.0 0.1394119392
H  H54  1  0.88210000  0.99120000  0.79770000  1.0 0.1394119392
H  H55  1  0.11790000  0.49120000  0.70230000  1.0 0.1394119392
H  H56  1  0.61790000  0.00880000  0.29770000  1.0 0.1394119392
H  H57  1  0.20230000  0.38210000  0.50880000  1.0 0.1394119392
H  H58  1  0.79770000  0.88210000  0.99120000  1.0 0.1394119392
H  H59  1  0.70230000  0.11790000  0.49120000  1.0 0.1394119392
H  H60  1  0.29770000  0.61790000  0.00880000  1.0 0.1394119392
H  H61  1  0.49120000  0.79770000  0.61790000  1.0 0.1394119392
H  H62  1  0.00880000  0.20230000  0.11790000  1.0 0.1394119392
H  H63  1  0.50880000  0.29770000  0.88210000  1.0 0.1394119392
H  H64  1  0.99120000  0.70230000  0.38210000  1.0 0.1394119392
H  H65  1  0.61790000  0.49120000  0.79770000  1.0 0.1394119392
H  H66  1  0.11790000  0.00880000  0.20230000  1.0 0.1394119392
H  H67  1  0.88210000  0.50880000  0.29770000  1.0 0.1394119392
H  H68  1  0.38210000  0.99120000  0.70230000  1.0 0.1394119392
H  H69  1  0.79770000  0.61790000  0.49120000  1.0 0.1394119392
H  H70  1  0.20230000  0.11790000  0.00880000  1.0 0.1394119392
H  H71  1  0.29770000  0.88210000  0.50880000  1.0 0.1394119392
H  H72  1  0.70230000  0.38210000  0.99120000  1.0 0.1394119392
H  H73  1  0.57520000  0.19760000  0.32470000  1.0 0.1304935644
H  H74  1  0.92480000  0.80240000  0.82470000  1.0 0.1304935644
H  H75  1  0.42480000  0.69760000  0.17530000  1.0 0.1304935644
H  H76  1  0.07520000  0.30240000  0.67530000  1.0 0.1304935644
H  H77  1  0.32470000  0.57520000  0.19760000  1.0 0.1304935644
H  H78  1  0.82470000  0.92480000  0.80240000  1.0 0.1304935644
H  H79  1  0.17530000  0.42480000  0.69760000  1.0 0.1304935644
H  H80  1  0.67530000  0.07520000  0.30240000  1.0 0.1304935644
H  H81  1  0.19760000  0.32470000  0.57520000  1.0 0.1304935644
H  H82  1  0.80240000  0.82470000  0.92480000  1.0 0.1304935644
H  H83  1  0.69760000  0.17530000  0.42480000  1.0 0.1304935644
H  H84  1  0.30240000  0.67530000  0.07520000  1.0 0.1304935644
H  H85  1  0.42480000  0.80240000  0.67530000  1.0 0.1304935644
H  H86  1  0.07520000  0.19760000  0.17530000  1.0 0.1304935644
H  H87  1  0.57520000  0.30240000  0.82470000  1.0 0.1304935644
H  H88  1  0.92480000  0.69760000  0.32470000  1.0 0.1304935644
H  H89  1  0.67530000  0.42480000  0.80240000  1.0 0.1304935644
H  H90  1  0.17530000  0.07520000  0.19760000  1.0 0.1304935644
H  H91  1  0.82470000  0.57520000  0.30240000  1.0 0.1304935644
H  H92  1  0.32470000  0.92480000  0.69760000  1.0 0.1304935644
H  H93  1  0.80240000  0.67530000  0.42480000  1.0 0.1304935644
H  H94  1  0.19760000  0.17530000  0.07520000  1.0 0.1304935644
H  H95  1  0.30240000  0.82470000  0.57520000  1.0 0.1304935644
H  H96  1  0.69760000  0.32470000  0.92480000  1.0 0.1304935644
H  H97  1  0.64090000  0.19700000  0.25950000  1.0 0.1304935644
H  H98  1  0.85910000  0.80300000  0.75950000  1.0 0.1304935644
H  H99  1  0.35910000  0.69700000  0.24050000  1.0 0.1304935644
H  H100  1  0.14090000  0.30300000  0.74050000  1.0 0.1304935644
H  H101  1  0.25950000  0.64090000  0.19700000  1.0 0.1304935644
H  H102  1  0.75950000  0.85910000  0.80300000  1.0 0.1304935644
H  H103  1  0.24050000  0.35910000  0.69700000  1.0 0.1304935644
H  H104  1  0.74050000  0.14090000  0.30300000  1.0 0.1304935644
H  H105  1  0.19700000  0.25950000  0.64090000  1.0 0.1304935644
H  H106  1  0.80300000  0.75950000  0.85910000  1.0 0.1304935644
H  H107  1  0.69700000  0.24050000  0.35910000  1.0 0.1304935644
H  H108  1  0.30300000  0.74050000  0.14090000  1.0 0.1304935644
H  H109  1  0.35910000  0.80300000  0.74050000  1.0 0.1304935644
H  H110  1  0.14090000  0.19700000  0.24050000  1.0 0.1304935644
H  H111  1  0.64090000  0.30300000  0.75950000  1.0 0.1304935644
H  H112  1  0.85910000  0.69700000  0.25950000  1.0 0.1304935644
H  H113  1  0.74050000  0.35910000  0.80300000  1.0 0.1304935644
H  H114  1  0.24050000  0.14090000  0.19700000  1.0 0.1304935644
H  H115  1  0.75950000  0.64090000  0.30300000  1.0 0.1304935644
H  H116  1  0.25950000  0.85910000  0.69700000  1.0 0.1304935644
H  H117  1  0.80300000  0.74050000  0.35910000  1.0 0.1304935644
H  H118  1  0.19700000  0.24050000  0.14090000  1.0 0.1304935644
H  H119  1  0.30300000  0.75950000  0.64090000  1.0 0.1304935644
H  H120  1  0.69700000  0.25950000  0.85910000  1.0 0.1304935644
H  H121  1  0.52580000  0.20930000  0.14790000  1.0 0.1304935644
H  H122  1  0.97420000  0.79070000  0.64790000  1.0 0.1304935644
H  H123  1  0.47420000  0.70930000  0.35210000  1.0 0.1304935644
H  H124  1  0.02580000  0.29070000  0.85210000  1.0 0.1304935644
H  H125  1  0.14790000  0.52580000  0.20930000  1.0 0.1304935644
H  H126  1  0.64790000  0.97420000  0.79070000  1.0 0.1304935644
H  H127  1  0.35210000  0.47420000  0.70930000  1.0 0.1304935644
H  H128  1  0.85210000  0.02580000  0.29070000  1.0 0.1304935644
H  H129  1  0.20930000  0.14790000  0.52580000  1.0 0.1304935644
H  H130  1  0.79070000  0.64790000  0.97420000  1.0 0.1304935644
H  H131  1  0.70930000  0.35210000  0.47420000  1.0 0.1304935644
H  H132  1  0.29070000  0.85210000  0.02580000  1.0 0.1304935644
H  H133  1  0.47420000  0.79070000  0.85210000  1.0 0.1304935644
H  H134  1  0.02580000  0.20930000  0.35210000  1.0 0.1304935644
H  H135  1  0.52580000  0.29070000  0.64790000  1.0 0.1304935644
H  H136  1  0.97420000  0.70930000  0.14790000  1.0 0.1304935644
H  H137  1  0.85210000  0.47420000  0.79070000  1.0 0.1304935644
H  H138  1  0.35210000  0.02580000  0.20930000  1.0 0.1304935644
H  H139  1  0.64790000  0.52580000  0.29070000  1.0 0.1304935644
H  H140  1  0.14790000  0.97420000  0.70930000  1.0 0.1304935644
H  H141  1  0.79070000  0.85210000  0.47420000  1.0 0.1304935644
H  H142  1  0.20930000  0.35210000  0.02580000  1.0 0.1304935644
H  H143  1  0.29070000  0.64790000  0.52580000  1.0 0.1304935644
H  H144  1  0.70930000  0.14790000  0.97420000  1.0 0.1304935644
C  C1  1  0.37460000  0.20960000  0.32350000  1.0 0.1030389821
C  C2  1  0.12540000  0.79040000  0.82350000  1.0 0.1030389821
C  C3  1  0.62540000  0.70960000  0.17650000  1.0 0.1030389821
C  C4  1  0.87460000  0.29040000  0.67650000  1.0 0.1030389821
C  C5  1  0.32350000  0.37460000  0.20960000  1.0 0.1030389821
C  C6  1  0.82350000  0.12540000  0.79040000  1.0 0.1030389821
C  C7  1  0.17650000  0.62540000  0.70960000  1.0 0.1030389821
C  C8  1  0.67650000  0.87460000  0.29040000  1.0 0.1030389821
C  C9  1  0.20960000  0.32350000  0.37460000  1.0 0.1030389821
C  C10  1  0.79040000  0.82350000  0.12540000  1.0 0.1030389821
C  C11  1  0.70960000  0.17650000  0.62540000  1.0 0.1030389821
C  C12  1  0.29040000  0.67650000  0.87460000  1.0 0.1030389821
C  C13  1  0.62540000  0.79040000  0.67650000  1.0 0.1030389821
C  C14  1  0.87460000  0.20960000  0.17650000  1.0 0.1030389821
C  C15  1  0.37460000  0.29040000  0.82350000  1.0 0.1030389821
C  C16  1  0.12540000  0.70960000  0.32350000  1.0 0.1030389821
C  C17  1  0.67650000  0.62540000  0.79040000  1.0 0.1030389821
C  C18  1  0.17650000  0.87460000  0.20960000  1.0 0.1030389821
C  C19  1  0.82350000  0.37460000  0.29040000  1.0 0.1030389821
C  C20  1  0.32350000  0.12540000  0.70960000  1.0 0.1030389821
C  C21  1  0.79040000  0.67650000  0.62540000  1.0 0.1030389821
C  C22  1  0.20960000  0.17650000  0.87460000  1.0 0.1030389821
C  C23  1  0.29040000  0.82350000  0.37460000  1.0 0.1030389821
C  C24  1  0.70960000  0.32350000  0.12540000  1.0 0.1030389821
C  C25  1  0.37790000  0.21000000  0.37860000  1.0 -0.0867951662
C  C26  1  0.12210000  0.79000000  0.87860000  1.0 -0.0867951662
C  C27  1  0.62210000  0.71000000  0.12140000  1.0 -0.0867951662
C  C28  1  0.87790000  0.29000000  0.62140000  1.0 -0.0867951662
C  C29  1  0.37860000  0.37790000  0.21000000  1.0 -0.0867951662
C  C30  1  0.87860000  0.12210000  0.79000000  1.0 -0.0867951662
C  C31  1  0.12140000  0.62210000  0.71000000  1.0 -0.0867951662
C  C32  1  0.62140000  0.87790000  0.29000000  1.0 -0.0867951662
C  C33  1  0.21000000  0.37860000  0.37790000  1.0 -0.0867951662
C  C34  1  0.79000000  0.87860000  0.12210000  1.0 -0.0867951662
C  C35  1  0.71000000  0.12140000  0.62210000  1.0 -0.0867951662
C  C36  1  0.29000000  0.62140000  0.87790000  1.0 -0.0867951662
C  C37  1  0.62210000  0.79000000  0.62140000  1.0 -0.0867951662
C  C38  1  0.87790000  0.21000000  0.12140000  1.0 -0.0867951662
C  C39  1  0.37790000  0.29000000  0.87860000  1.0 -0.0867951662
C  C40  1  0.12210000  0.71000000  0.37860000  1.0 -0.0867951662
C  C41  1  0.62140000  0.62210000  0.79000000  1.0 -0.0867951662
C  C42  1  0.12140000  0.87790000  0.21000000  1.0 -0.0867951662
C  C43  1  0.87860000  0.37790000  0.29000000  1.0 -0.0867951662
C  C44  1  0.37860000  0.12210000  0.71000000  1.0 -0.0867951662
C  C45  1  0.79000000  0.62140000  0.62210000  1.0 -0.0867951662
C  C46  1  0.21000000  0.12140000  0.87790000  1.0 -0.0867951662
C  C47  1  0.29000000  0.87860000  0.37790000  1.0 -0.0867951662
C  C48  1  0.71000000  0.37860000  0.12210000  1.0 -0.0867951662
C  C49  1  0.42930000  0.20660000  0.40130000  1.0 -0.0273854447
C  C50  1  0.07070000  0.79340000  0.90130000  1.0 -0.0273854447
C  C51  1  0.57070000  0.70660000  0.09870000  1.0 -0.0273854447
C  C52  1  0.92930000  0.29340000  0.59870000  1.0 -0.0273854447
C  C53  1  0.40130000  0.42930000  0.20660000  1.0 -0.0273854447
C  C54  1  0.90130000  0.07070000  0.79340000  1.0 -0.0273854447
C  C55  1  0.09870000  0.57070000  0.70660000  1.0 -0.0273854447
C  C56  1  0.59870000  0.92930000  0.29340000  1.0 -0.0273854447
C  C57  1  0.20660000  0.40130000  0.42930000  1.0 -0.0273854447
C  C58  1  0.79340000  0.90130000  0.07070000  1.0 -0.0273854447
C  C59  1  0.70660000  0.09870000  0.57070000  1.0 -0.0273854447
C  C60  1  0.29340000  0.59870000  0.92930000  1.0 -0.0273854447
C  C61  1  0.57070000  0.79340000  0.59870000  1.0 -0.0273854447
C  C62  1  0.92930000  0.20660000  0.09870000  1.0 -0.0273854447
C  C63  1  0.42930000  0.29340000  0.90130000  1.0 -0.0273854447
C  C64  1  0.07070000  0.70660000  0.40130000  1.0 -0.0273854447
C  C65  1  0.59870000  0.57070000  0.79340000  1.0 -0.0273854447
C  C66  1  0.09870000  0.92930000  0.20660000  1.0 -0.0273854447
C  C67  1  0.90130000  0.42930000  0.29340000  1.0 -0.0273854447
C  C68  1  0.40130000  0.07070000  0.70660000  1.0 -0.0273854447
C  C69  1  0.79340000  0.59870000  0.57070000  1.0 -0.0273854447
C  C70  1  0.20660000  0.09870000  0.92930000  1.0 -0.0273854447
C  C71  1  0.29340000  0.90130000  0.42930000  1.0 -0.0273854447
C  C72  1  0.70660000  0.40130000  0.07070000  1.0 -0.0273854447
C  C73  1  0.47430000  0.20450000  0.36740000  1.0 -0.1616874704
C  C74  1  0.02570000  0.79550000  0.86740000  1.0 -0.1616874704
C  C75  1  0.52570000  0.70450000  0.13260000  1.0 -0.1616874704
C  C76  1  0.97430000  0.29550000  0.63260000  1.0 -0.1616874704
C  C77  1  0.36740000  0.47430000  0.20450000  1.0 -0.1616874704
C  C78  1  0.86740000  0.02570000  0.79550000  1.0 -0.1616874704
C  C79  1  0.13260000  0.52570000  0.70450000  1.0 -0.1616874704
C  C80  1  0.63260000  0.97430000  0.29550000  1.0 -0.1616874704
C  C81  1  0.20450000  0.36740000  0.47430000  1.0 -0.1616874704
C  C82  1  0.79550000  0.86740000  0.02570000  1.0 -0.1616874704
C  C83  1  0.70450000  0.13260000  0.52570000  1.0 -0.1616874704
C  C84  1  0.29550000  0.63260000  0.97430000  1.0 -0.1616874704
C  C85  1  0.52570000  0.79550000  0.63260000  1.0 -0.1616874704
C  C86  1  0.97430000  0.20450000  0.13260000  1.0 -0.1616874704
C  C87  1  0.47430000  0.29550000  0.86740000  1.0 -0.1616874704
C  C88  1  0.02570000  0.70450000  0.36740000  1.0 -0.1616874704
C  C89  1  0.63260000  0.52570000  0.79550000  1.0 -0.1616874704
C  C90  1  0.13260000  0.97430000  0.20450000  1.0 -0.1616874704
C  C91  1  0.86740000  0.47430000  0.29550000  1.0 -0.1616874704
C  C92  1  0.36740000  0.02570000  0.70450000  1.0 -0.1616874704
C  C93  1  0.79550000  0.63260000  0.52570000  1.0 -0.1616874704
C  C94  1  0.20450000  0.13260000  0.97430000  1.0 -0.1616874704
C  C95  1  0.29550000  0.86740000  0.47430000  1.0 -0.1616874704
C  C96  1  0.70450000  0.36740000  0.02570000  1.0 -0.1616874704
C  C97  1  0.46760000  0.20590000  0.31220000  1.0 0.1808651176
C  C98  1  0.03240000  0.79410000  0.81220000  1.0 0.1808651176
C  C99  1  0.53240000  0.70590000  0.18780000  1.0 0.1808651176
C  C100  1  0.96760000  0.29410000  0.68780000  1.0 0.1808651176
C  C101  1  0.31220000  0.46760000  0.20590000  1.0 0.1808651176
C  C102  1  0.81220000  0.03240000  0.79410000  1.0 0.1808651176
C  C103  1  0.18780000  0.53240000  0.70590000  1.0 0.1808651176
C  C104  1  0.68780000  0.96760000  0.29410000  1.0 0.1808651176
C  C105  1  0.20590000  0.31220000  0.46760000  1.0 0.1808651176
C  C106  1  0.79410000  0.81220000  0.03240000  1.0 0.1808651176
C  C107  1  0.70590000  0.18780000  0.53240000  1.0 0.1808651176
C  C108  1  0.29410000  0.68780000  0.96760000  1.0 0.1808651176
C  C109  1  0.53240000  0.79410000  0.68780000  1.0 0.1808651176
C  C110  1  0.96760000  0.20590000  0.18780000  1.0 0.1808651176
C  C111  1  0.46760000  0.29410000  0.81220000  1.0 0.1808651176
C  C112  1  0.03240000  0.70590000  0.31220000  1.0 0.1808651176
C  C113  1  0.68780000  0.53240000  0.79410000  1.0 0.1808651176
C  C114  1  0.18780000  0.96760000  0.20590000  1.0 0.1808651176
C  C115  1  0.81220000  0.46760000  0.29410000  1.0 0.1808651176
C  C116  1  0.31220000  0.03240000  0.70590000  1.0 0.1808651176
C  C117  1  0.79410000  0.68780000  0.53240000  1.0 0.1808651176
C  C118  1  0.20590000  0.18780000  0.96760000  1.0 0.1808651176
C  C119  1  0.29410000  0.81220000  0.46760000  1.0 0.1808651176
C  C120  1  0.70590000  0.31220000  0.03240000  1.0 0.1808651176
C  C121  1  0.51280000  0.20380000  0.27330000  1.0 0.1808651176
C  C122  1  0.98720000  0.79620000  0.77330000  1.0 0.1808651176
C  C123  1  0.48720000  0.70380000  0.22670000  1.0 0.1808651176
C  C124  1  0.01280000  0.29620000  0.72670000  1.0 0.1808651176
C  C125  1  0.27330000  0.51280000  0.20380000  1.0 0.1808651176
C  C126  1  0.77330000  0.98720000  0.79620000  1.0 0.1808651176
C  C127  1  0.22670000  0.48720000  0.70380000  1.0 0.1808651176
C  C128  1  0.72670000  0.01280000  0.29620000  1.0 0.1808651176
C  C129  1  0.20380000  0.27330000  0.51280000  1.0 0.1808651176
C  C130  1  0.79620000  0.77330000  0.98720000  1.0 0.1808651176
C  C131  1  0.70380000  0.22670000  0.48720000  1.0 0.1808651176
C  C132  1  0.29620000  0.72670000  0.01280000  1.0 0.1808651176
C  C133  1  0.48720000  0.79620000  0.72670000  1.0 0.1808651176
C  C134  1  0.01280000  0.20380000  0.22670000  1.0 0.1808651176
C  C135  1  0.51280000  0.29620000  0.77330000  1.0 0.1808651176
C  C136  1  0.98720000  0.70380000  0.27330000  1.0 0.1808651176
C  C137  1  0.72670000  0.48720000  0.79620000  1.0 0.1808651176
C  C138  1  0.22670000  0.01280000  0.20380000  1.0 0.1808651176
C  C139  1  0.77330000  0.51280000  0.29620000  1.0 0.1808651176
C  C140  1  0.27330000  0.98720000  0.70380000  1.0 0.1808651176
C  C141  1  0.79620000  0.72670000  0.48720000  1.0 0.1808651176
C  C142  1  0.20380000  0.22670000  0.01280000  1.0 0.1808651176
C  C143  1  0.29620000  0.77330000  0.51280000  1.0 0.1808651176
C  C144  1  0.70380000  0.27330000  0.98720000  1.0 0.1808651176
C  C145  1  0.56590000  0.20000000  0.28840000  1.0 -0.1672651396
C  C146  1  0.93410000  0.80000000  0.78840000  1.0 -0.1672651396
C  C147  1  0.43410000  0.70000000  0.21160000  1.0 -0.1672651396
C  C148  1  0.06590000  0.30000000  0.71160000  1.0 -0.1672651396
C  C149  1  0.28840000  0.56590000  0.20000000  1.0 -0.1672651396
C  C150  1  0.78840000  0.93410000  0.80000000  1.0 -0.1672651396
C  C151  1  0.21160000  0.43410000  0.70000000  1.0 -0.1672651396
C  C152  1  0.71160000  0.06590000  0.30000000  1.0 -0.1672651396
C  C153  1  0.20000000  0.28840000  0.56590000  1.0 -0.1672651396
C  C154  1  0.80000000  0.78840000  0.93410000  1.0 -0.1672651396
C  C155  1  0.70000000  0.21160000  0.43410000  1.0 -0.1672651396
C  C156  1  0.30000000  0.71160000  0.06590000  1.0 -0.1672651396
C  C157  1  0.43410000  0.80000000  0.71160000  1.0 -0.1672651396
C  C158  1  0.06590000  0.20000000  0.21160000  1.0 -0.1672651396
C  C159  1  0.56590000  0.30000000  0.78840000  1.0 -0.1672651396
C  C160  1  0.93410000  0.70000000  0.28840000  1.0 -0.1672651396
C  C161  1  0.71160000  0.43410000  0.80000000  1.0 -0.1672651396
C  C162  1  0.21160000  0.06590000  0.20000000  1.0 -0.1672651396
C  C163  1  0.78840000  0.56590000  0.30000000  1.0 -0.1672651396
C  C164  1  0.28840000  0.93410000  0.70000000  1.0 -0.1672651396
C  C165  1  0.80000000  0.71160000  0.43410000  1.0 -0.1672651396
C  C166  1  0.20000000  0.21160000  0.06590000  1.0 -0.1672651396
C  C167  1  0.30000000  0.78840000  0.56590000  1.0 -0.1672651396
C  C168  1  0.70000000  0.28840000  0.93410000  1.0 -0.1672651396
C  C169  1  0.60470000  0.19960000  0.24970000  1.0 -0.0477022551
C  C170  1  0.89530000  0.80040000  0.74970000  1.0 -0.0477022551
C  C171  1  0.39530000  0.69960000  0.25030000  1.0 -0.0477022551
C  C172  1  0.10470000  0.30040000  0.75030000  1.0 -0.0477022551
C  C173  1  0.24970000  0.60470000  0.19960000  1.0 -0.0477022551
C  C174  1  0.74970000  0.89530000  0.80040000  1.0 -0.0477022551
C  C175  1  0.25030000  0.39530000  0.69960000  1.0 -0.0477022551
C  C176  1  0.75030000  0.10470000  0.30040000  1.0 -0.0477022551
C  C177  1  0.19960000  0.24970000  0.60470000  1.0 -0.0477022551
C  C178  1  0.80040000  0.74970000  0.89530000  1.0 -0.0477022551
C  C179  1  0.69960000  0.25030000  0.39530000  1.0 -0.0477022551
C  C180  1  0.30040000  0.75030000  0.10470000  1.0 -0.0477022551
C  C181  1  0.39530000  0.80040000  0.75030000  1.0 -0.0477022551
C  C182  1  0.10470000  0.19960000  0.25030000  1.0 -0.0477022551
C  C183  1  0.60470000  0.30040000  0.74970000  1.0 -0.0477022551
C  C184  1  0.89530000  0.69960000  0.24970000  1.0 -0.0477022551
C  C185  1  0.75030000  0.39530000  0.80040000  1.0 -0.0477022551
C  C186  1  0.25030000  0.10470000  0.19960000  1.0 -0.0477022551
C  C187  1  0.74970000  0.60470000  0.30040000  1.0 -0.0477022551
C  C188  1  0.24970000  0.89530000  0.69960000  1.0 -0.0477022551
C  C189  1  0.80040000  0.75030000  0.39530000  1.0 -0.0477022551
C  C190  1  0.19960000  0.25030000  0.10470000  1.0 -0.0477022551
C  C191  1  0.30040000  0.74970000  0.60470000  1.0 -0.0477022551
C  C192  1  0.69960000  0.24970000  0.89530000  1.0 -0.0477022551
C  C193  1  0.59090000  0.20300000  0.19640000  1.0 -0.0405818094
C  C194  1  0.90910000  0.79700000  0.69640000  1.0 -0.0405818094
C  C195  1  0.40910000  0.70300000  0.30360000  1.0 -0.0405818094
C  C196  1  0.09090000  0.29700000  0.80360000  1.0 -0.0405818094
C  C197  1  0.19640000  0.59090000  0.20300000  1.0 -0.0405818094
C  C198  1  0.69640000  0.90910000  0.79700000  1.0 -0.0405818094
C  C199  1  0.30360000  0.40910000  0.70300000  1.0 -0.0405818094
C  C200  1  0.80360000  0.09090000  0.29700000  1.0 -0.0405818094
C  C201  1  0.20300000  0.19640000  0.59090000  1.0 -0.0405818094
C  C202  1  0.79700000  0.69640000  0.90910000  1.0 -0.0405818094
C  C203  1  0.70300000  0.30360000  0.40910000  1.0 -0.0405818094
C  C204  1  0.29700000  0.80360000  0.09090000  1.0 -0.0405818094
C  C205  1  0.40910000  0.79700000  0.80360000  1.0 -0.0405818094
C  C206  1  0.09090000  0.20300000  0.30360000  1.0 -0.0405818094
C  C207  1  0.59090000  0.29700000  0.69640000  1.0 -0.0405818094
C  C208  1  0.90910000  0.70300000  0.19640000  1.0 -0.0405818094
C  C209  1  0.80360000  0.40910000  0.79700000  1.0 -0.0405818094
C  C210  1  0.30360000  0.09090000  0.20300000  1.0 -0.0405818094
C  C211  1  0.69640000  0.59090000  0.29700000  1.0 -0.0405818094
C  C212  1  0.19640000  0.90910000  0.70300000  1.0 -0.0405818094
C  C213  1  0.79700000  0.80360000  0.40910000  1.0 -0.0405818094
C  C214  1  0.20300000  0.30360000  0.09090000  1.0 -0.0405818094
C  C215  1  0.29700000  0.69640000  0.59090000  1.0 -0.0405818094
C  C216  1  0.70300000  0.19640000  0.90910000  1.0 -0.0405818094
C  C217  1  0.53600000  0.20670000  0.18400000  1.0 0.0884049813
C  C218  1  0.96400000  0.79330000  0.68400000  1.0 0.0884049813
C  C219  1  0.46400000  0.70670000  0.31600000  1.0 0.0884049813
C  C220  1  0.03600000  0.29330000  0.81600000  1.0 0.0884049813
C  C221  1  0.18400000  0.53600000  0.20670000  1.0 0.0884049813
C  C222  1  0.68400000  0.96400000  0.79330000  1.0 0.0884049813
C  C223  1  0.31600000  0.46400000  0.70670000  1.0 0.0884049813
C  C224  1  0.81600000  0.03600000  0.29330000  1.0 0.0884049813
C  C225  1  0.20670000  0.18400000  0.53600000  1.0 0.0884049813
C  C226  1  0.79330000  0.68400000  0.96400000  1.0 0.0884049813
C  C227  1  0.70670000  0.31600000  0.46400000  1.0 0.0884049813
C  C228  1  0.29330000  0.81600000  0.03600000  1.0 0.0884049813
C  C229  1  0.46400000  0.79330000  0.81600000  1.0 0.0884049813
C  C230  1  0.03600000  0.20670000  0.31600000  1.0 0.0884049813
C  C231  1  0.53600000  0.29330000  0.68400000  1.0 0.0884049813
C  C232  1  0.96400000  0.70670000  0.18400000  1.0 0.0884049813
C  C233  1  0.81600000  0.46400000  0.79330000  1.0 0.0884049813
C  C234  1  0.31600000  0.03600000  0.20670000  1.0 0.0884049813
C  C235  1  0.68400000  0.53600000  0.29330000  1.0 0.0884049813
C  C236  1  0.18400000  0.96400000  0.70670000  1.0 0.0884049813
C  C237  1  0.79330000  0.81600000  0.46400000  1.0 0.0884049813
C  C238  1  0.20670000  0.31600000  0.03600000  1.0 0.0884049813
C  C239  1  0.29330000  0.68400000  0.53600000  1.0 0.0884049813
C  C240  1  0.70670000  0.18400000  0.96400000  1.0 0.0884049813
C  C241  1  0.32870000  0.21190000  0.41320000  1.0 0.4379947117
C  C242  1  0.17130000  0.78810000  0.91320000  1.0 0.4379947117
C  C243  1  0.67130000  0.71190000  0.08680000  1.0 0.4379947117
C  C244  1  0.82870000  0.28810000  0.58680000  1.0 0.4379947117
C  C245  1  0.41320000  0.32870000  0.21190000  1.0 0.4379947117
C  C246  1  0.91320000  0.17130000  0.78810000  1.0 0.4379947117
C  C247  1  0.08680000  0.67130000  0.71190000  1.0 0.4379947117
C  C248  1  0.58680000  0.82870000  0.28810000  1.0 0.4379947117
C  C249  1  0.21190000  0.41320000  0.32870000  1.0 0.4379947117
C  C250  1  0.78810000  0.91320000  0.17130000  1.0 0.4379947117
C  C251  1  0.71190000  0.08680000  0.67130000  1.0 0.4379947117
C  C252  1  0.28810000  0.58680000  0.82870000  1.0 0.4379947117
C  C253  1  0.67130000  0.78810000  0.58680000  1.0 0.4379947117
C  C254  1  0.82870000  0.21190000  0.08680000  1.0 0.4379947117
C  C255  1  0.32870000  0.28810000  0.91320000  1.0 0.4379947117
C  C256  1  0.17130000  0.71190000  0.41320000  1.0 0.4379947117
C  C257  1  0.58680000  0.67130000  0.78810000  1.0 0.4379947117
C  C258  1  0.08680000  0.82870000  0.21190000  1.0 0.4379947117
C  C259  1  0.91320000  0.32870000  0.28810000  1.0 0.4379947117
C  C260  1  0.41320000  0.17130000  0.71190000  1.0 0.4379947117
C  C261  1  0.78810000  0.58680000  0.67130000  1.0 0.4379947117
C  C262  1  0.21190000  0.08680000  0.82870000  1.0 0.4379947117
C  C263  1  0.28810000  0.91320000  0.32870000  1.0 0.4379947117
C  C264  1  0.71190000  0.41320000  0.17130000  1.0 0.4379947117
C  C265  1  0.63340000  0.20310000  0.15270000  1.0 0.5245468994
C  C266  1  0.86660000  0.79690000  0.65270000  1.0 0.5245468994
C  C267  1  0.36660000  0.70310000  0.34730000  1.0 0.5245468994
C  C268  1  0.13340000  0.29690000  0.84730000  1.0 0.5245468994
C  C269  1  0.15270000  0.63340000  0.20310000  1.0 0.5245468994
C  C270  1  0.65270000  0.86660000  0.79690000  1.0 0.5245468994
C  C271  1  0.34730000  0.36660000  0.70310000  1.0 0.5245468994
C  C272  1  0.84730000  0.13340000  0.29690000  1.0 0.5245468994
C  C273  1  0.20310000  0.15270000  0.63340000  1.0 0.5245468994
C  C274  1  0.79690000  0.65270000  0.86660000  1.0 0.5245468994
C  C275  1  0.70310000  0.34730000  0.36660000  1.0 0.5245468994
C  C276  1  0.29690000  0.84730000  0.13340000  1.0 0.5245468994
C  C277  1  0.36660000  0.79690000  0.84730000  1.0 0.5245468994
C  C278  1  0.13340000  0.20310000  0.34730000  1.0 0.5245468994
C  C279  1  0.63340000  0.29690000  0.65270000  1.0 0.5245468994
C  C280  1  0.86660000  0.70310000  0.15270000  1.0 0.5245468994
C  C281  1  0.84730000  0.36660000  0.79690000  1.0 0.5245468994
C  C282  1  0.34730000  0.13340000  0.20310000  1.0 0.5245468994
C  C283  1  0.65270000  0.63340000  0.29690000  1.0 0.5245468994
C  C284  1  0.15270000  0.86660000  0.70310000  1.0 0.5245468994
C  C285  1  0.79690000  0.84730000  0.36660000  1.0 0.5245468994
C  C286  1  0.20310000  0.34730000  0.13340000  1.0 0.5245468994
C  C287  1  0.29690000  0.65270000  0.63340000  1.0 0.5245468994
C  C288  1  0.70310000  0.15270000  0.86660000  1.0 0.5245468994
N  N1  1  0.41756000  0.20810000  0.29055000  1.0 -0.2589560096
N  N2  1  0.08244000  0.79190000  0.79055000  1.0 -0.2589560096
N  N3  1  0.58244000  0.70810000  0.20945000  1.0 -0.2589560096
N  N4  1  0.91756000  0.29190000  0.70945000  1.0 -0.2589560096
N  N5  1  0.29055000  0.41756000  0.20810000  1.0 -0.2589560096
N  N6  1  0.79055000  0.08244000  0.79190000  1.0 -0.2589560096
N  N7  1  0.20945000  0.58244000  0.70810000  1.0 -0.2589560096
N  N8  1  0.70945000  0.91756000  0.29190000  1.0 -0.2589560096
N  N9  1  0.20810000  0.29055000  0.41756000  1.0 -0.2589560096
N  N10  1  0.79190000  0.79055000  0.08244000  1.0 -0.2589560096
N  N11  1  0.70810000  0.20945000  0.58244000  1.0 -0.2589560096
N  N12  1  0.29190000  0.70945000  0.91756000  1.0 -0.2589560096
N  N13  1  0.58244000  0.79190000  0.70945000  1.0 -0.2589560096
N  N14  1  0.91756000  0.20810000  0.20945000  1.0 -0.2589560096
N  N15  1  0.41756000  0.29190000  0.79055000  1.0 -0.2589560096
N  N16  1  0.08244000  0.70810000  0.29055000  1.0 -0.2589560096
N  N17  1  0.70945000  0.58244000  0.79190000  1.0 -0.2589560096
N  N18  1  0.20945000  0.91756000  0.20810000  1.0 -0.2589560096
N  N19  1  0.79055000  0.41756000  0.29190000  1.0 -0.2589560096
N  N20  1  0.29055000  0.08244000  0.70810000  1.0 -0.2589560096
N  N21  1  0.79190000  0.70945000  0.58244000  1.0 -0.2589560096
N  N22  1  0.20810000  0.20945000  0.91756000  1.0 -0.2589560096
N  N23  1  0.29190000  0.79055000  0.41756000  1.0 -0.2589560096
N  N24  1  0.70810000  0.29055000  0.08244000  1.0 -0.2589560096
N  N25  1  0.49784000  0.20651000  0.22170000  1.0 -0.2797579039
N  N26  1  0.00216000  0.79349000  0.72170000  1.0 -0.2797579039
N  N27  1  0.50216000  0.70651000  0.27830000  1.0 -0.2797579039
N  N28  1  0.99784000  0.29349000  0.77830000  1.0 -0.2797579039
N  N29  1  0.22170000  0.49784000  0.20651000  1.0 -0.2797579039
N  N30  1  0.72170000  0.00216000  0.79349000  1.0 -0.2797579039
N  N31  1  0.27830000  0.50216000  0.70651000  1.0 -0.2797579039
N  N32  1  0.77830000  0.99784000  0.29349000  1.0 -0.2797579039
N  N33  1  0.20651000  0.22170000  0.49784000  1.0 -0.2797579039
N  N34  1  0.79349000  0.72170000  0.00216000  1.0 -0.2797579039
N  N35  1  0.70651000  0.27830000  0.50216000  1.0 -0.2797579039
N  N36  1  0.29349000  0.77830000  0.99784000  1.0 -0.2797579039
N  N37  1  0.50216000  0.79349000  0.77830000  1.0 -0.2797579039
N  N38  1  0.99784000  0.20651000  0.27830000  1.0 -0.2797579039
N  N39  1  0.49784000  0.29349000  0.72170000  1.0 -0.2797579039
N  N40  1  0.00216000  0.70651000  0.22170000  1.0 -0.2797579039
N  N41  1  0.77830000  0.50216000  0.79349000  1.0 -0.2797579039
N  N42  1  0.27830000  0.99784000  0.20651000  1.0 -0.2797579039
N  N43  1  0.72170000  0.49784000  0.29349000  1.0 -0.2797579039
N  N44  1  0.22170000  0.00216000  0.70651000  1.0 -0.2797579039
N  N45  1  0.79349000  0.77830000  0.50216000  1.0 -0.2797579039
N  N46  1  0.20651000  0.27830000  0.99784000  1.0 -0.2797579039
N  N47  1  0.29349000  0.72170000  0.49784000  1.0 -0.2797579039
N  N48  1  0.70651000  0.22170000  0.00216000  1.0 -0.2797579039
O  O1  1  0.28650000  0.19900000  0.39240000  1.0 -0.3226914773
O  O2  1  0.21350000  0.80100000  0.89240000  1.0 -0.3226914773
O  O3  1  0.71350000  0.69900000  0.10760000  1.0 -0.3226914773
O  O4  1  0.78650000  0.30100000  0.60760000  1.0 -0.3226914773
O  O5  1  0.39240000  0.28650000  0.19900000  1.0 -0.3226914773
O  O6  1  0.89240000  0.21350000  0.80100000  1.0 -0.3226914773
O  O7  1  0.10760000  0.71350000  0.69900000  1.0 -0.3226914773
O  O8  1  0.60760000  0.78650000  0.30100000  1.0 -0.3226914773
O  O9  1  0.19900000  0.39240000  0.28650000  1.0 -0.3226914773
O  O10  1  0.80100000  0.89240000  0.21350000  1.0 -0.3226914773
O  O11  1  0.69900000  0.10760000  0.71350000  1.0 -0.3226914773
O  O12  1  0.30100000  0.60760000  0.78650000  1.0 -0.3226914773
O  O13  1  0.71350000  0.80100000  0.60760000  1.0 -0.3226914773
O  O14  1  0.78650000  0.19900000  0.10760000  1.0 -0.3226914773
O  O15  1  0.28650000  0.30100000  0.89240000  1.0 -0.3226914773
O  O16  1  0.21350000  0.69900000  0.39240000  1.0 -0.3226914773
O  O17  1  0.60760000  0.71350000  0.80100000  1.0 -0.3226914773
O  O18  1  0.10760000  0.78650000  0.19900000  1.0 -0.3226914773
O  O19  1  0.89240000  0.28650000  0.30100000  1.0 -0.3226914773
O  O20  1  0.39240000  0.21350000  0.69900000  1.0 -0.3226914773
O  O21  1  0.80100000  0.60760000  0.71350000  1.0 -0.3226914773
O  O22  1  0.19900000  0.10760000  0.78650000  1.0 -0.3226914773
O  O23  1  0.30100000  0.89240000  0.28650000  1.0 -0.3226914773
O  O24  1  0.69900000  0.39240000  0.21350000  1.0 -0.3226914773
O  O25  1  0.33140000  0.23850000  0.45810000  1.0 -0.1798320109
O  O26  1  0.16860000  0.76150000  0.95810000  1.0 -0.1798320109
O  O27  1  0.66860000  0.73850000  0.04190000  1.0 -0.1798320109
O  O28  1  0.83140000  0.26150000  0.54190000  1.0 -0.1798320109
O  O29  1  0.45810000  0.33140000  0.23850000  1.0 -0.1798320109
O  O30  1  0.95810000  0.16860000  0.76150000  1.0 -0.1798320109
O  O31  1  0.04190000  0.66860000  0.73850000  1.0 -0.1798320109
O  O32  1  0.54190000  0.83140000  0.26150000  1.0 -0.1798320109
O  O33  1  0.23850000  0.45810000  0.33140000  1.0 -0.1798320109
O  O34  1  0.76150000  0.95810000  0.16860000  1.0 -0.1798320109
O  O35  1  0.73850000  0.04190000  0.66860000  1.0 -0.1798320109
O  O36  1  0.26150000  0.54190000  0.83140000  1.0 -0.1798320109
O  O37  1  0.66860000  0.76150000  0.54190000  1.0 -0.1798320109
O  O38  1  0.83140000  0.23850000  0.04190000  1.0 -0.1798320109
O  O39  1  0.33140000  0.26150000  0.95810000  1.0 -0.1798320109
O  O40  1  0.16860000  0.73850000  0.45810000  1.0 -0.1798320109
O  O41  1  0.54190000  0.66860000  0.76150000  1.0 -0.1798320109
O  O42  1  0.04190000  0.83140000  0.23850000  1.0 -0.1798320109
O  O43  1  0.95810000  0.33140000  0.26150000  1.0 -0.1798320109
O  O44  1  0.45810000  0.16860000  0.73850000  1.0 -0.1798320109
O  O45  1  0.76150000  0.54190000  0.66860000  1.0 -0.1798320109
O  O46  1  0.23850000  0.04190000  0.83140000  1.0 -0.1798320109
O  O47  1  0.26150000  0.95810000  0.33140000  1.0 -0.1798320109
O  O48  1  0.73850000  0.45810000  0.16860000  1.0 -0.1798320109
O  O49  1  0.61910000  0.20760000  0.10510000  1.0 -0.5353942434
O  O50  1  0.88090000  0.79240000  0.60510000  1.0 -0.5353942434
O  O51  1  0.38090000  0.70760000  0.39490000  1.0 -0.5353942434
O  O52  1  0.11910000  0.29240000  0.89490000  1.0 -0.5353942434
O  O53  1  0.10510000  0.61910000  0.20760000  1.0 -0.5353942434
O  O54  1  0.60510000  0.88090000  0.79240000  1.0 -0.5353942434
O  O55  1  0.39490000  0.38090000  0.70760000  1.0 -0.5353942434
O  O56  1  0.89490000  0.11910000  0.29240000  1.0 -0.5353942434
O  O57  1  0.20760000  0.10510000  0.61910000  1.0 -0.5353942434
O  O58  1  0.79240000  0.60510000  0.88090000  1.0 -0.5353942434
O  O59  1  0.70760000  0.39490000  0.38090000  1.0 -0.5353942434
O  O60  1  0.29240000  0.89490000  0.11910000  1.0 -0.5353942434
O  O61  1  0.38090000  0.79240000  0.89490000  1.0 -0.5353942434
O  O62  1  0.11910000  0.20760000  0.39490000  1.0 -0.5353942434
O  O63  1  0.61910000  0.29240000  0.60510000  1.0 -0.5353942434
O  O64  1  0.88090000  0.70760000  0.10510000  1.0 -0.5353942434
O  O65  1  0.89490000  0.38090000  0.79240000  1.0 -0.5353942434
O  O66  1  0.39490000  0.11910000  0.20760000  1.0 -0.5353942434
O  O67  1  0.60510000  0.61910000  0.29240000  1.0 -0.5353942434
O  O68  1  0.10510000  0.88090000  0.70760000  1.0 -0.5353942434
O  O69  1  0.79240000  0.89490000  0.38090000  1.0 -0.5353942434
O  O70  1  0.20760000  0.39490000  0.11910000  1.0 -0.5353942434
O  O71  1  0.29240000  0.60510000  0.61910000  1.0 -0.5353942434
O  O72  1  0.70760000  0.10510000  0.88090000  1.0 -0.5353942434
O  O73  1  0.68154000  0.20010000  0.16670000  1.0 -0.4939192255
O  O74  1  0.81846000  0.79990000  0.66666667  1.0 -0.4939192255
O  O75  1  0.31846000  0.70010000  0.33333333  1.0 -0.4939192255
O  O76  1  0.18154000  0.29990000  0.83330000  1.0 -0.4939192255
O  O77  1  0.16670000  0.68154000  0.20010000  1.0 -0.4939192255
O  O78  1  0.66666667  0.81846000  0.79990000  1.0 -0.4939192255
O  O79  1  0.33333333  0.31846000  0.70010000  1.0 -0.4939192255
O  O80  1  0.83330000  0.18154000  0.29990000  1.0 -0.4939192255
O  O81  1  0.20010000  0.16670000  0.68154000  1.0 -0.4939192255
O  O82  1  0.79990000  0.66666667  0.81846000  1.0 -0.4939192255
O  O83  1  0.70010000  0.33333333  0.31846000  1.0 -0.4939192255
O  O84  1  0.29990000  0.83330000  0.18154000  1.0 -0.4939192255
O  O85  1  0.31846000  0.79990000  0.83330000  1.0 -0.4939192255
O  O86  1  0.18154000  0.20010000  0.33333333  1.0 -0.4939192255
O  O87  1  0.68154000  0.29990000  0.66666667  1.0 -0.4939192255
O  O88  1  0.81846000  0.70010000  0.16670000  1.0 -0.4939192255
O  O89  1  0.83330000  0.31846000  0.79990000  1.0 -0.4939192255
O  O90  1  0.33333333  0.18154000  0.20010000  1.0 -0.4939192255
O  O91  1  0.66666667  0.68154000  0.29990000  1.0 -0.4939192255
O  O92  1  0.16670000  0.81846000  0.70010000  1.0 -0.4939192255
O  O93  1  0.79990000  0.83330000  0.31846000  1.0 -0.4939192255
O  O94  1  0.20010000  0.33333333  0.18154000  1.0 -0.4939192255
O  O95  1  0.29990000  0.66666667  0.68154000  1.0 -0.4939192255
O  O96  1  0.70010000  0.16670000  0.81846000  1.0 -0.4939192255
O  O97  1  0.28530000  0.21410000  0.38660000  1.0 -0.332277023
O  O98  1  0.21470000  0.78590000  0.88660000  1.0 -0.332277023
O  O99  1  0.71470000  0.71410000  0.11340000  1.0 -0.332277023
O  O100  1  0.78530000  0.28590000  0.61340000  1.0 -0.332277023
O  O101  1  0.38660000  0.28530000  0.21410000  1.0 -0.332277023
O  O102  1  0.88660000  0.21470000  0.78590000  1.0 -0.332277023
O  O103  1  0.11340000  0.71470000  0.71410000  1.0 -0.332277023
O  O104  1  0.61340000  0.78530000  0.28590000  1.0 -0.332277023
O  O105  1  0.21410000  0.38660000  0.28530000  1.0 -0.332277023
O  O106  1  0.78590000  0.88660000  0.21470000  1.0 -0.332277023
O  O107  1  0.71410000  0.11340000  0.71470000  1.0 -0.332277023
O  O108  1  0.28590000  0.61340000  0.78530000  1.0 -0.332277023
O  O109  1  0.71470000  0.78590000  0.61340000  1.0 -0.332277023
O  O110  1  0.78530000  0.21410000  0.11340000  1.0 -0.332277023
O  O111  1  0.28530000  0.28590000  0.88660000  1.0 -0.332277023
O  O112  1  0.21470000  0.71410000  0.38660000  1.0 -0.332277023
O  O113  1  0.61340000  0.71470000  0.78590000  1.0 -0.332277023
O  O114  1  0.11340000  0.78530000  0.21410000  1.0 -0.332277023
O  O115  1  0.88660000  0.28530000  0.28590000  1.0 -0.332277023
O  O116  1  0.38660000  0.21470000  0.71410000  1.0 -0.332277023
O  O117  1  0.78590000  0.61340000  0.71470000  1.0 -0.332277023
O  O118  1  0.21410000  0.11340000  0.78530000  1.0 -0.332277023
O  O119  1  0.28590000  0.88660000  0.28530000  1.0 -0.332277023
O  O120  1  0.71410000  0.38660000  0.21470000  1.0 -0.332277023
O  O121  1  0.33490000  0.20040000  0.46300000  1.0 -0.1428175103
O  O122  1  0.16510000  0.79960000  0.96300000  1.0 -0.1428175103
O  O123  1  0.66510000  0.70040000  0.03700000  1.0 -0.1428175103
O  O124  1  0.83490000  0.29960000  0.53700000  1.0 -0.1428175103
O  O125  1  0.46300000  0.33490000  0.20040000  1.0 -0.1428175103
O  O126  1  0.96300000  0.16510000  0.79960000  1.0 -0.1428175103
O  O127  1  0.03700000  0.66510000  0.70040000  1.0 -0.1428175103
O  O128  1  0.53700000  0.83490000  0.29960000  1.0 -0.1428175103
O  O129  1  0.20040000  0.46300000  0.33490000  1.0 -0.1428175103
O  O130  1  0.79960000  0.96300000  0.16510000  1.0 -0.1428175103
O  O131  1  0.70040000  0.03700000  0.66510000  1.0 -0.1428175103
O  O132  1  0.29960000  0.53700000  0.83490000  1.0 -0.1428175103
O  O133  1  0.66510000  0.79960000  0.53700000  1.0 -0.1428175103
O  O134  1  0.83490000  0.20040000  0.03700000  1.0 -0.1428175103
O  O135  1  0.33490000  0.29960000  0.96300000  1.0 -0.1428175103
O  O136  1  0.16510000  0.70040000  0.46300000  1.0 -0.1428175103
O  O137  1  0.53700000  0.66510000  0.79960000  1.0 -0.1428175103
O  O138  1  0.03700000  0.83490000  0.20040000  1.0 -0.1428175103
O  O139  1  0.96300000  0.33490000  0.29960000  1.0 -0.1428175103
O  O140  1  0.46300000  0.16510000  0.70040000  1.0 -0.1428175103
O  O141  1  0.79960000  0.53700000  0.66510000  1.0 -0.1428175103
O  O142  1  0.20040000  0.03700000  0.83490000  1.0 -0.1428175103
O  O143  1  0.29960000  0.96300000  0.33490000  1.0 -0.1428175103
O  O144  1  0.70040000  0.46300000  0.16510000  1.0 -0.1428175103
