# DDEC6 charges by PACMAN v1.1 (https://github.com/mtap-research/PACMAN-charge/)
data_DONKIC_FSR_pacman
_symmetry_space_group_name_H-M   'P 1'
_cell_length_a   16.71900000
_cell_length_b   16.71900000
_cell_length_c   24.59800000
_cell_angle_alpha   90.00000000
_cell_angle_beta   90.00000000
_cell_angle_gamma   120.00000000
_symmetry_Int_Tables_number   1
_chemical_formula_structural   Co2H27C27NO17
_chemical_formula_sum   'Co12 H162 C162 N6 O102'
_cell_volume   5954.57849212
_cell_formula_units_Z   6
loop_
 _symmetry_equiv_pos_site_id
 _symmetry_equiv_pos_as_xyz
  1  'x, y, z'
loop_
 _atom_site_type_symbol
 _atom_site_label
 _atom_site_symmetry_multiplicity
 _atom_site_fract_x
 _atom_site_fract_y
 _atom_site_fract_z
 _atom_site_occupancy
 _atom_site_charge
Co  Co1  1  0.40788000  0.68402000  0.74945000  1.0 1.0183087751
Co  Co2  1  0.31598000  0.72386000  0.08278000  1.0 1.0183087751
Co  Co3  1  0.27614000  0.59212000  0.41612000  1.0 1.0183087751
Co  Co4  1  0.72386000  0.31598000  0.91722000  1.0 1.0183087751
Co  Co5  1  0.59212000  0.27614000  0.58388000  1.0 1.0183087751
Co  Co6  1  0.68402000  0.40788000  0.25055000  1.0 1.0183087751
Co  Co7  1  0.49182000  0.25482000  0.46862000  1.0 1.2024189795
Co  Co8  1  0.74518000  0.23700000  0.80195000  1.0 1.2024189795
Co  Co9  1  0.76300000  0.50818000  0.13529000  1.0 1.2024189795
Co  Co10  1  0.23700000  0.74518000  0.19805000  1.0 1.2024189795
Co  Co11  1  0.50818000  0.76300000  0.86471000  1.0 1.2024189795
Co  Co12  1  0.25482000  0.49182000  0.53138000  1.0 1.2024189795
H  H1  1  0.09980000  0.83170000  0.54400000  1.0 0.1388527834
H  H2  1  0.16830000  0.26810000  0.87733000  1.0 0.1388527834
H  H3  1  0.73190000  0.90020000  0.21067000  1.0 0.1388527834
H  H4  1  0.26810000  0.16830000  0.12267000  1.0 0.1388527834
H  H5  1  0.90020000  0.73190000  0.78933000  1.0 0.1388527834
H  H6  1  0.83170000  0.09980000  0.45600000  1.0 0.1388527834
H  H7  1  0.05130000  0.83230000  0.59840000  1.0 0.1306096195
H  H8  1  0.16770000  0.21900000  0.93173000  1.0 0.1306096195
H  H9  1  0.78100000  0.94870000  0.26507000  1.0 0.1306096195
H  H10  1  0.21900000  0.16770000  0.06827000  1.0 0.1306096195
H  H11  1  0.94870000  0.78100000  0.73493000  1.0 0.1306096195
H  H12  1  0.83230000  0.05130000  0.40160000  1.0 0.1306096195
H  H13  1  0.03880000  0.87860000  0.54610000  1.0 0.1306096195
H  H14  1  0.12140000  0.16020000  0.87943000  1.0 0.1306096195
H  H15  1  0.83980000  0.96120000  0.21277000  1.0 0.1306096195
H  H16  1  0.16020000  0.12140000  0.12057000  1.0 0.1306096195
H  H17  1  0.96120000  0.83980000  0.78723000  1.0 0.1306096195
H  H18  1  0.87860000  0.03880000  0.45390000  1.0 0.1306096195
H  H19  1  0.96870000  0.68730000  0.55940000  1.0 0.109651182
H  H20  1  0.31270000  0.28140000  0.89273000  1.0 0.109651182
H  H21  1  0.71860000  0.03130000  0.22607000  1.0 0.109651182
H  H22  1  0.28140000  0.31270000  0.10727000  1.0 0.109651182
H  H23  1  0.03130000  0.71860000  0.77393000  1.0 0.109651182
H  H24  1  0.68730000  0.96870000  0.44060000  1.0 0.109651182
H  H25  1  0.91770000  0.84770000  0.60120000  1.0 0.1306096195
H  H26  1  0.15230000  0.07000000  0.93453000  1.0 0.1306096195
H  H27  1  0.93000000  0.08230000  0.26787000  1.0 0.1306096195
H  H28  1  0.07000000  0.15230000  0.06547000  1.0 0.1306096195
H  H29  1  0.08230000  0.93000000  0.73213000  1.0 0.1306096195
H  H30  1  0.84770000  0.91770000  0.39880000  1.0 0.1306096195
H  H31  1  0.65190000  0.56920000  0.57250000  1.0 0.1503777866
H  H32  1  0.43080000  0.08270000  0.90583000  1.0 0.1503777866
H  H33  1  0.91730000  0.34810000  0.23917000  1.0 0.1503777866
H  H34  1  0.08270000  0.43080000  0.09417000  1.0 0.1503777866
H  H35  1  0.34810000  0.91730000  0.76083000  1.0 0.1503777866
H  H36  1  0.56920000  0.65190000  0.42750000  1.0 0.1503777866
H  H37  1  0.76200000  0.53340000  0.45360000  1.0 0.1503777866
H  H38  1  0.46660000  0.22860000  0.78693000  1.0 0.1503777866
H  H39  1  0.77140000  0.23800000  0.12027000  1.0 0.1503777866
H  H40  1  0.22860000  0.46660000  0.21307000  1.0 0.1503777866
H  H41  1  0.23800000  0.77140000  0.87973000  1.0 0.1503777866
H  H42  1  0.53340000  0.76200000  0.54640000  1.0 0.1503777866
H  H43  1  0.69580000  0.56200000  0.48150000  1.0 0.1306096195
H  H44  1  0.43800000  0.13380000  0.81483000  1.0 0.1306096195
H  H45  1  0.86620000  0.30420000  0.14817000  1.0 0.1306096195
H  H46  1  0.13380000  0.43800000  0.18517000  1.0 0.1306096195
H  H47  1  0.30420000  0.86620000  0.85183000  1.0 0.1306096195
H  H48  1  0.56200000  0.69580000  0.51850000  1.0 0.1306096195
H  H49  1  0.55990000  0.55040000  0.64350000  1.0 0.1215992361
H  H50  1  0.44960000  0.00950000  0.97683000  1.0 0.1215992361
H  H51  1  0.99050000  0.44010000  0.31017000  1.0 0.1215992361
H  H52  1  0.00950000  0.44960000  0.02317000  1.0 0.1215992361
H  H53  1  0.44010000  0.99050000  0.68983000  1.0 0.1215992361
H  H54  1  0.55040000  0.55990000  0.35650000  1.0 0.1215992361
H  H55  1  0.52000000  0.58040000  0.59480000  1.0 0.1306096195
H  H56  1  0.41960000  0.93960000  0.92813000  1.0 0.1306096195
H  H57  1  0.06040000  0.48000000  0.26147000  1.0 0.1306096195
H  H58  1  0.93960000  0.41960000  0.07187000  1.0 0.1306096195
H  H59  1  0.48000000  0.06040000  0.73853000  1.0 0.1306096195
H  H60  1  0.58040000  0.52000000  0.40520000  1.0 0.1306096195
H  H61  1  0.73270000  0.83010000  0.67510000  1.0 0.109651182
H  H62  1  0.16990000  0.90260000  0.00843000  1.0 0.109651182
H  H63  1  0.09740000  0.26730000  0.34177000  1.0 0.109651182
H  H64  1  0.90260000  0.16990000  0.99157000  1.0 0.109651182
H  H65  1  0.26730000  0.09740000  0.65823000  1.0 0.109651182
H  H66  1  0.83010000  0.73270000  0.32490000  1.0 0.109651182
H  H67  1  0.85990000  0.97510000  0.68920000  1.0 0.1388527834
H  H68  1  0.02490000  0.88480000  0.02253000  1.0 0.1388527834
H  H69  1  0.11520000  0.14010000  0.35587000  1.0 0.1388527834
H  H70  1  0.88480000  0.02490000  0.97747000  1.0 0.1388527834
H  H71  1  0.14010000  0.11520000  0.64413000  1.0 0.1388527834
H  H72  1  0.97510000  0.85990000  0.31080000  1.0 0.1388527834
H  H73  1  0.91420000  0.95670000  0.64360000  1.0 0.1306096195
H  H74  1  0.04330000  0.95750000  0.97693000  1.0 0.1306096195
H  H75  1  0.04250000  0.08580000  0.31027000  1.0 0.1306096195
H  H76  1  0.95750000  0.04330000  0.02307000  1.0 0.1306096195
H  H77  1  0.08580000  0.04250000  0.68973000  1.0 0.1306096195
H  H78  1  0.95670000  0.91420000  0.35640000  1.0 0.1306096195
H  H79  1  0.88670000  0.89840000  0.69730000  1.0 0.1306096195
H  H80  1  0.10160000  0.98830000  0.03063000  1.0 0.1306096195
H  H81  1  0.01170000  0.11330000  0.36397000  1.0 0.1306096195
H  H82  1  0.98830000  0.10160000  0.96937000  1.0 0.1306096195
H  H83  1  0.11330000  0.01170000  0.63603000  1.0 0.1306096195
H  H84  1  0.89840000  0.88670000  0.30270000  1.0 0.1306096195
H  H85  1  0.64000000  0.02870000  0.61360000  1.0 0.1503777866
H  H86  1  0.97130000  0.61130000  0.94693000  1.0 0.1503777866
H  H87  1  0.38870000  0.36000000  0.28027000  1.0 0.1503777866
H  H88  1  0.61130000  0.97130000  0.05307000  1.0 0.1503777866
H  H89  1  0.36000000  0.38870000  0.71973000  1.0 0.1503777866
H  H90  1  0.02870000  0.64000000  0.38640000  1.0 0.1503777866
H  H91  1  0.78300000  0.88180000  0.53640000  1.0 0.1306096195
H  H92  1  0.11820000  0.90120000  0.86973000  1.0 0.1306096195
H  H93  1  0.09880000  0.21700000  0.20307000  1.0 0.1306096195
H  H94  1  0.90120000  0.11820000  0.13027000  1.0 0.1306096195
H  H95  1  0.21700000  0.09880000  0.79693000  1.0 0.1306096195
H  H96  1  0.88180000  0.78300000  0.46360000  1.0 0.1306096195
H  H97  1  0.58270000  0.82370000  0.68430000  1.0 0.1388527834
H  H98  1  0.17630000  0.75900000  0.01763000  1.0 0.1388527834
H  H99  1  0.24100000  0.41730000  0.35097000  1.0 0.1388527834
H  H100  1  0.75900000  0.17630000  0.98237000  1.0 0.1388527834
H  H101  1  0.41730000  0.24100000  0.64903000  1.0 0.1388527834
H  H102  1  0.82370000  0.58270000  0.31570000  1.0 0.1388527834
H  H103  1  0.55280000  0.89860000  0.69080000  1.0 0.1388527834
H  H104  1  0.10140000  0.65420000  0.02413000  1.0 0.1388527834
H  H105  1  0.34580000  0.44720000  0.35747000  1.0 0.1388527834
H  H106  1  0.65420000  0.10140000  0.97587000  1.0 0.1388527834
H  H107  1  0.44720000  0.34580000  0.64253000  1.0 0.1388527834
H  H108  1  0.89860000  0.55280000  0.30920000  1.0 0.1388527834
H  H109  1  0.64960000  0.13360000  0.55920000  1.0 0.1388527834
H  H110  1  0.86640000  0.51600000  0.89253000  1.0 0.1388527834
H  H111  1  0.48400000  0.35040000  0.22587000  1.0 0.1388527834
H  H112  1  0.51600000  0.86640000  0.10747000  1.0 0.1388527834
H  H113  1  0.35040000  0.48400000  0.77413000  1.0 0.1388527834
H  H114  1  0.13360000  0.64960000  0.44080000  1.0 0.1388527834
H  H115  1  0.55190000  0.04730000  0.54820000  1.0 0.1388527834
H  H116  1  0.95270000  0.50460000  0.88153000  1.0 0.1388527834
H  H117  1  0.49540000  0.44810000  0.21487000  1.0 0.1388527834
H  H118  1  0.50460000  0.95270000  0.11847000  1.0 0.1388527834
H  H119  1  0.44810000  0.49540000  0.78513000  1.0 0.1388527834
H  H120  1  0.04730000  0.55190000  0.45180000  1.0 0.1388527834
H  H121  1  0.28050000  0.74280000  0.69950000  1.0 0.109651182
H  H122  1  0.25720000  0.53770000  0.03283000  1.0 0.109651182
H  H123  1  0.46230000  0.71950000  0.36617000  1.0 0.109651182
H  H124  1  0.53770000  0.25720000  0.96717000  1.0 0.109651182
H  H125  1  0.71950000  0.46230000  0.63383000  1.0 0.109651182
H  H126  1  0.74280000  0.28050000  0.30050000  1.0 0.109651182
H  H127  1  0.34770000  0.83720000  0.55170000  1.0 0.1388527834
H  H128  1  0.16280000  0.51050000  0.88503000  1.0 0.1388527834
H  H129  1  0.48950000  0.65230000  0.21837000  1.0 0.1388527834
H  H130  1  0.51050000  0.16280000  0.11497000  1.0 0.1388527834
H  H131  1  0.65230000  0.48950000  0.78163000  1.0 0.1388527834
H  H132  1  0.83720000  0.34770000  0.44830000  1.0 0.1388527834
H  H133  1  0.36400000  0.75580000  0.56810000  1.0 0.1503777866
H  H134  1  0.24420000  0.60820000  0.90143000  1.0 0.1503777866
H  H135  1  0.39180000  0.63600000  0.23477000  1.0 0.1503777866
H  H136  1  0.60820000  0.24420000  0.09857000  1.0 0.1503777866
H  H137  1  0.63600000  0.39180000  0.76523000  1.0 0.1503777866
H  H138  1  0.75580000  0.36400000  0.43190000  1.0 0.1503777866
H  H139  1  0.43020000  0.85570000  0.59000000  1.0 0.1388527834
H  H140  1  0.14430000  0.57450000  0.92333000  1.0 0.1388527834
H  H141  1  0.42550000  0.56980000  0.25667000  1.0 0.1388527834
H  H142  1  0.57450000  0.14430000  0.07667000  1.0 0.1388527834
H  H143  1  0.56980000  0.42550000  0.74333000  1.0 0.1388527834
H  H144  1  0.85570000  0.43020000  0.41000000  1.0 0.1388527834
H  H145  1  0.23430000  0.83570000  0.58720000  1.0 0.1388527834
H  H146  1  0.16430000  0.39860000  0.92053000  1.0 0.1388527834
H  H147  1  0.60140000  0.76570000  0.25387000  1.0 0.1388527834
H  H148  1  0.39860000  0.16430000  0.07947000  1.0 0.1388527834
H  H149  1  0.76570000  0.60140000  0.74613000  1.0 0.1388527834
H  H150  1  0.83570000  0.23430000  0.41280000  1.0 0.1388527834
H  H151  1  0.23760000  0.85220000  0.65010000  1.0 0.1306096195
H  H152  1  0.14780000  0.38540000  0.98343000  1.0 0.1306096195
H  H153  1  0.61460000  0.76240000  0.31677000  1.0 0.1306096195
H  H154  1  0.38540000  0.14780000  0.01657000  1.0 0.1306096195
H  H155  1  0.76240000  0.61460000  0.68323000  1.0 0.1306096195
H  H156  1  0.85220000  0.23760000  0.34990000  1.0 0.1306096195
H  H157  1  0.17590000  0.75260000  0.62640000  1.0 0.1503777866
H  H158  1  0.24740000  0.42330000  0.95973000  1.0 0.1503777866
H  H159  1  0.57670000  0.82410000  0.29307000  1.0 0.1503777866
H  H160  1  0.42330000  0.24740000  0.04027000  1.0 0.1503777866
H  H161  1  0.82410000  0.57670000  0.70693000  1.0 0.1503777866
H  H162  1  0.75260000  0.17590000  0.37360000  1.0 0.1503777866
C  C1  1  0.04560000  0.82840000  0.55950000  1.0 -0.4103305607
C  C2  1  0.17160000  0.21720000  0.89283000  1.0 -0.4103305607
C  C3  1  0.78280000  0.95440000  0.22617000  1.0 -0.4103305607
C  C4  1  0.21720000  0.17160000  0.10717000  1.0 -0.4103305607
C  C5  1  0.95440000  0.78280000  0.77383000  1.0 -0.4103305607
C  C6  1  0.82840000  0.04560000  0.44050000  1.0 -0.4103305607
C  C7  1  0.96060000  0.73660000  0.54360000  1.0 0.0089022814
C  C8  1  0.26340000  0.22400000  0.87693000  1.0 0.0089022814
C  C9  1  0.77600000  0.03940000  0.21027000  1.0 0.0089022814
C  C10  1  0.22400000  0.26340000  0.12307000  1.0 0.0089022814
C  C11  1  0.03940000  0.77600000  0.78973000  1.0 0.0089022814
C  C12  1  0.73660000  0.96060000  0.45640000  1.0 0.0089022814
C  C13  1  0.87210000  0.72540000  0.56620000  1.0 -0.0198618246
C  C14  1  0.27460000  0.14670000  0.89953000  1.0 -0.0198618246
C  C15  1  0.85330000  0.12790000  0.23287000  1.0 -0.0198618246
C  C16  1  0.14670000  0.27460000  0.10047000  1.0 -0.0198618246
C  C17  1  0.12790000  0.85330000  0.76713000  1.0 -0.0198618246
C  C18  1  0.72540000  0.87210000  0.43380000  1.0 -0.0198618246
C  C19  1  0.86420000  0.79150000  0.59514000  1.0 -0.1790617036
C  C20  1  0.20850000  0.07270000  0.92847000  1.0 -0.1790617036
C  C21  1  0.92730000  0.13580000  0.26181000  1.0 -0.1790617036
C  C22  1  0.07270000  0.20850000  0.07153000  1.0 -0.1790617036
C  C23  1  0.13580000  0.92730000  0.73819000  1.0 -0.1790617036
C  C24  1  0.79150000  0.86420000  0.40486000  1.0 -0.1790617036
C  C25  1  0.78210000  0.78010000  0.61600000  1.0 -0.0303992844
C  C26  1  0.21990000  0.00200000  0.94933000  1.0 -0.0303992844
C  C27  1  0.99800000  0.21790000  0.28267000  1.0 -0.0303992844
C  C28  1  0.00200000  0.21990000  0.05067000  1.0 -0.0303992844
C  C29  1  0.21790000  0.99800000  0.71733000  1.0 -0.0303992844
C  C30  1  0.78010000  0.78210000  0.38400000  1.0 -0.0303992844
C  C31  1  0.70270000  0.69530000  0.60845000  1.0 0.2073652908
C  C32  1  0.30470000  0.00740000  0.94178000  1.0 0.2073652908
C  C33  1  0.99260000  0.29730000  0.27512000  1.0 0.2073652908
C  C34  1  0.00740000  0.30470000  0.05822000  1.0 0.2073652908
C  C35  1  0.29730000  0.99260000  0.72488000  1.0 0.2073652908
C  C36  1  0.69530000  0.70270000  0.39155000  1.0 0.2073652908
C  C37  1  0.70550000  0.62550000  0.57830000  1.0 -0.3771863019
C  C38  1  0.37450000  0.08000000  0.91163000  1.0 -0.3771863019
C  C39  1  0.92000000  0.29450000  0.24497000  1.0 -0.3771863019
C  C40  1  0.08000000  0.37450000  0.08837000  1.0 -0.3771863019
C  C41  1  0.29450000  0.92000000  0.75503000  1.0 -0.3771863019
C  C42  1  0.62550000  0.70550000  0.42170000  1.0 -0.3771863019
C  C43  1  0.78810000  0.64160000  0.55750000  1.0 0.2073652908
C  C44  1  0.35840000  0.14650000  0.89083000  1.0 0.2073652908
C  C45  1  0.85350000  0.21190000  0.22417000  1.0 0.2073652908
C  C46  1  0.14650000  0.35840000  0.10917000  1.0 0.2073652908
C  C47  1  0.21190000  0.85350000  0.77583000  1.0 0.2073652908
C  C48  1  0.64160000  0.78810000  0.44250000  1.0 0.2073652908
C  C49  1  0.73000000  0.52980000  0.48710000  1.0 -0.1626059995
C  C50  1  0.47020000  0.20020000  0.82043000  1.0 -0.1626059995
C  C51  1  0.79980000  0.27000000  0.15377000  1.0 -0.1626059995
C  C52  1  0.20020000  0.47020000  0.17957000  1.0 -0.1626059995
C  C53  1  0.27000000  0.79980000  0.84623000  1.0 -0.1626059995
C  C54  1  0.52980000  0.73000000  0.51290000  1.0 -0.1626059995
C  C55  1  0.66280000  0.42980000  0.49970000  1.0 0.5973457857
C  C56  1  0.57020000  0.23300000  0.83303000  1.0 0.5973457857
C  C57  1  0.76700000  0.33720000  0.16637000  1.0 0.5973457857
C  C58  1  0.23300000  0.57020000  0.16697000  1.0 0.5973457857
C  C59  1  0.33720000  0.76700000  0.83363000  1.0 0.5973457857
C  C60  1  0.42980000  0.66280000  0.50030000  1.0 0.5973457857
C  C61  1  0.54350000  0.59580000  0.63170000  1.0 -0.1748207644
C  C62  1  0.40420000  0.94770000  0.96503000  1.0 -0.1748207644
C  C63  1  0.05230000  0.45650000  0.29837000  1.0 -0.1748207644
C  C64  1  0.94770000  0.40420000  0.03497000  1.0 -0.1748207644
C  C65  1  0.45650000  0.05230000  0.70163000  1.0 -0.1748207644
C  C66  1  0.59580000  0.54350000  0.36830000  1.0 -0.1748207644
C  C67  1  0.46890000  0.59080000  0.66817000  1.0 0.5764243766
C  C68  1  0.40920000  0.87810000  0.00150000  1.0 0.5764243766
C  C69  1  0.12190000  0.53110000  0.33484000  1.0 0.5764243766
C  C70  1  0.87810000  0.40920000  0.99850000  1.0 0.5764243766
C  C71  1  0.53110000  0.12190000  0.66516000  1.0 0.5764243766
C  C72  1  0.59080000  0.46890000  0.33183000  1.0 0.5764243766
C  C73  1  0.77780000  0.85840000  0.64570000  1.0 0.0089022814
C  C74  1  0.14160000  0.91940000  0.97903000  1.0 0.0089022814
C  C75  1  0.08060000  0.22220000  0.31237000  1.0 0.0089022814
C  C76  1  0.91940000  0.14160000  0.02097000  1.0 0.0089022814
C  C77  1  0.22220000  0.08060000  0.68763000  1.0 0.0089022814
C  C78  1  0.85840000  0.77780000  0.35430000  1.0 0.0089022814
C  C79  1  0.86780000  0.92850000  0.67130000  1.0 -0.4103305607
C  C80  1  0.07150000  0.93930000  0.00463000  1.0 -0.4103305607
C  C81  1  0.06070000  0.13220000  0.33797000  1.0 -0.4103305607
C  C82  1  0.93930000  0.07150000  0.99537000  1.0 -0.4103305607
C  C83  1  0.13220000  0.06070000  0.66203000  1.0 -0.4103305607
C  C84  1  0.92850000  0.86780000  0.32870000  1.0 -0.4103305607
C  C85  1  0.74200000  0.90670000  0.60780000  1.0 -0.0198618246
C  C86  1  0.09330000  0.83530000  0.94113000  1.0 -0.0198618246
C  C87  1  0.16470000  0.25800000  0.27447000  1.0 -0.0198618246
C  C88  1  0.83530000  0.09330000  0.05887000  1.0 -0.0198618246
C  C89  1  0.25800000  0.16470000  0.72553000  1.0 -0.0198618246
C  C90  1  0.90670000  0.74200000  0.39220000  1.0 -0.0198618246
C  C91  1  0.69810000  0.95050000  0.62930000  1.0 0.183383347
C  C92  1  0.04950000  0.74760000  0.96263000  1.0 0.183383347
C  C93  1  0.25240000  0.30190000  0.29597000  1.0 0.183383347
C  C94  1  0.74760000  0.04950000  0.03737000  1.0 0.183383347
C  C95  1  0.30190000  0.25240000  0.70403000  1.0 0.183383347
C  C96  1  0.95050000  0.69810000  0.37070000  1.0 0.183383347
C  C97  1  0.66810000  0.99860000  0.59770000  1.0 -0.3293542937
C  C98  1  0.00140000  0.66950000  0.93103000  1.0 -0.3293542937
C  C99  1  0.33050000  0.33190000  0.26437000  1.0 -0.3293542937
C  C100  1  0.66950000  0.00140000  0.06897000  1.0 -0.3293542937
C  C101  1  0.33190000  0.33050000  0.73563000  1.0 -0.3293542937
C  C102  1  0.99860000  0.66810000  0.40230000  1.0 -0.3293542937
C  C103  1  0.68040000  0.00160000  0.54220000  1.0 0.2073652908
C  C104  1  0.99840000  0.67880000  0.87553000  1.0 0.2073652908
C  C105  1  0.32120000  0.31960000  0.20887000  1.0 0.2073652908
C  C106  1  0.67880000  0.99840000  0.12447000  1.0 0.2073652908
C  C107  1  0.31960000  0.32120000  0.79113000  1.0 0.2073652908
C  C108  1  0.00160000  0.68040000  0.45780000  1.0 0.2073652908
C  C109  1  0.72410000  0.95670000  0.51820000  1.0 -0.0031424444
C  C110  1  0.04330000  0.76740000  0.85153000  1.0 -0.0031424444
C  C111  1  0.23260000  0.27590000  0.18487000  1.0 -0.0031424444
C  C112  1  0.76740000  0.04330000  0.14847000  1.0 -0.0031424444
C  C113  1  0.27590000  0.23260000  0.81513000  1.0 -0.0031424444
C  C114  1  0.95670000  0.72410000  0.48180000  1.0 -0.0031424444
C  C115  1  0.75370000  0.91110000  0.55190000  1.0 -0.1934677274
C  C116  1  0.08890000  0.84260000  0.88523000  1.0 -0.1934677274
C  C117  1  0.15740000  0.24630000  0.21857000  1.0 -0.1934677274
C  C118  1  0.84260000  0.08890000  0.11477000  1.0 -0.1934677274
C  C119  1  0.24630000  0.15740000  0.78143000  1.0 -0.1934677274
C  C120  1  0.91110000  0.75370000  0.44810000  1.0 -0.1934677274
C  C121  1  0.59810000  0.88170000  0.70180000  1.0 -0.1484866982
C  C122  1  0.11830000  0.71640000  0.03513000  1.0 -0.1484866982
C  C123  1  0.28360000  0.40190000  0.36847000  1.0 -0.1484866982
C  C124  1  0.71640000  0.11830000  0.96487000  1.0 -0.1484866982
C  C125  1  0.40190000  0.28360000  0.63153000  1.0 -0.1484866982
C  C126  1  0.88170000  0.59810000  0.29820000  1.0 -0.1484866982
C  C127  1  0.59650000  0.87080000  0.76360000  1.0 0.5933121606
C  C128  1  0.12920000  0.72570000  0.09693000  1.0 0.5933121606
C  C129  1  0.27430000  0.40350000  0.43027000  1.0 0.5933121606
C  C130  1  0.72570000  0.12920000  0.90307000  1.0 0.5933121606
C  C131  1  0.40350000  0.27430000  0.56973000  1.0 0.5933121606
C  C132  1  0.87080000  0.59650000  0.23640000  1.0 0.5933121606
C  C133  1  0.60950000  0.09200000  0.53120000  1.0 -0.1790617036
C  C134  1  0.90800000  0.51750000  0.86453000  1.0 -0.1790617036
C  C135  1  0.48250000  0.39050000  0.19787000  1.0 -0.1790617036
C  C136  1  0.51750000  0.90800000  0.13547000  1.0 -0.1790617036
C  C137  1  0.39050000  0.48250000  0.80213000  1.0 -0.1790617036
C  C138  1  0.09200000  0.60950000  0.46880000  1.0 -0.1790617036
C  C139  1  0.59110000  0.14590000  0.48920000  1.0 0.6050918266
C  C140  1  0.85410000  0.44520000  0.82253000  1.0 0.6050918266
C  C141  1  0.55480000  0.40890000  0.15587000  1.0 0.6050918266
C  C142  1  0.44520000  0.85410000  0.17747000  1.0 0.6050918266
C  C143  1  0.40890000  0.55480000  0.84413000  1.0 0.6050918266
C  C144  1  0.14590000  0.59110000  0.51080000  1.0 0.6050918266
C  C145  1  0.32260000  0.75800000  0.67120000  1.0 0.3040928408
C  C146  1  0.24200000  0.56460000  0.00453000  1.0 0.3040928408
C  C147  1  0.43540000  0.67740000  0.33787000  1.0 0.3040928408
C  C148  1  0.56460000  0.24200000  0.99547000  1.0 0.3040928408
C  C149  1  0.67740000  0.43540000  0.66213000  1.0 0.3040928408
C  C150  1  0.75800000  0.32260000  0.32880000  1.0 0.3040928408
C  C151  1  0.36760000  0.81200000  0.58030000  1.0 -0.3043933943
C  C152  1  0.18800000  0.55560000  0.91363000  1.0 -0.3043933943
C  C153  1  0.44440000  0.63240000  0.24697000  1.0 -0.3043933943
C  C154  1  0.55560000  0.18800000  0.08637000  1.0 -0.3043933943
C  C155  1  0.63240000  0.44440000  0.75303000  1.0 -0.3043933943
C  C156  1  0.81200000  0.36760000  0.41970000  1.0 -0.3043933943
C  C157  1  0.23290000  0.80980000  0.62220000  1.0 -0.3368055508
C  C158  1  0.19020000  0.42310000  0.95553000  1.0 -0.3368055508
C  C159  1  0.57690000  0.76710000  0.28887000  1.0 -0.3368055508
C  C160  1  0.42310000  0.19020000  0.04447000  1.0 -0.3368055508
C  C161  1  0.76710000  0.57690000  0.71113000  1.0 -0.3368055508
C  C162  1  0.80980000  0.23290000  0.37780000  1.0 -0.3368055508
N  N1  1  0.30910000  0.79320000  0.62680000  1.0 0.0265803693
N  N2  1  0.20680000  0.51590000  0.96013000  1.0 0.0265803693
N  N3  1  0.48410000  0.69090000  0.29347000  1.0 0.0265803693
N  N4  1  0.51590000  0.20680000  0.03987000  1.0 0.0265803693
N  N5  1  0.69090000  0.48410000  0.70653000  1.0 0.0265803693
N  N6  1  0.79320000  0.30910000  0.37320000  1.0 0.0265803693
O  O1  1  0.79620000  0.57510000  0.52905000  1.0 -0.1484866982
O  O2  1  0.42490000  0.22110000  0.86238000  1.0 -0.1484866982
O  O3  1  0.77890000  0.20380000  0.19572000  1.0 -0.1484866982
O  O4  1  0.22110000  0.42490000  0.13762000  1.0 -0.1484866982
O  O5  1  0.20380000  0.77890000  0.80428000  1.0 -0.1484866982
O  O6  1  0.57510000  0.79620000  0.47095000  1.0 -0.1484866982
O  O7  1  0.60350000  0.38720000  0.46352000  1.0 -0.5544038252
O  O8  1  0.61280000  0.21630000  0.79685000  1.0 -0.5544038252
O  O9  1  0.78370000  0.39650000  0.13019000  1.0 -0.5544038252
O  O10  1  0.21630000  0.61280000  0.20315000  1.0 -0.5544038252
O  O11  1  0.39650000  0.78370000  0.86981000  1.0 -0.5544038252
O  O12  1  0.38720000  0.60350000  0.53648000  1.0 -0.5544038252
O  O13  1  0.67260000  0.39880000  0.54392000  1.0 -0.5332741276
O  O14  1  0.60120000  0.27380000  0.87725000  1.0 -0.5332741276
O  O15  1  0.72620000  0.32740000  0.21059000  1.0 -0.5332741276
O  O16  1  0.27380000  0.60120000  0.12275000  1.0 -0.5332741276
O  O17  1  0.32740000  0.72620000  0.78941000  1.0 -0.5332741276
O  O18  1  0.39880000  0.67260000  0.45608000  1.0 -0.5332741276
O  O19  1  0.62380000  0.68470000  0.63200000  1.0 -0.1484866982
O  O20  1  0.31530000  0.93910000  0.96533000  1.0 -0.1484866982
O  O21  1  0.06090000  0.37620000  0.29867000  1.0 -0.1484866982
O  O22  1  0.93910000  0.31530000  0.03467000  1.0 -0.1484866982
O  O23  1  0.37620000  0.06090000  0.70133000  1.0 -0.1484866982
O  O24  1  0.68470000  0.62380000  0.36800000  1.0 -0.1484866982
O  O25  1  0.49070000  0.65240000  0.70354000  1.0 -0.5443109905
O  O26  1  0.34760000  0.83830000  0.03687000  1.0 -0.5443109905
O  O27  1  0.16170000  0.50930000  0.37021000  1.0 -0.5443109905
O  O28  1  0.83830000  0.34760000  0.96313000  1.0 -0.5443109905
O  O29  1  0.50930000  0.16170000  0.62979000  1.0 -0.5443109905
O  O30  1  0.65240000  0.49070000  0.29646000  1.0 -0.5443109905
O  O31  1  0.39060000  0.52270000  0.66184000  1.0 -0.4103305607
O  O32  1  0.47730000  0.86790000  0.99517000  1.0 -0.4103305607
O  O33  1  0.13210000  0.60940000  0.32851000  1.0 -0.4103305607
O  O34  1  0.86790000  0.47730000  0.00483000  1.0 -0.4103305607
O  O35  1  0.60940000  0.13210000  0.67149000  1.0 -0.4103305607
O  O36  1  0.52270000  0.39060000  0.33816000  1.0 -0.4103305607
O  O37  1  0.68700000  0.95090000  0.68565000  1.0 -0.1484866982
O  O38  1  0.04910000  0.73610000  0.01898000  1.0 -0.1484866982
O  O39  1  0.26390000  0.31300000  0.35232000  1.0 -0.1484866982
O  O40  1  0.73610000  0.04910000  0.98102000  1.0 -0.1484866982
O  O41  1  0.31300000  0.26390000  0.64768000  1.0 -0.1484866982
O  O42  1  0.95090000  0.68700000  0.31435000  1.0 -0.1484866982
O  O43  1  0.65580000  0.93070000  0.79056000  1.0 -0.3125806933
O  O44  1  0.06930000  0.72510000  0.12389000  1.0 -0.3125806933
O  O45  1  0.27490000  0.34420000  0.45723000  1.0 -0.3125806933
O  O46  1  0.72510000  0.06930000  0.87611000  1.0 -0.3125806933
O  O47  1  0.34420000  0.27490000  0.54277000  1.0 -0.3125806933
O  O48  1  0.93070000  0.65580000  0.20944000  1.0 -0.3125806933
O  O49  1  0.52640000  0.80080000  0.78277000  1.0 -0.6167000965
O  O50  1  0.19920000  0.72560000  0.11610000  1.0 -0.6167000965
O  O51  1  0.27440000  0.47360000  0.44944000  1.0 -0.6167000965
O  O52  1  0.72560000  0.19920000  0.88390000  1.0 -0.6167000965
O  O53  1  0.47360000  0.27440000  0.55056000  1.0 -0.6167000965
O  O54  1  0.80080000  0.52640000  0.21723000  1.0 -0.6167000965
O  O55  1  0.65170000  0.04590000  0.50711000  1.0 -0.1484866982
O  O56  1  0.95410000  0.60580000  0.84044000  1.0 -0.1484866982
O  O57  1  0.39420000  0.34830000  0.17378000  1.0 -0.1484866982
O  O58  1  0.60580000  0.95410000  0.15956000  1.0 -0.1484866982
O  O59  1  0.34830000  0.39420000  0.82622000  1.0 -0.1484866982
O  O60  1  0.04590000  0.65170000  0.49289000  1.0 -0.1484866982
O  O61  1  0.56900000  0.20310000  0.50852000  1.0 -0.6077189282
O  O62  1  0.79690000  0.36590000  0.84185000  1.0 -0.6077189282
O  O63  1  0.63410000  0.43100000  0.17519000  1.0 -0.6077189282
O  O64  1  0.36590000  0.79690000  0.15815000  1.0 -0.6077189282
O  O65  1  0.43100000  0.63410000  0.82481000  1.0 -0.6077189282
O  O66  1  0.20310000  0.56900000  0.49148000  1.0 -0.6077189282
O  O67  1  0.59630000  0.13400000  0.44070000  1.0 -0.4259385254
O  O68  1  0.86600000  0.46230000  0.77403000  1.0 -0.4259385254
O  O69  1  0.53770000  0.40370000  0.10737000  1.0 -0.4259385254
O  O70  1  0.46230000  0.86600000  0.22597000  1.0 -0.4259385254
O  O71  1  0.40370000  0.53770000  0.89263000  1.0 -0.4259385254
O  O72  1  0.13400000  0.59630000  0.55930000  1.0 -0.4259385254
O  O73  1  0.38780000  0.74370000  0.67772000  1.0 -0.4599621133
O  O74  1  0.25630000  0.64410000  0.01105000  1.0 -0.4599621133
O  O75  1  0.35590000  0.61220000  0.34439000  1.0 -0.4599621133
O  O76  1  0.64410000  0.25630000  0.98895000  1.0 -0.4599621133
O  O77  1  0.61220000  0.35590000  0.65561000  1.0 -0.4599621133
O  O78  1  0.74370000  0.38780000  0.32228000  1.0 -0.4599621133
O  O79  1  0.41890000  0.30720000  0.42871000  1.0 -0.1790617036
O  O80  1  0.69280000  0.11170000  0.76204000  1.0 -0.1790617036
O  O81  1  0.88830000  0.58110000  0.09538000  1.0 -0.1790617036
O  O82  1  0.11170000  0.69280000  0.23796000  1.0 -0.1790617036
O  O83  1  0.58110000  0.88830000  0.90462000  1.0 -0.1790617036
O  O84  1  0.30720000  0.41890000  0.57129000  1.0 -0.1790617036
O  O85  1  0.53490000  0.23230000  0.39036000  1.0 -0.0031424444
O  O86  1  0.76770000  0.30260000  0.72369000  1.0 -0.0031424444
O  O87  1  0.69740000  0.46510000  0.05703000  1.0 -0.0031424444
O  O88  1  0.30260000  0.76770000  0.27631000  1.0 -0.0031424444
O  O89  1  0.46510000  0.69740000  0.94297000  1.0 -0.0059350025
O  O90  1  0.23230000  0.53490000  0.60964000  1.0 -0.0031424444
O  O91  1  0.28190000  0.56180000  0.73200000  1.0 -0.3368055508
O  O92  1  0.43820000  0.72010000  0.06533000  1.0 -0.3293542937
O  O93  1  0.27990000  0.71810000  0.39867000  1.0 -0.3368055508
O  O94  1  0.72010000  0.43820000  0.93467000  1.0 -0.3293542937
O  O95  1  0.71810000  0.27990000  0.60133000  1.0 -0.3293542937
O  O96  1  0.56180000  0.28190000  0.26800000  1.0 -0.3293542937
O  O97  1  0.38260000  0.12080000  0.46590000  1.0 -0.5216173267
O  O98  1  0.87920000  0.26180000  0.79923000  1.0 -0.5216173267
O  O99  1  0.73820000  0.61740000  0.13257000  1.0 -0.5216173267
O  O100  1  0.26180000  0.87920000  0.20077000  1.0 -0.5216173267
O  O101  1  0.61740000  0.73820000  0.86743000  1.0 -0.5216173267
O  O102  1  0.12080000  0.38260000  0.53410000  1.0 -0.5216173267
