# DDEC6 charges by PACMAN v1.1 (https://github.com/mtap-research/PACMAN-charge/)
data_DOPHUN_FSR_pacman
_symmetry_space_group_name_H-M   'P 1'
_cell_length_a   24.17030000
_cell_length_b   24.17030000
_cell_length_c   24.17030000
_cell_angle_alpha   60.00000000
_cell_angle_beta   60.00000000
_cell_angle_gamma   60.00000000
_symmetry_Int_Tables_number   1
_chemical_formula_structural   CuH5C7NO6
_chemical_formula_sum   'Cu24 H120 C168 N24 O144'
_cell_volume   9984.61043312
_cell_formula_units_Z   24
loop_
 _symmetry_equiv_pos_site_id
 _symmetry_equiv_pos_as_xyz
  1  'x, y, z'
loop_
 _atom_site_type_symbol
 _atom_site_label
 _atom_site_symmetry_multiplicity
 _atom_site_fract_x
 _atom_site_fract_y
 _atom_site_fract_z
 _atom_site_occupancy
 _atom_site_charge
Cu  Cu1  1  0.54572000  0.54572000  0.95428000  1.0 0.8881287054
Cu  Cu2  1  0.95428000  0.95428000  0.54572000  1.0 0.8881287054
Cu  Cu3  1  0.95428000  0.54572000  0.54572000  1.0 0.8881287054
Cu  Cu4  1  0.54572000  0.95428000  0.54572000  1.0 0.8881287054
Cu  Cu5  1  0.54572000  0.95428000  0.95428000  1.0 0.8881287054
Cu  Cu6  1  0.95428000  0.54572000  0.95428000  1.0 0.8881287054
Cu  Cu7  1  0.28911000  0.71089000  0.71089000  1.0 0.9201982668
Cu  Cu8  1  0.71089000  0.28911000  0.28911000  1.0 0.9201982668
Cu  Cu9  1  0.71089000  0.28911000  0.71089000  1.0 0.9201982668
Cu  Cu10  1  0.71089000  0.71089000  0.28911000  1.0 0.9201982668
Cu  Cu11  1  0.28911000  0.71089000  0.28911000  1.0 0.9201982668
Cu  Cu12  1  0.28911000  0.28911000  0.71089000  1.0 0.9201982668
Cu  Cu13  1  0.46843000  0.46843000  0.03157000  1.0 0.9005897319
Cu  Cu14  1  0.03157000  0.03157000  0.46843000  1.0 0.9005897319
Cu  Cu15  1  0.03157000  0.46843000  0.46843000  1.0 0.9005897319
Cu  Cu16  1  0.46843000  0.03157000  0.46843000  1.0 0.9005897319
Cu  Cu17  1  0.46843000  0.03157000  0.03157000  1.0 0.9005897319
Cu  Cu18  1  0.03157000  0.46843000  0.03157000  1.0 0.9005897319
Cu  Cu19  1  0.21099000  0.78901000  0.78901000  1.0 0.9263343191
Cu  Cu20  1  0.78901000  0.21099000  0.21099000  1.0 0.9263343191
Cu  Cu21  1  0.78901000  0.21099000  0.78901000  1.0 0.9201982668
Cu  Cu22  1  0.78901000  0.78901000  0.21099000  1.0 0.9263343191
Cu  Cu23  1  0.21099000  0.78901000  0.21099000  1.0 0.9263343191
Cu  Cu24  1  0.21099000  0.21099000  0.78901000  1.0 0.9201982668
H  H1  1  0.64370000  0.50170000  0.68390000  1.0 0.143195785
H  H2  1  0.50170000  0.64370000  0.17070000  1.0 0.143195785
H  H3  1  0.17070000  0.68390000  0.50170000  1.0 0.143195785
H  H4  1  0.68390000  0.17070000  0.64370000  1.0 0.143195785
H  H5  1  0.68390000  0.64370000  0.50170000  1.0 0.143195785
H  H6  1  0.50170000  0.68390000  0.64370000  1.0 0.143195785
H  H7  1  0.64370000  0.68390000  0.17070000  1.0 0.143195785
H  H8  1  0.64370000  0.17070000  0.50170000  1.0 0.143195785
H  H9  1  0.17070000  0.50170000  0.64370000  1.0 0.143195785
H  H10  1  0.68390000  0.50170000  0.17070000  1.0 0.143195785
H  H11  1  0.50170000  0.17070000  0.68390000  1.0 0.143195785
H  H12  1  0.17070000  0.64370000  0.68390000  1.0 0.143195785
H  H13  1  0.38710000  0.58650000  0.15710000  1.0 0.1814405236
H  H14  1  0.58650000  0.38710000  0.86930000  1.0 0.1814405236
H  H15  1  0.86930000  0.15710000  0.58650000  1.0 0.1814405236
H  H16  1  0.15710000  0.86930000  0.38710000  1.0 0.1814405236
H  H17  1  0.15710000  0.38710000  0.58650000  1.0 0.1814405236
H  H18  1  0.58650000  0.15710000  0.38710000  1.0 0.1814405236
H  H19  1  0.38710000  0.15710000  0.86930000  1.0 0.1814405236
H  H20  1  0.38710000  0.86930000  0.58650000  1.0 0.1814405236
H  H21  1  0.86930000  0.58650000  0.38710000  1.0 0.1814405236
H  H22  1  0.15710000  0.58650000  0.86930000  1.0 0.1814405236
H  H23  1  0.58650000  0.86930000  0.15710000  1.0 0.1814405236
H  H24  1  0.86930000  0.38710000  0.15710000  1.0 0.1814405236
H  H25  1  0.42550000  0.63910000  0.11490000  1.0 0.1661649788
H  H26  1  0.63910000  0.42550000  0.82050000  1.0 0.1661649788
H  H27  1  0.82050000  0.11490000  0.63910000  1.0 0.1661649788
H  H28  1  0.11490000  0.82050000  0.42550000  1.0 0.1661649788
H  H29  1  0.11490000  0.42550000  0.63910000  1.0 0.1661649788
H  H30  1  0.63910000  0.11490000  0.42550000  1.0 0.1661649788
H  H31  1  0.42550000  0.11490000  0.82050000  1.0 0.1661649788
H  H32  1  0.42550000  0.82050000  0.63910000  1.0 0.1661649788
H  H33  1  0.82050000  0.63910000  0.42550000  1.0 0.1661649788
H  H34  1  0.11490000  0.63910000  0.82050000  1.0 0.1661649788
H  H35  1  0.63910000  0.82050000  0.11490000  1.0 0.1661649788
H  H36  1  0.82050000  0.42550000  0.11490000  1.0 0.1661649788
H  H37  1  0.38000000  0.74260000  0.02860000  1.0 0.2922684141
H  H38  1  0.74260000  0.38000000  0.84880000  1.0 0.2922684141
H  H39  1  0.84880000  0.02860000  0.74260000  1.0 0.2922684141
H  H40  1  0.02860000  0.84880000  0.38000000  1.0 0.2922684141
H  H41  1  0.02860000  0.38000000  0.74260000  1.0 0.2922684141
H  H42  1  0.74260000  0.02860000  0.38000000  1.0 0.2922684141
H  H43  1  0.38000000  0.02860000  0.84880000  1.0 0.2922684141
H  H44  1  0.38000000  0.84880000  0.74260000  1.0 0.2922684141
H  H45  1  0.84880000  0.74260000  0.38000000  1.0 0.2922684141
H  H46  1  0.02860000  0.74260000  0.84880000  1.0 0.2922684141
H  H47  1  0.74260000  0.84880000  0.02860000  1.0 0.2922684141
H  H48  1  0.84880000  0.38000000  0.02860000  1.0 0.2922684141
H  H49  1  0.31710000  0.65210000  0.08850000  1.0 0.1294240577
H  H50  1  0.65210000  0.31710000  0.94230000  1.0 0.1294240577
H  H51  1  0.94230000  0.08850000  0.65210000  1.0 0.1294240577
H  H52  1  0.08850000  0.94230000  0.31710000  1.0 0.1294240577
H  H53  1  0.08850000  0.31710000  0.65210000  1.0 0.1294240577
H  H54  1  0.65210000  0.08850000  0.31710000  1.0 0.1294240577
H  H55  1  0.31710000  0.08850000  0.94230000  1.0 0.1294240577
H  H56  1  0.31710000  0.94230000  0.65210000  1.0 0.1294240577
H  H57  1  0.94230000  0.65210000  0.31710000  1.0 0.1294240577
H  H58  1  0.08850000  0.65210000  0.94230000  1.0 0.1294240577
H  H59  1  0.65210000  0.94230000  0.08850000  1.0 0.1294240577
H  H60  1  0.94230000  0.31710000  0.08850000  1.0 0.1294240577
H  H61  1  0.33030000  0.85650000  0.99850000  1.0 0.143195785
H  H62  1  0.85650000  0.33030000  0.81470000  1.0 0.143195785
H  H63  1  0.81470000  0.99850000  0.85650000  1.0 0.143195785
H  H64  1  0.99850000  0.81470000  0.33030000  1.0 0.143195785
H  H65  1  0.99850000  0.33030000  0.85650000  1.0 0.143195785
H  H66  1  0.85650000  0.99850000  0.33030000  1.0 0.143195785
H  H67  1  0.33030000  0.99850000  0.81470000  1.0 0.143195785
H  H68  1  0.33030000  0.81470000  0.85650000  1.0 0.143195785
H  H69  1  0.81470000  0.85650000  0.33030000  1.0 0.143195785
H  H70  1  0.99850000  0.85650000  0.81470000  1.0 0.143195785
H  H71  1  0.85650000  0.81470000  0.99850000  1.0 0.143195785
H  H72  1  0.81470000  0.33030000  0.99850000  1.0 0.143195785
H  H73  1  0.47370000  0.65090000  0.75830000  1.0 0.2922684141
H  H74  1  0.65090000  0.47370000  0.11710000  1.0 0.2922684141
H  H75  1  0.11710000  0.75830000  0.65090000  1.0 0.2922684141
H  H76  1  0.75830000  0.11710000  0.47370000  1.0 0.2922684141
H  H77  1  0.75830000  0.47370000  0.65090000  1.0 0.2922684141
H  H78  1  0.65090000  0.75830000  0.47370000  1.0 0.2922684141
H  H79  1  0.47370000  0.75830000  0.11710000  1.0 0.2922684141
H  H80  1  0.47370000  0.11710000  0.65090000  1.0 0.2922684141
H  H81  1  0.11710000  0.65090000  0.47370000  1.0 0.2922684141
H  H82  1  0.75830000  0.65090000  0.11710000  1.0 0.2922684141
H  H83  1  0.65090000  0.11710000  0.75830000  1.0 0.2922684141
H  H84  1  0.11710000  0.47370000  0.75830000  1.0 0.2922684141
H  H85  1  0.38550000  0.68070000  0.85930000  1.0 0.1661649788
H  H86  1  0.68070000  0.38550000  0.07450000  1.0 0.1661649788
H  H87  1  0.07450000  0.85930000  0.68070000  1.0 0.1661649788
H  H88  1  0.85930000  0.07450000  0.38550000  1.0 0.1661649788
H  H89  1  0.85930000  0.38550000  0.68070000  1.0 0.1661649788
H  H90  1  0.68070000  0.85930000  0.38550000  1.0 0.1661649788
H  H91  1  0.38550000  0.85930000  0.07450000  1.0 0.1661649788
H  H92  1  0.38550000  0.07450000  0.68070000  1.0 0.1661649788
H  H93  1  0.07450000  0.68070000  0.38550000  1.0 0.1661649788
H  H94  1  0.85930000  0.68070000  0.07450000  1.0 0.1661649788
H  H95  1  0.68070000  0.07450000  0.85930000  1.0 0.1661649788
H  H96  1  0.07450000  0.38550000  0.85930000  1.0 0.1661649788
H  H97  1  0.34290000  0.63250000  0.91350000  1.0 0.1814405236
H  H98  1  0.63250000  0.34290000  0.11110000  1.0 0.1814405236
H  H99  1  0.11110000  0.91350000  0.63250000  1.0 0.1814405236
H  H100  1  0.91350000  0.11110000  0.34290000  1.0 0.1814405236
H  H101  1  0.91350000  0.34290000  0.63250000  1.0 0.1814405236
H  H102  1  0.63250000  0.91350000  0.34290000  1.0 0.1814405236
H  H103  1  0.34290000  0.91350000  0.11110000  1.0 0.1814405236
H  H104  1  0.34290000  0.11110000  0.63250000  1.0 0.1814405236
H  H105  1  0.11110000  0.63250000  0.34290000  1.0 0.1814405236
H  H106  1  0.91350000  0.63250000  0.11110000  1.0 0.1814405236
H  H107  1  0.63250000  0.11110000  0.91350000  1.0 0.1814405236
H  H108  1  0.11110000  0.34290000  0.91350000  1.0 0.1814405236
H  H109  1  0.41240000  0.55660000  0.84800000  1.0 0.1294240577
H  H110  1  0.55660000  0.41240000  0.18300000  1.0 0.1294240577
H  H111  1  0.18300000  0.84800000  0.55660000  1.0 0.1294240577
H  H112  1  0.84800000  0.18300000  0.41240000  1.0 0.1294240577
H  H113  1  0.84800000  0.41240000  0.55660000  1.0 0.1294240577
H  H114  1  0.55660000  0.84800000  0.41240000  1.0 0.1294240577
H  H115  1  0.41240000  0.84800000  0.18300000  1.0 0.1294240577
H  H116  1  0.41240000  0.18300000  0.55660000  1.0 0.1294240577
H  H117  1  0.18300000  0.55660000  0.41240000  1.0 0.1294240577
H  H118  1  0.84800000  0.55660000  0.18300000  1.0 0.1294240577
H  H119  1  0.55660000  0.18300000  0.84800000  1.0 0.1294240577
H  H120  1  0.18300000  0.41240000  0.84800000  1.0 0.1294240577
C  C1  1  0.63040000  0.54520000  0.65420000  1.0 -0.1037835404
C  C2  1  0.54520000  0.63040000  0.17020000  1.0 -0.1037835404
C  C3  1  0.17020000  0.65420000  0.54520000  1.0 -0.1037835404
C  C4  1  0.65420000  0.17020000  0.63040000  1.0 -0.1037835404
C  C5  1  0.65420000  0.63040000  0.54520000  1.0 -0.1037835404
C  C6  1  0.54520000  0.65420000  0.63040000  1.0 -0.1037835404
C  C7  1  0.63040000  0.65420000  0.17020000  1.0 -0.1037835404
C  C8  1  0.63040000  0.17020000  0.54520000  1.0 -0.1037835404
C  C9  1  0.17020000  0.54520000  0.63040000  1.0 -0.1037835404
C  C10  1  0.65420000  0.54520000  0.17020000  1.0 -0.1037835404
C  C11  1  0.54520000  0.17020000  0.65420000  1.0 -0.1037835404
C  C12  1  0.17020000  0.63040000  0.65420000  1.0 -0.1037835404
C  C13  1  0.38190000  0.63390000  0.13150000  1.0 -0.3612715502
C  C14  1  0.63390000  0.38190000  0.85270000  1.0 -0.3612715502
C  C15  1  0.85270000  0.13150000  0.63390000  1.0 -0.3612715502
C  C16  1  0.13150000  0.85270000  0.38190000  1.0 -0.3612715502
C  C17  1  0.13150000  0.38190000  0.63390000  1.0 -0.3612715502
C  C18  1  0.63390000  0.13150000  0.38190000  1.0 -0.3612715502
C  C19  1  0.38190000  0.13150000  0.85270000  1.0 -0.3612715502
C  C20  1  0.38190000  0.85270000  0.63390000  1.0 -0.3612715502
C  C21  1  0.85270000  0.63390000  0.38190000  1.0 -0.3612715502
C  C22  1  0.13150000  0.63390000  0.85270000  1.0 -0.3612715502
C  C23  1  0.63390000  0.85270000  0.13150000  1.0 -0.3612715502
C  C24  1  0.85270000  0.38190000  0.13150000  1.0 -0.3612715502
C  C25  1  0.56510000  0.59010000  0.67510000  1.0 -0.0078643961
C  C26  1  0.59010000  0.56510000  0.16970000  1.0 -0.0078643961
C  C27  1  0.16970000  0.67510000  0.59010000  1.0 -0.0078643961
C  C28  1  0.67510000  0.16970000  0.56510000  1.0 -0.0078643961
C  C29  1  0.67510000  0.56510000  0.59010000  1.0 -0.0078643961
C  C30  1  0.59010000  0.67510000  0.56510000  1.0 -0.0078643961
C  C31  1  0.56510000  0.67510000  0.16970000  1.0 -0.0078643961
C  C32  1  0.56510000  0.16970000  0.59010000  1.0 -0.0078643961
C  C33  1  0.16970000  0.59010000  0.56510000  1.0 -0.0078643961
C  C34  1  0.67510000  0.59010000  0.16970000  1.0 -0.0078643961
C  C35  1  0.59010000  0.16970000  0.67510000  1.0 -0.0078643961
C  C36  1  0.16970000  0.56510000  0.67510000  1.0 -0.0078643961
C  C37  1  0.32950000  0.82450000  0.93490000  1.0 -0.0078643961
C  C38  1  0.82450000  0.32950000  0.91110000  1.0 -0.0078643961
C  C39  1  0.91110000  0.93490000  0.82450000  1.0 -0.0078643961
C  C40  1  0.93490000  0.91110000  0.32950000  1.0 -0.0078643961
C  C41  1  0.93490000  0.32950000  0.82450000  1.0 -0.0078643961
C  C42  1  0.82450000  0.93490000  0.32950000  1.0 -0.0078643961
C  C43  1  0.32950000  0.93490000  0.91110000  1.0 -0.0078643961
C  C44  1  0.32950000  0.91110000  0.82450000  1.0 -0.0078643961
C  C45  1  0.91110000  0.82450000  0.32950000  1.0 -0.0078643961
C  C46  1  0.93490000  0.82450000  0.91110000  1.0 -0.0078643961
C  C47  1  0.82450000  0.91110000  0.93490000  1.0 -0.0078643961
C  C48  1  0.91110000  0.32950000  0.93490000  1.0 -0.0078643961
C  C49  1  0.32790000  0.75490000  0.98170000  1.0 0.4739271825
C  C50  1  0.75490000  0.32790000  0.93550000  1.0 0.4739271825
C  C51  1  0.93550000  0.98170000  0.75490000  1.0 0.4739271825
C  C52  1  0.98170000  0.93550000  0.32790000  1.0 0.4739271825
C  C53  1  0.98170000  0.32790000  0.75490000  1.0 0.4739271825
C  C54  1  0.75490000  0.98170000  0.32790000  1.0 0.4739271825
C  C55  1  0.32790000  0.98170000  0.93550000  1.0 0.4739271825
C  C56  1  0.32790000  0.93550000  0.75490000  1.0 0.4739271825
C  C57  1  0.93550000  0.75490000  0.32790000  1.0 0.4739271825
C  C58  1  0.98170000  0.75490000  0.93550000  1.0 0.4739271825
C  C59  1  0.75490000  0.93550000  0.98170000  1.0 0.4739271825
C  C60  1  0.93550000  0.32790000  0.98170000  1.0 0.4739271825
C  C61  1  0.36230000  0.65470000  0.07130000  1.0 0.0417798237
C  C62  1  0.65470000  0.36230000  0.91170000  1.0 0.0417798237
C  C63  1  0.91170000  0.07130000  0.65470000  1.0 0.0417798237
C  C64  1  0.07130000  0.91170000  0.36230000  1.0 0.0417798237
C  C65  1  0.07130000  0.36230000  0.65470000  1.0 0.0417798237
C  C66  1  0.65470000  0.07130000  0.36230000  1.0 0.0417798237
C  C67  1  0.36230000  0.07130000  0.91170000  1.0 0.0417798237
C  C68  1  0.36230000  0.91170000  0.65470000  1.0 0.0417798237
C  C69  1  0.91170000  0.65470000  0.36230000  1.0 0.0417798237
C  C70  1  0.07130000  0.65470000  0.91170000  1.0 0.0417798237
C  C71  1  0.65470000  0.91170000  0.07130000  1.0 0.0417798237
C  C72  1  0.91170000  0.36230000  0.07130000  1.0 0.0417798237
C  C73  1  0.36850000  0.64630000  0.86610000  1.0 -0.3612715502
C  C74  1  0.64630000  0.36850000  0.11910000  1.0 -0.3612715502
C  C75  1  0.11910000  0.86610000  0.64630000  1.0 -0.3612715502
C  C76  1  0.86610000  0.11910000  0.36850000  1.0 -0.3612715502
C  C77  1  0.86610000  0.36850000  0.64630000  1.0 -0.3612715502
C  C78  1  0.64630000  0.86610000  0.36850000  1.0 -0.3612715502
C  C79  1  0.36850000  0.86610000  0.11910000  1.0 -0.3612715502
C  C80  1  0.36850000  0.11910000  0.64630000  1.0 -0.3612715502
C  C81  1  0.11910000  0.64630000  0.36850000  1.0 -0.3612715502
C  C82  1  0.86610000  0.64630000  0.11910000  1.0 -0.3612715502
C  C83  1  0.64630000  0.11910000  0.86610000  1.0 -0.3612715502
C  C84  1  0.11910000  0.36850000  0.86610000  1.0 -0.3612715502
C  C85  1  0.32990000  0.87030000  0.95510000  1.0 -0.1157793949
C  C86  1  0.87030000  0.32990000  0.84470000  1.0 -0.1157793949
C  C87  1  0.84470000  0.95510000  0.87030000  1.0 -0.1157793949
C  C88  1  0.95510000  0.84470000  0.32990000  1.0 -0.1157793949
C  C89  1  0.95510000  0.32990000  0.87030000  1.0 -0.1157793949
C  C90  1  0.87030000  0.95510000  0.32990000  1.0 -0.1157793949
C  C91  1  0.32990000  0.95510000  0.84470000  1.0 -0.1157793949
C  C92  1  0.32990000  0.84470000  0.87030000  1.0 -0.1157793949
C  C93  1  0.84470000  0.87030000  0.32990000  1.0 -0.1157793949
C  C94  1  0.95510000  0.87030000  0.84470000  1.0 -0.1157793949
C  C95  1  0.87030000  0.84470000  0.95510000  1.0 -0.1157793949
C  C96  1  0.84470000  0.32990000  0.95510000  1.0 -0.1157793949
C  C97  1  0.41280000  0.60140000  0.03640000  1.0 0.5783918674
C  C98  1  0.60140000  0.41280000  0.94940000  1.0 0.5783918674
C  C99  1  0.94940000  0.03640000  0.60140000  1.0 0.5783918674
C  C100  1  0.03640000  0.94940000  0.41280000  1.0 0.5783918674
C  C101  1  0.03640000  0.41280000  0.60140000  1.0 0.5783918674
C  C102  1  0.60140000  0.03640000  0.41280000  1.0 0.5783918674
C  C103  1  0.41280000  0.03640000  0.94940000  1.0 0.5783918674
C  C104  1  0.41280000  0.94940000  0.60140000  1.0 0.5783918674
C  C105  1  0.94940000  0.60140000  0.41280000  1.0 0.5783918674
C  C106  1  0.03640000  0.60140000  0.94940000  1.0 0.5783918674
C  C107  1  0.60140000  0.94940000  0.03640000  1.0 0.5783918674
C  C108  1  0.94940000  0.41280000  0.03640000  1.0 0.5783918674
C  C109  1  0.46410000  0.54990000  0.89930000  1.0 0.5722774442
C  C110  1  0.54990000  0.46410000  0.08670000  1.0 0.5722774442
C  C111  1  0.08670000  0.89930000  0.54990000  1.0 0.5722774442
C  C112  1  0.89930000  0.08670000  0.46410000  1.0 0.5722774442
C  C113  1  0.89930000  0.46410000  0.54990000  1.0 0.5722774442
C  C114  1  0.54990000  0.89930000  0.46410000  1.0 0.5722774442
C  C115  1  0.46410000  0.89930000  0.08670000  1.0 0.5722774442
C  C116  1  0.46410000  0.08670000  0.54990000  1.0 0.5722774442
C  C117  1  0.08670000  0.54990000  0.46410000  1.0 0.5722774442
C  C118  1  0.89930000  0.54990000  0.08670000  1.0 0.5722774442
C  C119  1  0.54990000  0.08670000  0.89930000  1.0 0.5722774442
C  C120  1  0.08670000  0.46410000  0.89930000  1.0 0.5722774442
C  C121  1  0.32210000  0.68390000  0.82530000  1.0 0.6573148597
C  C122  1  0.68390000  0.32210000  0.16870000  1.0 0.6573148597
C  C123  1  0.16870000  0.82530000  0.68390000  1.0 0.6573148597
C  C124  1  0.82530000  0.16870000  0.32210000  1.0 0.6573148597
C  C125  1  0.82530000  0.32210000  0.68390000  1.0 0.6573148597
C  C126  1  0.68390000  0.82530000  0.32210000  1.0 0.6573148597
C  C127  1  0.32210000  0.82530000  0.16870000  1.0 0.6573148597
C  C128  1  0.32210000  0.16870000  0.68390000  1.0 0.6573148597
C  C129  1  0.16870000  0.68390000  0.32210000  1.0 0.6573148597
C  C130  1  0.82530000  0.68390000  0.16870000  1.0 0.6573148597
C  C131  1  0.68390000  0.16870000  0.82530000  1.0 0.6573148597
C  C132  1  0.16870000  0.32210000  0.82530000  1.0 0.6573148597
C  C133  1  0.51810000  0.56490000  0.74490000  1.0 0.476503864
C  C134  1  0.56490000  0.51810000  0.17210000  1.0 0.476503864
C  C135  1  0.17210000  0.74490000  0.56490000  1.0 0.476503864
C  C136  1  0.74490000  0.17210000  0.51810000  1.0 0.476503864
C  C137  1  0.74490000  0.51810000  0.56490000  1.0 0.476503864
C  C138  1  0.56490000  0.74490000  0.51810000  1.0 0.476503864
C  C139  1  0.51810000  0.74490000  0.17210000  1.0 0.476503864
C  C140  1  0.51810000  0.17210000  0.56490000  1.0 0.476503864
C  C141  1  0.17210000  0.56490000  0.51810000  1.0 0.476503864
C  C142  1  0.74490000  0.56490000  0.17210000  1.0 0.476503864
C  C143  1  0.56490000  0.17210000  0.74490000  1.0 0.476503864
C  C144  1  0.17210000  0.51810000  0.74490000  1.0 0.476503864
C  C145  1  0.33080000  0.67480000  0.17820000  1.0 0.6540936207
C  C146  1  0.67480000  0.33080000  0.81620000  1.0 0.6540936207
C  C147  1  0.81620000  0.17820000  0.67480000  1.0 0.6540936207
C  C148  1  0.17820000  0.81620000  0.33080000  1.0 0.6573148597
C  C149  1  0.17820000  0.33080000  0.67480000  1.0 0.6540936207
C  C150  1  0.67480000  0.17820000  0.33080000  1.0 0.6540936207
C  C151  1  0.33080000  0.17820000  0.81620000  1.0 0.6573148597
C  C152  1  0.33080000  0.81620000  0.67480000  1.0 0.6573148597
C  C153  1  0.81620000  0.67480000  0.33080000  1.0 0.6573148597
C  C154  1  0.17820000  0.67480000  0.81620000  1.0 0.6573148597
C  C155  1  0.67480000  0.81620000  0.17820000  1.0 0.6573148597
C  C156  1  0.81620000  0.33080000  0.17820000  1.0 0.6573148597
C  C157  1  0.42810000  0.58730000  0.84550000  1.0 0.0522535431
C  C158  1  0.58730000  0.42810000  0.13910000  1.0 0.0522535431
C  C159  1  0.13910000  0.84550000  0.58730000  1.0 0.0522535431
C  C160  1  0.84550000  0.13910000  0.42810000  1.0 0.0522535431
C  C161  1  0.84550000  0.42810000  0.58730000  1.0 0.0522535431
C  C162  1  0.58730000  0.84550000  0.42810000  1.0 0.0522535431
C  C163  1  0.42810000  0.84550000  0.13910000  1.0 0.0522535431
C  C164  1  0.42810000  0.13910000  0.58730000  1.0 0.0522535431
C  C165  1  0.13910000  0.58730000  0.42810000  1.0 0.0522535431
C  C166  1  0.84550000  0.58730000  0.13910000  1.0 0.0522535431
C  C167  1  0.58730000  0.13910000  0.84550000  1.0 0.0522535431
C  C168  1  0.13910000  0.42810000  0.84550000  1.0 0.0522535431
N  N1  1  0.47280000  0.60980000  0.77800000  1.0 -0.349055248
N  N2  1  0.60980000  0.47280000  0.13940000  1.0 -0.349055248
N  N3  1  0.13940000  0.77800000  0.60980000  1.0 -0.349055248
N  N4  1  0.77800000  0.13940000  0.47280000  1.0 -0.349055248
N  N5  1  0.77800000  0.47280000  0.60980000  1.0 -0.349055248
N  N6  1  0.60980000  0.77800000  0.47280000  1.0 -0.349055248
N  N7  1  0.47280000  0.77800000  0.13940000  1.0 -0.349055248
N  N8  1  0.47280000  0.13940000  0.60980000  1.0 -0.349055248
N  N9  1  0.13940000  0.60980000  0.47280000  1.0 -0.349055248
N  N10  1  0.77800000  0.60980000  0.13940000  1.0 -0.349055248
N  N11  1  0.60980000  0.13940000  0.77800000  1.0 -0.349055248
N  N12  1  0.13940000  0.47280000  0.77800000  1.0 -0.349055248
N  N13  1  0.36030000  0.72270000  0.02650000  1.0 -0.332719547
N  N14  1  0.72270000  0.36030000  0.89050000  1.0 -0.332719547
N  N15  1  0.89050000  0.02650000  0.72270000  1.0 -0.332719547
N  N16  1  0.02650000  0.89050000  0.36030000  1.0 -0.332719547
N  N17  1  0.02650000  0.36030000  0.72270000  1.0 -0.332719547
N  N18  1  0.72270000  0.02650000  0.36030000  1.0 -0.332719547
N  N19  1  0.36030000  0.02650000  0.89050000  1.0 -0.332719547
N  N20  1  0.36030000  0.89050000  0.72270000  1.0 -0.332719547
N  N21  1  0.89050000  0.72270000  0.36030000  1.0 -0.332719547
N  N22  1  0.02650000  0.72270000  0.89050000  1.0 -0.332719547
N  N23  1  0.72270000  0.89050000  0.02650000  1.0 -0.332719547
N  N24  1  0.89050000  0.36030000  0.02650000  1.0 -0.332719547
O  O1  1  0.29620000  0.72920000  0.97880000  1.0 -0.4414483432
O  O2  1  0.72920000  0.29620000  0.99580000  1.0 -0.4414483432
O  O3  1  0.99580000  0.97880000  0.72920000  1.0 -0.4414483432
O  O4  1  0.97880000  0.99580000  0.29620000  1.0 -0.4414483432
O  O5  1  0.97880000  0.29620000  0.72920000  1.0 -0.4414483432
O  O6  1  0.72920000  0.97880000  0.29620000  1.0 -0.4414483432
O  O7  1  0.29620000  0.97880000  0.99580000  1.0 -0.4414483432
O  O8  1  0.29620000  0.99580000  0.72920000  1.0 -0.4414483432
O  O9  1  0.99580000  0.72920000  0.29620000  1.0 -0.4414483432
O  O10  1  0.97880000  0.72920000  0.99580000  1.0 -0.4414483432
O  O11  1  0.72920000  0.99580000  0.97880000  1.0 -0.4414483432
O  O12  1  0.99580000  0.29620000  0.97880000  1.0 -0.4414483432
O  O13  1  0.40320000  0.54560000  0.06480000  1.0 -0.4819031357
O  O14  1  0.54560000  0.40320000  0.98640000  1.0 -0.4819031357
O  O15  1  0.98640000  0.06480000  0.54560000  1.0 -0.4819031357
O  O16  1  0.06480000  0.98640000  0.40320000  1.0 -0.4819031357
O  O17  1  0.06480000  0.40320000  0.54560000  1.0 -0.4819031357
O  O18  1  0.54560000  0.06480000  0.40320000  1.0 -0.4819031357
O  O19  1  0.40320000  0.06480000  0.98640000  1.0 -0.4819031357
O  O20  1  0.40320000  0.98640000  0.54560000  1.0 -0.4819031357
O  O21  1  0.98640000  0.54560000  0.40320000  1.0 -0.4819031357
O  O22  1  0.06480000  0.54560000  0.98640000  1.0 -0.4819031357
O  O23  1  0.54560000  0.98640000  0.06480000  1.0 -0.4819031357
O  O24  1  0.98640000  0.40320000  0.06480000  1.0 -0.4819031357
O  O25  1  0.60880000  0.60880000  0.89120000  1.0 -0.4122654671
O  O26  1  0.89120000  0.89120000  0.60880000  1.0 -0.4122654671
O  O27  1  0.89120000  0.60880000  0.60880000  1.0 -0.4178385312
O  O28  1  0.60880000  0.89120000  0.60880000  1.0 -0.4122654671
O  O29  1  0.60880000  0.89120000  0.89120000  1.0 -0.4122654671
O  O30  1  0.89120000  0.60880000  0.89120000  1.0 -0.4178385312
O  O31  1  0.40640000  0.40640000  0.09360000  1.0 -0.4122654671
O  O32  1  0.09360000  0.09360000  0.40640000  1.0 -0.3905985827
O  O33  1  0.09360000  0.40640000  0.40640000  1.0 -0.3905985827
O  O34  1  0.40640000  0.09360000  0.40640000  1.0 -0.4122654671
O  O35  1  0.40640000  0.09360000  0.09360000  1.0 -0.4122654671
O  O36  1  0.09360000  0.40640000  0.09360000  1.0 -0.4122654671
O  O37  1  0.27790000  0.73970000  0.83310000  1.0 -0.4920702874
O  O38  1  0.73970000  0.27790000  0.14930000  1.0 -0.4920702874
O  O39  1  0.14930000  0.83310000  0.73970000  1.0 -0.4920702874
O  O40  1  0.83310000  0.14930000  0.27790000  1.0 -0.4920702874
O  O41  1  0.83310000  0.27790000  0.73970000  1.0 -0.4920702874
O  O42  1  0.73970000  0.83310000  0.27790000  1.0 -0.4920702874
O  O43  1  0.27790000  0.83310000  0.14930000  1.0 -0.4920702874
O  O44  1  0.27790000  0.14930000  0.73970000  1.0 -0.4920702874
O  O45  1  0.14930000  0.73970000  0.27790000  1.0 -0.4920702874
O  O46  1  0.83310000  0.73970000  0.14930000  1.0 -0.4920702874
O  O47  1  0.73970000  0.14930000  0.83310000  1.0 -0.4920702874
O  O48  1  0.14930000  0.27790000  0.83310000  1.0 -0.4920702874
O  O49  1  0.43620000  0.51280000  0.95460000  1.0 -0.4718859853
O  O50  1  0.51280000  0.43620000  0.09640000  1.0 -0.4718859853
O  O51  1  0.09640000  0.95460000  0.51280000  1.0 -0.4718859853
O  O52  1  0.95460000  0.09640000  0.43620000  1.0 -0.4718859853
O  O53  1  0.95460000  0.43620000  0.51280000  1.0 -0.4718859853
O  O54  1  0.51280000  0.95460000  0.43620000  1.0 -0.4718859853
O  O55  1  0.43620000  0.95460000  0.09640000  1.0 -0.4718859853
O  O56  1  0.43620000  0.09640000  0.51280000  1.0 -0.4718859853
O  O57  1  0.09640000  0.51280000  0.43620000  1.0 -0.4718859853
O  O58  1  0.95460000  0.51280000  0.09640000  1.0 -0.4718859853
O  O59  1  0.51280000  0.09640000  0.95460000  1.0 -0.4718859853
O  O60  1  0.09640000  0.43620000  0.95460000  1.0 -0.4718859853
O  O61  1  0.52050000  0.50470000  0.77090000  1.0 -0.4414483432
O  O62  1  0.50470000  0.52050000  0.20390000  1.0 -0.4414483432
O  O63  1  0.20390000  0.77090000  0.50470000  1.0 -0.4414483432
O  O64  1  0.77090000  0.20390000  0.52050000  1.0 -0.4414483432
O  O65  1  0.77090000  0.52050000  0.50470000  1.0 -0.4414483432
O  O66  1  0.50470000  0.77090000  0.52050000  1.0 -0.4414483432
O  O67  1  0.52050000  0.77090000  0.20390000  1.0 -0.4414483432
O  O68  1  0.52050000  0.20390000  0.50470000  1.0 -0.4414483432
O  O69  1  0.20390000  0.50470000  0.52050000  1.0 -0.4414483432
O  O70  1  0.77090000  0.50470000  0.20390000  1.0 -0.4414483432
O  O71  1  0.50470000  0.20390000  0.77090000  1.0 -0.4414483432
O  O72  1  0.20390000  0.52050000  0.77090000  1.0 -0.4414483432
O  O73  1  0.15120000  0.84880000  0.84880000  1.0 -0.2786744112
O  O74  1  0.84880000  0.15120000  0.15120000  1.0 -0.2743158067
O  O75  1  0.84880000  0.15120000  0.84880000  1.0 -0.2786744112
O  O76  1  0.84880000  0.84880000  0.15120000  1.0 -0.2743158067
O  O77  1  0.15120000  0.84880000  0.15120000  1.0 -0.2786744112
O  O78  1  0.15120000  0.15120000  0.84880000  1.0 -0.2786744112
O  O79  1  0.34920000  0.65080000  0.65080000  1.0 -0.2913527215
O  O80  1  0.65080000  0.34920000  0.34920000  1.0 -0.2913527215
O  O81  1  0.65080000  0.34920000  0.65080000  1.0 -0.2913527215
O  O82  1  0.65080000  0.65080000  0.34920000  1.0 -0.2913527215
O  O83  1  0.34920000  0.65080000  0.34920000  1.0 -0.3019096876
O  O84  1  0.34920000  0.34920000  0.65080000  1.0 -0.2913527215
O  O85  1  0.51455000  0.56345000  0.88395000  1.0 -0.4718859853
O  O86  1  0.56345000  0.51455000  0.03805000  1.0 -0.4718859853
O  O87  1  0.03805000  0.88395000  0.56345000  1.0 -0.4718859853
O  O88  1  0.88395000  0.03805000  0.51455000  1.0 -0.4718859853
O  O89  1  0.88395000  0.51455000  0.56345000  1.0 -0.4718859853
O  O90  1  0.56345000  0.88395000  0.51455000  1.0 -0.4718859853
O  O91  1  0.51455000  0.88395000  0.03805000  1.0 -0.4718859853
O  O92  1  0.51455000  0.03805000  0.56345000  1.0 -0.4718859853
O  O93  1  0.03805000  0.56345000  0.51455000  1.0 -0.4718859853
O  O94  1  0.88395000  0.56345000  0.03805000  1.0 -0.4718859853
O  O95  1  0.56345000  0.03805000  0.88395000  1.0 -0.4718859853
O  O96  1  0.03805000  0.51455000  0.88395000  1.0 -0.4718859853
O  O97  1  0.35110000  0.66666667  0.22150000  1.0 -0.4920702874
O  O98  1  0.66666667  0.35110000  0.76070000  1.0 -0.4920702874
O  O99  1  0.76070000  0.22150000  0.66666667  1.0 -0.4920702874
O  O100  1  0.22150000  0.76070000  0.35110000  1.0 -0.4920702874
O  O101  1  0.22150000  0.35110000  0.66666667  1.0 -0.4920702874
O  O102  1  0.66666667  0.22150000  0.35110000  1.0 -0.4920702874
O  O103  1  0.35110000  0.22150000  0.76070000  1.0 -0.4920702874
O  O104  1  0.35110000  0.76070000  0.66666667  1.0 -0.4920702874
O  O105  1  0.76070000  0.66666667  0.35110000  1.0 -0.4920702874
O  O106  1  0.22150000  0.66666667  0.76070000  1.0 -0.4920702874
O  O107  1  0.66666667  0.76070000  0.22150000  1.0 -0.4920702874
O  O108  1  0.76070000  0.35110000  0.22150000  1.0 -0.4920702874
O  O109  1  0.46250000  0.61610000  0.98530000  1.0 -0.4819031357
O  O110  1  0.61610000  0.46250000  0.93610000  1.0 -0.4819031357
O  O111  1  0.93610000  0.98530000  0.61610000  1.0 -0.4819031357
O  O112  1  0.98530000  0.93610000  0.46250000  1.0 -0.4819031357
O  O113  1  0.98530000  0.46250000  0.61610000  1.0 -0.4819031357
O  O114  1  0.61610000  0.98530000  0.46250000  1.0 -0.4819031357
O  O115  1  0.46250000  0.98530000  0.93610000  1.0 -0.4819031357
O  O116  1  0.46250000  0.93610000  0.61610000  1.0 -0.4819031357
O  O117  1  0.93610000  0.61610000  0.46250000  1.0 -0.4819031357
O  O118  1  0.98530000  0.61610000  0.93610000  1.0 -0.4819031357
O  O119  1  0.61610000  0.93610000  0.98530000  1.0 -0.4819031357
O  O120  1  0.93610000  0.46250000  0.98530000  1.0 -0.4819031357
O  O121  1  0.32760000  0.65760000  0.78800000  1.0 -0.5205182234
O  O122  1  0.65760000  0.32760000  0.22680000  1.0 -0.5205182234
O  O123  1  0.22680000  0.78800000  0.65760000  1.0 -0.5205182234
O  O124  1  0.78800000  0.22680000  0.32760000  1.0 -0.5205182234
O  O125  1  0.78800000  0.32760000  0.65760000  1.0 -0.5205182234
O  O126  1  0.65760000  0.78800000  0.32760000  1.0 -0.5205182234
O  O127  1  0.32760000  0.78800000  0.22680000  1.0 -0.5205182234
O  O128  1  0.32760000  0.22680000  0.65760000  1.0 -0.5205182234
O  O129  1  0.22680000  0.65760000  0.32760000  1.0 -0.5205182234
O  O130  1  0.78800000  0.65760000  0.22680000  1.0 -0.5205182234
O  O131  1  0.65760000  0.22680000  0.78800000  1.0 -0.5205182234
O  O132  1  0.22680000  0.32760000  0.78800000  1.0 -0.5205182234
O  O133  1  0.27320000  0.71200000  0.17180000  1.0 -0.5205182234
O  O134  1  0.71200000  0.27320000  0.84300000  1.0 -0.5205182234
O  O135  1  0.84300000  0.17180000  0.71200000  1.0 -0.5205182234
O  O136  1  0.17180000  0.84300000  0.27320000  1.0 -0.5205182234
O  O137  1  0.17180000  0.27320000  0.71200000  1.0 -0.5205182234
O  O138  1  0.71200000  0.17180000  0.27320000  1.0 -0.5205182234
O  O139  1  0.27320000  0.17180000  0.84300000  1.0 -0.5205182234
O  O140  1  0.27320000  0.84300000  0.71200000  1.0 -0.5205182234
O  O141  1  0.84300000  0.71200000  0.27320000  1.0 -0.5205182234
O  O142  1  0.17180000  0.71200000  0.84300000  1.0 -0.5205182234
O  O143  1  0.71200000  0.84300000  0.17180000  1.0 -0.5205182234
O  O144  1  0.84300000  0.27320000  0.17180000  1.0 -0.5205182234
