# DDEC6 charges by PACMAN v1.1 (https://github.com/mtap-research/PACMAN-charge/)
data_DOPHOH_FSR_pacman
_symmetry_space_group_name_H-M   'P 1'
_cell_length_a   24.16330000
_cell_length_b   24.16330000
_cell_length_c   24.16330000
_cell_angle_alpha   60.00000000
_cell_angle_beta   60.00000000
_cell_angle_gamma   60.00000000
_symmetry_Int_Tables_number   1
_chemical_formula_structural   CuH5C7NO6
_chemical_formula_sum   'Cu24 H120 C168 N24 O144'
_cell_volume   9975.93796732
_cell_formula_units_Z   24
loop_
 _symmetry_equiv_pos_site_id
 _symmetry_equiv_pos_as_xyz
  1  'x, y, z'
loop_
 _atom_site_type_symbol
 _atom_site_label
 _atom_site_symmetry_multiplicity
 _atom_site_fract_x
 _atom_site_fract_y
 _atom_site_fract_z
 _atom_site_occupancy
 _atom_site_charge
Cu  Cu1  1  0.45473000  0.45473000  0.04527000  1.0 0.8876902406
Cu  Cu2  1  0.04527000  0.04527000  0.45473000  1.0 0.8876902406
Cu  Cu3  1  0.04527000  0.45473000  0.45473000  1.0 0.8876902406
Cu  Cu4  1  0.45473000  0.04527000  0.45473000  1.0 0.8876902406
Cu  Cu5  1  0.45473000  0.04527000  0.04527000  1.0 0.8876902406
Cu  Cu6  1  0.04527000  0.45473000  0.04527000  1.0 0.8876902406
Cu  Cu7  1  0.71080000  0.28920000  0.28920000  1.0 0.9174622904
Cu  Cu8  1  0.28920000  0.71080000  0.71080000  1.0 0.9138297979
Cu  Cu9  1  0.28920000  0.71080000  0.28920000  1.0 0.9174622904
Cu  Cu10  1  0.28920000  0.28920000  0.71080000  1.0 0.9138297979
Cu  Cu11  1  0.71080000  0.28920000  0.71080000  1.0 0.9138297979
Cu  Cu12  1  0.71080000  0.71080000  0.28920000  1.0 0.9174622904
Cu  Cu13  1  0.53162000  0.53162000  0.96838000  1.0 0.9138297979
Cu  Cu14  1  0.96838000  0.96838000  0.53162000  1.0 0.9138297979
Cu  Cu15  1  0.96838000  0.53162000  0.53162000  1.0 0.9138297979
Cu  Cu16  1  0.53162000  0.96838000  0.53162000  1.0 0.9138297979
Cu  Cu17  1  0.53162000  0.96838000  0.96838000  1.0 0.9138297979
Cu  Cu18  1  0.96838000  0.53162000  0.96838000  1.0 0.9138297979
Cu  Cu19  1  0.78905000  0.21095000  0.21095000  1.0 0.9174622904
Cu  Cu20  1  0.21095000  0.78905000  0.78905000  1.0 0.9174622904
Cu  Cu21  1  0.21095000  0.78905000  0.21095000  1.0 0.9174622904
Cu  Cu22  1  0.21095000  0.21095000  0.78905000  1.0 0.9174622904
Cu  Cu23  1  0.78905000  0.21095000  0.78905000  1.0 0.9174622904
Cu  Cu24  1  0.78905000  0.78905000  0.21095000  1.0 0.9174622904
H  H1  1  0.35700000  0.49840000  0.31560000  1.0 0.1415787085
H  H2  1  0.49840000  0.35700000  0.82900000  1.0 0.1415787085
H  H3  1  0.82900000  0.31560000  0.49840000  1.0 0.1415787085
H  H4  1  0.31560000  0.82900000  0.35700000  1.0 0.1415787085
H  H5  1  0.31560000  0.35700000  0.49840000  1.0 0.1415787085
H  H6  1  0.49840000  0.31560000  0.35700000  1.0 0.1415787085
H  H7  1  0.35700000  0.31560000  0.82900000  1.0 0.1415787085
H  H8  1  0.35700000  0.82900000  0.49840000  1.0 0.1415787085
H  H9  1  0.82900000  0.49840000  0.35700000  1.0 0.1415787085
H  H10  1  0.31560000  0.49840000  0.82900000  1.0 0.1415787085
H  H11  1  0.49840000  0.82900000  0.31560000  1.0 0.1415787085
H  H12  1  0.82900000  0.35700000  0.31560000  1.0 0.1415787085
H  H13  1  0.57470000  0.35950000  0.88610000  1.0 0.166984755
H  H14  1  0.35950000  0.57470000  0.17970000  1.0 0.166984755
H  H15  1  0.17970000  0.88610000  0.35950000  1.0 0.166984755
H  H16  1  0.88610000  0.17970000  0.57470000  1.0 0.166984755
H  H17  1  0.88610000  0.57470000  0.35950000  1.0 0.166984755
H  H18  1  0.35950000  0.88610000  0.57470000  1.0 0.166984755
H  H19  1  0.57470000  0.88610000  0.17970000  1.0 0.166984755
H  H20  1  0.57470000  0.17970000  0.35950000  1.0 0.166984755
H  H21  1  0.17970000  0.35950000  0.57470000  1.0 0.166984755
H  H22  1  0.88610000  0.35950000  0.17970000  1.0 0.166984755
H  H23  1  0.35950000  0.17970000  0.88610000  1.0 0.166984755
H  H24  1  0.17970000  0.57470000  0.88610000  1.0 0.166984755
H  H25  1  0.61150000  0.41350000  0.84330000  1.0 0.1804602165
H  H26  1  0.41350000  0.61150000  0.13170000  1.0 0.1804602165
H  H27  1  0.13170000  0.84330000  0.41350000  1.0 0.1804602165
H  H28  1  0.84330000  0.13170000  0.61150000  1.0 0.1804602165
H  H29  1  0.84330000  0.61150000  0.41350000  1.0 0.1804602165
H  H30  1  0.41350000  0.84330000  0.61150000  1.0 0.1804602165
H  H31  1  0.61150000  0.84330000  0.13170000  1.0 0.1804602165
H  H32  1  0.61150000  0.13170000  0.41350000  1.0 0.1804602165
H  H33  1  0.13170000  0.41350000  0.61150000  1.0 0.1804602165
H  H34  1  0.84330000  0.41350000  0.13170000  1.0 0.1804602165
H  H35  1  0.41350000  0.13170000  0.84330000  1.0 0.1804602165
H  H36  1  0.13170000  0.61150000  0.84330000  1.0 0.1804602165
H  H37  1  0.61890000  0.25730000  0.97190000  1.0 0.2916912418
H  H38  1  0.25730000  0.61890000  0.15190000  1.0 0.2916912418
H  H39  1  0.15190000  0.97190000  0.25730000  1.0 0.2916912418
H  H40  1  0.97190000  0.15190000  0.61890000  1.0 0.2916912418
H  H41  1  0.97190000  0.61890000  0.25730000  1.0 0.2916912418
H  H42  1  0.25730000  0.97190000  0.61890000  1.0 0.2916912418
H  H43  1  0.61890000  0.97190000  0.15190000  1.0 0.2916912418
H  H44  1  0.61890000  0.15190000  0.25730000  1.0 0.2916912418
H  H45  1  0.15190000  0.25730000  0.61890000  1.0 0.2916912418
H  H46  1  0.97190000  0.25730000  0.15190000  1.0 0.2916912418
H  H47  1  0.25730000  0.15190000  0.97190000  1.0 0.2916912418
H  H48  1  0.15190000  0.61890000  0.97190000  1.0 0.2916912418
H  H49  1  0.68390000  0.34790000  0.91130000  1.0 0.1296675547
H  H50  1  0.34790000  0.68390000  0.05690000  1.0 0.1296675547
H  H51  1  0.05690000  0.91130000  0.34790000  1.0 0.1296675547
H  H52  1  0.91130000  0.05690000  0.68390000  1.0 0.1296675547
H  H53  1  0.91130000  0.68390000  0.34790000  1.0 0.1296675547
H  H54  1  0.34790000  0.91130000  0.68390000  1.0 0.1296675547
H  H55  1  0.68390000  0.91130000  0.05690000  1.0 0.1296675547
H  H56  1  0.68390000  0.05690000  0.34790000  1.0 0.1296675547
H  H57  1  0.05690000  0.34790000  0.68390000  1.0 0.1296675547
H  H58  1  0.91130000  0.34790000  0.05690000  1.0 0.1296675547
H  H59  1  0.34790000  0.05690000  0.91130000  1.0 0.1296675547
H  H60  1  0.05690000  0.68390000  0.91130000  1.0 0.1296675547
H  H61  1  0.67000000  0.14380000  0.00140000  1.0 0.1415787085
H  H62  1  0.14380000  0.67000000  0.18480000  1.0 0.1415787085
H  H63  1  0.18480000  0.00140000  0.14380000  1.0 0.1415787085
H  H64  1  0.00140000  0.18480000  0.67000000  1.0 0.1415787085
H  H65  1  0.00140000  0.67000000  0.14380000  1.0 0.1415787085
H  H66  1  0.14380000  0.00140000  0.67000000  1.0 0.1415787085
H  H67  1  0.67000000  0.00140000  0.18480000  1.0 0.1415787085
H  H68  1  0.67000000  0.18480000  0.14380000  1.0 0.1415787085
H  H69  1  0.18480000  0.14380000  0.67000000  1.0 0.1415787085
H  H70  1  0.00140000  0.14380000  0.18480000  1.0 0.1415787085
H  H71  1  0.14380000  0.18480000  0.00140000  1.0 0.1415787085
H  H72  1  0.18480000  0.67000000  0.00140000  1.0 0.1415787085
H  H73  1  0.52630000  0.34910000  0.24170000  1.0 0.2916912418
H  H74  1  0.34910000  0.52630000  0.88290000  1.0 0.2916912418
H  H75  1  0.88290000  0.24170000  0.34910000  1.0 0.2916912418
H  H76  1  0.24170000  0.88290000  0.52630000  1.0 0.2916912418
H  H77  1  0.24170000  0.52630000  0.34910000  1.0 0.2916912418
H  H78  1  0.34910000  0.24170000  0.52630000  1.0 0.2916912418
H  H79  1  0.52630000  0.24170000  0.88290000  1.0 0.2916912418
H  H80  1  0.52630000  0.88290000  0.34910000  1.0 0.2916912418
H  H81  1  0.88290000  0.34910000  0.52630000  1.0 0.2916912418
H  H82  1  0.24170000  0.34910000  0.88290000  1.0 0.2916912418
H  H83  1  0.34910000  0.88290000  0.24170000  1.0 0.2916912418
H  H84  1  0.88290000  0.52630000  0.24170000  1.0 0.2916912418
H  H85  1  0.61450000  0.31930000  0.14070000  1.0 0.166984755
H  H86  1  0.31930000  0.61450000  0.92550000  1.0 0.166984755
H  H87  1  0.92550000  0.14070000  0.31930000  1.0 0.166984755
H  H88  1  0.14070000  0.92550000  0.61450000  1.0 0.166984755
H  H89  1  0.14070000  0.61450000  0.31930000  1.0 0.166984755
H  H90  1  0.31930000  0.14070000  0.61450000  1.0 0.166984755
H  H91  1  0.61450000  0.14070000  0.92550000  1.0 0.166984755
H  H92  1  0.61450000  0.92550000  0.31930000  1.0 0.166984755
H  H93  1  0.92550000  0.31930000  0.61450000  1.0 0.166984755
H  H94  1  0.14070000  0.31930000  0.92550000  1.0 0.166984755
H  H95  1  0.31930000  0.92550000  0.14070000  1.0 0.166984755
H  H96  1  0.92550000  0.61450000  0.14070000  1.0 0.166984755
H  H97  1  0.65710000  0.36750000  0.08650000  1.0 0.1804602165
H  H98  1  0.36750000  0.65710000  0.88890000  1.0 0.1804602165
H  H99  1  0.88890000  0.08650000  0.36750000  1.0 0.1804602165
H  H100  1  0.08650000  0.88890000  0.65710000  1.0 0.1804602165
H  H101  1  0.08650000  0.65710000  0.36750000  1.0 0.1804602165
H  H102  1  0.36750000  0.08650000  0.65710000  1.0 0.1804602165
H  H103  1  0.65710000  0.08650000  0.88890000  1.0 0.1804602165
H  H104  1  0.65710000  0.88890000  0.36750000  1.0 0.1804602165
H  H105  1  0.88890000  0.36750000  0.65710000  1.0 0.1804602165
H  H106  1  0.08650000  0.36750000  0.88890000  1.0 0.1804602165
H  H107  1  0.36750000  0.88890000  0.08650000  1.0 0.1804602165
H  H108  1  0.88890000  0.65710000  0.08650000  1.0 0.1804602165
H  H109  1  0.58760000  0.44340000  0.15200000  1.0 0.1296675547
H  H110  1  0.44340000  0.58760000  0.81700000  1.0 0.1296675547
H  H111  1  0.81700000  0.15200000  0.44340000  1.0 0.1296675547
H  H112  1  0.15200000  0.81700000  0.58760000  1.0 0.1296675547
H  H113  1  0.15200000  0.58760000  0.44340000  1.0 0.1296675547
H  H114  1  0.44340000  0.15200000  0.58760000  1.0 0.1296675547
H  H115  1  0.58760000  0.15200000  0.81700000  1.0 0.1296675547
H  H116  1  0.58760000  0.81700000  0.44340000  1.0 0.1296675547
H  H117  1  0.81700000  0.44340000  0.58760000  1.0 0.1296675547
H  H118  1  0.15200000  0.44340000  0.81700000  1.0 0.1296675547
H  H119  1  0.44340000  0.81700000  0.15200000  1.0 0.1296675547
H  H120  1  0.81700000  0.58760000  0.15200000  1.0 0.1296675547
C  C1  1  0.37010000  0.45490000  0.34530000  1.0 -0.1007916424
C  C2  1  0.45490000  0.37010000  0.82970000  1.0 -0.1007916424
C  C3  1  0.82970000  0.34530000  0.45490000  1.0 -0.1007916424
C  C4  1  0.34530000  0.82970000  0.37010000  1.0 -0.1007916424
C  C5  1  0.34530000  0.37010000  0.45490000  1.0 -0.1007916424
C  C6  1  0.45490000  0.34530000  0.37010000  1.0 -0.1007916424
C  C7  1  0.37010000  0.34530000  0.82970000  1.0 -0.1007916424
C  C8  1  0.37010000  0.82970000  0.45490000  1.0 -0.1007916424
C  C9  1  0.82970000  0.45490000  0.37010000  1.0 -0.1007916424
C  C10  1  0.34530000  0.45490000  0.82970000  1.0 -0.1007916424
C  C11  1  0.45490000  0.82970000  0.34530000  1.0 -0.1007916424
C  C12  1  0.82970000  0.37010000  0.34530000  1.0 -0.1007916424
C  C13  1  0.61780000  0.36580000  0.86860000  1.0 -0.3519760376
C  C14  1  0.36580000  0.61780000  0.14780000  1.0 -0.3519760376
C  C15  1  0.14780000  0.86860000  0.36580000  1.0 -0.3519760376
C  C16  1  0.86860000  0.14780000  0.61780000  1.0 -0.3519760376
C  C17  1  0.86860000  0.61780000  0.36580000  1.0 -0.3519760376
C  C18  1  0.36580000  0.86860000  0.61780000  1.0 -0.3519760376
C  C19  1  0.61780000  0.86860000  0.14780000  1.0 -0.3519760376
C  C20  1  0.61780000  0.14780000  0.36580000  1.0 -0.3519760376
C  C21  1  0.14780000  0.36580000  0.61780000  1.0 -0.3519760376
C  C22  1  0.86860000  0.36580000  0.14780000  1.0 -0.3519760376
C  C23  1  0.36580000  0.14780000  0.86860000  1.0 -0.3519760376
C  C24  1  0.14780000  0.61780000  0.86860000  1.0 -0.3519760376
C  C25  1  0.43540000  0.41000000  0.32440000  1.0 -0.018754687
C  C26  1  0.41000000  0.43540000  0.83020000  1.0 -0.018754687
C  C27  1  0.83020000  0.32440000  0.41000000  1.0 -0.018754687
C  C28  1  0.32440000  0.83020000  0.43540000  1.0 -0.018754687
C  C29  1  0.32440000  0.43540000  0.41000000  1.0 -0.018754687
C  C30  1  0.41000000  0.32440000  0.43540000  1.0 -0.018754687
C  C31  1  0.43540000  0.32440000  0.83020000  1.0 -0.018754687
C  C32  1  0.43540000  0.83020000  0.41000000  1.0 -0.018754687
C  C33  1  0.83020000  0.41000000  0.43540000  1.0 -0.018754687
C  C34  1  0.32440000  0.41000000  0.83020000  1.0 -0.018754687
C  C35  1  0.41000000  0.83020000  0.32440000  1.0 -0.018754687
C  C36  1  0.83020000  0.43540000  0.32440000  1.0 -0.018754687
C  C37  1  0.66990000  0.17550000  0.06550000  1.0 -0.018754687
C  C38  1  0.17550000  0.66990000  0.08910000  1.0 -0.018754687
C  C39  1  0.08910000  0.06550000  0.17550000  1.0 -0.018754687
C  C40  1  0.06550000  0.08910000  0.66990000  1.0 -0.018754687
C  C41  1  0.06550000  0.66990000  0.17550000  1.0 -0.018754687
C  C42  1  0.17550000  0.06550000  0.66990000  1.0 -0.018754687
C  C43  1  0.66990000  0.06550000  0.08910000  1.0 -0.018754687
C  C44  1  0.66990000  0.08910000  0.17550000  1.0 -0.018754687
C  C45  1  0.08910000  0.17550000  0.66990000  1.0 -0.018754687
C  C46  1  0.06550000  0.17550000  0.08910000  1.0 -0.018754687
C  C47  1  0.17550000  0.08910000  0.06550000  1.0 -0.018754687
C  C48  1  0.08910000  0.66990000  0.06550000  1.0 -0.018754687
C  C49  1  0.67170000  0.24450000  0.01890000  1.0 0.4736793741
C  C50  1  0.24450000  0.67170000  0.06490000  1.0 0.4754838093
C  C51  1  0.06490000  0.01890000  0.24450000  1.0 0.4754838093
C  C52  1  0.01890000  0.06490000  0.67170000  1.0 0.4754838093
C  C53  1  0.01890000  0.67170000  0.24450000  1.0 0.4754838093
C  C54  1  0.24450000  0.01890000  0.67170000  1.0 0.4754838093
C  C55  1  0.67170000  0.01890000  0.06490000  1.0 0.4754838093
C  C56  1  0.67170000  0.06490000  0.24450000  1.0 0.4754838093
C  C57  1  0.06490000  0.24450000  0.67170000  1.0 0.4736793741
C  C58  1  0.01890000  0.24450000  0.06490000  1.0 0.4754838093
C  C59  1  0.24450000  0.06490000  0.01890000  1.0 0.4736793741
C  C60  1  0.06490000  0.67170000  0.01890000  1.0 0.4754838093
C  C61  1  0.63850000  0.34550000  0.92850000  1.0 0.0424670697
C  C62  1  0.34550000  0.63850000  0.08750000  1.0 0.0424670697
C  C63  1  0.08750000  0.92850000  0.34550000  1.0 0.0424670697
C  C64  1  0.92850000  0.08750000  0.63850000  1.0 0.0424670697
C  C65  1  0.92850000  0.63850000  0.34550000  1.0 0.0424670697
C  C66  1  0.34550000  0.92850000  0.63850000  1.0 0.0424670697
C  C67  1  0.63850000  0.92850000  0.08750000  1.0 0.0424670697
C  C68  1  0.63850000  0.08750000  0.34550000  1.0 0.0424670697
C  C69  1  0.08750000  0.34550000  0.63850000  1.0 0.0424670697
C  C70  1  0.92850000  0.34550000  0.08750000  1.0 0.0424670697
C  C71  1  0.34550000  0.08750000  0.92850000  1.0 0.0424670697
C  C72  1  0.08750000  0.63850000  0.92850000  1.0 0.0424670697
C  C73  1  0.63140000  0.35280000  0.13400000  1.0 -0.3519760376
C  C74  1  0.35280000  0.63140000  0.88180000  1.0 -0.3519760376
C  C75  1  0.88180000  0.13400000  0.35280000  1.0 -0.3519760376
C  C76  1  0.13400000  0.88180000  0.63140000  1.0 -0.3519760376
C  C77  1  0.13400000  0.63140000  0.35280000  1.0 -0.3519760376
C  C78  1  0.35280000  0.13400000  0.63140000  1.0 -0.3519760376
C  C79  1  0.63140000  0.13400000  0.88180000  1.0 -0.3519760376
C  C80  1  0.63140000  0.88180000  0.35280000  1.0 -0.3519760376
C  C81  1  0.88180000  0.35280000  0.63140000  1.0 -0.3519760376
C  C82  1  0.13400000  0.35280000  0.88180000  1.0 -0.3519760376
C  C83  1  0.35280000  0.88180000  0.13400000  1.0 -0.3519760376
C  C84  1  0.88180000  0.63140000  0.13400000  1.0 -0.3519760376
C  C85  1  0.67000000  0.13020000  0.04480000  1.0 -0.1070557758
C  C86  1  0.13020000  0.67000000  0.15500000  1.0 -0.1070557758
C  C87  1  0.15500000  0.04480000  0.13020000  1.0 -0.1070557758
C  C88  1  0.04480000  0.15500000  0.67000000  1.0 -0.1070557758
C  C89  1  0.04480000  0.67000000  0.13020000  1.0 -0.1070557758
C  C90  1  0.13020000  0.04480000  0.67000000  1.0 -0.1070557758
C  C91  1  0.67000000  0.04480000  0.15500000  1.0 -0.1070557758
C  C92  1  0.67000000  0.15500000  0.13020000  1.0 -0.1070557758
C  C93  1  0.15500000  0.13020000  0.67000000  1.0 -0.1070557758
C  C94  1  0.04480000  0.13020000  0.15500000  1.0 -0.1070557758
C  C95  1  0.13020000  0.15500000  0.04480000  1.0 -0.1070557758
C  C96  1  0.15500000  0.67000000  0.04480000  1.0 -0.1070557758
C  C97  1  0.58710000  0.39810000  0.96390000  1.0 0.5788566936
C  C98  1  0.39810000  0.58710000  0.05090000  1.0 0.5788566936
C  C99  1  0.05090000  0.96390000  0.39810000  1.0 0.5788566936
C  C100  1  0.96390000  0.05090000  0.58710000  1.0 0.5788566936
C  C101  1  0.96390000  0.58710000  0.39810000  1.0 0.5788566936
C  C102  1  0.39810000  0.96390000  0.58710000  1.0 0.5788566936
C  C103  1  0.58710000  0.96390000  0.05090000  1.0 0.5788566936
C  C104  1  0.58710000  0.05090000  0.39810000  1.0 0.5788566936
C  C105  1  0.05090000  0.39810000  0.58710000  1.0 0.5788566936
C  C106  1  0.96390000  0.39810000  0.05090000  1.0 0.5788566936
C  C107  1  0.39810000  0.05090000  0.96390000  1.0 0.5788566936
C  C108  1  0.05090000  0.58710000  0.96390000  1.0 0.5788566936
C  C109  1  0.53580000  0.44960000  0.10140000  1.0 0.5788566936
C  C110  1  0.44960000  0.53580000  0.91320000  1.0 0.5788566936
C  C111  1  0.91320000  0.10140000  0.44960000  1.0 0.5788566936
C  C112  1  0.10140000  0.91320000  0.53580000  1.0 0.5788566936
C  C113  1  0.10140000  0.53580000  0.44960000  1.0 0.5788566936
C  C114  1  0.44960000  0.10140000  0.53580000  1.0 0.5788566936
C  C115  1  0.53580000  0.10140000  0.91320000  1.0 0.5788566936
C  C116  1  0.53580000  0.91320000  0.44960000  1.0 0.5788566936
C  C117  1  0.91320000  0.44960000  0.53580000  1.0 0.5788566936
C  C118  1  0.10140000  0.44960000  0.91320000  1.0 0.5788566936
C  C119  1  0.44960000  0.91320000  0.10140000  1.0 0.5788566936
C  C120  1  0.91320000  0.53580000  0.10140000  1.0 0.5788566936
C  C121  1  0.67790000  0.31610000  0.17490000  1.0 0.6563628062
C  C122  1  0.31610000  0.67790000  0.83110000  1.0 0.6563628062
C  C123  1  0.83110000  0.17490000  0.31610000  1.0 0.6563628062
C  C124  1  0.17490000  0.83110000  0.67790000  1.0 0.6563628062
C  C125  1  0.17490000  0.67790000  0.31610000  1.0 0.6563628062
C  C126  1  0.31610000  0.17490000  0.67790000  1.0 0.6563628062
C  C127  1  0.67790000  0.17490000  0.83110000  1.0 0.6563628062
C  C128  1  0.67790000  0.83110000  0.31610000  1.0 0.6563628062
C  C129  1  0.83110000  0.31610000  0.67790000  1.0 0.6563628062
C  C130  1  0.17490000  0.31610000  0.83110000  1.0 0.6563628062
C  C131  1  0.31610000  0.83110000  0.17490000  1.0 0.6563628062
C  C132  1  0.83110000  0.67790000  0.17490000  1.0 0.6563628062
C  C133  1  0.48150000  0.43510000  0.25550000  1.0 0.4736793741
C  C134  1  0.43510000  0.48150000  0.82790000  1.0 0.4736793741
C  C135  1  0.82790000  0.25550000  0.43510000  1.0 0.4736793741
C  C136  1  0.25550000  0.82790000  0.48150000  1.0 0.4736793741
C  C137  1  0.25550000  0.48150000  0.43510000  1.0 0.4736793741
C  C138  1  0.43510000  0.25550000  0.48150000  1.0 0.4736793741
C  C139  1  0.48150000  0.25550000  0.82790000  1.0 0.4736793741
C  C140  1  0.48150000  0.82790000  0.43510000  1.0 0.4736793741
C  C141  1  0.82790000  0.43510000  0.48150000  1.0 0.4736793741
C  C142  1  0.25550000  0.43510000  0.82790000  1.0 0.4736793741
C  C143  1  0.43510000  0.82790000  0.25550000  1.0 0.4736793741
C  C144  1  0.82790000  0.48150000  0.25550000  1.0 0.4736793741
C  C145  1  0.66910000  0.32530000  0.82170000  1.0 0.6533590102
C  C146  1  0.32530000  0.66910000  0.18390000  1.0 0.6533590102
C  C147  1  0.18390000  0.82170000  0.32530000  1.0 0.6533590102
C  C148  1  0.82170000  0.18390000  0.66910000  1.0 0.6533590102
C  C149  1  0.82170000  0.66910000  0.32530000  1.0 0.6533590102
C  C150  1  0.32530000  0.82170000  0.66910000  1.0 0.6533590102
C  C151  1  0.66910000  0.82170000  0.18390000  1.0 0.6533590102
C  C152  1  0.66910000  0.18390000  0.32530000  1.0 0.6533590102
C  C153  1  0.18390000  0.32530000  0.66910000  1.0 0.6533590102
C  C154  1  0.82170000  0.32530000  0.18390000  1.0 0.6533590102
C  C155  1  0.32530000  0.18390000  0.82170000  1.0 0.6533590102
C  C156  1  0.18390000  0.66910000  0.82170000  1.0 0.6533590102
C  C157  1  0.57120000  0.41280000  0.15380000  1.0 0.0424670697
C  C158  1  0.41280000  0.57120000  0.86220000  1.0 0.0424670697
C  C159  1  0.86220000  0.15380000  0.41280000  1.0 0.0424670697
C  C160  1  0.15380000  0.86220000  0.57120000  1.0 0.0424670697
C  C161  1  0.15380000  0.57120000  0.41280000  1.0 0.0424670697
C  C162  1  0.41280000  0.15380000  0.57120000  1.0 0.0424670697
C  C163  1  0.57120000  0.15380000  0.86220000  1.0 0.0424670697
C  C164  1  0.57120000  0.86220000  0.41280000  1.0 0.0424670697
C  C165  1  0.86220000  0.41280000  0.57120000  1.0 0.0424670697
C  C166  1  0.15380000  0.41280000  0.86220000  1.0 0.0424670697
C  C167  1  0.41280000  0.86220000  0.15380000  1.0 0.0424670697
C  C168  1  0.86220000  0.57120000  0.15380000  1.0 0.0424670697
N  N1  1  0.52680000  0.39020000  0.22220000  1.0 -0.3519760376
N  N2  1  0.39020000  0.52680000  0.86080000  1.0 -0.3519760376
N  N3  1  0.86080000  0.22220000  0.39020000  1.0 -0.3519760376
N  N4  1  0.22220000  0.86080000  0.52680000  1.0 -0.3519760376
N  N5  1  0.22220000  0.52680000  0.39020000  1.0 -0.3519760376
N  N6  1  0.39020000  0.22220000  0.52680000  1.0 -0.3519760376
N  N7  1  0.52680000  0.22220000  0.86080000  1.0 -0.3519760376
N  N8  1  0.52680000  0.86080000  0.39020000  1.0 -0.3519760376
N  N9  1  0.86080000  0.39020000  0.52680000  1.0 -0.3519760376
N  N10  1  0.22220000  0.39020000  0.86080000  1.0 -0.3519760376
N  N11  1  0.39020000  0.86080000  0.22220000  1.0 -0.3519760376
N  N12  1  0.86080000  0.52680000  0.22220000  1.0 -0.3519760376
N  N13  1  0.63910000  0.27690000  0.97390000  1.0 -0.3437385167
N  N14  1  0.27690000  0.63910000  0.11010000  1.0 -0.3437385167
N  N15  1  0.11010000  0.97390000  0.27690000  1.0 -0.3437385167
N  N16  1  0.97390000  0.11010000  0.63910000  1.0 -0.3437385167
N  N17  1  0.97390000  0.63910000  0.27690000  1.0 -0.3437385167
N  N18  1  0.27690000  0.97390000  0.63910000  1.0 -0.3437385167
N  N19  1  0.63910000  0.97390000  0.11010000  1.0 -0.3437385167
N  N20  1  0.63910000  0.11010000  0.27690000  1.0 -0.3437385167
N  N21  1  0.11010000  0.27690000  0.63910000  1.0 -0.3437385167
N  N22  1  0.97390000  0.27690000  0.11010000  1.0 -0.3437385167
N  N23  1  0.27690000  0.11010000  0.97390000  1.0 -0.3437385167
N  N24  1  0.11010000  0.63910000  0.97390000  1.0 -0.3437385167
O  O1  1  0.70310000  0.27130000  0.02130000  1.0 -0.4485145441
O  O2  1  0.27130000  0.70310000  0.00430000  1.0 -0.4485145441
O  O3  1  0.00430000  0.02130000  0.27130000  1.0 -0.4485145441
O  O4  1  0.02130000  0.00430000  0.70310000  1.0 -0.4485145441
O  O5  1  0.02130000  0.70310000  0.27130000  1.0 -0.4485145441
O  O6  1  0.27130000  0.02130000  0.70310000  1.0 -0.4485145441
O  O7  1  0.70310000  0.02130000  0.00430000  1.0 -0.4485145441
O  O8  1  0.70310000  0.00430000  0.27130000  1.0 -0.4485145441
O  O9  1  0.00430000  0.27130000  0.70310000  1.0 -0.4485145441
O  O10  1  0.02130000  0.27130000  0.00430000  1.0 -0.4485145441
O  O11  1  0.27130000  0.00430000  0.02130000  1.0 -0.4485145441
O  O12  1  0.00430000  0.70310000  0.02130000  1.0 -0.4485145441
O  O13  1  0.59700000  0.45480000  0.93520000  1.0 -0.4921066543
O  O14  1  0.45480000  0.59700000  0.01300000  1.0 -0.4921066543
O  O15  1  0.01300000  0.93520000  0.45480000  1.0 -0.4921066543
O  O16  1  0.93520000  0.01300000  0.59700000  1.0 -0.4921066543
O  O17  1  0.93520000  0.59700000  0.45480000  1.0 -0.4921066543
O  O18  1  0.45480000  0.93520000  0.59700000  1.0 -0.4921066543
O  O19  1  0.59700000  0.93520000  0.01300000  1.0 -0.4921066543
O  O20  1  0.59700000  0.01300000  0.45480000  1.0 -0.4921066543
O  O21  1  0.01300000  0.45480000  0.59700000  1.0 -0.4921066543
O  O22  1  0.93520000  0.45480000  0.01300000  1.0 -0.4921066543
O  O23  1  0.45480000  0.01300000  0.93520000  1.0 -0.4921066543
O  O24  1  0.01300000  0.59700000  0.93520000  1.0 -0.4921066543
O  O25  1  0.39170000  0.39170000  0.10830000  1.0 -0.3620446281
O  O26  1  0.10830000  0.10830000  0.39170000  1.0 -0.3620446281
O  O27  1  0.10830000  0.39170000  0.39170000  1.0 -0.3620446281
O  O28  1  0.39170000  0.10830000  0.39170000  1.0 -0.3620446281
O  O29  1  0.39170000  0.10830000  0.10830000  1.0 -0.3620446281
O  O30  1  0.10830000  0.39170000  0.10830000  1.0 -0.3620446281
O  O31  1  0.59350000  0.59350000  0.90650000  1.0 -0.416410412
O  O32  1  0.90650000  0.90650000  0.59350000  1.0 -0.416410412
O  O33  1  0.90650000  0.59350000  0.59350000  1.0 -0.416410412
O  O34  1  0.59350000  0.90650000  0.59350000  1.0 -0.416410412
O  O35  1  0.59350000  0.90650000  0.90650000  1.0 -0.3937918053
O  O36  1  0.90650000  0.59350000  0.90650000  1.0 -0.3937918053
O  O37  1  0.72200000  0.26040000  0.16680000  1.0 -0.4953767315
O  O38  1  0.26040000  0.72200000  0.85080000  1.0 -0.4953767315
O  O39  1  0.85080000  0.16680000  0.26040000  1.0 -0.4921066543
O  O40  1  0.16680000  0.85080000  0.72200000  1.0 -0.4953767315
O  O41  1  0.16680000  0.72200000  0.26040000  1.0 -0.4953767315
O  O42  1  0.26040000  0.16680000  0.72200000  1.0 -0.4921066543
O  O43  1  0.72200000  0.16680000  0.85080000  1.0 -0.4921066543
O  O44  1  0.72200000  0.85080000  0.26040000  1.0 -0.4953767315
O  O45  1  0.85080000  0.26040000  0.72200000  1.0 -0.4921066543
O  O46  1  0.16680000  0.26040000  0.85080000  1.0 -0.4921066543
O  O47  1  0.26040000  0.85080000  0.16680000  1.0 -0.4953767315
O  O48  1  0.85080000  0.72200000  0.16680000  1.0 -0.4953767315
O  O49  1  0.56360000  0.48660000  0.04580000  1.0 -0.4727122442
O  O50  1  0.48660000  0.56360000  0.90400000  1.0 -0.4727122442
O  O51  1  0.90400000  0.04580000  0.48660000  1.0 -0.4727122442
O  O52  1  0.04580000  0.90400000  0.56360000  1.0 -0.4727122442
O  O53  1  0.04580000  0.56360000  0.48660000  1.0 -0.4780785951
O  O54  1  0.48660000  0.04580000  0.56360000  1.0 -0.4727122442
O  O55  1  0.56360000  0.04580000  0.90400000  1.0 -0.4727122442
O  O56  1  0.56360000  0.90400000  0.48660000  1.0 -0.4727122442
O  O57  1  0.90400000  0.48660000  0.56360000  1.0 -0.4727122442
O  O58  1  0.04580000  0.48660000  0.90400000  1.0 -0.4727122442
O  O59  1  0.48660000  0.90400000  0.04580000  1.0 -0.4780785951
O  O60  1  0.90400000  0.56360000  0.04580000  1.0 -0.4727122442
O  O61  1  0.47950000  0.49530000  0.22890000  1.0 -0.4485145441
O  O62  1  0.49530000  0.47950000  0.79630000  1.0 -0.4485145441
O  O63  1  0.79630000  0.22890000  0.49530000  1.0 -0.4485145441
O  O64  1  0.22890000  0.79630000  0.47950000  1.0 -0.4485145441
O  O65  1  0.22890000  0.47950000  0.49530000  1.0 -0.4485145441
O  O66  1  0.49530000  0.22890000  0.47950000  1.0 -0.4485145441
O  O67  1  0.47950000  0.22890000  0.79630000  1.0 -0.4485145441
O  O68  1  0.47950000  0.79630000  0.49530000  1.0 -0.4485145441
O  O69  1  0.79630000  0.49530000  0.47950000  1.0 -0.4485145441
O  O70  1  0.22890000  0.49530000  0.79630000  1.0 -0.4485145441
O  O71  1  0.49530000  0.79630000  0.22890000  1.0 -0.4485145441
O  O72  1  0.79630000  0.47950000  0.22890000  1.0 -0.4485145441
O  O73  1  0.84950000  0.15050000  0.15050000  1.0 -0.2799041444
O  O74  1  0.15050000  0.84950000  0.84950000  1.0 -0.2799041444
O  O75  1  0.15050000  0.84950000  0.15050000  1.0 -0.2799041444
O  O76  1  0.15050000  0.15050000  0.84950000  1.0 -0.2799041444
O  O77  1  0.84950000  0.15050000  0.84950000  1.0 -0.2799041444
O  O78  1  0.84950000  0.84950000  0.15050000  1.0 -0.2799041444
O  O79  1  0.65120000  0.34880000  0.34880000  1.0 -0.2799041444
O  O80  1  0.34880000  0.65120000  0.65120000  1.0 -0.2799041444
O  O81  1  0.34880000  0.65120000  0.34880000  1.0 -0.2799041444
O  O82  1  0.34880000  0.34880000  0.65120000  1.0 -0.2799041444
O  O83  1  0.65120000  0.34880000  0.65120000  1.0 -0.2871393816
O  O84  1  0.65120000  0.65120000  0.34880000  1.0 -0.2799041444
O  O85  1  0.48560000  0.43580000  0.11580000  1.0 -0.4727122442
O  O86  1  0.43580000  0.48560000  0.96280000  1.0 -0.4727122442
O  O87  1  0.96280000  0.11580000  0.43580000  1.0 -0.4727122442
O  O88  1  0.11580000  0.96280000  0.48560000  1.0 -0.4727122442
O  O89  1  0.11580000  0.48560000  0.43580000  1.0 -0.4727122442
O  O90  1  0.43580000  0.11580000  0.48560000  1.0 -0.4727122442
O  O91  1  0.48560000  0.11580000  0.96280000  1.0 -0.4727122442
O  O92  1  0.48560000  0.96280000  0.43580000  1.0 -0.4727122442
O  O93  1  0.96280000  0.43580000  0.48560000  1.0 -0.4727122442
O  O94  1  0.11580000  0.43580000  0.96280000  1.0 -0.4727122442
O  O95  1  0.43580000  0.96280000  0.11580000  1.0 -0.4727122442
O  O96  1  0.96280000  0.48560000  0.11580000  1.0 -0.4727122442
O  O97  1  0.64870000  0.33350000  0.77850000  1.0 -0.4921066543
O  O98  1  0.33350000  0.64870000  0.23930000  1.0 -0.4921066543
O  O99  1  0.23930000  0.77850000  0.33350000  1.0 -0.4921066543
O  O100  1  0.77850000  0.23930000  0.64870000  1.0 -0.4921066543
O  O101  1  0.77850000  0.64870000  0.33350000  1.0 -0.4921066543
O  O102  1  0.33350000  0.77850000  0.64870000  1.0 -0.4921066543
O  O103  1  0.64870000  0.77850000  0.23930000  1.0 -0.4921066543
O  O104  1  0.64870000  0.23930000  0.33350000  1.0 -0.4921066543
O  O105  1  0.23930000  0.33350000  0.64870000  1.0 -0.4921066543
O  O106  1  0.77850000  0.33350000  0.23930000  1.0 -0.4921066543
O  O107  1  0.33350000  0.23930000  0.77850000  1.0 -0.4921066543
O  O108  1  0.23930000  0.64870000  0.77850000  1.0 -0.4921066543
O  O109  1  0.53709000  0.38391000  0.01451000  1.0 -0.4780785951
O  O110  1  0.38391000  0.53709000  0.06449000  1.0 -0.4780785951
O  O111  1  0.06449000  0.01451000  0.38391000  1.0 -0.4780785951
O  O112  1  0.01451000  0.06449000  0.53709000  1.0 -0.4780785951
O  O113  1  0.01451000  0.53709000  0.38391000  1.0 -0.4780785951
O  O114  1  0.38391000  0.01451000  0.53709000  1.0 -0.4780785951
O  O115  1  0.53709000  0.01451000  0.06449000  1.0 -0.4780785951
O  O116  1  0.53709000  0.06449000  0.38391000  1.0 -0.4780785951
O  O117  1  0.06449000  0.38391000  0.53709000  1.0 -0.4780785951
O  O118  1  0.01451000  0.38391000  0.06449000  1.0 -0.4780785951
O  O119  1  0.38391000  0.06449000  0.01451000  1.0 -0.4780785951
O  O120  1  0.06449000  0.53709000  0.01451000  1.0 -0.4780785951
O  O121  1  0.67240000  0.34220000  0.21180000  1.0 -0.514121836
O  O122  1  0.34220000  0.67240000  0.77360000  1.0 -0.514121836
O  O123  1  0.77360000  0.21180000  0.34220000  1.0 -0.514121836
O  O124  1  0.21180000  0.77360000  0.67240000  1.0 -0.514121836
O  O125  1  0.21180000  0.67240000  0.34220000  1.0 -0.514121836
O  O126  1  0.34220000  0.21180000  0.67240000  1.0 -0.514121836
O  O127  1  0.67240000  0.21180000  0.77360000  1.0 -0.514121836
O  O128  1  0.67240000  0.77360000  0.34220000  1.0 -0.514121836
O  O129  1  0.77360000  0.34220000  0.67240000  1.0 -0.514121836
O  O130  1  0.21180000  0.34220000  0.77360000  1.0 -0.514121836
O  O131  1  0.34220000  0.77360000  0.21180000  1.0 -0.514121836
O  O132  1  0.77360000  0.67240000  0.21180000  1.0 -0.514121836
O  O133  1  0.72650000  0.28850000  0.82750000  1.0 -0.514121836
O  O134  1  0.28850000  0.72650000  0.15750000  1.0 -0.5152200715
O  O135  1  0.15750000  0.82750000  0.28850000  1.0 -0.5152200715
O  O136  1  0.82750000  0.15750000  0.72650000  1.0 -0.514121836
O  O137  1  0.82750000  0.72650000  0.28850000  1.0 -0.514121836
O  O138  1  0.28850000  0.82750000  0.72650000  1.0 -0.514121836
O  O139  1  0.72650000  0.82750000  0.15750000  1.0 -0.514121836
O  O140  1  0.72650000  0.15750000  0.28850000  1.0 -0.514121836
O  O141  1  0.15750000  0.28850000  0.72650000  1.0 -0.514121836
O  O142  1  0.82750000  0.28850000  0.15750000  1.0 -0.514121836
O  O143  1  0.28850000  0.15750000  0.82750000  1.0 -0.5152200715
O  O144  1  0.15750000  0.72650000  0.82750000  1.0 -0.514121836
