# DDEC6 charges by PACMAN v1.1 (https://github.com/mtap-research/PACMAN-charge/)
data_DOPJAV_ASR_pacman
_symmetry_space_group_name_H-M   'P 1'
_cell_length_a   17.53000000
_cell_length_b   20.03700000
_cell_length_c   21.05000000
_cell_angle_alpha   90.00000000
_cell_angle_beta   90.00000000
_cell_angle_gamma   90.00000000
_symmetry_Int_Tables_number   1
_chemical_formula_structural   CuH5C7NO5
_chemical_formula_sum   'Cu24 H120 C168 N24 O120'
_cell_volume   7393.78324050
_cell_formula_units_Z   24
loop_
 _symmetry_equiv_pos_site_id
 _symmetry_equiv_pos_as_xyz
  1  'x, y, z'
loop_
 _atom_site_type_symbol
 _atom_site_label
 _atom_site_symmetry_multiplicity
 _atom_site_fract_x
 _atom_site_fract_y
 _atom_site_fract_z
 _atom_site_occupancy
 _atom_site_charge
Cu  Cu1  1  0.13370000  0.58833000  0.95090000  1.0 0.910993996
Cu  Cu2  1  0.36630000  0.91167000  0.95090000  1.0 0.910993996
Cu  Cu3  1  0.13370000  0.41167000  0.54910000  1.0 0.910993996
Cu  Cu4  1  0.36630000  0.08833000  0.54910000  1.0 0.910993996
Cu  Cu5  1  0.86630000  0.41167000  0.04910000  1.0 0.910993996
Cu  Cu6  1  0.63370000  0.08833000  0.04910000  1.0 0.910993996
Cu  Cu7  1  0.86630000  0.58833000  0.45090000  1.0 0.910993996
Cu  Cu8  1  0.63370000  0.91167000  0.45090000  1.0 0.910993996
Cu  Cu9  1  0.97701000  0.66596000  0.93032000  1.0 0.6900379461
Cu  Cu10  1  0.52299000  0.83404000  0.93032000  1.0 0.6900379461
Cu  Cu11  1  0.97701000  0.33404000  0.56968000  1.0 0.6900379461
Cu  Cu12  1  0.52299000  0.16596000  0.56968000  1.0 0.6900379461
Cu  Cu13  1  0.02299000  0.33404000  0.06968000  1.0 0.6900379461
Cu  Cu14  1  0.47701000  0.16596000  0.06968000  1.0 0.6900379461
Cu  Cu15  1  0.02299000  0.66596000  0.43032000  1.0 0.6900379461
Cu  Cu16  1  0.47701000  0.83404000  0.43032000  1.0 0.6900379461
Cu  Cu17  1  0.49424000  0.51478000  0.56087000  1.0 0.8294181329
Cu  Cu18  1  0.00576000  0.98522000  0.56087000  1.0 0.8294181329
Cu  Cu19  1  0.49424000  0.48522000  0.93913000  1.0 0.8294181329
Cu  Cu20  1  0.00576000  0.01478000  0.93913000  1.0 0.8294181329
Cu  Cu21  1  0.50576000  0.48522000  0.43913000  1.0 0.8294181329
Cu  Cu22  1  0.99424000  0.01478000  0.43913000  1.0 0.8294181329
Cu  Cu23  1  0.50576000  0.51478000  0.06087000  1.0 0.8294181329
Cu  Cu24  1  0.99424000  0.98522000  0.06087000  1.0 0.8294181329
H  H1  1  0.93090000  0.54330000  0.10250000  1.0 0.1605754999
H  H2  1  0.56910000  0.95670000  0.10250000  1.0 0.1605754999
H  H3  1  0.93090000  0.45670000  0.39750000  1.0 0.1605754999
H  H4  1  0.56910000  0.04330000  0.39750000  1.0 0.1605754999
H  H5  1  0.06910000  0.45670000  0.89750000  1.0 0.1605754999
H  H6  1  0.43090000  0.04330000  0.89750000  1.0 0.1605754999
H  H7  1  0.06910000  0.54330000  0.60250000  1.0 0.1605754999
H  H8  1  0.43090000  0.95670000  0.60250000  1.0 0.1605754999
H  H9  1  0.96710000  0.60700000  0.13300000  1.0 0.1605754999
H  H10  1  0.53290000  0.89300000  0.13300000  1.0 0.1605754999
H  H11  1  0.96710000  0.39300000  0.36700000  1.0 0.1605754999
H  H12  1  0.53290000  0.10700000  0.36700000  1.0 0.1605754999
H  H13  1  0.03290000  0.39300000  0.86700000  1.0 0.1605754999
H  H14  1  0.46710000  0.10700000  0.86700000  1.0 0.1605754999
H  H15  1  0.03290000  0.60700000  0.63300000  1.0 0.1605754999
H  H16  1  0.46710000  0.89300000  0.63300000  1.0 0.1605754999
H  H17  1  0.22140000  0.64040000  0.12760000  1.0 0.133680324
H  H18  1  0.27860000  0.85960000  0.12760000  1.0 0.133680324
H  H19  1  0.22140000  0.35960000  0.37240000  1.0 0.133680324
H  H20  1  0.27860000  0.14040000  0.37240000  1.0 0.133680324
H  H21  1  0.77860000  0.35960000  0.87240000  1.0 0.133680324
H  H22  1  0.72140000  0.14040000  0.87240000  1.0 0.133680324
H  H23  1  0.77860000  0.64040000  0.62760000  1.0 0.133680324
H  H24  1  0.72140000  0.85960000  0.62760000  1.0 0.133680324
H  H25  1  0.17850000  0.62370000  0.31530000  1.0 0.133680324
H  H26  1  0.32150000  0.87630000  0.31530000  1.0 0.133680324
H  H27  1  0.17850000  0.37630000  0.18470000  1.0 0.133680324
H  H28  1  0.32150000  0.12370000  0.18470000  1.0 0.133680324
H  H29  1  0.82150000  0.37630000  0.68470000  1.0 0.133680324
H  H30  1  0.67850000  0.12370000  0.68470000  1.0 0.133680324
H  H31  1  0.82150000  0.62370000  0.81530000  1.0 0.133680324
H  H32  1  0.67850000  0.87630000  0.81530000  1.0 0.133680324
H  H33  1  0.29090000  0.68880000  0.06800000  1.0 0.2785170254
H  H34  1  0.20910000  0.81120000  0.06800000  1.0 0.2785170254
H  H35  1  0.29090000  0.31120000  0.43200000  1.0 0.2785170254
H  H36  1  0.20910000  0.18880000  0.43200000  1.0 0.2785170254
H  H37  1  0.70910000  0.31120000  0.93200000  1.0 0.2785170254
H  H38  1  0.79090000  0.18880000  0.93200000  1.0 0.2785170254
H  H39  1  0.70910000  0.68880000  0.56800000  1.0 0.2785170254
H  H40  1  0.79090000  0.81120000  0.56800000  1.0 0.2785170254
H  H41  1  0.38340000  0.68920000  0.25450000  1.0 0.1410508947
H  H42  1  0.11660000  0.81080000  0.25450000  1.0 0.1410508947
H  H43  1  0.38340000  0.31080000  0.24550000  1.0 0.1410508947
H  H44  1  0.11660000  0.18920000  0.24550000  1.0 0.1410508947
H  H45  1  0.61660000  0.31080000  0.74550000  1.0 0.1410508947
H  H46  1  0.88340000  0.18920000  0.74550000  1.0 0.1410508947
H  H47  1  0.61660000  0.68920000  0.75450000  1.0 0.1410508947
H  H48  1  0.88340000  0.81080000  0.75450000  1.0 0.1410508947
H  H49  1  0.32340000  0.65780000  0.48120000  1.0 0.1138155785
H  H50  1  0.17660000  0.84220000  0.48120000  1.0 0.1138155785
H  H51  1  0.32340000  0.34220000  0.01880000  1.0 0.1138155785
H  H52  1  0.17660000  0.15780000  0.01880000  1.0 0.1138155785
H  H53  1  0.67660000  0.34220000  0.51880000  1.0 0.1138155785
H  H54  1  0.82340000  0.15780000  0.51880000  1.0 0.1138155785
H  H55  1  0.67660000  0.65780000  0.98120000  1.0 0.1138155785
H  H56  1  0.82340000  0.84220000  0.98120000  1.0 0.1138155785
H  H57  1  0.25850000  0.60180000  0.55600000  1.0 0.1524796438
H  H58  1  0.24150000  0.89820000  0.55600000  1.0 0.1524796438
H  H59  1  0.25850000  0.39820000  0.94400000  1.0 0.1524796438
H  H60  1  0.24150000  0.10180000  0.94400000  1.0 0.1524796438
H  H61  1  0.74150000  0.39820000  0.44400000  1.0 0.1524796438
H  H62  1  0.75850000  0.10180000  0.44400000  1.0 0.1524796438
H  H63  1  0.74150000  0.60180000  0.05600000  1.0 0.1524796438
H  H64  1  0.75850000  0.89820000  0.05600000  1.0 0.1524796438
H  H65  1  0.19990000  0.61980000  0.50260000  1.0 0.1605754999
H  H66  1  0.30010000  0.88020000  0.50260000  1.0 0.1605754999
H  H67  1  0.19990000  0.38020000  0.99740000  1.0 0.1605754999
H  H68  1  0.30010000  0.11980000  0.99740000  1.0 0.1605754999
H  H69  1  0.80010000  0.38020000  0.49740000  1.0 0.1605754999
H  H70  1  0.69990000  0.11980000  0.49740000  1.0 0.1605754999
H  H71  1  0.80010000  0.61980000  0.00260000  1.0 0.1605754999
H  H72  1  0.69990000  0.88020000  0.00260000  1.0 0.1605754999
H  H73  1  0.32540000  0.65820000  0.95780000  1.0 0.1605754999
H  H74  1  0.17460000  0.84180000  0.95780000  1.0 0.1605754999
H  H75  1  0.32540000  0.34180000  0.54220000  1.0 0.1605754999
H  H76  1  0.17460000  0.15820000  0.54220000  1.0 0.1605754999
H  H77  1  0.67460000  0.34180000  0.04220000  1.0 0.1605754999
H  H78  1  0.82540000  0.15820000  0.04220000  1.0 0.1605754999
H  H79  1  0.67460000  0.65820000  0.45780000  1.0 0.1605754999
H  H80  1  0.82540000  0.84180000  0.45780000  1.0 0.1605754999
H  H81  1  0.39780000  0.69030000  0.92660000  1.0 0.1605754999
H  H82  1  0.10220000  0.80970000  0.92660000  1.0 0.1605754999
H  H83  1  0.39780000  0.30970000  0.57340000  1.0 0.1605754999
H  H84  1  0.10220000  0.19030000  0.57340000  1.0 0.1605754999
H  H85  1  0.60220000  0.30970000  0.07340000  1.0 0.1605754999
H  H86  1  0.89780000  0.19030000  0.07340000  1.0 0.1605754999
H  H87  1  0.60220000  0.69030000  0.42660000  1.0 0.1605754999
H  H88  1  0.89780000  0.80970000  0.42660000  1.0 0.1605754999
H  H89  1  0.43890000  0.72300000  0.03170000  1.0 0.1138155785
H  H90  1  0.06110000  0.77700000  0.03170000  1.0 0.1138155785
H  H91  1  0.43890000  0.27700000  0.46830000  1.0 0.1138155785
H  H92  1  0.06110000  0.22300000  0.46830000  1.0 0.1138155785
H  H93  1  0.56110000  0.27700000  0.96830000  1.0 0.1138155785
H  H94  1  0.93890000  0.22300000  0.96830000  1.0 0.1138155785
H  H95  1  0.56110000  0.72300000  0.53170000  1.0 0.1138155785
H  H96  1  0.93890000  0.77700000  0.53170000  1.0 0.1138155785
H  H97  1  0.14630000  0.54450000  0.13280000  1.0 0.2956270528
H  H98  1  0.35370000  0.95550000  0.13280000  1.0 0.2956270528
H  H99  1  0.14630000  0.45550000  0.36720000  1.0 0.2956270528
H  H100  1  0.35370000  0.04450000  0.36720000  1.0 0.2956270528
H  H101  1  0.85370000  0.45550000  0.86720000  1.0 0.2956270528
H  H102  1  0.64630000  0.04450000  0.86720000  1.0 0.2956270528
H  H103  1  0.85370000  0.54450000  0.63280000  1.0 0.2956270528
H  H104  1  0.64630000  0.95550000  0.63280000  1.0 0.2956270528
H  H105  1  0.25880000  0.58540000  0.39040000  1.0 0.2785170254
H  H106  1  0.24120000  0.91460000  0.39040000  1.0 0.2785170254
H  H107  1  0.25880000  0.41460000  0.10960000  1.0 0.2785170254
H  H108  1  0.24120000  0.08540000  0.10960000  1.0 0.2785170254
H  H109  1  0.74120000  0.41460000  0.60960000  1.0 0.2785170254
H  H110  1  0.75880000  0.08540000  0.60960000  1.0 0.2785170254
H  H111  1  0.74120000  0.58540000  0.89040000  1.0 0.2785170254
H  H112  1  0.75880000  0.91460000  0.89040000  1.0 0.2785170254
H  H113  1  0.01220000  0.51290000  0.18620000  1.0 0.1138155785
H  H114  1  0.48780000  0.98710000  0.18620000  1.0 0.1138155785
H  H115  1  0.01220000  0.48710000  0.31380000  1.0 0.1138155785
H  H116  1  0.48780000  0.01290000  0.31380000  1.0 0.1138155785
H  H117  1  0.98780000  0.48710000  0.81380000  1.0 0.1138155785
H  H118  1  0.51220000  0.01290000  0.81380000  1.0 0.1138155785
H  H119  1  0.98780000  0.51290000  0.68620000  1.0 0.1138155785
H  H120  1  0.51220000  0.98710000  0.68620000  1.0 0.1138155785
C  C1  1  0.31020000  0.66950000  0.18270000  1.0 -0.003954309
C  C2  1  0.18980000  0.83050000  0.18270000  1.0 -0.003954309
C  C3  1  0.31020000  0.33050000  0.31730000  1.0 -0.003954309
C  C4  1  0.18980000  0.16950000  0.31730000  1.0 -0.003954309
C  C5  1  0.68980000  0.33050000  0.81730000  1.0 -0.003954309
C  C6  1  0.81020000  0.16950000  0.81730000  1.0 -0.003954309
C  C7  1  0.68980000  0.66950000  0.68270000  1.0 -0.003954309
C  C8  1  0.81020000  0.83050000  0.68270000  1.0 -0.003954309
C  C9  1  0.97830000  0.56730000  0.10850000  1.0 -0.3477274947
C  C10  1  0.52170000  0.93270000  0.10850000  1.0 -0.3477274947
C  C11  1  0.97830000  0.43270000  0.39150000  1.0 -0.3477274947
C  C12  1  0.52170000  0.06730000  0.39150000  1.0 -0.3477274947
C  C13  1  0.02170000  0.43270000  0.89150000  1.0 -0.3477274947
C  C14  1  0.47830000  0.06730000  0.89150000  1.0 -0.3477274947
C  C15  1  0.02170000  0.56730000  0.60850000  1.0 -0.3477274947
C  C16  1  0.47830000  0.93270000  0.60850000  1.0 -0.3477274947
C  C17  1  0.23750000  0.64500000  0.16940000  1.0 -0.1347578812
C  C18  1  0.26250000  0.85500000  0.16940000  1.0 -0.1347578812
C  C19  1  0.23750000  0.35500000  0.33060000  1.0 -0.1347578812
C  C20  1  0.26250000  0.14500000  0.33060000  1.0 -0.1347578812
C  C21  1  0.76250000  0.35500000  0.83060000  1.0 -0.1347578812
C  C22  1  0.73750000  0.14500000  0.83060000  1.0 -0.1347578812
C  C23  1  0.76250000  0.64500000  0.66940000  1.0 -0.1347578812
C  C24  1  0.73750000  0.85500000  0.66940000  1.0 -0.1347578812
C  C25  1  0.21310000  0.63260000  0.28190000  1.0 -0.1099621962
C  C26  1  0.28690000  0.86740000  0.28190000  1.0 -0.1099621962
C  C27  1  0.21310000  0.36740000  0.21810000  1.0 -0.1099621962
C  C28  1  0.28690000  0.13260000  0.21810000  1.0 -0.1099621962
C  C29  1  0.78690000  0.36740000  0.71810000  1.0 -0.1099621962
C  C30  1  0.71310000  0.13260000  0.71810000  1.0 -0.1099621962
C  C31  1  0.78690000  0.63260000  0.78190000  1.0 -0.1099621962
C  C32  1  0.71310000  0.86740000  0.78190000  1.0 -0.1099621962
C  C33  1  0.35940000  0.78980000  0.99740000  1.0 0.5795519155
C  C34  1  0.14060000  0.71020000  0.99740000  1.0 0.5795519155
C  C35  1  0.35940000  0.21020000  0.50260000  1.0 0.5795519155
C  C36  1  0.14060000  0.28980000  0.50260000  1.0 0.5795519155
C  C37  1  0.64060000  0.21020000  0.00260000  1.0 0.5795519155
C  C38  1  0.85940000  0.28980000  0.00260000  1.0 0.5795519155
C  C39  1  0.64060000  0.78980000  0.49740000  1.0 0.5795519155
C  C40  1  0.85940000  0.71020000  0.49740000  1.0 0.5795519155
C  C41  1  0.31600000  0.65490000  0.36140000  1.0 0.4560778317
C  C42  1  0.18400000  0.84510000  0.36140000  1.0 0.4560778317
C  C43  1  0.31600000  0.34510000  0.13860000  1.0 0.4560778317
C  C44  1  0.18400000  0.15490000  0.13860000  1.0 0.4560778317
C  C45  1  0.68400000  0.34510000  0.63860000  1.0 0.4560778317
C  C46  1  0.81600000  0.15490000  0.63860000  1.0 0.4560778317
C  C47  1  0.68400000  0.65490000  0.86140000  1.0 0.4560778317
C  C48  1  0.81600000  0.84510000  0.86140000  1.0 0.4560778317
C  C49  1  0.36590000  0.69090000  0.13180000  1.0 0.4547620666
C  C50  1  0.13410000  0.80910000  0.13180000  1.0 0.4547620666
C  C51  1  0.36590000  0.30910000  0.36820000  1.0 0.4547620666
C  C52  1  0.13410000  0.19090000  0.36820000  1.0 0.4547620666
C  C53  1  0.63410000  0.30910000  0.86820000  1.0 0.4547620666
C  C54  1  0.86590000  0.19090000  0.86820000  1.0 0.4547620666
C  C55  1  0.63410000  0.69090000  0.63180000  1.0 0.4547620666
C  C56  1  0.86590000  0.80910000  0.63180000  1.0 0.4547620666
C  C57  1  0.22110000  0.51910000  0.50790000  1.0 0.6428659511
C  C58  1  0.27890000  0.98090000  0.50790000  1.0 0.6428659511
C  C59  1  0.22110000  0.48090000  0.99210000  1.0 0.6428659511
C  C60  1  0.27890000  0.01910000  0.99210000  1.0 0.6428659511
C  C61  1  0.77890000  0.48090000  0.49210000  1.0 0.6428659511
C  C62  1  0.72110000  0.01910000  0.49210000  1.0 0.6428659511
C  C63  1  0.77890000  0.51910000  0.00790000  1.0 0.6428659511
C  C64  1  0.72110000  0.98090000  0.00790000  1.0 0.6428659511
C  C65  1  0.04710000  0.45440000  0.11774000  1.0 0.5795519155
C  C66  1  0.45290000  0.04560000  0.11774000  1.0 0.5795519155
C  C67  1  0.04710000  0.54560000  0.38226000  1.0 0.5795519155
C  C68  1  0.45290000  0.95440000  0.38226000  1.0 0.5795519155
C  C69  1  0.95290000  0.54560000  0.88226000  1.0 0.5795519155
C  C70  1  0.54710000  0.95440000  0.88226000  1.0 0.5795519155
C  C71  1  0.95290000  0.45440000  0.61774000  1.0 0.5795519155
C  C72  1  0.54710000  0.04560000  0.61774000  1.0 0.5795519155
C  C73  1  0.18930000  0.62740000  0.21910000  1.0 0.0014998882
C  C74  1  0.31070000  0.87260000  0.21910000  1.0 0.0014998882
C  C75  1  0.18930000  0.37260000  0.28090000  1.0 0.0014998882
C  C76  1  0.31070000  0.12740000  0.28090000  1.0 0.0014998882
C  C77  1  0.81070000  0.37260000  0.78090000  1.0 0.0014998882
C  C78  1  0.68930000  0.12740000  0.78090000  1.0 0.0014998882
C  C79  1  0.81070000  0.62740000  0.71910000  1.0 0.0014998882
C  C80  1  0.68930000  0.87260000  0.71910000  1.0 0.0014998882
C  C81  1  0.28740000  0.65280000  0.29480000  1.0 -0.0080748013
C  C82  1  0.21260000  0.84720000  0.29480000  1.0 -0.0080748013
C  C83  1  0.28740000  0.34720000  0.20520000  1.0 -0.0080748013
C  C84  1  0.21260000  0.15280000  0.20520000  1.0 -0.0080748013
C  C85  1  0.71260000  0.34720000  0.70520000  1.0 -0.0080748013
C  C86  1  0.78740000  0.15280000  0.70520000  1.0 -0.0080748013
C  C87  1  0.71260000  0.65280000  0.79480000  1.0 -0.0080748013
C  C88  1  0.78740000  0.84720000  0.79480000  1.0 -0.0080748013
C  C89  1  0.33500000  0.67320000  0.24540000  1.0 -0.0903040442
C  C90  1  0.16500000  0.82680000  0.24540000  1.0 -0.0903040442
C  C91  1  0.33500000  0.32680000  0.25460000  1.0 -0.0903040442
C  C92  1  0.16500000  0.17320000  0.25460000  1.0 -0.0903040442
C  C93  1  0.66500000  0.32680000  0.75460000  1.0 -0.0903040442
C  C94  1  0.83500000  0.17320000  0.75460000  1.0 -0.0903040442
C  C95  1  0.66500000  0.67320000  0.74540000  1.0 -0.0903040442
C  C96  1  0.83500000  0.82680000  0.74540000  1.0 -0.0903040442
C  C97  1  0.38010000  0.56750000  0.47850000  1.0 0.5795519155
C  C98  1  0.11990000  0.93250000  0.47850000  1.0 0.5795519155
C  C99  1  0.38010000  0.43250000  0.02150000  1.0 0.5795519155
C  C100  1  0.11990000  0.06750000  0.02150000  1.0 0.5795519155
C  C101  1  0.61990000  0.43250000  0.52150000  1.0 0.5795519155
C  C102  1  0.88010000  0.06750000  0.52150000  1.0 0.5795519155
C  C103  1  0.61990000  0.56750000  0.97850000  1.0 0.5795519155
C  C104  1  0.88010000  0.93250000  0.97850000  1.0 0.5795519155
C  C105  1  0.11080000  0.59950000  0.20880000  1.0 0.4705383507
C  C106  1  0.38920000  0.90050000  0.20880000  1.0 0.4705383507
C  C107  1  0.11080000  0.40050000  0.29120000  1.0 0.4705383507
C  C108  1  0.38920000  0.09950000  0.29120000  1.0 0.4705383507
C  C109  1  0.88920000  0.40050000  0.79120000  1.0 0.4705383507
C  C110  1  0.61080000  0.09950000  0.79120000  1.0 0.4705383507
C  C111  1  0.88920000  0.59950000  0.70880000  1.0 0.4705383507
C  C112  1  0.61080000  0.90050000  0.70880000  1.0 0.4705383507
C  C113  1  0.03180000  0.52350000  0.14700000  1.0 0.0563427981
C  C114  1  0.46820000  0.97650000  0.14700000  1.0 0.0563427981
C  C115  1  0.03180000  0.47650000  0.35300000  1.0 0.0563427981
C  C116  1  0.46820000  0.02350000  0.35300000  1.0 0.0563427981
C  C117  1  0.96820000  0.47650000  0.85300000  1.0 0.0563427981
C  C118  1  0.53180000  0.02350000  0.85300000  1.0 0.0563427981
C  C119  1  0.96820000  0.52350000  0.64700000  1.0 0.0563427981
C  C120  1  0.53180000  0.97650000  0.64700000  1.0 0.0563427981
C  C121  1  0.30890000  0.61230000  0.46930000  1.0 0.0359203629
C  C122  1  0.19110000  0.88770000  0.46930000  1.0 0.0349827287
C  C123  1  0.30890000  0.38770000  0.03070000  1.0 0.0359203629
C  C124  1  0.19110000  0.11230000  0.03070000  1.0 0.0359203629
C  C125  1  0.69110000  0.38770000  0.53070000  1.0 0.0359203629
C  C126  1  0.80890000  0.11230000  0.53070000  1.0 0.0359203629
C  C127  1  0.69110000  0.61230000  0.96930000  1.0 0.0359203629
C  C128  1  0.80890000  0.88770000  0.96930000  1.0 0.0359203629
C  C129  1  0.42350000  0.60400000  0.97640000  1.0 0.6584209454
C  C130  1  0.07650000  0.89600000  0.97640000  1.0 0.6584209454
C  C131  1  0.42350000  0.39600000  0.52360000  1.0 0.6584209454
C  C132  1  0.07650000  0.10400000  0.52360000  1.0 0.6584209454
C  C133  1  0.57650000  0.39600000  0.02360000  1.0 0.6584209454
C  C134  1  0.92350000  0.10400000  0.02360000  1.0 0.6584209454
C  C135  1  0.57650000  0.60400000  0.47640000  1.0 0.6584209454
C  C136  1  0.92350000  0.89600000  0.47640000  1.0 0.6584209454
C  C137  1  0.38380000  0.71920000  0.01970000  1.0 0.0470861503
C  C138  1  0.11620000  0.78080000  0.01970000  1.0 0.0470861503
C  C139  1  0.38380000  0.28080000  0.48030000  1.0 0.0470861503
C  C140  1  0.11620000  0.21920000  0.48030000  1.0 0.0470861503
C  C141  1  0.61620000  0.28080000  0.98030000  1.0 0.0470861503
C  C142  1  0.88380000  0.21920000  0.98030000  1.0 0.0470861503
C  C143  1  0.61620000  0.71920000  0.51970000  1.0 0.0470861503
C  C144  1  0.88380000  0.78080000  0.51970000  1.0 0.0470861503
C  C145  1  0.00790000  0.58850000  0.04390000  1.0 0.6584209454
C  C146  1  0.49210000  0.91150000  0.04390000  1.0 0.6584209454
C  C147  1  0.00790000  0.41150000  0.45610000  1.0 0.6584209454
C  C148  1  0.49210000  0.08850000  0.45610000  1.0 0.6584209454
C  C149  1  0.99210000  0.41150000  0.95610000  1.0 0.6584209454
C  C150  1  0.50790000  0.08850000  0.95610000  1.0 0.6584209454
C  C151  1  0.99210000  0.58850000  0.54390000  1.0 0.6584209454
C  C152  1  0.50790000  0.91150000  0.54390000  1.0 0.6584209454
C  C153  1  0.24400000  0.59250000  0.51290000  1.0 -0.3477274947
C  C154  1  0.25600000  0.90750000  0.51290000  1.0 -0.3477274947
C  C155  1  0.24400000  0.40750000  0.98710000  1.0 -0.3477274947
C  C156  1  0.25600000  0.09250000  0.98710000  1.0 -0.3445871818
C  C157  1  0.75600000  0.40750000  0.48710000  1.0 -0.3445871818
C  C158  1  0.74400000  0.09250000  0.48710000  1.0 -0.3445871818
C  C159  1  0.75600000  0.59250000  0.01290000  1.0 -0.3445871818
C  C160  1  0.74400000  0.90750000  0.01290000  1.0 -0.3477274947
C  C161  1  0.37840000  0.66940000  0.96480000  1.0 -0.3289982767
C  C162  1  0.12160000  0.83060000  0.96480000  1.0 -0.3289982767
C  C163  1  0.37840000  0.33060000  0.53520000  1.0 -0.3289982767
C  C164  1  0.12160000  0.16940000  0.53520000  1.0 -0.3289982767
C  C165  1  0.62160000  0.33060000  0.03520000  1.0 -0.3289982767
C  C166  1  0.87840000  0.16940000  0.03520000  1.0 -0.3289982767
C  C167  1  0.62160000  0.66940000  0.46480000  1.0 -0.3289982767
C  C168  1  0.87840000  0.83060000  0.46480000  1.0 -0.3289982767
N  N1  1  0.28510000  0.61440000  0.40297000  1.0 -0.3289982767
N  N2  1  0.21490000  0.88560000  0.40297000  1.0 -0.3289982767
N  N3  1  0.28510000  0.38560000  0.09703000  1.0 -0.3289982767
N  N4  1  0.21490000  0.11440000  0.09703000  1.0 -0.3289982767
N  N5  1  0.71490000  0.38560000  0.59703000  1.0 -0.3229770708
N  N6  1  0.78510000  0.11440000  0.59703000  1.0 -0.3289982767
N  N7  1  0.71490000  0.61440000  0.90297000  1.0 -0.3229770708
N  N8  1  0.78510000  0.88560000  0.90297000  1.0 -0.3289982767
N  N9  1  0.10330000  0.55700000  0.15998000  1.0 -0.3694526601
N  N10  1  0.39670000  0.94300000  0.15998000  1.0 -0.3694526601
N  N11  1  0.10330000  0.44300000  0.34002000  1.0 -0.3694526601
N  N12  1  0.39670000  0.05700000  0.34002000  1.0 -0.3694526601
N  N13  1  0.89670000  0.44300000  0.84002000  1.0 -0.3694526601
N  N14  1  0.60330000  0.05700000  0.84002000  1.0 -0.3694526601
N  N15  1  0.89670000  0.55700000  0.65998000  1.0 -0.3694526601
N  N16  1  0.60330000  0.94300000  0.65998000  1.0 -0.3694526601
N  N17  1  0.33840000  0.69760000  0.07409000  1.0 -0.3583099741
N  N18  1  0.16160000  0.80240000  0.07409000  1.0 -0.3583099741
N  N19  1  0.33840000  0.30240000  0.42591000  1.0 -0.3583099741
N  N20  1  0.16160000  0.19760000  0.42591000  1.0 -0.3583099741
N  N21  1  0.66160000  0.30240000  0.92591000  1.0 -0.3583099741
N  N22  1  0.83840000  0.19760000  0.92591000  1.0 -0.3583099741
N  N23  1  0.66160000  0.69760000  0.57409000  1.0 -0.3583099741
N  N24  1  0.83840000  0.80240000  0.57409000  1.0 -0.3583099741
O  O1  1  0.11256000  0.43425000  0.10870000  1.0 -0.5060464899
O  O2  1  0.38744000  0.06575000  0.10870000  1.0 -0.5060464899
O  O3  1  0.11256000  0.56575000  0.39130000  1.0 -0.5060464899
O  O4  1  0.38744000  0.93425000  0.39130000  1.0 -0.5060464899
O  O5  1  0.88744000  0.56575000  0.89130000  1.0 -0.5060464899
O  O6  1  0.61256000  0.93425000  0.89130000  1.0 -0.5060464899
O  O7  1  0.88744000  0.43425000  0.60870000  1.0 -0.5060464899
O  O8  1  0.61256000  0.06575000  0.60870000  1.0 -0.5060464899
O  O9  1  0.30639000  0.82026000  0.02280000  1.0 -0.5169199604
O  O10  1  0.19361000  0.67974000  0.02280000  1.0 -0.5169199604
O  O11  1  0.30639000  0.17974000  0.47720000  1.0 -0.5169199604
O  O12  1  0.19361000  0.32026000  0.47720000  1.0 -0.5169199604
O  O13  1  0.69361000  0.17974000  0.97720000  1.0 -0.5169199604
O  O14  1  0.80639000  0.32026000  0.97720000  1.0 -0.5169199604
O  O15  1  0.69361000  0.82026000  0.52280000  1.0 -0.5169199604
O  O16  1  0.80639000  0.67974000  0.52280000  1.0 -0.5169199604
O  O17  1  0.43340000  0.69840000  0.14500000  1.0 -0.443368164
O  O18  1  0.06660000  0.80160000  0.14500000  1.0 -0.443368164
O  O19  1  0.43340000  0.30160000  0.35500000  1.0 -0.443368164
O  O20  1  0.06660000  0.19840000  0.35500000  1.0 -0.443368164
O  O21  1  0.56660000  0.30160000  0.85500000  1.0 -0.443368164
O  O22  1  0.93340000  0.19840000  0.85500000  1.0 -0.443368164
O  O23  1  0.56660000  0.69840000  0.64500000  1.0 -0.443368164
O  O24  1  0.93340000  0.80160000  0.64500000  1.0 -0.443368164
O  O25  1  0.07029000  0.56458000  0.02492000  1.0 -0.5283309865
O  O26  1  0.42971000  0.93542000  0.02492000  1.0 -0.5283309865
O  O27  1  0.07029000  0.43542000  0.47508000  1.0 -0.5283309865
O  O28  1  0.42971000  0.06458000  0.47508000  1.0 -0.5283309865
O  O29  1  0.92971000  0.43542000  0.97508000  1.0 -0.5283309865
O  O30  1  0.57029000  0.06458000  0.97508000  1.0 -0.5283309865
O  O31  1  0.92971000  0.56458000  0.52492000  1.0 -0.5283309865
O  O32  1  0.57029000  0.93542000  0.52492000  1.0 -0.5283309865
O  O33  1  0.96550000  0.62929000  0.01511000  1.0 -0.5430760133
O  O34  1  0.53450000  0.87071000  0.01511000  1.0 -0.5430760133
O  O35  1  0.96550000  0.37071000  0.48489000  1.0 -0.5430760133
O  O36  1  0.53450000  0.12929000  0.48489000  1.0 -0.5430760133
O  O37  1  0.03450000  0.37071000  0.98489000  1.0 -0.5430760133
O  O38  1  0.46550000  0.12929000  0.98489000  1.0 -0.5430760133
O  O39  1  0.03450000  0.62929000  0.51511000  1.0 -0.5430760133
O  O40  1  0.46550000  0.87071000  0.51511000  1.0 -0.5430760133
O  O41  1  0.37110000  0.69180000  0.37480000  1.0 -0.4830471157
O  O42  1  0.12890000  0.80820000  0.37480000  1.0 -0.4830471157
O  O43  1  0.37110000  0.30820000  0.12520000  1.0 -0.4830471157
O  O44  1  0.12890000  0.19180000  0.12520000  1.0 -0.4830471157
O  O45  1  0.62890000  0.30820000  0.62520000  1.0 -0.4858249474
O  O46  1  0.87110000  0.19180000  0.62520000  1.0 -0.4830471157
O  O47  1  0.62890000  0.69180000  0.87480000  1.0 -0.4858249474
O  O48  1  0.87110000  0.80820000  0.87480000  1.0 -0.4830471157
O  O49  1  0.39860000  0.81603000  0.95191000  1.0 -0.58893858
O  O50  1  0.10140000  0.68397000  0.95191000  1.0 -0.58893858
O  O51  1  0.39860000  0.18397000  0.54809000  1.0 -0.58893858
O  O52  1  0.10140000  0.31603000  0.54809000  1.0 -0.58893858
O  O53  1  0.60140000  0.18397000  0.04809000  1.0 -0.58893858
O  O54  1  0.89860000  0.31603000  0.04809000  1.0 -0.58893858
O  O55  1  0.60140000  0.81603000  0.45191000  1.0 -0.58893858
O  O56  1  0.89860000  0.68397000  0.45191000  1.0 -0.58893858
O  O57  1  0.05800000  0.61316000  0.24621000  1.0 -0.4830471157
O  O58  1  0.44200000  0.88684000  0.24621000  1.0 -0.4830471157
O  O59  1  0.05800000  0.38684000  0.25379000  1.0 -0.4830471157
O  O60  1  0.44200000  0.11316000  0.25379000  1.0 -0.4830471157
O  O61  1  0.94200000  0.38684000  0.75379000  1.0 -0.4830471157
O  O62  1  0.55800000  0.11316000  0.75379000  1.0 -0.4830471157
O  O63  1  0.94200000  0.61316000  0.74621000  1.0 -0.4830471157
O  O64  1  0.55800000  0.88684000  0.74621000  1.0 -0.4830471157
O  O65  1  0.98750000  0.41866000  0.10694000  1.0 -0.58893858
O  O66  1  0.51250000  0.08134000  0.10694000  1.0 -0.58893858
O  O67  1  0.98750000  0.58134000  0.39306000  1.0 -0.58893858
O  O68  1  0.51250000  0.91866000  0.39306000  1.0 -0.58893858
O  O69  1  0.01250000  0.58134000  0.89306000  1.0 -0.58893858
O  O70  1  0.48750000  0.91866000  0.89306000  1.0 -0.58893858
O  O71  1  0.01250000  0.41866000  0.60694000  1.0 -0.58893858
O  O72  1  0.48750000  0.08134000  0.60694000  1.0 -0.58893858
O  O73  1  0.17730000  0.49957000  0.55253000  1.0 -0.565123235
O  O74  1  0.32270000  0.00043000  0.55253000  1.0 -0.565123235
O  O75  1  0.17730000  0.50043000  0.94747000  1.0 -0.565123235
O  O76  1  0.32270000  0.99957000  0.94747000  1.0 -0.565123235
O  O77  1  0.82270000  0.50043000  0.44747000  1.0 -0.565123235
O  O78  1  0.67730000  0.99957000  0.44747000  1.0 -0.565123235
O  O79  1  0.82270000  0.49957000  0.05253000  1.0 -0.565123235
O  O80  1  0.67730000  0.00043000  0.05253000  1.0 -0.565123235
O  O81  1  0.40130000  0.56330000  0.53592000  1.0 -0.5169199604
O  O82  1  0.09870000  0.93670000  0.53592000  1.0 -0.5169199604
O  O83  1  0.40130000  0.43670000  0.96408000  1.0 -0.5169199604
O  O84  1  0.09870000  0.06330000  0.96408000  1.0 -0.5169199604
O  O85  1  0.59870000  0.43670000  0.46408000  1.0 -0.5169199604
O  O86  1  0.90130000  0.06330000  0.46408000  1.0 -0.5169199604
O  O87  1  0.59870000  0.56330000  0.03592000  1.0 -0.5169199604
O  O88  1  0.90130000  0.93670000  0.03592000  1.0 -0.5169199604
O  O89  1  0.43240000  0.56660000  0.92922000  1.0 -0.5060464899
O  O90  1  0.06760000  0.93340000  0.92922000  1.0 -0.5060464899
O  O91  1  0.43240000  0.43340000  0.57078000  1.0 -0.5060464899
O  O92  1  0.06760000  0.06660000  0.57078000  1.0 -0.5060464899
O  O93  1  0.56760000  0.43340000  0.07078000  1.0 -0.5060464899
O  O94  1  0.93240000  0.06660000  0.07078000  1.0 -0.5060464899
O  O95  1  0.56760000  0.56660000  0.42922000  1.0 -0.5060464899
O  O96  1  0.93240000  0.93340000  0.42922000  1.0 -0.5060464899
O  O97  1  0.41220000  0.54150000  0.43176000  1.0 -0.4858249474
O  O98  1  0.08780000  0.95850000  0.43176000  1.0 -0.4858249474
O  O99  1  0.41220000  0.45850000  0.06824000  1.0 -0.4858249474
O  O100  1  0.08780000  0.04150000  0.06824000  1.0 -0.4858249474
O  O101  1  0.58780000  0.45850000  0.56824000  1.0 -0.4858249474
O  O102  1  0.91220000  0.04150000  0.56824000  1.0 -0.4830471157
O  O103  1  0.58780000  0.54150000  0.93176000  1.0 -0.4858249474
O  O104  1  0.91220000  0.95850000  0.93176000  1.0 -0.4830471157
O  O105  1  0.44640000  0.59377000  0.03114000  1.0 -0.4996498573
O  O106  1  0.05360000  0.90623000  0.03114000  1.0 -0.4996498573
O  O107  1  0.44640000  0.40623000  0.46886000  1.0 -0.4996498573
O  O108  1  0.05360000  0.09377000  0.46886000  1.0 -0.4996498573
O  O109  1  0.55360000  0.40623000  0.96886000  1.0 -0.4996498573
O  O110  1  0.94640000  0.09377000  0.96886000  1.0 -0.4996498573
O  O111  1  0.55360000  0.59377000  0.53114000  1.0 -0.4996498573
O  O112  1  0.94640000  0.90623000  0.53114000  1.0 -0.4996498573
O  O113  1  0.24110000  0.48400000  0.46270000  1.0 -0.5283309865
O  O114  1  0.25890000  0.01600000  0.46270000  1.0 -0.5283309865
O  O115  1  0.24110000  0.51600000  0.03730000  1.0 -0.5283309865
O  O116  1  0.25890000  0.98400000  0.03730000  1.0 -0.5283309865
O  O117  1  0.75890000  0.51600000  0.53730000  1.0 -0.5283309865
O  O118  1  0.74110000  0.98400000  0.53730000  1.0 -0.5283309865
O  O119  1  0.75890000  0.48400000  0.96270000  1.0 -0.5283309865
O  O120  1  0.74110000  0.01600000  0.96270000  1.0 -0.5283309865
