# DDEC6 charges by PACMAN v1.1 (https://github.com/mtap-research/PACMAN-charge/)
data_DOQHAV_ASR_pacman
_symmetry_space_group_name_H-M   'P 1'
_cell_length_a   19.48250000
_cell_length_b   19.48250000
_cell_length_c   39.35980000
_cell_angle_alpha   90.00000000
_cell_angle_beta   90.00000000
_cell_angle_gamma   90.00000000
_symmetry_Int_Tables_number   1
_chemical_formula_structural   ZnH14(C11O2)2
_chemical_formula_sum   'Zn12 H168 C264 O48'
_cell_volume   14939.71294044
_cell_formula_units_Z   12
loop_
 _symmetry_equiv_pos_site_id
 _symmetry_equiv_pos_as_xyz
  1  'x, y, z'
loop_
 _atom_site_type_symbol
 _atom_site_label
 _atom_site_symmetry_multiplicity
 _atom_site_fract_x
 _atom_site_fract_y
 _atom_site_fract_z
 _atom_site_occupancy
 _atom_site_charge
Zn  Zn1  1  0.34989000  0.32972000  0.45044000  1.0 0.9201373524
Zn  Zn2  1  0.65011000  0.67028000  0.95044000  1.0 0.9201373524
Zn  Zn3  1  0.67028000  0.34989000  0.70044000  1.0 0.9201373524
Zn  Zn4  1  0.32972000  0.65011000  0.20044000  1.0 0.9201373524
Zn  Zn5  1  0.65011000  0.32972000  0.54956000  1.0 0.9201373524
Zn  Zn6  1  0.34989000  0.67028000  0.04956000  1.0 0.9201373524
Zn  Zn7  1  0.32972000  0.34989000  0.29956000  1.0 0.9201373524
Zn  Zn8  1  0.67028000  0.65011000  0.79956000  1.0 0.9201373524
Zn  Zn9  1  0.50000000  0.33147000  0.50000000  1.0 1.064460001
Zn  Zn10  1  0.50000000  0.66853000  0.00000000  1.0 1.0659063673
Zn  Zn11  1  0.66853000  0.50000000  0.75000000  1.0 1.064460001
Zn  Zn12  1  0.33147000  0.50000000  0.25000000  1.0 1.064460001
H  H1  1  0.17698000  0.55533000  0.67959000  1.0 0.1117241973
H  H2  1  0.21852000  0.61670000  0.77663000  1.0 0.1117241973
H  H3  1  0.37565000  0.58259000  0.71189000  1.0 0.1117241973
H  H4  1  0.35376000  0.53826000  0.65206000  1.0 0.120417226
H  H5  1  0.22563000  0.53626000  0.63076000  1.0 0.1284987464
H  H6  1  0.20728000  0.48362000  0.58049000  1.0 0.120417226
H  H7  1  0.24129000  0.44538000  0.52891000  1.0 0.120417226
H  H8  1  0.43616000  0.47689000  0.55105000  1.0 0.120417226
H  H9  1  0.40582000  0.51609000  0.60474000  1.0 0.1117241973
H  H10  1  0.10556000  0.62271000  0.76128000  1.0 0.120417226
H  H11  1  0.07188000  0.56318000  0.70296000  1.0 0.1284987464
H  H12  1  0.94566000  0.54442000  0.69774000  1.0 0.120417226
H  H13  1  0.83434000  0.54876000  0.71760000  1.0 0.1284987464
H  H14  1  0.89052000  0.68251000  0.78904000  1.0 0.1117241973
H  H15  1  0.00497000  0.66461000  0.77441000  1.0 0.120417226
H  H16  1  0.40344000  0.60260000  0.77173000  1.0 0.120417226
H  H17  1  0.29340000  0.63329000  0.81066000  1.0 0.1117241973
H  H18  1  0.31381000  0.66725000  0.86481000  1.0 0.120417226
H  H19  1  0.38454000  0.68550000  0.91202000  1.0 0.120417226
H  H20  1  0.54648000  0.62557000  0.85970000  1.0 0.1117241973
H  H21  1  0.47869000  0.60460000  0.81226000  1.0 0.120417226
H  H22  1  0.82302000  0.44467000  0.17959000  1.0 0.1117241973
H  H23  1  0.78148000  0.38330000  0.27663000  1.0 0.1117241973
H  H24  1  0.62435000  0.41741000  0.21189000  1.0 0.1117241973
H  H25  1  0.64624000  0.46174000  0.15206000  1.0 0.120417226
H  H26  1  0.77437000  0.46374000  0.13076000  1.0 0.1284987464
H  H27  1  0.79272000  0.51638000  0.08049000  1.0 0.120417226
H  H28  1  0.75871000  0.55462000  0.02891000  1.0 0.120417226
H  H29  1  0.56384000  0.52311000  0.05105000  1.0 0.120417226
H  H30  1  0.59418000  0.48391000  0.10474000  1.0 0.1117241973
H  H31  1  0.89444000  0.37729000  0.26128000  1.0 0.120417226
H  H32  1  0.92812000  0.43682000  0.20296000  1.0 0.1284987464
H  H33  1  0.05434000  0.45558000  0.19774000  1.0 0.120417226
H  H34  1  0.16566000  0.45124000  0.21760000  1.0 0.1284987464
H  H35  1  0.10948000  0.31749000  0.28904000  1.0 0.1117241973
H  H36  1  0.99503000  0.33539000  0.27441000  1.0 0.120417226
H  H37  1  0.59656000  0.39740000  0.27173000  1.0 0.120417226
H  H38  1  0.70660000  0.36671000  0.31066000  1.0 0.1117241973
H  H39  1  0.68619000  0.33275000  0.36481000  1.0 0.120417226
H  H40  1  0.61546000  0.31450000  0.41202000  1.0 0.120417226
H  H41  1  0.45352000  0.37443000  0.35970000  1.0 0.1117241973
H  H42  1  0.52131000  0.39540000  0.31226000  1.0 0.120417226
H  H43  1  0.44467000  0.17698000  0.92959000  1.0 0.1117241973
H  H44  1  0.38330000  0.21852000  0.02663000  1.0 0.1117241973
H  H45  1  0.41741000  0.37565000  0.96189000  1.0 0.1117241973
H  H46  1  0.46174000  0.35376000  0.90206000  1.0 0.120417226
H  H47  1  0.46374000  0.22563000  0.88076000  1.0 0.1284987464
H  H48  1  0.51638000  0.20728000  0.83049000  1.0 0.120417226
H  H49  1  0.55462000  0.24129000  0.77891000  1.0 0.120417226
H  H50  1  0.52311000  0.43616000  0.80105000  1.0 0.120417226
H  H51  1  0.48391000  0.40582000  0.85474000  1.0 0.1117241973
H  H52  1  0.37729000  0.10556000  0.01128000  1.0 0.120417226
H  H53  1  0.43682000  0.07188000  0.95296000  1.0 0.1284987464
H  H54  1  0.45558000  0.94566000  0.94774000  1.0 0.120417226
H  H55  1  0.45124000  0.83434000  0.96760000  1.0 0.1284987464
H  H56  1  0.31749000  0.89052000  0.03904000  1.0 0.1117241973
H  H57  1  0.33539000  0.00497000  0.02441000  1.0 0.120417226
H  H58  1  0.39740000  0.40344000  0.02173000  1.0 0.120417226
H  H59  1  0.36671000  0.29340000  0.06066000  1.0 0.1117241973
H  H60  1  0.33275000  0.31381000  0.11481000  1.0 0.120417226
H  H61  1  0.31450000  0.38454000  0.16202000  1.0 0.120417226
H  H62  1  0.37443000  0.54648000  0.10970000  1.0 0.1117241973
H  H63  1  0.39540000  0.47869000  0.06226000  1.0 0.120417226
H  H64  1  0.55533000  0.82302000  0.42959000  1.0 0.1117241973
H  H65  1  0.61670000  0.78148000  0.52663000  1.0 0.1117241973
H  H66  1  0.58259000  0.62435000  0.46189000  1.0 0.1117241973
H  H67  1  0.53826000  0.64624000  0.40206000  1.0 0.120417226
H  H68  1  0.53626000  0.77437000  0.38076000  1.0 0.1284987464
H  H69  1  0.48362000  0.79272000  0.33049000  1.0 0.120417226
H  H70  1  0.44538000  0.75871000  0.27891000  1.0 0.120417226
H  H71  1  0.47689000  0.56384000  0.30105000  1.0 0.120417226
H  H72  1  0.51609000  0.59418000  0.35474000  1.0 0.1117241973
H  H73  1  0.62271000  0.89444000  0.51128000  1.0 0.120417226
H  H74  1  0.56318000  0.92812000  0.45296000  1.0 0.1284987464
H  H75  1  0.54442000  0.05434000  0.44774000  1.0 0.120417226
H  H76  1  0.54876000  0.16566000  0.46760000  1.0 0.1284987464
H  H77  1  0.68251000  0.10948000  0.53904000  1.0 0.1117241973
H  H78  1  0.66461000  0.99503000  0.52441000  1.0 0.120417226
H  H79  1  0.60260000  0.59656000  0.52173000  1.0 0.120417226
H  H80  1  0.63329000  0.70660000  0.56066000  1.0 0.1117241973
H  H81  1  0.66725000  0.68619000  0.61481000  1.0 0.120417226
H  H82  1  0.68550000  0.61546000  0.66202000  1.0 0.120417226
H  H83  1  0.62557000  0.45352000  0.60970000  1.0 0.1117241973
H  H84  1  0.60460000  0.52131000  0.56226000  1.0 0.120417226
H  H85  1  0.82302000  0.55533000  0.32041000  1.0 0.1117241973
H  H86  1  0.78148000  0.61670000  0.22337000  1.0 0.1117241973
H  H87  1  0.62435000  0.58259000  0.28811000  1.0 0.1117241973
H  H88  1  0.64624000  0.53826000  0.34794000  1.0 0.120417226
H  H89  1  0.77437000  0.53626000  0.36924000  1.0 0.1284987464
H  H90  1  0.79272000  0.48362000  0.41951000  1.0 0.120417226
H  H91  1  0.75871000  0.44538000  0.47109000  1.0 0.120417226
H  H92  1  0.56384000  0.47689000  0.44895000  1.0 0.120417226
H  H93  1  0.59418000  0.51609000  0.39526000  1.0 0.1117241973
H  H94  1  0.89444000  0.62271000  0.23872000  1.0 0.120417226
H  H95  1  0.92812000  0.56318000  0.29704000  1.0 0.1284987464
H  H96  1  0.05434000  0.54442000  0.30226000  1.0 0.120417226
H  H97  1  0.16566000  0.54876000  0.28240000  1.0 0.1284987464
H  H98  1  0.10948000  0.68251000  0.21096000  1.0 0.1117241973
H  H99  1  0.99503000  0.66461000  0.22559000  1.0 0.120417226
H  H100  1  0.59656000  0.60260000  0.22827000  1.0 0.120417226
H  H101  1  0.70660000  0.63329000  0.18934000  1.0 0.1117241973
H  H102  1  0.68619000  0.66725000  0.13519000  1.0 0.120417226
H  H103  1  0.61546000  0.68550000  0.08798000  1.0 0.120417226
H  H104  1  0.45352000  0.62557000  0.14030000  1.0 0.1117241973
H  H105  1  0.52131000  0.60460000  0.18774000  1.0 0.120417226
H  H106  1  0.17698000  0.44467000  0.82041000  1.0 0.1117241973
H  H107  1  0.21852000  0.38330000  0.72337000  1.0 0.1117241973
H  H108  1  0.37565000  0.41741000  0.78811000  1.0 0.1117241973
H  H109  1  0.35376000  0.46174000  0.84794000  1.0 0.120417226
H  H110  1  0.22563000  0.46374000  0.86924000  1.0 0.1284987464
H  H111  1  0.20728000  0.51638000  0.91951000  1.0 0.120417226
H  H112  1  0.24129000  0.55462000  0.97109000  1.0 0.120417226
H  H113  1  0.43616000  0.52311000  0.94895000  1.0 0.120417226
H  H114  1  0.40582000  0.48391000  0.89526000  1.0 0.1117241973
H  H115  1  0.10556000  0.37729000  0.73872000  1.0 0.120417226
H  H116  1  0.07188000  0.43682000  0.79704000  1.0 0.1284987464
H  H117  1  0.94566000  0.45558000  0.80226000  1.0 0.120417226
H  H118  1  0.83434000  0.45124000  0.78240000  1.0 0.1284987464
H  H119  1  0.89052000  0.31749000  0.71096000  1.0 0.1117241973
H  H120  1  0.00497000  0.33539000  0.72559000  1.0 0.120417226
H  H121  1  0.40344000  0.39740000  0.72827000  1.0 0.120417226
H  H122  1  0.29340000  0.36671000  0.68934000  1.0 0.1117241973
H  H123  1  0.31381000  0.33275000  0.63519000  1.0 0.120417226
H  H124  1  0.38454000  0.31450000  0.58798000  1.0 0.120417226
H  H125  1  0.54648000  0.37443000  0.64030000  1.0 0.1117241973
H  H126  1  0.47869000  0.39540000  0.68774000  1.0 0.120417226
H  H127  1  0.55533000  0.17698000  0.07041000  1.0 0.1117241973
H  H128  1  0.61670000  0.21852000  0.97337000  1.0 0.1117241973
H  H129  1  0.58259000  0.37565000  0.03811000  1.0 0.1117241973
H  H130  1  0.53826000  0.35376000  0.09794000  1.0 0.120417226
H  H131  1  0.53626000  0.22563000  0.11924000  1.0 0.1284987464
H  H132  1  0.48362000  0.20728000  0.16951000  1.0 0.120417226
H  H133  1  0.44538000  0.24129000  0.22109000  1.0 0.120417226
H  H134  1  0.47689000  0.43616000  0.19895000  1.0 0.120417226
H  H135  1  0.51609000  0.40582000  0.14526000  1.0 0.1117241973
H  H136  1  0.62271000  0.10556000  0.98872000  1.0 0.120417226
H  H137  1  0.56318000  0.07188000  0.04704000  1.0 0.1284987464
H  H138  1  0.54442000  0.94566000  0.05226000  1.0 0.120417226
H  H139  1  0.54876000  0.83434000  0.03240000  1.0 0.1284987464
H  H140  1  0.68251000  0.89052000  0.96096000  1.0 0.1117241973
H  H141  1  0.66461000  0.00497000  0.97559000  1.0 0.120417226
H  H142  1  0.60260000  0.40344000  0.97827000  1.0 0.120417226
H  H143  1  0.63329000  0.29340000  0.93934000  1.0 0.1117241973
H  H144  1  0.66725000  0.31381000  0.88519000  1.0 0.120417226
H  H145  1  0.68550000  0.38454000  0.83798000  1.0 0.120417226
H  H146  1  0.62557000  0.54648000  0.89030000  1.0 0.1117241973
H  H147  1  0.60460000  0.47869000  0.93774000  1.0 0.120417226
H  H148  1  0.44467000  0.82302000  0.57041000  1.0 0.1117241973
H  H149  1  0.38330000  0.78148000  0.47337000  1.0 0.1117241973
H  H150  1  0.41741000  0.62435000  0.53811000  1.0 0.1117241973
H  H151  1  0.46174000  0.64624000  0.59794000  1.0 0.120417226
H  H152  1  0.46374000  0.77437000  0.61924000  1.0 0.1284987464
H  H153  1  0.51638000  0.79272000  0.66951000  1.0 0.120417226
H  H154  1  0.55462000  0.75871000  0.72109000  1.0 0.120417226
H  H155  1  0.52311000  0.56384000  0.69895000  1.0 0.120417226
H  H156  1  0.48391000  0.59418000  0.64526000  1.0 0.1117241973
H  H157  1  0.37729000  0.89444000  0.48872000  1.0 0.120417226
H  H158  1  0.43682000  0.92812000  0.54704000  1.0 0.1284987464
H  H159  1  0.45558000  0.05434000  0.55226000  1.0 0.120417226
H  H160  1  0.45124000  0.16566000  0.53240000  1.0 0.1284987464
H  H161  1  0.31749000  0.10948000  0.46096000  1.0 0.1117241973
H  H162  1  0.33539000  0.99503000  0.47559000  1.0 0.120417226
H  H163  1  0.39740000  0.59656000  0.47827000  1.0 0.120417226
H  H164  1  0.36671000  0.70660000  0.43934000  1.0 0.1117241973
H  H165  1  0.33275000  0.68619000  0.38519000  1.0 0.120417226
H  H166  1  0.31450000  0.61546000  0.33798000  1.0 0.120417226
H  H167  1  0.37443000  0.45352000  0.39030000  1.0 0.1117241973
H  H168  1  0.39540000  0.52131000  0.43774000  1.0 0.120417226
C  C1  1  0.28140000  0.56220000  0.68970000  1.0 0.137872736
C  C2  1  0.20850000  0.56690000  0.69640000  1.0 -0.279099659
C  C3  1  0.18520000  0.58960000  0.72930000  1.0 0.137872736
C  C4  1  0.23410000  0.60280000  0.75540000  1.0 -0.2510125496
C  C5  1  0.30490000  0.59530000  0.75010000  1.0 0.1477135485
C  C6  1  0.32890000  0.58050000  0.71650000  1.0 -0.2586078653
C  C7  1  0.30640000  0.54190000  0.65460000  1.0 -0.1267874957
C  C8  1  0.27290000  0.52990000  0.62950000  1.0 -0.1087005554
C  C9  1  0.30280000  0.50500000  0.59600000  1.0 0.0977672441
C  C10  1  0.25350000  0.48260000  0.57460000  1.0 -0.146705077
C  C11  1  0.27470000  0.45860000  0.54440000  1.0 -0.0976837249
C  C12  1  0.34200000  0.45220000  0.53480000  1.0 -0.0435262937
C  C13  1  0.39020000  0.47700000  0.55740000  1.0 -0.1087005554
C  C14  1  0.37290000  0.50210000  0.58910000  1.0 -0.1690755868
C  C15  1  0.36710000  0.41910000  0.50290000  1.0 0.5880074194
C  C16  1  0.11320000  0.60160000  0.74040000  1.0 -0.1087005554
C  C17  1  0.06450000  0.58520000  0.72360000  1.0 -0.1233813486
C  C18  1  0.99100000  0.59930000  0.73500000  1.0 0.1117241973
C  C19  1  0.93630000  0.56870000  0.71750000  1.0 -0.175995984
C  C20  1  0.86900000  0.57310000  0.72850000  1.0 -0.0808470156
C  C21  1  0.85460000  0.61380000  0.75570000  1.0 -0.0489729801
C  C22  1  0.90240000  0.65150000  0.77210000  1.0 -0.0859177471
C  C23  1  0.97090000  0.64180000  0.76230000  1.0 -0.1870686346
C  C24  1  0.78200000  0.61710000  0.76730000  1.0 0.5880074194
C  C25  1  0.35710000  0.60790000  0.77680000  1.0 -0.1233813486
C  C26  1  0.33960000  0.62570000  0.80610000  1.0 -0.1233813486
C  C27  1  0.39090000  0.63500000  0.83400000  1.0 0.1117241973
C  C28  1  0.36070000  0.65870000  0.86360000  1.0 -0.1690755868
C  C29  1  0.40380000  0.66950000  0.89190000  1.0 -0.0808470156
C  C30  1  0.47350000  0.65720000  0.89080000  1.0 -0.0605765912
C  C31  1  0.49950000  0.63380000  0.86100000  1.0 -0.0976837249
C  C32  1  0.45920000  0.62150000  0.83210000  1.0 -0.1585573786
C  C33  1  0.52050000  0.66040000  0.91970000  1.0 0.5880074194
C  C34  1  0.71860000  0.43780000  0.18970000  1.0 0.137872736
C  C35  1  0.79150000  0.43310000  0.19640000  1.0 -0.279099659
C  C36  1  0.81480000  0.41040000  0.22930000  1.0 0.137872736
C  C37  1  0.76590000  0.39720000  0.25540000  1.0 -0.2510125496
C  C38  1  0.69510000  0.40470000  0.25010000  1.0 0.1477135485
C  C39  1  0.67110000  0.41950000  0.21650000  1.0 -0.2586078653
C  C40  1  0.69360000  0.45810000  0.15460000  1.0 -0.1267874957
C  C41  1  0.72710000  0.47010000  0.12950000  1.0 -0.1087005554
C  C42  1  0.69720000  0.49500000  0.09600000  1.0 0.0977672441
C  C43  1  0.74650000  0.51740000  0.07460000  1.0 -0.146705077
C  C44  1  0.72530000  0.54140000  0.04440000  1.0 -0.0976837249
C  C45  1  0.65800000  0.54780000  0.03480000  1.0 -0.0435262937
C  C46  1  0.60980000  0.52300000  0.05740000  1.0 -0.1087005554
C  C47  1  0.62710000  0.49790000  0.08910000  1.0 -0.1690755868
C  C48  1  0.63290000  0.58090000  0.00290000  1.0 0.5880074194
C  C49  1  0.88680000  0.39840000  0.24040000  1.0 -0.1087005554
C  C50  1  0.93550000  0.41480000  0.22360000  1.0 -0.1233813486
C  C51  1  0.00900000  0.40070000  0.23500000  1.0 0.1117241973
C  C52  1  0.06370000  0.43130000  0.21750000  1.0 -0.175995984
C  C53  1  0.13100000  0.42690000  0.22850000  1.0 -0.0859177471
C  C54  1  0.14540000  0.38620000  0.25570000  1.0 -0.0489729801
C  C55  1  0.09760000  0.34850000  0.27210000  1.0 -0.0859177471
C  C56  1  0.02910000  0.35820000  0.26230000  1.0 -0.1870686346
C  C57  1  0.21800000  0.38290000  0.26730000  1.0 0.5880074194
C  C58  1  0.64290000  0.39210000  0.27680000  1.0 -0.1233813486
C  C59  1  0.66040000  0.37430000  0.30610000  1.0 -0.1233813486
C  C60  1  0.60910000  0.36500000  0.33400000  1.0 0.1117241973
C  C61  1  0.63930000  0.34130000  0.36360000  1.0 -0.1690755868
C  C62  1  0.59620000  0.33050000  0.39190000  1.0 -0.0808470156
C  C63  1  0.52650000  0.34280000  0.39080000  1.0 -0.0605765912
C  C64  1  0.50050000  0.36620000  0.36100000  1.0 -0.0976837249
C  C65  1  0.54080000  0.37850000  0.33210000  1.0 -0.1585573786
C  C66  1  0.47950000  0.33960000  0.41970000  1.0 0.5880074194
C  C67  1  0.43780000  0.28140000  0.93970000  1.0 0.137872736
C  C68  1  0.43310000  0.20850000  0.94640000  1.0 -0.279099659
C  C69  1  0.41040000  0.18520000  0.97930000  1.0 0.137872736
C  C70  1  0.39720000  0.23410000  0.00540000  1.0 -0.2510125496
C  C71  1  0.40470000  0.30490000  0.00010000  1.0 0.1477135485
C  C72  1  0.41950000  0.32890000  0.96650000  1.0 -0.2586078653
C  C73  1  0.45810000  0.30640000  0.90460000  1.0 -0.1267874957
C  C74  1  0.47010000  0.27290000  0.87950000  1.0 -0.1087005554
C  C75  1  0.49500000  0.30280000  0.84600000  1.0 0.0977672441
C  C76  1  0.51740000  0.25350000  0.82460000  1.0 -0.146705077
C  C77  1  0.54140000  0.27470000  0.79440000  1.0 -0.0976837249
C  C78  1  0.54780000  0.34200000  0.78480000  1.0 -0.0435262937
C  C79  1  0.52300000  0.39020000  0.80740000  1.0 -0.1087005554
C  C80  1  0.49790000  0.37290000  0.83910000  1.0 -0.1690755868
C  C81  1  0.58090000  0.36710000  0.75290000  1.0 0.5880074194
C  C82  1  0.39840000  0.11320000  0.99040000  1.0 -0.1087005554
C  C83  1  0.41480000  0.06450000  0.97360000  1.0 -0.1233813486
C  C84  1  0.40070000  0.99100000  0.98500000  1.0 0.1117241973
C  C85  1  0.43130000  0.93630000  0.96750000  1.0 -0.175995984
C  C86  1  0.42690000  0.86900000  0.97850000  1.0 -0.0859177471
C  C87  1  0.38620000  0.85460000  0.00570000  1.0 -0.0489729801
C  C88  1  0.34850000  0.90240000  0.02210000  1.0 -0.0859177471
C  C89  1  0.35820000  0.97090000  0.01230000  1.0 -0.1870686346
C  C90  1  0.38290000  0.78200000  0.01730000  1.0 0.5880074194
C  C91  1  0.39210000  0.35710000  0.02680000  1.0 -0.1233813486
C  C92  1  0.37430000  0.33960000  0.05610000  1.0 -0.1233813486
C  C93  1  0.36500000  0.39090000  0.08400000  1.0 0.1117241973
C  C94  1  0.34130000  0.36070000  0.11360000  1.0 -0.1690755868
C  C95  1  0.33050000  0.40380000  0.14190000  1.0 -0.0808470156
C  C96  1  0.34280000  0.47350000  0.14080000  1.0 -0.0605765912
C  C97  1  0.36620000  0.49950000  0.11100000  1.0 -0.0976837249
C  C98  1  0.37850000  0.45920000  0.08210000  1.0 -0.1585573786
C  C99  1  0.33960000  0.52050000  0.16970000  1.0 0.5880074194
C  C100  1  0.56220000  0.71860000  0.43970000  1.0 0.137872736
C  C101  1  0.56690000  0.79150000  0.44640000  1.0 -0.279099659
C  C102  1  0.58960000  0.81480000  0.47930000  1.0 0.137872736
C  C103  1  0.60280000  0.76590000  0.50540000  1.0 -0.2510125496
C  C104  1  0.59530000  0.69510000  0.50010000  1.0 0.1477135485
C  C105  1  0.58050000  0.67110000  0.46650000  1.0 -0.2586078653
C  C106  1  0.54190000  0.69360000  0.40460000  1.0 -0.1267874957
C  C107  1  0.52990000  0.72710000  0.37950000  1.0 -0.1087005554
C  C108  1  0.50500000  0.69720000  0.34600000  1.0 0.0977672441
C  C109  1  0.48260000  0.74650000  0.32460000  1.0 -0.146705077
C  C110  1  0.45860000  0.72530000  0.29440000  1.0 -0.0976837249
C  C111  1  0.45220000  0.65800000  0.28480000  1.0 -0.0435262937
C  C112  1  0.47700000  0.60980000  0.30740000  1.0 -0.1087005554
C  C113  1  0.50210000  0.62710000  0.33910000  1.0 -0.1690755868
C  C114  1  0.41910000  0.63290000  0.25290000  1.0 0.5880074194
C  C115  1  0.60160000  0.88680000  0.49040000  1.0 -0.1087005554
C  C116  1  0.58520000  0.93550000  0.47360000  1.0 -0.1233813486
C  C117  1  0.59930000  0.00900000  0.48500000  1.0 0.1117241973
C  C118  1  0.56870000  0.06370000  0.46750000  1.0 -0.175995984
C  C119  1  0.57310000  0.13100000  0.47850000  1.0 -0.0808470156
C  C120  1  0.61380000  0.14540000  0.50570000  1.0 -0.0489729801
C  C121  1  0.65150000  0.09760000  0.52210000  1.0 -0.0859177471
C  C122  1  0.64180000  0.02910000  0.51230000  1.0 -0.1870686346
C  C123  1  0.61710000  0.21800000  0.51730000  1.0 0.5880074194
C  C124  1  0.60790000  0.64290000  0.52680000  1.0 -0.1233813486
C  C125  1  0.62570000  0.66040000  0.55610000  1.0 -0.1233813486
C  C126  1  0.63500000  0.60910000  0.58400000  1.0 0.1117241973
C  C127  1  0.65870000  0.63930000  0.61360000  1.0 -0.1690755868
C  C128  1  0.66950000  0.59620000  0.64190000  1.0 -0.0808470156
C  C129  1  0.65720000  0.52650000  0.64080000  1.0 -0.0605765912
C  C130  1  0.63380000  0.50050000  0.61100000  1.0 -0.0976837249
C  C131  1  0.62150000  0.54080000  0.58210000  1.0 -0.1585573786
C  C132  1  0.66040000  0.47950000  0.66970000  1.0 0.5880074194
C  C133  1  0.71860000  0.56220000  0.31030000  1.0 0.137872736
C  C134  1  0.79150000  0.56690000  0.30360000  1.0 -0.279099659
C  C135  1  0.81480000  0.58960000  0.27070000  1.0 0.137872736
C  C136  1  0.76590000  0.60280000  0.24460000  1.0 -0.2510125496
C  C137  1  0.69510000  0.59530000  0.24990000  1.0 0.1477135485
C  C138  1  0.67110000  0.58050000  0.28350000  1.0 -0.2586078653
C  C139  1  0.69360000  0.54190000  0.34540000  1.0 -0.1267874957
C  C140  1  0.72710000  0.52990000  0.37050000  1.0 -0.1087005554
C  C141  1  0.69720000  0.50500000  0.40400000  1.0 0.0977672441
C  C142  1  0.74650000  0.48260000  0.42540000  1.0 -0.146705077
C  C143  1  0.72530000  0.45860000  0.45560000  1.0 -0.0976837249
C  C144  1  0.65800000  0.45220000  0.46520000  1.0 -0.0435262937
C  C145  1  0.60980000  0.47700000  0.44260000  1.0 -0.1087005554
C  C146  1  0.62710000  0.50210000  0.41090000  1.0 -0.1690755868
C  C147  1  0.63290000  0.41910000  0.49710000  1.0 0.5880074194
C  C148  1  0.88680000  0.60160000  0.25960000  1.0 -0.1087005554
C  C149  1  0.93550000  0.58520000  0.27640000  1.0 -0.1233813486
C  C150  1  0.00900000  0.59930000  0.26500000  1.0 0.1117241973
C  C151  1  0.06370000  0.56870000  0.28250000  1.0 -0.175995984
C  C152  1  0.13100000  0.57310000  0.27150000  1.0 -0.0859177471
C  C153  1  0.14540000  0.61380000  0.24430000  1.0 -0.0489729801
C  C154  1  0.09760000  0.65150000  0.22790000  1.0 -0.0859177471
C  C155  1  0.02910000  0.64180000  0.23770000  1.0 -0.1870686346
C  C156  1  0.21800000  0.61710000  0.23270000  1.0 0.5880074194
C  C157  1  0.64290000  0.60790000  0.22320000  1.0 -0.1233813486
C  C158  1  0.66040000  0.62570000  0.19390000  1.0 -0.1233813486
C  C159  1  0.60910000  0.63500000  0.16600000  1.0 0.1117241973
C  C160  1  0.63930000  0.65870000  0.13640000  1.0 -0.1690755868
C  C161  1  0.59620000  0.66950000  0.10810000  1.0 -0.0808470156
C  C162  1  0.52650000  0.65720000  0.10920000  1.0 -0.0605765912
C  C163  1  0.50050000  0.63380000  0.13900000  1.0 -0.0976837249
C  C164  1  0.54080000  0.62150000  0.16790000  1.0 -0.1585573786
C  C165  1  0.47950000  0.66040000  0.08030000  1.0 0.5880074194
C  C166  1  0.28140000  0.43780000  0.81030000  1.0 0.137872736
C  C167  1  0.20850000  0.43310000  0.80360000  1.0 -0.279099659
C  C168  1  0.18520000  0.41040000  0.77070000  1.0 0.137872736
C  C169  1  0.23410000  0.39720000  0.74460000  1.0 -0.2510125496
C  C170  1  0.30490000  0.40470000  0.74990000  1.0 0.1477135485
C  C171  1  0.32890000  0.41950000  0.78350000  1.0 -0.2586078653
C  C172  1  0.30640000  0.45810000  0.84540000  1.0 -0.1267874957
C  C173  1  0.27290000  0.47010000  0.87050000  1.0 -0.1087005554
C  C174  1  0.30280000  0.49500000  0.90400000  1.0 0.0977672441
C  C175  1  0.25350000  0.51740000  0.92540000  1.0 -0.146705077
C  C176  1  0.27470000  0.54140000  0.95560000  1.0 -0.0976837249
C  C177  1  0.34200000  0.54780000  0.96520000  1.0 -0.0435262937
C  C178  1  0.39020000  0.52300000  0.94260000  1.0 -0.1087005554
C  C179  1  0.37290000  0.49790000  0.91090000  1.0 -0.1690755868
C  C180  1  0.36710000  0.58090000  0.99710000  1.0 0.5880074194
C  C181  1  0.11320000  0.39840000  0.75960000  1.0 -0.1087005554
C  C182  1  0.06450000  0.41480000  0.77640000  1.0 -0.1233813486
C  C183  1  0.99100000  0.40070000  0.76500000  1.0 0.1117241973
C  C184  1  0.93630000  0.43130000  0.78250000  1.0 -0.175995984
C  C185  1  0.86900000  0.42690000  0.77150000  1.0 -0.0808470156
C  C186  1  0.85460000  0.38620000  0.74430000  1.0 -0.0489729801
C  C187  1  0.90240000  0.34850000  0.72790000  1.0 -0.0859177471
C  C188  1  0.97090000  0.35820000  0.73770000  1.0 -0.1870686346
C  C189  1  0.78200000  0.38290000  0.73270000  1.0 0.5880074194
C  C190  1  0.35710000  0.39210000  0.72320000  1.0 -0.1233813486
C  C191  1  0.33960000  0.37430000  0.69390000  1.0 -0.1233813486
C  C192  1  0.39090000  0.36500000  0.66600000  1.0 0.1117241973
C  C193  1  0.36070000  0.34130000  0.63640000  1.0 -0.1690755868
C  C194  1  0.40380000  0.33050000  0.60810000  1.0 -0.0808470156
C  C195  1  0.47350000  0.34280000  0.60920000  1.0 -0.0605765912
C  C196  1  0.49950000  0.36620000  0.63900000  1.0 -0.0976837249
C  C197  1  0.45920000  0.37850000  0.66790000  1.0 -0.1585573786
C  C198  1  0.52050000  0.33960000  0.58030000  1.0 0.5880074194
C  C199  1  0.56220000  0.28140000  0.06030000  1.0 0.137872736
C  C200  1  0.56690000  0.20850000  0.05360000  1.0 -0.279099659
C  C201  1  0.58960000  0.18520000  0.02070000  1.0 0.137872736
C  C202  1  0.60280000  0.23410000  0.99460000  1.0 -0.2510125496
C  C203  1  0.59530000  0.30490000  0.99990000  1.0 0.1477135485
C  C204  1  0.58050000  0.32890000  0.03350000  1.0 -0.2586078653
C  C205  1  0.54190000  0.30640000  0.09540000  1.0 -0.1267874957
C  C206  1  0.52990000  0.27290000  0.12050000  1.0 -0.1087005554
C  C207  1  0.50500000  0.30280000  0.15400000  1.0 0.0977672441
C  C208  1  0.48260000  0.25350000  0.17540000  1.0 -0.146705077
C  C209  1  0.45860000  0.27470000  0.20560000  1.0 -0.0976837249
C  C210  1  0.45220000  0.34200000  0.21520000  1.0 -0.0435262937
C  C211  1  0.47700000  0.39020000  0.19260000  1.0 -0.1087005554
C  C212  1  0.50210000  0.37290000  0.16090000  1.0 -0.1690755868
C  C213  1  0.41910000  0.36710000  0.24710000  1.0 0.5880074194
C  C214  1  0.60160000  0.11320000  0.00960000  1.0 -0.1087005554
C  C215  1  0.58520000  0.06450000  0.02640000  1.0 -0.1233813486
C  C216  1  0.59930000  0.99100000  0.01500000  1.0 0.1117241973
C  C217  1  0.56870000  0.93630000  0.03250000  1.0 -0.175995984
C  C218  1  0.57310000  0.86900000  0.02150000  1.0 -0.0859177471
C  C219  1  0.61380000  0.85460000  0.99430000  1.0 -0.0489729801
C  C220  1  0.65150000  0.90240000  0.97790000  1.0 -0.0859177471
C  C221  1  0.64180000  0.97090000  0.98770000  1.0 -0.1870686346
C  C222  1  0.61710000  0.78200000  0.98270000  1.0 0.5880074194
C  C223  1  0.60790000  0.35710000  0.97320000  1.0 -0.1233813486
C  C224  1  0.62570000  0.33960000  0.94390000  1.0 -0.1233813486
C  C225  1  0.63500000  0.39090000  0.91600000  1.0 0.1117241973
C  C226  1  0.65870000  0.36070000  0.88640000  1.0 -0.1690755868
C  C227  1  0.66950000  0.40380000  0.85810000  1.0 -0.0808470156
C  C228  1  0.65720000  0.47350000  0.85920000  1.0 -0.0605765912
C  C229  1  0.63380000  0.49950000  0.88900000  1.0 -0.0976837249
C  C230  1  0.62150000  0.45920000  0.91790000  1.0 -0.1585573786
C  C231  1  0.66040000  0.52050000  0.83030000  1.0 0.5880074194
C  C232  1  0.43780000  0.71860000  0.56030000  1.0 0.137872736
C  C233  1  0.43310000  0.79150000  0.55360000  1.0 -0.279099659
C  C234  1  0.41040000  0.81480000  0.52070000  1.0 0.137872736
C  C235  1  0.39720000  0.76590000  0.49460000  1.0 -0.2510125496
C  C236  1  0.40470000  0.69510000  0.49990000  1.0 0.1477135485
C  C237  1  0.41950000  0.67110000  0.53350000  1.0 -0.2586078653
C  C238  1  0.45810000  0.69360000  0.59540000  1.0 -0.1267874957
C  C239  1  0.47010000  0.72710000  0.62050000  1.0 -0.1087005554
C  C240  1  0.49500000  0.69720000  0.65400000  1.0 0.0977672441
C  C241  1  0.51740000  0.74650000  0.67540000  1.0 -0.146705077
C  C242  1  0.54140000  0.72530000  0.70560000  1.0 -0.0976837249
C  C243  1  0.54780000  0.65800000  0.71520000  1.0 -0.0435262937
C  C244  1  0.52300000  0.60980000  0.69260000  1.0 -0.1087005554
C  C245  1  0.49790000  0.62710000  0.66090000  1.0 -0.1690755868
C  C246  1  0.58090000  0.63290000  0.74710000  1.0 0.5880074194
C  C247  1  0.39840000  0.88680000  0.50960000  1.0 -0.1087005554
C  C248  1  0.41480000  0.93550000  0.52640000  1.0 -0.1233813486
C  C249  1  0.40070000  0.00900000  0.51500000  1.0 0.1117241973
C  C250  1  0.43130000  0.06370000  0.53250000  1.0 -0.175995984
C  C251  1  0.42690000  0.13100000  0.52150000  1.0 -0.0859177471
C  C252  1  0.38620000  0.14540000  0.49430000  1.0 -0.0489729801
C  C253  1  0.34850000  0.09760000  0.47790000  1.0 -0.0859177471
C  C254  1  0.35820000  0.02910000  0.48770000  1.0 -0.1870686346
C  C255  1  0.38290000  0.21800000  0.48270000  1.0 0.5880074194
C  C256  1  0.39210000  0.64290000  0.47320000  1.0 -0.1233813486
C  C257  1  0.37430000  0.66040000  0.44390000  1.0 -0.1233813486
C  C258  1  0.36500000  0.60910000  0.41600000  1.0 0.1117241973
C  C259  1  0.34130000  0.63930000  0.38640000  1.0 -0.1690755868
C  C260  1  0.33050000  0.59620000  0.35810000  1.0 -0.0808470156
C  C261  1  0.34280000  0.52650000  0.35920000  1.0 -0.0605765912
C  C262  1  0.36620000  0.50050000  0.38900000  1.0 -0.0976837249
C  C263  1  0.37850000  0.54080000  0.41790000  1.0 -0.1585573786
C  C264  1  0.33960000  0.47950000  0.33030000  1.0 0.5880074194
O  O1  1  0.42790000  0.40940000  0.49680000  1.0 -0.5508940005
O  O2  1  0.32050000  0.39200000  0.48530000  1.0 -0.5326911592
O  O3  1  0.74140000  0.57550000  0.75070000  1.0 -0.6058631324
O  O4  1  0.76530000  0.65570000  0.78940000  1.0 -0.4531729081
O  O5  1  0.48840000  0.67520000  0.94721000  1.0 -0.5748012894
O  O6  1  0.58240000  0.65570000  0.91640000  1.0 -0.5185218537
O  O7  1  0.57210000  0.59060000  0.99680000  1.0 -0.5508940005
O  O8  1  0.67950000  0.60800000  0.98530000  1.0 -0.5326911592
O  O9  1  0.25860000  0.42450000  0.25070000  1.0 -0.6058631324
O  O10  1  0.23470000  0.34430000  0.28940000  1.0 -0.4531729081
O  O11  1  0.51160000  0.32480000  0.44721000  1.0 -0.5748012894
O  O12  1  0.41760000  0.34430000  0.41640000  1.0 -0.5185218537
O  O13  1  0.59060000  0.42790000  0.74680000  1.0 -0.5508940005
O  O14  1  0.60800000  0.32050000  0.73530000  1.0 -0.5326911592
O  O15  1  0.42450000  0.74140000  0.00070000  1.0 -0.6058631324
O  O16  1  0.34430000  0.76530000  0.03940000  1.0 -0.4531729081
O  O17  1  0.32480000  0.48840000  0.19721000  1.0 -0.5748012894
O  O18  1  0.34430000  0.58240000  0.16640000  1.0 -0.5185218537
O  O19  1  0.40940000  0.57210000  0.24680000  1.0 -0.5508940005
O  O20  1  0.39200000  0.67950000  0.23530000  1.0 -0.5326911592
O  O21  1  0.57550000  0.25860000  0.50070000  1.0 -0.6058631324
O  O22  1  0.65570000  0.23470000  0.53940000  1.0 -0.4531729081
O  O23  1  0.67520000  0.51160000  0.69721000  1.0 -0.5748012894
O  O24  1  0.65570000  0.41760000  0.66640000  1.0 -0.5185218537
O  O25  1  0.57210000  0.40940000  0.50320000  1.0 -0.5508940005
O  O26  1  0.67950000  0.39200000  0.51470000  1.0 -0.5326911592
O  O27  1  0.25860000  0.57550000  0.24930000  1.0 -0.6058631324
O  O28  1  0.23470000  0.65570000  0.21060000  1.0 -0.4531729081
O  O29  1  0.51160000  0.67520000  0.05279000  1.0 -0.5748012894
O  O30  1  0.41760000  0.65570000  0.08360000  1.0 -0.5185218537
O  O31  1  0.42790000  0.59060000  0.00320000  1.0 -0.5508940005
O  O32  1  0.32050000  0.60800000  0.01470000  1.0 -0.5326911592
O  O33  1  0.74140000  0.42450000  0.74930000  1.0 -0.6058631324
O  O34  1  0.76530000  0.34430000  0.71060000  1.0 -0.4531729081
O  O35  1  0.48840000  0.32480000  0.55279000  1.0 -0.5748012894
O  O36  1  0.58240000  0.34430000  0.58360000  1.0 -0.5185218537
O  O37  1  0.40940000  0.42790000  0.25320000  1.0 -0.5508940005
O  O38  1  0.39200000  0.32050000  0.26470000  1.0 -0.5326911592
O  O39  1  0.57550000  0.74140000  0.99930000  1.0 -0.6058631324
O  O40  1  0.65570000  0.76530000  0.96060000  1.0 -0.4531729081
O  O41  1  0.67520000  0.48840000  0.80279000  1.0 -0.5748012894
O  O42  1  0.65570000  0.58240000  0.83360000  1.0 -0.5185218537
O  O43  1  0.59060000  0.57210000  0.75320000  1.0 -0.5508940005
O  O44  1  0.60800000  0.67950000  0.76470000  1.0 -0.5326911592
O  O45  1  0.42450000  0.25860000  0.49930000  1.0 -0.6058631324
O  O46  1  0.34430000  0.23470000  0.46060000  1.0 -0.4531729081
O  O47  1  0.32480000  0.51160000  0.30279000  1.0 -0.5748012894
O  O48  1  0.34430000  0.41760000  0.33360000  1.0 -0.5185218537
