# DDEC6 charges by PACMAN v1.1 (https://github.com/mtap-research/PACMAN-charge/)
data_DORNAB_ASR_pacman
_symmetry_space_group_name_H-M   'P 1'
_cell_length_a   33.36290000
_cell_length_b   33.36290000
_cell_length_c   28.88880000
_cell_angle_alpha   90.00000000
_cell_angle_beta   90.00000000
_cell_angle_gamma   154.95200000
_symmetry_Int_Tables_number   1
_chemical_formula_structural   Cu3H15C36NO12
_chemical_formula_sum   'Cu24 H120 C288 N8 O96'
_cell_volume   13613.96847918
_cell_formula_units_Z   8
loop_
 _symmetry_equiv_pos_site_id
 _symmetry_equiv_pos_as_xyz
  1  'x, y, z'
loop_
 _atom_site_type_symbol
 _atom_site_label
 _atom_site_symmetry_multiplicity
 _atom_site_fract_x
 _atom_site_fract_y
 _atom_site_fract_z
 _atom_site_occupancy
 _atom_site_charge
Cu  Cu1  1  0.13000000  0.87000000  0.17007000  1.0 0.8561687371
Cu  Cu2  1  0.87000000  0.13000000  0.67007000  1.0 0.8503140709
Cu  Cu3  1  0.12111000  0.87889000  0.07890000  1.0 0.8400351188
Cu  Cu4  1  0.87889000  0.12111000  0.57890000  1.0 0.8503140709
Cu  Cu5  1  0.27557000  0.72443000  0.71070000  1.0 0.8813054463
Cu  Cu6  1  0.72443000  0.27557000  0.21070000  1.0 0.8813054463
Cu  Cu7  1  0.31452000  0.68548000  0.73988000  1.0 0.8813054463
Cu  Cu8  1  0.68548000  0.31452000  0.23988000  1.0 0.8813054463
Cu  Cu9  1  0.82303000  0.17697000  0.96242000  1.0 0.7999129396
Cu  Cu10  1  0.17697000  0.82303000  0.46242000  1.0 0.7999129396
Cu  Cu11  1  0.84214000  0.15786000  0.88133000  1.0 0.7999129396
Cu  Cu12  1  0.15786000  0.84214000  0.38133000  1.0 0.8053383133
Cu  Cu13  1  0.90711000  0.09289000  0.36730000  1.0 0.832273235
Cu  Cu14  1  0.09289000  0.90711000  0.86730000  1.0 0.832273235
Cu  Cu15  1  0.92666000  0.07334000  0.28684000  1.0 0.8400351188
Cu  Cu16  1  0.07334000  0.92666000  0.78684000  1.0 0.8400351188
Cu  Cu17  1  0.64403000  0.35597000  0.61480000  1.0 0.832273235
Cu  Cu18  1  0.35597000  0.64403000  0.11480000  1.0 0.832273235
Cu  Cu19  1  0.60471000  0.39529000  0.63298000  1.0 0.8400351188
Cu  Cu20  1  0.39529000  0.60471000  0.13298000  1.0 0.8400351188
Cu  Cu21  1  0.56567000  0.43433000  0.00976000  1.0 0.8954633376
Cu  Cu22  1  0.43433000  0.56567000  0.50976000  1.0 0.8954633376
Cu  Cu23  1  0.52687000  0.47313000  0.03828000  1.0 0.8238107464
Cu  Cu24  1  0.47313000  0.52687000  0.53828000  1.0 0.8238107464
H  H1  1  0.94820000  0.49760000  0.78090000  1.0 0.1394496352
H  H2  1  0.05180000  0.50240000  0.28090000  1.0 0.1394496352
H  H3  1  0.49760000  0.94820000  0.28090000  1.0 0.1394496352
H  H4  1  0.50240000  0.05180000  0.78090000  1.0 0.1394496352
H  H5  1  0.94120000  0.55020000  0.74870000  1.0 0.1201218285
H  H6  1  0.05880000  0.44980000  0.24870000  1.0 0.1201218285
H  H7  1  0.55020000  0.94120000  0.24870000  1.0 0.1201218285
H  H8  1  0.44980000  0.05880000  0.74870000  1.0 0.1201218285
H  H9  1  0.81660000  0.48920000  0.73360000  1.0 0.1201218285
H  H10  1  0.18340000  0.51080000  0.23360000  1.0 0.1201218285
H  H11  1  0.48920000  0.81660000  0.23360000  1.0 0.1201218285
H  H12  1  0.51080000  0.18340000  0.73360000  1.0 0.1201218285
H  H13  1  0.99110000  0.48590000  0.96710000  1.0 0.1201218285
H  H14  1  0.00890000  0.51410000  0.46710000  1.0 0.1201218285
H  H15  1  0.48590000  0.99110000  0.46710000  1.0 0.1201218285
H  H16  1  0.51410000  0.00890000  0.96710000  1.0 0.1201218285
H  H17  1  0.90880000  0.37420000  0.91210000  1.0 0.130046636
H  H18  1  0.09120000  0.62580000  0.41210000  1.0 0.130046636
H  H19  1  0.37420000  0.90880000  0.41210000  1.0 0.1394496352
H  H20  1  0.62580000  0.09120000  0.91210000  1.0 0.130046636
H  H21  1  0.09850000  0.59210000  0.82960000  1.0 0.1394496352
H  H22  1  0.90150000  0.40790000  0.32960000  1.0 0.1394496352
H  H23  1  0.59210000  0.09850000  0.32960000  1.0 0.1394496352
H  H24  1  0.40790000  0.90150000  0.82960000  1.0 0.1394496352
H  H25  1  0.86710000  0.43970000  0.08200000  1.0 0.1201218285
H  H26  1  0.13290000  0.56030000  0.58200000  1.0 0.1201218285
H  H27  1  0.43970000  0.86710000  0.58200000  1.0 0.1201218285
H  H28  1  0.56030000  0.13290000  0.08200000  1.0 0.1201218285
H  H29  1  0.99250000  0.70110000  0.82500000  1.0 0.130046636
H  H30  1  0.00750000  0.29890000  0.32500000  1.0 0.130046636
H  H31  1  0.70110000  0.99250000  0.32500000  1.0 0.130046636
H  H32  1  0.29890000  0.00750000  0.82500000  1.0 0.130046636
H  H33  1  0.01070000  0.66370000  0.03490000  1.0 0.130046636
H  H34  1  0.98930000  0.33630000  0.53490000  1.0 0.130046636
H  H35  1  0.66370000  0.01070000  0.53490000  1.0 0.130046636
H  H36  1  0.33630000  0.98930000  0.03490000  1.0 0.130046636
H  H37  1  0.97110000  0.50230000  0.02950000  1.0 0.1201218285
H  H38  1  0.02890000  0.49770000  0.52950000  1.0 0.1201218285
H  H39  1  0.50230000  0.97110000  0.52950000  1.0 0.1201218285
H  H40  1  0.49770000  0.02890000  0.02950000  1.0 0.1201218285
H  H41  1  0.91870000  0.57990000  0.16610000  1.0 0.1394496352
H  H42  1  0.08130000  0.42010000  0.66610000  1.0 0.1394496352
H  H43  1  0.57990000  0.91870000  0.66610000  1.0 0.1394496352
H  H44  1  0.42010000  0.08130000  0.16610000  1.0 0.1394496352
H  H45  1  0.92520000  0.56440000  0.96780000  1.0 0.1201218285
H  H46  1  0.07480000  0.43560000  0.46780000  1.0 0.1201218285
H  H47  1  0.56440000  0.92520000  0.46780000  1.0 0.1201218285
H  H48  1  0.43560000  0.07480000  0.96780000  1.0 0.1201218285
H  H49  1  0.86750000  0.64830000  0.72070000  1.0 0.1394496352
H  H50  1  0.13250000  0.35170000  0.22070000  1.0 0.1394496352
H  H51  1  0.64830000  0.86750000  0.22070000  1.0 0.1394496352
H  H52  1  0.35170000  0.13250000  0.72070000  1.0 0.1394496352
H  H53  1  0.92790000  0.59210000  0.87380000  1.0 0.1201218285
H  H54  1  0.07210000  0.40790000  0.37380000  1.0 0.1201218285
H  H55  1  0.59210000  0.92790000  0.37380000  1.0 0.1201218285
H  H56  1  0.40790000  0.07210000  0.87380000  1.0 0.1201218285
H  H57  1  0.06650000  0.44490000  0.83010000  1.0 0.1394496352
H  H58  1  0.93350000  0.55510000  0.33010000  1.0 0.1394496352
H  H59  1  0.44490000  0.06650000  0.33010000  1.0 0.147518705
H  H60  1  0.55510000  0.93350000  0.83010000  1.0 0.147518705
H  H61  1  0.75200000  0.58340000  0.51920000  1.0 0.130046636
H  H62  1  0.24800000  0.41660000  0.01920000  1.0 0.130046636
H  H63  1  0.58340000  0.75200000  0.01920000  1.0 0.130046636
H  H64  1  0.41660000  0.24800000  0.51920000  1.0 0.130046636
H  H65  1  0.95030000  0.73910000  0.42360000  1.0 0.1201218285
H  H66  1  0.04970000  0.26090000  0.92360000  1.0 0.1201218285
H  H67  1  0.73910000  0.95030000  0.92360000  1.0 0.1201218285
H  H68  1  0.26090000  0.04970000  0.42360000  1.0 0.1201218285
H  H69  1  0.74460000  0.75560000  0.28260000  1.0 0.147518705
H  H70  1  0.25540000  0.24440000  0.78260000  1.0 0.147518705
H  H71  1  0.75560000  0.74460000  0.78260000  1.0 0.147518705
H  H72  1  0.24440000  0.25540000  0.28260000  1.0 0.147518705
H  H73  1  0.77550000  0.73290000  0.46990000  1.0 0.1394496352
H  H74  1  0.22450000  0.26710000  0.96990000  1.0 0.1394496352
H  H75  1  0.73290000  0.77550000  0.96990000  1.0 0.1394496352
H  H76  1  0.26710000  0.22450000  0.46990000  1.0 0.1394496352
H  H77  1  0.66540000  0.67020000  0.43870000  1.0 0.130046636
H  H78  1  0.33460000  0.32980000  0.93870000  1.0 0.130046636
H  H79  1  0.67020000  0.66540000  0.93870000  1.0 0.130046636
H  H80  1  0.32980000  0.33460000  0.43870000  1.0 0.130046636
H  H81  1  0.69420000  0.61940000  0.16730000  1.0 0.1201218285
H  H82  1  0.30580000  0.38060000  0.66730000  1.0 0.1201218285
H  H83  1  0.61940000  0.69420000  0.66730000  1.0 0.1201218285
H  H84  1  0.38060000  0.30580000  0.16730000  1.0 0.1201218285
H  H85  1  0.85060000  0.88120000  0.34710000  1.0 0.130046636
H  H86  1  0.14940000  0.11880000  0.84710000  1.0 0.130046636
H  H87  1  0.88120000  0.85060000  0.84710000  1.0 0.130046636
H  H88  1  0.11880000  0.14940000  0.34710000  1.0 0.130046636
H  H89  1  0.89440000  0.60340000  0.51520000  1.0 0.147518705
H  H90  1  0.10560000  0.39660000  0.01520000  1.0 0.147518705
H  H91  1  0.60340000  0.89440000  0.01520000  1.0 0.147518705
H  H92  1  0.39660000  0.10560000  0.51520000  1.0 0.147518705
H  H93  1  0.76420000  0.73640000  0.21510000  1.0 0.1201218285
H  H94  1  0.23580000  0.26360000  0.71510000  1.0 0.1201218285
H  H95  1  0.73640000  0.76420000  0.71510000  1.0 0.1201218285
H  H96  1  0.26360000  0.23580000  0.21510000  1.0 0.1201218285
H  H97  1  0.92070000  0.76930000  0.21330000  1.0 0.130046636
H  H98  1  0.07930000  0.23070000  0.71330000  1.0 0.130046636
H  H99  1  0.76930000  0.92070000  0.71330000  1.0 0.130046636
H  H100  1  0.23070000  0.07930000  0.21330000  1.0 0.130046636
H  H101  1  0.83280000  0.66620000  0.08610000  1.0 0.1394496352
H  H102  1  0.16720000  0.33380000  0.58610000  1.0 0.1394496352
H  H103  1  0.66620000  0.83280000  0.58610000  1.0 0.1394496352
H  H104  1  0.33380000  0.16720000  0.08610000  1.0 0.1394496352
H  H105  1  0.81990000  0.68310000  0.28490000  1.0 0.1394496352
H  H106  1  0.18010000  0.31690000  0.78490000  1.0 0.1394496352
H  H107  1  0.68310000  0.81990000  0.78490000  1.0 0.1394496352
H  H108  1  0.31690000  0.18010000  0.28490000  1.0 0.1394496352
H  H109  1  0.82980000  0.72320000  0.49910000  1.0 0.1201218285
H  H110  1  0.17020000  0.27680000  0.99910000  1.0 0.1201218285
H  H111  1  0.72320000  0.82980000  0.99910000  1.0 0.1201218285
H  H112  1  0.27680000  0.17020000  0.49910000  1.0 0.1201218285
H  H113  1  0.83360000  0.67040000  0.37620000  1.0 0.1394496352
H  H114  1  0.16640000  0.32960000  0.87620000  1.0 0.1394496352
H  H115  1  0.67040000  0.83360000  0.87620000  1.0 0.1394496352
H  H116  1  0.32960000  0.16640000  0.37620000  1.0 0.1394496352
H  H117  1  0.68170000  0.80330000  0.41620000  1.0 0.147518705
H  H118  1  0.31830000  0.19670000  0.91620000  1.0 0.147518705
H  H119  1  0.80330000  0.68170000  0.91620000  1.0 0.147518705
H  H120  1  0.19670000  0.31830000  0.41620000  1.0 0.147518705
C  C1  1  0.94700000  0.51880000  0.80000000  1.0 -0.1798095392
C  C2  1  0.05300000  0.48120000  0.30000000  1.0 -0.1798095392
C  C3  1  0.51880000  0.94700000  0.30000000  1.0 -0.1798095392
C  C4  1  0.48120000  0.05300000  0.80000000  1.0 -0.1798095392
C  C5  1  0.93747000  0.54433000  0.78070000  1.0 -0.1107707707
C  C6  1  0.06253000  0.45567000  0.28070000  1.0 -0.1107707707
C  C7  1  0.54433000  0.93747000  0.28070000  1.0 -0.1107707707
C  C8  1  0.45567000  0.06253000  0.78070000  1.0 -0.1192853549
C  C9  1  0.84436000  0.53684000  0.74710000  1.0 -0.1710380518
C  C10  1  0.15564000  0.46316000  0.24710000  1.0 -0.1710380518
C  C11  1  0.53684000  0.84436000  0.24710000  1.0 -0.1710380518
C  C12  1  0.46316000  0.15564000  0.74710000  1.0 -0.1710380518
C  C13  1  0.97724000  0.39556000  0.87280000  1.0 0.0203366148
C  C14  1  0.02276000  0.60444000  0.37280000  1.0 0.0203366148
C  C15  1  0.39556000  0.97724000  0.37280000  1.0 0.0203366148
C  C16  1  0.60444000  0.02276000  0.87280000  1.0 0.0203366148
C  C17  1  0.98200000  0.47220000  0.86040000  1.0 0.147518705
C  C18  1  0.01800000  0.52780000  0.36040000  1.0 0.147518705
C  C19  1  0.47220000  0.98200000  0.36040000  1.0 0.147518705
C  C20  1  0.52780000  0.01800000  0.86040000  1.0 0.147518705
C  C21  1  0.94469000  0.55191000  0.05210000  1.0 0.0813600621
C  C22  1  0.05531000  0.44809000  0.55210000  1.0 0.0813600621
C  C23  1  0.55191000  0.94469000  0.55210000  1.0 0.0813600621
C  C24  1  0.44809000  0.05531000  0.05210000  1.0 0.0813600621
C  C25  1  0.98271000  0.76829000  0.80070000  1.0 0.5718543878
C  C26  1  0.01729000  0.23171000  0.30070000  1.0 0.5718543878
C  C27  1  0.76829000  0.98271000  0.30070000  1.0 0.5718543878
C  C28  1  0.23171000  0.01729000  0.80070000  1.0 0.5718543878
C  C29  1  0.97920000  0.50260000  0.96610000  1.0 -0.1507453085
C  C30  1  0.02080000  0.49740000  0.46610000  1.0 -0.1507453085
C  C31  1  0.50260000  0.97920000  0.46610000  1.0 -0.1507453085
C  C32  1  0.49740000  0.02080000  0.96610000  1.0 -0.1507453085
C  C33  1  0.92150000  0.56310000  0.80790000  1.0 0.0271264496
C  C34  1  0.07850000  0.43690000  0.30790000  1.0 0.0271264496
C  C35  1  0.56310000  0.92150000  0.30790000  1.0 0.0271264496
C  C36  1  0.43690000  0.07850000  0.80790000  1.0 0.0271264496
C  C37  1  0.92478000  0.30862000  0.89360000  1.0 0.5596396229
C  C38  1  0.07522000  0.69138000  0.39360000  1.0 0.5596396229
C  C39  1  0.30862000  0.92478000  0.39360000  1.0 0.5596396229
C  C40  1  0.69138000  0.07522000  0.89360000  1.0 0.5596396229
C  C41  1  0.94848000  0.40692000  0.88670000  1.0 -0.1993249542
C  C42  1  0.05152000  0.59308000  0.38670000  1.0 -0.1993249542
C  C43  1  0.40692000  0.94848000  0.38670000  1.0 -0.1993249542
C  C44  1  0.59308000  0.05152000  0.88670000  1.0 -0.1993249542
C  C45  1  0.05958000  0.53502000  0.83610000  1.0 -0.1507453085
C  C46  1  0.94042000  0.46498000  0.33610000  1.0 -0.1507453085
C  C47  1  0.53502000  0.05958000  0.33610000  1.0 -0.1507453085
C  C48  1  0.46498000  0.94042000  0.83610000  1.0 -0.1507453085
C  C49  1  0.89430000  0.48950000  0.08600000  1.0 -0.1798095392
C  C50  1  0.10570000  0.51050000  0.58600000  1.0 -0.1798095392
C  C51  1  0.48950000  0.89430000  0.58600000  1.0 -0.1798095392
C  C52  1  0.51050000  0.10570000  0.08600000  1.0 -0.1798095392
C  C53  1  0.03569000  0.73031000  0.11120000  1.0 0.5718543878
C  C54  1  0.96431000  0.26969000  0.61120000  1.0 0.5718543878
C  C55  1  0.73031000  0.03569000  0.61120000  1.0 0.5718543878
C  C56  1  0.26969000  0.96431000  0.11120000  1.0 0.5718543878
C  C57  1  0.94805000  0.66175000  0.80120000  1.0 -0.1710380518
C  C58  1  0.05195000  0.33825000  0.30120000  1.0 -0.160994705
C  C59  1  0.66175000  0.94805000  0.30120000  1.0 -0.160994705
C  C60  1  0.33825000  0.05195000  0.80120000  1.0 -0.1710380518
C  C61  1  0.97039000  0.51761000  0.92230000  1.0 0.0521665438
C  C62  1  0.02961000  0.48239000  0.42230000  1.0 0.0521665438
C  C63  1  0.51761000  0.97039000  0.42230000  1.0 0.0521665438
C  C64  1  0.48239000  0.02961000  0.92230000  1.0 0.0521665438
C  C65  1  0.88239000  0.50041000  0.12970000  1.0 0.0012223001
C  C66  1  0.11761000  0.49959000  0.62970000  1.0 0.0012223001
C  C67  1  0.50041000  0.88239000  0.62970000  1.0 0.0012223001
C  C68  1  0.49959000  0.11761000  0.12970000  1.0 0.0012223001
C  C69  1  0.98309000  0.62531000  0.05970000  1.0 -0.160994705
C  C70  1  0.01691000  0.37469000  0.55970000  1.0 -0.160994705
C  C71  1  0.62531000  0.98309000  0.55970000  1.0 -0.160994705
C  C72  1  0.37469000  0.01691000  0.05970000  1.0 -0.160994705
C  C73  1  0.96890000  0.51450000  0.00180000  1.0 -0.0937882671
C  C74  1  0.03110000  0.48550000  0.50180000  1.0 -0.0937882671
C  C75  1  0.51450000  0.96890000  0.50180000  1.0 -0.0937882671
C  C76  1  0.48550000  0.03110000  0.00180000  1.0 -0.0937882671
C  C77  1  0.92530000  0.57370000  0.13740000  1.0 -0.1107707707
C  C78  1  0.07470000  0.42630000  0.63740000  1.0 -0.1107707707
C  C79  1  0.57370000  0.92530000  0.63740000  1.0 -0.1107707707
C  C80  1  0.42630000  0.07470000  0.13740000  1.0 -0.1107707707
C  C81  1  0.98132000  0.64288000  0.10320000  1.0 -0.007575227
C  C82  1  0.01868000  0.35712000  0.60320000  1.0 -0.007575227
C  C83  1  0.64288000  0.98132000  0.60320000  1.0 -0.007575227
C  C84  1  0.35712000  0.01868000  0.10320000  1.0 -0.007575227
C  C85  1  0.82590000  0.55770000  0.72570000  1.0 0.0099626281
C  C86  1  0.17410000  0.44230000  0.22570000  1.0 0.0099626281
C  C87  1  0.55770000  0.82590000  0.22570000  1.0 0.0099626281
C  C88  1  0.44230000  0.17410000  0.72570000  1.0 0.0099626281
C  C89  1  0.08713000  0.52507000  0.82030000  1.0 -0.0275032112
C  C90  1  0.91287000  0.47493000  0.32030000  1.0 -0.0275032112
C  C91  1  0.52507000  0.08713000  0.32030000  1.0 -0.0275032112
C  C92  1  0.47493000  0.91287000  0.82030000  1.0 -0.0275032112
C  C93  1  0.93306000  0.68514000  0.78220000  1.0 0.0012223001
C  C94  1  0.06694000  0.31486000  0.28220000  1.0 0.0012223001
C  C95  1  0.68514000  0.93306000  0.28220000  1.0 0.0012223001
C  C96  1  0.31486000  0.06694000  0.78220000  1.0 0.0012223001
C  C97  1  0.93910000  0.54990000  0.96610000  1.0 -0.2204672178
C  C98  1  0.06090000  0.45010000  0.46610000  1.0 -0.2204672178
C  C99  1  0.54990000  0.93910000  0.46610000  1.0 -0.2204672178
C  C100  1  0.45010000  0.06090000  0.96610000  1.0 -0.2204672178
C  C101  1  0.16735000  0.59225000  0.78930000  1.0 0.5788607708
C  C102  1  0.83265000  0.40775000  0.28930000  1.0 0.5788607708
C  C103  1  0.59225000  0.16735000  0.28930000  1.0 0.5788607708
C  C104  1  0.40775000  0.83265000  0.78930000  1.0 0.5788607708
C  C105  1  0.81859000  0.42321000  0.16740000  1.0 0.586831828
C  C106  1  0.18141000  0.57679000  0.66740000  1.0 0.586831828
C  C107  1  0.42321000  0.81859000  0.66740000  1.0 0.586831828
C  C108  1  0.57679000  0.18141000  0.16740000  1.0 0.586831828
C  C109  1  0.87108000  0.62832000  0.73850000  1.0 -0.0937882671
C  C110  1  0.12892000  0.37168000  0.23850000  1.0 -0.0937882671
C  C111  1  0.62832000  0.87108000  0.23850000  1.0 -0.0937882671
C  C112  1  0.37168000  0.12892000  0.73850000  1.0 -0.0937882671
C  C113  1  0.93090000  0.57070000  0.85760000  1.0 -0.1865965934
C  C114  1  0.06910000  0.42930000  0.35760000  1.0 -0.1865965934
C  C115  1  0.57070000  0.93090000  0.35760000  1.0 -0.1865965934
C  C116  1  0.42930000  0.06910000  0.85760000  1.0 -0.1865965934
C  C117  1  0.74984000  0.48776000  0.68780000  1.0 0.5788607708
C  C118  1  0.25016000  0.51224000  0.18780000  1.0 0.5788607708
C  C119  1  0.48776000  0.74984000  0.18780000  1.0 0.5788607708
C  C120  1  0.51224000  0.25016000  0.68780000  1.0 0.5788607708
C  C121  1  0.94700000  0.53420000  0.92380000  1.0 -0.0275032112
C  C122  1  0.05300000  0.46580000  0.42380000  1.0 -0.0275032112
C  C123  1  0.53420000  0.94700000  0.42380000  1.0 -0.0275032112
C  C124  1  0.46580000  0.05300000  0.92380000  1.0 -0.0275032112
C  C125  1  0.90410000  0.58390000  0.78940000  1.0 0.0521665438
C  C126  1  0.09590000  0.41610000  0.28940000  1.0 0.0521665438
C  C127  1  0.58390000  0.90410000  0.28940000  1.0 0.0521665438
C  C128  1  0.41610000  0.09590000  0.78940000  1.0 0.0521665438
C  C129  1  0.95670000  0.52050000  0.85280000  1.0 0.1944803982
C  C130  1  0.04330000  0.47950000  0.35280000  1.0 0.1944803982
C  C131  1  0.52050000  0.95670000  0.35280000  1.0 0.1944803982
C  C132  1  0.47950000  0.04330000  0.85280000  1.0 0.1944803982
C  C133  1  0.95660000  0.53920000  0.00640000  1.0 0.0556148975
C  C134  1  0.04340000  0.46080000  0.50640000  1.0 0.0521665438
C  C135  1  0.53920000  0.95660000  0.50640000  1.0 0.0521665438
C  C136  1  0.46080000  0.04340000  0.00640000  1.0 0.0521665438
C  C137  1  0.94450000  0.54710000  0.88300000  1.0 -0.007575227
C  C138  1  0.05550000  0.45290000  0.38300000  1.0 -0.007575227
C  C139  1  0.54710000  0.94450000  0.38300000  1.0 -0.007575227
C  C140  1  0.45290000  0.05550000  0.88300000  1.0 -0.007575227
C  C141  1  0.04710000  0.45290000  0.83940000  1.0 -0.1322243014
C  C142  1  0.95290000  0.54710000  0.33940000  1.0 -0.1322243014
C  C143  1  0.45290000  0.04710000  0.33940000  1.0 -0.1322243014
C  C144  1  0.54710000  0.95290000  0.83940000  1.0 -0.1322243014
C  C145  1  0.79370000  0.60330000  0.50520000  1.0 -0.160994705
C  C146  1  0.20630000  0.39670000  0.00520000  1.0 -0.160994705
C  C147  1  0.60330000  0.79370000  0.00520000  1.0 -0.160994705
C  C148  1  0.39670000  0.20630000  0.50520000  1.0 -0.160994705
C  C149  1  0.91540000  0.69960000  0.44930000  1.0 -0.1798095392
C  C150  1  0.08460000  0.30040000  0.94930000  1.0 -0.1798095392
C  C151  1  0.69960000  0.91540000  0.94930000  1.0 -0.1798095392
C  C152  1  0.30040000  0.08460000  0.44930000  1.0 -0.1798095392
C  C153  1  0.76230000  0.74490000  0.28330000  1.0 -0.238242636
C  C154  1  0.23770000  0.25510000  0.78330000  1.0 -0.238242636
C  C155  1  0.74490000  0.76230000  0.78330000  1.0 -0.238242636
C  C156  1  0.25510000  0.23770000  0.28330000  1.0 -0.238242636
C  C157  1  0.88870000  0.72510000  0.15020000  1.0 -0.0018186875
C  C158  1  0.11130000  0.27490000  0.65020000  1.0 -0.007575227
C  C159  1  0.72510000  0.88870000  0.65020000  1.0 -0.0018186875
C  C160  1  0.27490000  0.11130000  0.15020000  1.0 -0.007575227
C  C161  1  0.79010000  0.72430000  0.45110000  1.0 -0.1710380518
C  C162  1  0.20990000  0.27570000  0.95110000  1.0 -0.1710380518
C  C163  1  0.72430000  0.79010000  0.95110000  1.0 -0.1710380518
C  C164  1  0.27570000  0.20990000  0.45110000  1.0 -0.1710380518
C  C165  1  0.75040000  0.76440000  0.38300000  1.0 0.1394496352
C  C166  1  0.24960000  0.23560000  0.88300000  1.0 0.1394496352
C  C167  1  0.76440000  0.75040000  0.88300000  1.0 0.147518705
C  C168  1  0.23560000  0.24960000  0.38300000  1.0 0.1394496352
C  C169  1  0.02152000  0.73428000  0.45320000  1.0 0.5788607708
C  C170  1  0.97848000  0.26572000  0.95320000  1.0 0.5788607708
C  C171  1  0.73428000  0.02152000  0.95320000  1.0 0.5788607708
C  C172  1  0.26572000  0.97848000  0.45320000  1.0 0.5788607708
C  C173  1  0.80760000  0.69820000  0.19530000  1.0 0.0271264496
C  C174  1  0.19240000  0.30180000  0.69530000  1.0 0.0271264496
C  C175  1  0.69820000  0.80760000  0.69530000  1.0 0.0271264496
C  C176  1  0.30180000  0.19240000  0.19530000  1.0 0.0203366148
C  C177  1  0.97800000  0.77920000  0.14090000  1.0 0.5788607708
C  C178  1  0.02200000  0.22080000  0.64090000  1.0 0.5788607708
C  C179  1  0.77920000  0.97800000  0.64090000  1.0 0.5788607708
C  C180  1  0.22080000  0.02200000  0.14090000  1.0 0.5788607708
C  C181  1  0.68678000  0.71122000  0.42130000  1.0 -0.2204672178
C  C182  1  0.31322000  0.28878000  0.92130000  1.0 -0.2204672178
C  C183  1  0.71122000  0.68678000  0.92130000  1.0 -0.2204672178
C  C184  1  0.28878000  0.31322000  0.42130000  1.0 -0.2204672178
C  C185  1  0.82310000  0.68050000  0.44040000  1.0 0.0813600621
C  C186  1  0.17690000  0.31950000  0.94040000  1.0 0.0813600621
C  C187  1  0.68050000  0.82310000  0.94040000  1.0 0.0813600621
C  C188  1  0.31950000  0.17690000  0.44040000  1.0 0.0813600621
C  C189  1  0.74373000  0.64647000  0.16240000  1.0 -0.1322243014
C  C190  1  0.25627000  0.35353000  0.66240000  1.0 -0.1362754131
C  C191  1  0.64647000  0.74373000  0.66240000  1.0 -0.1362754131
C  C192  1  0.35353000  0.25627000  0.16240000  1.0 -0.1322243014
C  C193  1  0.81770000  0.93410000  0.35850000  1.0 0.5788607708
C  C194  1  0.18230000  0.06590000  0.85850000  1.0 0.5788607708
C  C195  1  0.93410000  0.81770000  0.85850000  1.0 0.5788607708
C  C196  1  0.06590000  0.18230000  0.35850000  1.0 0.5788607708
C  C197  1  0.78140000  0.74100000  0.32530000  1.0 0.2231421968
C  C198  1  0.21860000  0.25900000  0.82530000  1.0 0.2231421968
C  C199  1  0.74100000  0.78140000  0.82530000  1.0 0.2231421968
C  C200  1  0.25900000  0.21860000  0.32530000  1.0 0.2231421968
C  C201  1  0.74190000  0.50590000  0.56660000  1.0 0.5718543878
C  C202  1  0.25810000  0.49410000  0.06660000  1.0 0.5718543878
C  C203  1  0.50590000  0.74190000  0.06660000  1.0 0.5718543878
C  C204  1  0.49410000  0.25810000  0.56660000  1.0 0.5718543878
C  C205  1  0.77105000  0.85495000  0.37900000  1.0 0.0012223001
C  C206  1  0.22895000  0.14505000  0.87900000  1.0 -0.0018186875
C  C207  1  0.85495000  0.77105000  0.87900000  1.0 0.0012223001
C  C208  1  0.14505000  0.22895000  0.37900000  1.0 0.0012223001
C  C209  1  0.93089000  0.67451000  0.47250000  1.0 0.0271264496
C  C210  1  0.06911000  0.32549000  0.97250000  1.0 0.0271264496
C  C211  1  0.67451000  0.93089000  0.97250000  1.0 0.0271264496
C  C212  1  0.32549000  0.06911000  0.47250000  1.0 0.0271264496
C  C213  1  0.80470000  0.57510000  0.52170000  1.0 0.0099626281
C  C214  1  0.19530000  0.42490000  0.02170000  1.0 0.0099626281
C  C215  1  0.57510000  0.80470000  0.02170000  1.0 0.0099626281
C  C216  1  0.42490000  0.19530000  0.52170000  1.0 0.0099626281
C  C217  1  0.79910000  0.83890000  0.36640000  1.0 -0.1993249542
C  C218  1  0.20090000  0.16110000  0.86640000  1.0 -0.1993249542
C  C219  1  0.83890000  0.79910000  0.86640000  1.0 -0.1993249542
C  C220  1  0.16110000  0.20090000  0.36640000  1.0 -0.1993249542
C  C221  1  0.88407000  0.61953000  0.50300000  1.0 -0.0937882671
C  C222  1  0.11593000  0.38047000  0.00300000  1.0 -0.0937882671
C  C223  1  0.61953000  0.88407000  0.00300000  1.0 -0.0937882671
C  C224  1  0.38047000  0.11593000  0.50300000  1.0 -0.0937882671
C  C225  1  0.77256000  0.73124000  0.24350000  1.0 -0.1192853549
C  C226  1  0.22744000  0.26876000  0.74350000  1.0 -0.1192853549
C  C227  1  0.73124000  0.77256000  0.74350000  1.0 -0.1192853549
C  C228  1  0.26876000  0.22744000  0.24350000  1.0 -0.1192853549
C  C229  1  0.78721000  0.72339000  0.40320000  1.0 0.1073204478
C  C230  1  0.21279000  0.27661000  0.90320000  1.0 0.1073204478
C  C231  1  0.72339000  0.78721000  0.90320000  1.0 0.1073204478
C  C232  1  0.27661000  0.21279000  0.40320000  1.0 0.1073204478
C  C233  1  0.79750000  0.70750000  0.24290000  1.0 0.0813600621
C  C234  1  0.20250000  0.29250000  0.74290000  1.0 0.0813600621
C  C235  1  0.70750000  0.79750000  0.74290000  1.0 0.0813600621
C  C236  1  0.29250000  0.20250000  0.24290000  1.0 0.0813600621
C  C237  1  0.87830000  0.73550000  0.18920000  1.0 -0.1322243014
C  C238  1  0.12170000  0.26450000  0.68920000  1.0 -0.1322243014
C  C239  1  0.73550000  0.87830000  0.68920000  1.0 -0.1322243014
C  C240  1  0.26450000  0.12170000  0.18920000  1.0 -0.1322243014
C  C241  1  0.82560000  0.67340000  0.11380000  1.0 -0.0937882671
C  C242  1  0.17440000  0.32660000  0.61380000  1.0 -0.0937882671
C  C243  1  0.67340000  0.82560000  0.61380000  1.0 -0.0937882671
C  C244  1  0.32660000  0.17440000  0.11380000  1.0 -0.0937882671
C  C245  1  0.80642000  0.69818000  0.28400000  1.0 -0.1993249542
C  C246  1  0.19358000  0.30182000  0.78400000  1.0 -0.1993249542
C  C247  1  0.69818000  0.80642000  0.78400000  1.0 -0.1993249542
C  C248  1  0.30182000  0.19358000  0.28400000  1.0 -0.1993249542
C  C249  1  0.58280000  0.65540000  0.47020000  1.0 0.5264920792
C  C250  1  0.41720000  0.34460000  0.97020000  1.0 0.5264920792
C  C251  1  0.65540000  0.58280000  0.97020000  1.0 0.5264920792
C  C252  1  0.34460000  0.41720000  0.47020000  1.0 0.5264920792
C  C253  1  0.65952000  0.72568000  0.43040000  1.0 0.0394889046
C  C254  1  0.34048000  0.27432000  0.93040000  1.0 0.0394889046
C  C255  1  0.72568000  0.65952000  0.93040000  1.0 0.0394889046
C  C256  1  0.27432000  0.34048000  0.43040000  1.0 0.0394889046
C  C257  1  0.75110000  0.63270000  0.12030000  1.0 -0.0275032112
C  C258  1  0.24890000  0.36730000  0.62030000  1.0 -0.0275032112
C  C259  1  0.63270000  0.75110000  0.62030000  1.0 -0.0275032112
C  C260  1  0.36730000  0.24890000  0.12030000  1.0 -0.0275032112
C  C261  1  0.67252000  0.56528000  0.08690000  1.0 0.5718543878
C  C262  1  0.32748000  0.43472000  0.58690000  1.0 0.5718543878
C  C263  1  0.56528000  0.67252000  0.58690000  1.0 0.5718543878
C  C264  1  0.43472000  0.32748000  0.08690000  1.0 0.5718543878
C  C265  1  0.81550000  0.71170000  0.46770000  1.0 -0.1192853549
C  C266  1  0.18450000  0.28830000  0.96770000  1.0 -0.1192853549
C  C267  1  0.71170000  0.81550000  0.96770000  1.0 -0.1192853549
C  C268  1  0.28830000  0.18450000  0.46770000  1.0 -0.1192853549
C  C269  1  0.84384000  0.65936000  0.46890000  1.0 0.0521665438
C  C270  1  0.15616000  0.34064000  0.96890000  1.0 0.0521665438
C  C271  1  0.65936000  0.84384000  0.96890000  1.0 0.0521665438
C  C272  1  0.34064000  0.15616000  0.46890000  1.0 0.0521665438
C  C273  1  0.79679000  0.70941000  0.32480000  1.0 -0.0018186875
C  C274  1  0.20321000  0.29059000  0.82480000  1.0 -0.0018186875
C  C275  1  0.70941000  0.79679000  0.82480000  1.0 -0.0018186875
C  C276  1  0.29059000  0.20321000  0.32480000  1.0 -0.0018186875
C  C277  1  0.82200000  0.68220000  0.39480000  1.0 -0.2114429051
C  C278  1  0.17800000  0.31780000  0.89480000  1.0 -0.2114429051
C  C279  1  0.68220000  0.82200000  0.89480000  1.0 -0.2114429051
C  C280  1  0.31780000  0.17800000  0.39480000  1.0 -0.2114429051
C  C281  1  0.70260000  0.79660000  0.40890000  1.0 -0.0998197762
C  C282  1  0.29740000  0.20340000  0.90890000  1.0 -0.0998197762
C  C283  1  0.79660000  0.70260000  0.90890000  1.0 -0.0998197762
C  C284  1  0.20340000  0.29740000  0.40890000  1.0 -0.0998197762
C  C285  1  0.80226000  0.70314000  0.37500000  1.0 -0.0018186875
C  C286  1  0.19774000  0.29686000  0.87500000  1.0 -0.0018186875
C  C287  1  0.70314000  0.80226000  0.87500000  1.0 -0.0018186875
C  C288  1  0.29686000  0.19774000  0.37500000  1.0 0.0012223001
N  N1  1  0.96908000  0.50092000  0.87510000  1.0 -0.0937882671
N  N2  1  0.03092000  0.49908000  0.37510000  1.0 -0.0937882671
N  N3  1  0.50092000  0.96908000  0.37510000  1.0 -0.0937882671
N  N4  1  0.49908000  0.03092000  0.87510000  1.0 -0.0937882671
N  N5  1  0.77355000  0.74365000  0.36690000  1.0 -0.0998197762
N  N6  1  0.22645000  0.25635000  0.86690000  1.0 -0.0998197762
N  N7  1  0.74365000  0.77355000  0.86690000  1.0 -0.0998197762
N  N8  1  0.25635000  0.22645000  0.36690000  1.0 -0.0998197762
O  O1  1  0.01568000  0.79552000  0.83980000  1.0 -0.498594572
O  O2  1  0.98432000  0.20448000  0.33980000  1.0 -0.498594572
O  O3  1  0.79552000  0.01568000  0.33980000  1.0 -0.498594572
O  O4  1  0.20448000  0.98432000  0.83980000  1.0 -0.498594572
O  O5  1  0.89594000  0.28586000  0.93370000  1.0 -0.4903393859
O  O6  1  0.10406000  0.71414000  0.43370000  1.0 -0.498594572
O  O7  1  0.28586000  0.89594000  0.43370000  1.0 -0.498594572
O  O8  1  0.71414000  0.10406000  0.93370000  1.0 -0.4903393859
O  O9  1  0.04664000  0.76116000  0.07770000  1.0 -0.4903393859
O  O10  1  0.95336000  0.23884000  0.57770000  1.0 -0.4903393859
O  O11  1  0.76116000  0.04664000  0.57770000  1.0 -0.4903393859
O  O12  1  0.23884000  0.95336000  0.07770000  1.0 -0.4903393859
O  O13  1  0.99312000  0.80568000  0.77340000  1.0 -0.5120210881
O  O14  1  0.00688000  0.19432000  0.27340000  1.0 -0.5120210881
O  O15  1  0.80568000  0.99312000  0.27340000  1.0 -0.5120210881
O  O16  1  0.19432000  0.00688000  0.77340000  1.0 -0.5120210881
O  O17  1  0.91606000  0.27354000  0.86890000  1.0 -0.4414099212
O  O18  1  0.08394000  0.72646000  0.36890000  1.0 -0.4414099212
O  O19  1  0.27354000  0.91606000  0.36890000  1.0 -0.4457469085
O  O20  1  0.72646000  0.08394000  0.86890000  1.0 -0.4414099212
O  O21  1  0.71184000  0.48896000  0.68110000  1.0 -0.549698313
O  O22  1  0.28816000  0.51104000  0.18110000  1.0 -0.549698313
O  O23  1  0.48896000  0.71184000  0.18110000  1.0 -0.549698313
O  O24  1  0.51104000  0.28816000  0.68110000  1.0 -0.549698313
O  O25  1  0.73972000  0.44968000  0.66570000  1.0 -0.4414099212
O  O26  1  0.26028000  0.55032000  0.16570000  1.0 -0.4414099212
O  O27  1  0.44968000  0.73972000  0.16570000  1.0 -0.4414099212
O  O28  1  0.55032000  0.26028000  0.66570000  1.0 -0.4414099212
O  O29  1  0.21046000  0.59814000  0.78490000  1.0 -0.5120210881
O  O30  1  0.78954000  0.40186000  0.28490000  1.0 -0.5218021908
O  O31  1  0.59814000  0.21046000  0.28490000  1.0 -0.5120210881
O  O32  1  0.40186000  0.78954000  0.78490000  1.0 -0.5120210881
O  O33  1  0.81062000  0.37818000  0.16920000  1.0 -0.5218021908
O  O34  1  0.18938000  0.62182000  0.66920000  1.0 -0.5218021908
O  O35  1  0.37818000  0.81062000  0.66920000  1.0 -0.5218021908
O  O36  1  0.62182000  0.18938000  0.16920000  1.0 -0.5218021908
O  O37  1  0.17749000  0.63071000  0.76020000  1.0 -0.5559129575
O  O38  1  0.82251000  0.36929000  0.26020000  1.0 -0.5559129575
O  O39  1  0.63071000  0.17749000  0.26020000  1.0 -0.5559129575
O  O40  1  0.36929000  0.82251000  0.76020000  1.0 -0.5559129575
O  O41  1  0.77740000  0.41020000  0.19420000  1.0 -0.528046386
O  O42  1  0.22260000  0.58980000  0.69420000  1.0 -0.528046386
O  O43  1  0.41020000  0.77740000  0.69420000  1.0 -0.528046386
O  O44  1  0.58980000  0.22260000  0.19420000  1.0 -0.528046386
O  O45  1  0.05539000  0.75641000  0.15270000  1.0 -0.528046386
O  O46  1  0.94461000  0.24359000  0.65270000  1.0 -0.528046386
O  O47  1  0.75641000  0.05539000  0.65270000  1.0 -0.528046386
O  O48  1  0.24359000  0.94461000  0.15270000  1.0 -0.528046386
O  O49  1  0.04304000  0.76216000  0.41240000  1.0 -0.5218021908
O  O50  1  0.95696000  0.23784000  0.91240000  1.0 -0.5218021908
O  O51  1  0.76216000  0.04304000  0.91240000  1.0 -0.5218021908
O  O52  1  0.23784000  0.95696000  0.41240000  1.0 -0.5218021908
O  O53  1  0.85173000  0.96187000  0.31780000  1.0 -0.549698313
O  O54  1  0.14827000  0.03813000  0.81780000  1.0 -0.549698313
O  O55  1  0.96187000  0.85173000  0.81780000  1.0 -0.549698313
O  O56  1  0.03813000  0.14827000  0.31780000  1.0 -0.549698313
O  O57  1  0.82718000  0.97142000  0.38520000  1.0 -0.5120210881
O  O58  1  0.17282000  0.02858000  0.88520000  1.0 -0.5120210881
O  O59  1  0.97142000  0.82718000  0.88520000  1.0 -0.5120210881
O  O60  1  0.02858000  0.17282000  0.38520000  1.0 -0.5120210881
O  O61  1  0.73315000  0.45985000  0.57100000  1.0 -0.5400675236
O  O62  1  0.26685000  0.54015000  0.07100000  1.0 -0.549698313
O  O63  1  0.45985000  0.73315000  0.07100000  1.0 -0.5400675236
O  O64  1  0.54015000  0.26685000  0.57100000  1.0 -0.5400675236
O  O65  1  0.05806000  0.74434000  0.48080000  1.0 -0.4838497439
O  O66  1  0.94194000  0.25566000  0.98080000  1.0 -0.4903393859
O  O67  1  0.74434000  0.05806000  0.98080000  1.0 -0.4838497439
O  O68  1  0.25566000  0.94194000  0.48080000  1.0 -0.4903393859
O  O69  1  0.01515000  0.79825000  0.17630000  1.0 -0.5120210881
O  O70  1  0.98485000  0.20175000  0.67630000  1.0 -0.5120210881
O  O71  1  0.79825000  0.01515000  0.67630000  1.0 -0.5120210881
O  O72  1  0.20175000  0.98485000  0.17630000  1.0 -0.5120210881
O  O73  1  0.62727000  0.55693000  0.08760000  1.0 -0.5120210881
O  O74  1  0.37273000  0.44307000  0.58760000  1.0 -0.5120210881
O  O75  1  0.55693000  0.62727000  0.58760000  1.0 -0.5120210881
O  O76  1  0.44307000  0.37273000  0.08760000  1.0 -0.5218021908
O  O77  1  0.69237000  0.48843000  0.58470000  1.0 -0.5120210881
O  O78  1  0.30763000  0.51157000  0.08470000  1.0 -0.5120210881
O  O79  1  0.48843000  0.69237000  0.08470000  1.0 -0.5120210881
O  O80  1  0.51157000  0.30763000  0.58470000  1.0 -0.5120210881
O  O81  1  0.53758000  0.65162000  0.46740000  1.0 -0.5745179752
O  O82  1  0.46242000  0.34838000  0.96740000  1.0 -0.5745179752
O  O83  1  0.65162000  0.53758000  0.96740000  1.0 -0.5745179752
O  O84  1  0.34838000  0.46242000  0.46740000  1.0 -0.5745179752
O  O85  1  0.66363000  0.52777000  0.05770000  1.0 -0.549698313
O  O86  1  0.33637000  0.47223000  0.55770000  1.0 -0.549698313
O  O87  1  0.52777000  0.66363000  0.55770000  1.0 -0.549698313
O  O88  1  0.47223000  0.33637000  0.05770000  1.0 -0.5559129575
O  O89  1  0.00329000  0.79951000  0.09890000  1.0 -0.5400675236
O  O90  1  0.99671000  0.20049000  0.59890000  1.0 -0.5400675236
O  O91  1  0.79951000  0.00329000  0.59890000  1.0 -0.528046386
O  O92  1  0.20049000  0.99671000  0.09890000  1.0 -0.5400675236
O  O93  1  0.56878000  0.61762000  0.49290000  1.0 -0.4112663665
O  O94  1  0.43122000  0.38238000  0.99290000  1.0 -0.4112663665
O  O95  1  0.61762000  0.56878000  0.99290000  1.0 -0.4112663665
O  O96  1  0.38238000  0.43122000  0.49290000  1.0 -0.4112663665
