# DDEC6 charges by PACMAN v1.1 (https://github.com/mtap-research/PACMAN-charge/)
data_DOTTUC_ion_pacman
_symmetry_space_group_name_H-M   'P 1'
_cell_length_a   12.99130000
_cell_length_b   12.99130000
_cell_length_c   17.39110000
_cell_angle_alpha   90.00000000
_cell_angle_beta   90.00000000
_cell_angle_gamma   120.00000000
_symmetry_Int_Tables_number   1
_chemical_formula_structural   InH40C24NO8
_chemical_formula_sum   'In3 H120 C72 N3 O24'
_cell_volume   2541.92602493
_cell_formula_units_Z   3
loop_
 _symmetry_equiv_pos_site_id
 _symmetry_equiv_pos_as_xyz
  1  'x, y, z'
loop_
 _atom_site_type_symbol
 _atom_site_label
 _atom_site_symmetry_multiplicity
 _atom_site_fract_x
 _atom_site_fract_y
 _atom_site_fract_z
 _atom_site_occupancy
 _atom_site_charge
In  In1  1  0.62290000  0.62290000  0.50000000  1.0 1.2882289389
In  In2  1  0.37710000  0.00000000  0.16667000  1.0 1.2882289389
In  In3  1  0.00000000  0.37710000  0.83333000  1.0 1.2882289389
H  H1  1  0.43690000  0.01260000  0.43040000  1.0 0.1106555658
H  H2  1  0.98740000  0.42430000  0.09707000  1.0 0.1106555658
H  H3  1  0.57570000  0.56310000  0.76373000  1.0 0.1106555658
H  H4  1  0.01260000  0.43690000  0.56960000  1.0 0.1106555658
H  H5  1  0.42430000  0.98740000  0.90293000  1.0 0.1106555658
H  H6  1  0.56310000  0.57570000  0.23627000  1.0 0.1106555658
H  H7  1  0.65910000  0.08260000  0.35860000  1.0 0.1106555658
H  H8  1  0.91740000  0.57650000  0.02527000  1.0 0.1106555658
H  H9  1  0.42350000  0.34090000  0.69193000  1.0 0.1106555658
H  H10  1  0.08260000  0.65910000  0.64140000  1.0 0.1106555658
H  H11  1  0.57650000  0.91740000  0.97473000  1.0 0.1106555658
H  H12  1  0.34090000  0.42350000  0.30807000  1.0 0.1106555658
H  H13  1  0.63230000  0.15250000  0.42260000  1.0 0.1106555658
H  H14  1  0.84750000  0.47980000  0.08927000  1.0 0.1106555658
H  H15  1  0.52020000  0.36770000  0.75593000  1.0 0.1106555658
H  H16  1  0.15250000  0.63230000  0.57740000  1.0 0.1106555658
H  H17  1  0.47980000  0.84750000  0.91073000  1.0 0.1106555658
H  H18  1  0.36770000  0.52020000  0.24407000  1.0 0.1106555658
H  H19  1  0.66910000  0.06100000  0.51240000  1.0 0.1106555658
H  H20  1  0.93900000  0.60810000  0.17907000  1.0 0.1106555658
H  H21  1  0.39190000  0.33090000  0.84573000  1.0 0.1106555658
H  H22  1  0.06100000  0.66910000  0.48760000  1.0 0.1106555658
H  H23  1  0.60810000  0.93900000  0.82093000  1.0 0.1106555658
H  H24  1  0.33090000  0.39190000  0.15427000  1.0 0.1106555658
H  H25  1  0.71050000  0.00360000  0.44910000  1.0 0.1106555658
H  H26  1  0.99640000  0.70690000  0.11577000  1.0 0.1106555658
H  H27  1  0.29310000  0.28950000  0.78243000  1.0 0.1106555658
H  H28  1  0.00360000  0.71050000  0.55090000  1.0 0.1106555658
H  H29  1  0.70690000  0.99640000  0.88423000  1.0 0.1106555658
H  H30  1  0.28950000  0.29310000  0.21757000  1.0 0.1106555658
H  H31  1  0.54770000  0.92340000  0.60190000  1.0 0.1319065938
H  H32  1  0.07660000  0.62430000  0.26857000  1.0 0.1319065938
H  H33  1  0.37570000  0.45230000  0.93523000  1.0 0.1319065938
H  H34  1  0.92340000  0.54770000  0.39810000  1.0 0.1319065938
H  H35  1  0.62430000  0.07660000  0.73143000  1.0 0.1319065938
H  H36  1  0.45230000  0.37570000  0.06477000  1.0 0.1319065938
H  H37  1  0.41760000  0.83890000  0.57290000  1.0 0.1401300518
H  H38  1  0.16110000  0.57870000  0.23957000  1.0 0.1401300518
H  H39  1  0.42130000  0.58240000  0.90623000  1.0 0.1401300518
H  H40  1  0.83890000  0.41760000  0.42710000  1.0 0.1401300518
H  H41  1  0.57870000  0.16110000  0.76043000  1.0 0.1401300518
H  H42  1  0.58240000  0.42130000  0.09377000  1.0 0.1401300518
H  H43  1  0.47940000  0.97600000  0.55740000  1.0 0.1319065938
H  H44  1  0.02400000  0.50340000  0.22407000  1.0 0.1319065938
H  H45  1  0.49660000  0.52060000  0.89073000  1.0 0.1319065938
H  H46  1  0.97600000  0.47940000  0.44260000  1.0 0.1319065938
H  H47  1  0.50340000  0.02400000  0.77593000  1.0 0.1319065938
H  H48  1  0.52060000  0.49660000  0.10927000  1.0 0.1319065938
H  H49  1  0.28210000  0.77230000  0.38660000  1.0 0.1319065938
H  H50  1  0.22770000  0.50980000  0.05327000  1.0 0.1319065938
H  H51  1  0.49020000  0.71790000  0.71993000  1.0 0.1319065938
H  H52  1  0.77230000  0.28210000  0.61340000  1.0 0.1401300518
H  H53  1  0.50980000  0.22770000  0.94673000  1.0 0.1401300518
H  H54  1  0.71790000  0.49020000  0.28007000  1.0 0.1401300518
H  H55  1  0.30470000  0.81850000  0.47170000  1.0 0.1319065938
H  H56  1  0.18150000  0.48620000  0.13837000  1.0 0.1319065938
H  H57  1  0.51380000  0.69530000  0.80503000  1.0 0.1319065938
H  H58  1  0.81850000  0.30470000  0.52830000  1.0 0.1319065938
H  H59  1  0.48620000  0.18150000  0.86163000  1.0 0.1319065938
H  H60  1  0.69530000  0.51380000  0.19497000  1.0 0.1319065938
H  H61  1  0.31940000  0.70980000  0.44880000  1.0 0.1401300518
H  H62  1  0.29020000  0.60960000  0.11547000  1.0 0.1401300518
H  H63  1  0.39040000  0.68060000  0.78213000  1.0 0.1401300518
H  H64  1  0.70980000  0.31940000  0.55120000  1.0 0.1401300518
H  H65  1  0.60960000  0.29020000  0.88453000  1.0 0.1401300518
H  H66  1  0.68060000  0.39040000  0.21787000  1.0 0.1401300518
H  H67  1  0.42690000  0.79300000  0.31030000  1.0 0.147126389
H  H68  1  0.20700000  0.63390000  0.97697000  1.0 0.147126389
H  H69  1  0.36610000  0.57310000  0.64363000  1.0 0.147126389
H  H70  1  0.79300000  0.42690000  0.68970000  1.0 0.147126389
H  H71  1  0.63390000  0.20700000  0.02303000  1.0 0.147126389
H  H72  1  0.57310000  0.36610000  0.35637000  1.0 0.147126389
H  H73  1  0.46630000  0.73050000  0.37120000  1.0 0.1401300518
H  H74  1  0.26950000  0.73580000  0.03787000  1.0 0.1401300518
H  H75  1  0.26420000  0.53370000  0.70453000  1.0 0.1401300518
H  H76  1  0.73050000  0.46630000  0.62880000  1.0 0.1401300518
H  H77  1  0.73580000  0.26950000  0.96213000  1.0 0.1401300518
H  H78  1  0.53370000  0.26420000  0.29547000  1.0 0.1401300518
H  H79  1  0.56020000  0.85320000  0.33610000  1.0 0.1401300518
H  H80  1  0.14680000  0.70700000  0.00277000  1.0 0.1401300518
H  H81  1  0.29300000  0.43980000  0.66943000  1.0 0.1401300518
H  H82  1  0.85320000  0.56020000  0.66390000  1.0 0.1401300518
H  H83  1  0.70700000  0.14680000  0.99723000  1.0 0.1401300518
H  H84  1  0.43980000  0.29300000  0.33057000  1.0 0.1401300518
H  H85  1  0.83160000  0.98940000  0.55073000  1.0 0.1588173905
H  H86  1  0.84220000  0.01060000  0.78260000  1.0 0.1588173905
H  H87  1  0.97020000  0.06840000  0.54513000  1.0 0.1401300518
H  H88  1  0.90180000  0.93160000  0.78820000  1.0 0.1401300518
H  H89  1  0.89540000  0.12040000  0.58143000  1.0 0.1736902544
H  H90  1  0.77500000  0.87960000  0.75190000  1.0 0.1736902544
H  H91  1  0.02120000  0.06530000  0.75463000  1.0 0.1319065938
H  H92  1  0.95590000  0.93470000  0.57870000  1.0 0.1319065938
H  H93  1  0.00940000  0.16070000  0.70623000  1.0 0.1588173905
H  H94  1  0.84870000  0.83930000  0.62710000  1.0 0.1588173905
H  H95  1  0.08610000  0.10720000  0.67513000  1.0 0.1401300518
H  H96  1  0.97890000  0.89280000  0.65820000  1.0 0.1401300518
H  H97  1  0.15780000  0.16840000  0.88407000  1.0 0.1588173905
H  H98  1  0.16840000  0.15780000  0.11593000  1.0 0.1588173905
H  H99  1  0.09820000  0.02980000  0.87847000  1.0 0.1401300518
H  H100  1  0.02980000  0.09820000  0.12153000  1.0 0.1401300518
H  H101  1  0.22500000  0.10460000  0.91477000  1.0 0.1736902544
H  H102  1  0.10460000  0.22500000  0.08523000  1.0 0.1736902544
H  H103  1  0.04410000  0.97880000  0.08797000  1.0 0.1319065938
H  H104  1  0.97880000  0.04410000  0.91203000  1.0 0.1319065938
H  H105  1  0.15130000  0.99060000  0.03957000  1.0 0.1588173905
H  H106  1  0.99060000  0.15130000  0.96043000  1.0 0.1588173905
H  H107  1  0.02110000  0.91390000  0.00847000  1.0 0.1401300518
H  H108  1  0.91390000  0.02110000  0.99153000  1.0 0.1401300518
H  H109  1  0.01060000  0.84220000  0.21740000  1.0 0.1588173905
H  H110  1  0.98940000  0.83160000  0.44927000  1.0 0.1588173905
H  H111  1  0.93160000  0.90180000  0.21180000  1.0 0.1401300518
H  H112  1  0.06840000  0.97020000  0.45487000  1.0 0.1401300518
H  H113  1  0.87960000  0.77500000  0.24810000  1.0 0.1736902544
H  H114  1  0.12040000  0.89540000  0.41857000  1.0 0.1736902544
H  H115  1  0.93470000  0.95590000  0.42130000  1.0 0.1319065938
H  H116  1  0.06530000  0.02120000  0.24537000  1.0 0.1319065938
H  H117  1  0.83930000  0.84870000  0.37290000  1.0 0.1588173905
H  H118  1  0.16070000  0.00940000  0.29377000  1.0 0.1588173905
H  H119  1  0.89280000  0.97890000  0.34180000  1.0 0.1401300518
H  H120  1  0.10720000  0.08610000  0.32487000  1.0 0.1401300518
C  C1  1  0.54070000  0.89240000  0.48490000  1.0 0.057535177
C  C2  1  0.10760000  0.64830000  0.15157000  1.0 0.057535177
C  C3  1  0.35170000  0.45930000  0.81823000  1.0 0.057535177
C  C4  1  0.89240000  0.54070000  0.51510000  1.0 0.057535177
C  C5  1  0.64830000  0.10760000  0.84843000  1.0 0.057535177
C  C6  1  0.45930000  0.35170000  0.18177000  1.0 0.057535177
C  C7  1  0.45580000  0.86620000  0.41350000  1.0 0.1942115426
C  C8  1  0.13380000  0.58960000  0.08017000  1.0 0.1942115426
C  C9  1  0.41040000  0.54420000  0.74683000  1.0 0.1942115426
C  C10  1  0.86620000  0.45580000  0.58650000  1.0 0.1942115426
C  C11  1  0.58960000  0.13380000  0.91983000  1.0 0.1942115426
C  C12  1  0.54420000  0.41040000  0.25317000  1.0 0.1942115426
C  C13  1  0.47910000  0.99070000  0.39300000  1.0 -0.1479630669
C  C14  1  0.00930000  0.48840000  0.05967000  1.0 -0.1479630669
C  C15  1  0.51160000  0.52090000  0.72633000  1.0 -0.1479630669
C  C16  1  0.99070000  0.47910000  0.60700000  1.0 -0.1479630669
C  C17  1  0.48840000  0.00930000  0.94033000  1.0 -0.1479630669
C  C18  1  0.52090000  0.51160000  0.27367000  1.0 -0.1479630669
C  C19  1  0.61510000  0.07430000  0.40550000  1.0 -0.1683609834
C  C20  1  0.92570000  0.54080000  0.07217000  1.0 -0.1683609834
C  C21  1  0.45920000  0.38490000  0.73883000  1.0 -0.1683609834
C  C22  1  0.07430000  0.61510000  0.59450000  1.0 -0.1683609834
C  C23  1  0.54080000  0.92570000  0.92783000  1.0 -0.1683609834
C  C24  1  0.38490000  0.45920000  0.26117000  1.0 -0.1683609834
C  C25  1  0.64440000  0.01260000  0.46620000  1.0 -0.1974792233
C  C26  1  0.98740000  0.63180000  0.13287000  1.0 -0.1974792233
C  C27  1  0.36820000  0.35560000  0.79953000  1.0 -0.1974792233
C  C28  1  0.01260000  0.64440000  0.53380000  1.0 -0.1974792233
C  C29  1  0.63180000  0.98740000  0.86713000  1.0 -0.1974792233
C  C30  1  0.35560000  0.36820000  0.20047000  1.0 -0.1974792233
C  C31  1  0.49180000  0.90930000  0.56150000  1.0 -0.4296855827
C  C32  1  0.09070000  0.58250000  0.22817000  1.0 -0.4296855827
C  C33  1  0.41750000  0.50820000  0.89483000  1.0 -0.4296855827
C  C34  1  0.90930000  0.49180000  0.43850000  1.0 -0.4296855827
C  C35  1  0.58250000  0.09070000  0.77183000  1.0 -0.4296855827
C  C36  1  0.50820000  0.41750000  0.10517000  1.0 -0.4296855827
C  C37  1  0.32950000  0.78460000  0.43180000  1.0 -0.4706914922
C  C38  1  0.21540000  0.54490000  0.09847000  1.0 -0.4706914922
C  C39  1  0.45510000  0.67050000  0.76513000  1.0 -0.4706914922
C  C40  1  0.78460000  0.32950000  0.56820000  1.0 -0.4706914922
C  C41  1  0.54490000  0.21540000  0.90153000  1.0 -0.4706914922
C  C42  1  0.67050000  0.45510000  0.23487000  1.0 -0.4706914922
C  C43  1  0.47930000  0.80570000  0.35270000  1.0 -0.4580940704
C  C44  1  0.19430000  0.67360000  0.01937000  1.0 -0.4580940704
C  C45  1  0.32640000  0.52070000  0.68603000  1.0 -0.4580940704
C  C46  1  0.80570000  0.47930000  0.64730000  1.0 -0.4580940704
C  C47  1  0.67360000  0.19430000  0.98063000  1.0 -0.4580940704
C  C48  1  0.52070000  0.32640000  0.31397000  1.0 -0.4580940704
C  C49  1  0.57110000  0.79440000  0.49630000  1.0 0.5282966991
C  C50  1  0.20560000  0.77670000  0.16297000  1.0 0.5282966991
C  C51  1  0.22330000  0.42890000  0.82963000  1.0 0.5282966991
C  C52  1  0.79440000  0.57110000  0.50370000  1.0 0.5282966991
C  C53  1  0.77670000  0.20560000  0.83703000  1.0 0.5282966991
C  C54  1  0.42890000  0.22330000  0.17037000  1.0 0.5282966991
C  C55  1  0.43550000  0.99790000  0.31330000  1.0 0.5521313051
C  C56  1  0.00210000  0.43760000  0.97997000  1.0 0.5521313051
C  C57  1  0.56240000  0.56450000  0.64663000  1.0 0.5521313051
C  C58  1  0.99790000  0.43550000  0.68670000  1.0 0.5521313051
C  C59  1  0.43760000  0.00210000  0.02003000  1.0 0.5521313051
C  C60  1  0.56450000  0.56240000  0.35337000  1.0 0.5521313051
C  C61  1  0.90100000  0.05000000  0.57573000  1.0 -0.5241405733
C  C62  1  0.85100000  0.95000000  0.75760000  1.0 -0.5241405733
C  C63  1  0.01600000  0.09040000  0.70353000  1.0 -0.3528550417
C  C64  1  0.92560000  0.90960000  0.62980000  1.0 -0.3528550417
C  C65  1  0.14900000  0.09900000  0.90907000  1.0 -0.5241405733
C  C66  1  0.09900000  0.14900000  0.09093000  1.0 -0.5241405733
C  C67  1  0.07440000  0.98400000  0.03687000  1.0 -0.3528550417
C  C68  1  0.98400000  0.07440000  0.96313000  1.0 -0.3528550417
C  C69  1  0.95000000  0.85100000  0.24240000  1.0 -0.5241405733
C  C70  1  0.05000000  0.90100000  0.42427000  1.0 -0.5241405733
C  C71  1  0.90960000  0.92560000  0.37020000  1.0 -0.3528550417
C  C72  1  0.09040000  0.01600000  0.29647000  1.0 -0.3528550417
N  N1  1  0.91590000  0.00000000  0.66666667  1.0 0.2443628112
N  N2  1  0.08410000  0.08410000  0.00000000  1.0 0.2443628112
N  N3  1  0.00000000  0.91590000  0.33333333  1.0 0.2443628112
O  O1  1  0.67550000  0.81350000  0.48570000  1.0 -0.5252370736
O  O2  1  0.18650000  0.86200000  0.15237000  1.0 -0.5252370736
O  O3  1  0.13800000  0.32450000  0.81903000  1.0 -0.5252370736
O  O4  1  0.81350000  0.67550000  0.51430000  1.0 -0.5252370736
O  O5  1  0.86200000  0.18650000  0.84763000  1.0 -0.5252370736
O  O6  1  0.32450000  0.13800000  0.18097000  1.0 -0.5252370736
O  O7  1  0.48840000  0.69140000  0.51290000  1.0 -0.5142991444
O  O8  1  0.30860000  0.79700000  0.17957000  1.0 -0.5142991444
O  O9  1  0.20300000  0.51160000  0.84623000  1.0 -0.5142991444
O  O10  1  0.69140000  0.48840000  0.48710000  1.0 -0.5142991444
O  O11  1  0.79700000  0.30860000  0.82043000  1.0 -0.5142991444
O  O12  1  0.51160000  0.20300000  0.15377000  1.0 -0.5142991444
O  O13  1  0.50290000  0.01860000  0.25670000  1.0 -0.4811297854
O  O14  1  0.98140000  0.48430000  0.92337000  1.0 -0.4811297854
O  O15  1  0.51570000  0.49710000  0.59003000  1.0 -0.4811297854
O  O16  1  0.01860000  0.50290000  0.74330000  1.0 -0.4811297854
O  O17  1  0.48430000  0.98140000  0.07663000  1.0 -0.4811297854
O  O18  1  0.49710000  0.51570000  0.40997000  1.0 -0.4811297854
O  O19  1  0.33270000  0.97640000  0.30210000  1.0 -0.5252370736
O  O20  1  0.02360000  0.35630000  0.96877000  1.0 -0.5241405733
O  O21  1  0.64370000  0.66730000  0.63543000  1.0 -0.5241405733
O  O22  1  0.97640000  0.33270000  0.69790000  1.0 -0.5241405733
O  O23  1  0.35630000  0.02360000  0.03123000  1.0 -0.5252370736
O  O24  1  0.66730000  0.64370000  0.36457000  1.0 -0.5252370736
