# DDEC6 charges by PACMAN v1.1 (https://github.com/mtap-research/PACMAN-charge/)
data_DOWQIP_FSR_pacman
_symmetry_space_group_name_H-M   'P 1'
_cell_length_a   15.93460000
_cell_length_b   7.40390000
_cell_length_c   18.00280000
_cell_angle_alpha   90.00000000
_cell_angle_beta   123.33300000
_cell_angle_gamma   90.00000000
_symmetry_Int_Tables_number   1
_chemical_formula_structural   Zn5(PO4)4
_chemical_formula_sum   'Zn20 P16 O64'
_cell_volume   1774.53082369
_cell_formula_units_Z   4
loop_
 _symmetry_equiv_pos_site_id
 _symmetry_equiv_pos_as_xyz
  1  'x, y, z'
loop_
 _atom_site_type_symbol
 _atom_site_label
 _atom_site_symmetry_multiplicity
 _atom_site_fract_x
 _atom_site_fract_y
 _atom_site_fract_z
 _atom_site_occupancy
 _atom_site_charge
Zn  Zn1  1  0.88329000  0.56950000  0.50090000  1.0 1.0974189913
Zn  Zn2  1  0.11671000  0.06950000  0.99910000  1.0 1.0974189913
Zn  Zn3  1  0.11671000  0.43050000  0.49910000  1.0 1.0974189913
Zn  Zn4  1  0.88329000  0.93050000  0.00090000  1.0 1.0974189913
Zn  Zn5  1  0.61833000  0.02330000  0.34681000  1.0 1.0571953034
Zn  Zn6  1  0.38167000  0.52330000  0.15319000  1.0 1.0571953034
Zn  Zn7  1  0.38167000  0.97670000  0.65319000  1.0 1.0571953034
Zn  Zn8  1  0.61833000  0.47670000  0.84681000  1.0 1.0571953034
Zn  Zn9  1  0.37217000  0.07410000  0.12723000  1.0 1.0974189913
Zn  Zn10  1  0.62783000  0.57410000  0.37277000  1.0 1.0974189913
Zn  Zn11  1  0.62783000  0.92590000  0.87277000  1.0 1.0974189913
Zn  Zn12  1  0.37217000  0.42590000  0.62723000  1.0 1.0974189913
Zn  Zn13  1  0.87021000  0.01400000  0.46829000  1.0 1.0406384146
Zn  Zn14  1  0.12979000  0.51400000  0.03171000  1.0 1.0406384146
Zn  Zn15  1  0.12979000  0.98600000  0.53171000  1.0 1.0406384146
Zn  Zn16  1  0.87021000  0.48600000  0.96829000  1.0 1.0406384146
Zn  Zn17  1  0.24776000  0.14740000  0.28852000  1.0 1.21338401
Zn  Zn18  1  0.75224000  0.64740000  0.21148000  1.0 1.21338401
Zn  Zn19  1  0.75224000  0.85260000  0.71148000  1.0 1.21338401
Zn  Zn20  1  0.24776000  0.35260000  0.78852000  1.0 1.2161625004
P  P1  1  0.44700000  0.27660000  0.31000000  1.0 1.5519062406
P  P2  1  0.55300000  0.77660000  0.19000000  1.0 1.5519062406
P  P3  1  0.55300000  0.72340000  0.69000000  1.0 1.5519062406
P  P4  1  0.44700000  0.22340000  0.81000000  1.0 1.5519062406
P  P5  1  0.75030000  0.31870000  0.33370000  1.0 1.5578501797
P  P6  1  0.24970000  0.81870000  0.16630000  1.0 1.5578501797
P  P7  1  0.24970000  0.68130000  0.66630000  1.0 1.5578501797
P  P8  1  0.75030000  0.18130000  0.83370000  1.0 1.5578501797
P  P9  1  0.04460000  0.24920000  0.61070000  1.0 1.5519062406
P  P10  1  0.95540000  0.74920000  0.88930000  1.0 1.5519062406
P  P11  1  0.95540000  0.75080000  0.38930000  1.0 1.5519062406
P  P12  1  0.04460000  0.25080000  0.11070000  1.0 1.5519062406
P  P13  1  0.75060000  0.83230000  0.53170000  1.0 1.5313686109
P  P14  1  0.24940000  0.33230000  0.96830000  1.0 1.5364794111
P  P15  1  0.24940000  0.16770000  0.46830000  1.0 1.5364794111
P  P16  1  0.75060000  0.66770000  0.03170000  1.0 1.5313686109
O  O1  1  0.99830000  0.43660000  0.58770000  1.0 -0.749720546
O  O2  1  0.00170000  0.93660000  0.91230000  1.0 -0.749720546
O  O3  1  0.00170000  0.56340000  0.41230000  1.0 -0.749720546
O  O4  1  0.99830000  0.06340000  0.08770000  1.0 -0.749720546
O  O5  1  0.84820000  0.72810000  0.56710000  1.0 -0.7376239522
O  O6  1  0.15180000  0.22810000  0.93290000  1.0 -0.7310658618
O  O7  1  0.15180000  0.27190000  0.43290000  1.0 -0.7310658618
O  O8  1  0.84820000  0.77190000  0.06710000  1.0 -0.7376239522
O  O9  1  0.75600000  0.46590000  0.39890000  1.0 -0.7786137486
O  O10  1  0.24400000  0.96590000  0.10110000  1.0 -0.7786137486
O  O11  1  0.24400000  0.53410000  0.60110000  1.0 -0.7786137486
O  O12  1  0.75600000  0.03410000  0.89890000  1.0 -0.7786137486
O  O13  1  0.90370000  0.77780000  0.44000000  1.0 -0.7678004825
O  O14  1  0.09630000  0.27780000  0.06000000  1.0 -0.7678004825
O  O15  1  0.09630000  0.22220000  0.56000000  1.0 -0.7678004825
O  O16  1  0.90370000  0.72220000  0.94000000  1.0 -0.7678004825
O  O17  1  0.65320000  0.21520000  0.29640000  1.0 -0.749720546
O  O18  1  0.34680000  0.71520000  0.20360000  1.0 -0.749720546
O  O19  1  0.34680000  0.78480000  0.70360000  1.0 -0.749720546
O  O20  1  0.65320000  0.28480000  0.79640000  1.0 -0.749720546
O  O21  1  0.50230000  0.09640000  0.34630000  1.0 -0.7233019495
O  O22  1  0.49770000  0.59640000  0.15370000  1.0 -0.7233019495
O  O23  1  0.49770000  0.90360000  0.65370000  1.0 -0.7233019495
O  O24  1  0.50230000  0.40360000  0.84630000  1.0 -0.7233019495
O  O25  1  0.39990000  0.28200000  0.20810000  1.0 -0.749720546
O  O26  1  0.60010000  0.78200000  0.29190000  1.0 -0.749720546
O  O27  1  0.60010000  0.71800000  0.79190000  1.0 -0.749720546
O  O28  1  0.39990000  0.21800000  0.70810000  1.0 -0.749720546
O  O29  1  0.74410000  0.98100000  0.46630000  1.0 -0.749720546
O  O30  1  0.25590000  0.48100000  0.03370000  1.0 -0.749720546
O  O31  1  0.25590000  0.01900000  0.53370000  1.0 -0.749720546
O  O32  1  0.74410000  0.51900000  0.96630000  1.0 -0.749720546
O  O33  1  0.51610000  0.43850000  0.35110000  1.0 -0.7233019495
O  O34  1  0.48390000  0.93850000  0.14890000  1.0 -0.7233019495
O  O35  1  0.48390000  0.56150000  0.64890000  1.0 -0.7233019495
O  O36  1  0.51610000  0.06150000  0.85110000  1.0 -0.7233019495
O  O37  1  0.65820000  0.71020000  0.47770000  1.0 -0.7310658618
O  O38  1  0.34180000  0.21020000  0.02230000  1.0 -0.7310658618
O  O39  1  0.34180000  0.28980000  0.52230000  1.0 -0.7310658618
O  O40  1  0.65820000  0.78980000  0.97770000  1.0 -0.7310658618
O  O41  1  0.84290000  0.19980000  0.38370000  1.0 -0.7376239522
O  O42  1  0.15710000  0.69980000  0.11630000  1.0 -0.7376239522
O  O43  1  0.15710000  0.80020000  0.61630000  1.0 -0.7376239522
O  O44  1  0.84290000  0.30020000  0.88370000  1.0 -0.7376239522
O  O45  1  0.96900000  0.09950000  0.58560000  1.0 -0.7106558506
O  O46  1  0.03100000  0.59950000  0.91440000  1.0 -0.7106558506
O  O47  1  0.03100000  0.90050000  0.41440000  1.0 -0.7106558506
O  O48  1  0.96900000  0.40050000  0.08560000  1.0 -0.7106558506
O  O49  1  0.12150000  0.23640000  0.71050000  1.0 -0.7106558506
O  O50  1  0.87850000  0.73640000  0.78950000  1.0 -0.7106558506
O  O51  1  0.87850000  0.76360000  0.28950000  1.0 -0.7106558506
O  O52  1  0.12150000  0.26360000  0.21050000  1.0 -0.7106558506
O  O53  1  0.36450000  0.29520000  0.32820000  1.0 -0.7021342689
O  O54  1  0.63550000  0.79520000  0.17180000  1.0 -0.7021342689
O  O55  1  0.63550000  0.70480000  0.67180000  1.0 -0.7021342689
O  O56  1  0.36450000  0.20480000  0.82820000  1.0 -0.7021342689
O  O57  1  0.74910000  0.41020000  0.25780000  1.0 -0.7106558506
O  O58  1  0.25090000  0.91020000  0.24220000  1.0 -0.7106558506
O  O59  1  0.25090000  0.58980000  0.74220000  1.0 -0.7106558506
O  O60  1  0.74910000  0.08980000  0.75780000  1.0 -0.7106558506
O  O61  1  0.74940000  0.92640000  0.60580000  1.0 -0.6733001494
O  O62  1  0.25060000  0.42640000  0.89420000  1.0 -0.6733001494
O  O63  1  0.25060000  0.07360000  0.39420000  1.0 -0.6733001494
O  O64  1  0.74940000  0.57360000  0.10580000  1.0 -0.6733001494
