# DDEC6 charges by PACMAN v1.1 (https://github.com/mtap-research/PACMAN-charge/)
data_DOYBUQ_ASR_pacman
_symmetry_space_group_name_H-M   'P 1'
_cell_length_a   16.62870000
_cell_length_b   16.57490000
_cell_length_c   10.44640000
_cell_angle_alpha   71.94280000
_cell_angle_beta   71.38220000
_cell_angle_gamma   36.67490000
_symmetry_Int_Tables_number   1
_chemical_formula_structural   FeH4Pt(C4N3)2
_chemical_formula_sum   'Fe4 H16 Pt4 C32 N24'
_cell_volume   1622.28487315
_cell_formula_units_Z   4
loop_
 _symmetry_equiv_pos_site_id
 _symmetry_equiv_pos_as_xyz
  1  'x, y, z'
loop_
 _atom_site_type_symbol
 _atom_site_label
 _atom_site_symmetry_multiplicity
 _atom_site_fract_x
 _atom_site_fract_y
 _atom_site_fract_z
 _atom_site_occupancy
 _atom_site_charge
Fe  Fe1  1  0.50000000  0.50000000  0.00000000  1.0 0.7797674385
Fe  Fe2  1  0.00000000  0.00000000  0.50000000  1.0 0.7797674385
Fe  Fe3  1  0.25000000  0.25000000  0.25000000  1.0 0.7873627093
Fe  Fe4  1  0.75000000  0.75000000  0.75000000  1.0 0.7873627093
H  H1  1  0.53530000  0.46470000  0.69390000  1.0 0.1298368887
H  H2  1  0.46470000  0.53530000  0.30610000  1.0 0.1298368887
H  H3  1  0.30610000  0.69390000  0.46470000  1.0 0.1298368887
H  H4  1  0.69390000  0.30610000  0.53530000  1.0 0.1298368887
H  H5  1  0.79340000  0.20660000  0.95200000  1.0 0.1298368887
H  H6  1  0.20660000  0.79340000  0.04800000  1.0 0.1298368887
H  H7  1  0.04800000  0.95200000  0.20660000  1.0 0.1298368887
H  H8  1  0.95200000  0.04800000  0.79340000  1.0 0.1298368887
H  H9  1  0.53870000  0.93650000  0.21830000  1.0 0.1298368887
H  H10  1  0.93650000  0.53870000  0.30650000  1.0 0.1298368887
H  H11  1  0.30650000  0.21830000  0.93650000  1.0 0.1298368887
H  H12  1  0.21830000  0.30650000  0.53870000  1.0 0.1298368887
H  H13  1  0.46130000  0.06350000  0.78170000  1.0 0.1298368887
H  H14  1  0.06350000  0.46130000  0.69350000  1.0 0.1298368887
H  H15  1  0.69350000  0.78170000  0.06350000  1.0 0.1298368887
H  H16  1  0.78170000  0.69350000  0.46130000  1.0 0.1298368887
Pt  Pt1  1  0.10805000  0.64193000  0.89195000  1.0 0.1636129913
Pt  Pt2  1  0.64193000  0.10805000  0.35807000  1.0 0.1488502321
Pt  Pt3  1  0.35807000  0.89195000  0.64193000  1.0 0.1488502321
Pt  Pt4  1  0.89195000  0.35807000  0.10805000  1.0 0.1636129913
C  C1  1  0.25225000  0.59265000  0.93595000  1.0 0.0327946
C  C2  1  0.59265000  0.25225000  0.21915000  1.0 0.0327946
C  C3  1  0.21915000  0.93595000  0.59265000  1.0 0.0327946
C  C4  1  0.93595000  0.21915000  0.25225000  1.0 0.0327946
C  C5  1  0.74775000  0.40735000  0.06405000  1.0 0.0327946
C  C6  1  0.40735000  0.74775000  0.78085000  1.0 0.0327946
C  C7  1  0.78085000  0.06405000  0.40735000  1.0 0.0327946
C  C8  1  0.06405000  0.78085000  0.74775000  1.0 0.0327946
C  C9  1  0.15750000  0.49730000  0.02970000  1.0 0.0391595891
C  C10  1  0.49730000  0.15750000  0.31550000  1.0 0.0391595891
C  C11  1  0.31550000  0.02970000  0.49730000  1.0 0.0391595891
C  C12  1  0.02970000  0.31550000  0.15750000  1.0 0.0391595891
C  C13  1  0.84250000  0.50270000  0.97030000  1.0 0.0391595891
C  C14  1  0.50270000  0.84250000  0.68450000  1.0 0.0391595891
C  C15  1  0.68450000  0.97030000  0.50270000  1.0 0.0391595891
C  C16  1  0.97030000  0.68450000  0.84250000  1.0 0.0391595891
C  C17  1  0.62160000  0.37840000  0.71800000  1.0 0.0391595891
C  C18  1  0.37840000  0.62160000  0.28200000  1.0 0.0391595891
C  C19  1  0.28200000  0.71800000  0.37840000  1.0 0.0391595891
C  C20  1  0.71800000  0.28200000  0.62160000  1.0 0.0391595891
C  C21  1  0.76930000  0.23070000  0.86570000  1.0 0.0491259197
C  C22  1  0.23070000  0.76930000  0.13430000  1.0 0.0491259197
C  C23  1  0.13430000  0.86570000  0.23070000  1.0 0.0491259197
C  C24  1  0.86570000  0.13430000  0.76930000  1.0 0.0491259197
C  C25  1  0.52040000  0.96520000  0.12800000  1.0 0.0229272227
C  C26  1  0.96520000  0.52040000  0.38640000  1.0 0.0229272227
C  C27  1  0.38640000  0.12800000  0.96520000  1.0 0.0229272227
C  C28  1  0.12800000  0.38640000  0.52040000  1.0 0.0229272227
C  C29  1  0.47960000  0.03480000  0.87200000  1.0 0.0229272227
C  C30  1  0.03480000  0.47960000  0.61360000  1.0 0.0229272227
C  C31  1  0.61360000  0.87200000  0.03480000  1.0 0.0229272227
C  C32  1  0.87200000  0.61360000  0.47960000  1.0 0.0229272227
N  N1  1  0.19028000  0.40988000  0.10452000  1.0 -0.3497271609
N  N2  1  0.40988000  0.19028000  0.29532000  1.0 -0.3497271609
N  N3  1  0.29532000  0.10452000  0.40988000  1.0 -0.3497271609
N  N4  1  0.10452000  0.29532000  0.19028000  1.0 -0.3497271609
N  N5  1  0.80972000  0.59012000  0.89548000  1.0 -0.3497271609
N  N6  1  0.59012000  0.80972000  0.70468000  1.0 -0.3497271609
N  N7  1  0.70468000  0.89548000  0.59012000  1.0 -0.3497271609
N  N8  1  0.89548000  0.70468000  0.80972000  1.0 -0.3497271609
N  N9  1  0.33890000  0.56110000  0.95650000  1.0 -0.3558695706
N  N10  1  0.56110000  0.33890000  0.14350000  1.0 -0.3558695706
N  N11  1  0.14350000  0.95650000  0.56110000  1.0 -0.3497271609
N  N12  1  0.95650000  0.14350000  0.33890000  1.0 -0.3497271609
N  N13  1  0.66110000  0.43890000  0.04350000  1.0 -0.3558695706
N  N14  1  0.43890000  0.66110000  0.85650000  1.0 -0.3558695706
N  N15  1  0.85650000  0.04350000  0.43890000  1.0 -0.3497271609
N  N16  1  0.04350000  0.85650000  0.66110000  1.0 -0.3558695706
N  N17  1  0.64870000  0.35130000  0.83890000  1.0 -0.1637352298
N  N18  1  0.35130000  0.64870000  0.16110000  1.0 -0.1637352298
N  N19  1  0.16110000  0.83890000  0.35130000  1.0 -0.1637352298
N  N20  1  0.83890000  0.16110000  0.64870000  1.0 -0.1637352298
N  N21  1  0.40440000  0.09560000  0.09560000  1.0 -0.1668706875
N  N22  1  0.09560000  0.40440000  0.40440000  1.0 -0.1668706875
N  N23  1  0.59560000  0.90440000  0.90440000  1.0 -0.1668706875
N  N24  1  0.90440000  0.59560000  0.59560000  1.0 -0.1668706875
