# DDEC6 charges by PACMAN v1.1 (https://github.com/mtap-research/PACMAN-charge/)
data_DOYSIT_FSR_pacman
_symmetry_space_group_name_H-M   'P 1'
_cell_length_a   8.83370000
_cell_length_b   8.83370000
_cell_length_c   15.39000000
_cell_angle_alpha   72.87050000
_cell_angle_beta   107.13000000
_cell_angle_gamma   119.64500000
_symmetry_Int_Tables_number   1
_chemical_formula_structural   KCr(CN)6
_chemical_formula_sum   'K2 Cr2 C12 N12'
_cell_volume   981.30103966
_cell_formula_units_Z   2
loop_
 _symmetry_equiv_pos_site_id
 _symmetry_equiv_pos_as_xyz
  1  'x, y, z'
loop_
 _atom_site_type_symbol
 _atom_site_label
 _atom_site_symmetry_multiplicity
 _atom_site_fract_x
 _atom_site_fract_y
 _atom_site_fract_z
 _atom_site_occupancy
 _atom_site_charge
K  K1  1  0.75106000  0.75106000  0.75000000  1.0 0.6082196778
K  K2  1  0.24894000  0.24894000  0.25000000  1.0 0.6082196778
Cr  Cr1  1  0.50000000  0.00000000  0.00000000  1.0 0.2941440887
Cr  Cr2  1  0.00000000  0.50000000  0.50000000  1.0 0.4036168701
C  C1  1  0.58794000  0.94092000  0.90750000  1.0 0.019719822
C  C2  1  0.94092000  0.58794000  0.59250000  1.0 0.0028546087
C  C3  1  0.41206000  0.05908000  0.09250000  1.0 0.019719822
C  C4  1  0.05908000  0.41206000  0.40750000  1.0 0.006498447
C  C5  1  0.75671000  0.09345000  0.07722000  1.0 0.019719822
C  C6  1  0.09345000  0.75671000  0.42278000  1.0 0.0028546087
C  C7  1  0.24329000  0.90655000  0.92278000  1.0 0.019719822
C  C8  1  0.90655000  0.24329000  0.57722000  1.0 0.0028546087
C  C9  1  0.56218000  0.25284000  0.91972000  1.0 0.019719822
C  C10  1  0.25284000  0.56218000  0.58028000  1.0 0.0028546087
C  C11  1  0.43782000  0.74716000  0.08028000  1.0 0.019719822
C  C12  1  0.74716000  0.43782000  0.41972000  1.0 0.0028546087
N  N1  1  0.63741000  0.90819000  0.85750000  1.0 -0.1768880577
N  N2  1  0.90819000  0.63741000  0.64250000  1.0 -0.1689451422
N  N3  1  0.36259000  0.09181000  0.14250000  1.0 -0.1768880577
N  N4  1  0.09181000  0.36259000  0.35750000  1.0 -0.1689451422
N  N5  1  0.89768000  0.14344000  0.12004000  1.0 -0.1689451422
N  N6  1  0.14344000  0.89768000  0.37996000  1.0 -0.1631225103
N  N7  1  0.10232000  0.85656000  0.87996000  1.0 -0.1689451422
N  N8  1  0.85656000  0.10232000  0.62004000  1.0 -0.1689451422
N  N9  1  0.59963000  0.39145000  0.87508000  1.0 -0.1768880577
N  N10  1  0.39145000  0.59963000  0.62492000  1.0 -0.1689451422
N  N11  1  0.40037000  0.60855000  0.12492000  1.0 -0.1768880577
N  N12  1  0.60855000  0.40037000  0.37508000  1.0 -0.1689451422
