# DDEC6 charges by PACMAN v1.1 (https://github.com/mtap-research/PACMAN-charge/)
data_DOZCEC_ASR_pacman
_symmetry_space_group_name_H-M   'P 1'
_cell_length_a   20.31570000
_cell_length_b   20.31570000
_cell_length_c   19.91800000
_cell_angle_alpha   90.00000000
_cell_angle_beta   90.00000000
_cell_angle_gamma   90.00000000
_symmetry_Int_Tables_number   1
_chemical_formula_structural   Mn6H48C96(N8Cl)5
_chemical_formula_sum   'Mn6 H48 C96 N40 Cl5'
_cell_volume   8220.70966115
_cell_formula_units_Z   1
loop_
 _symmetry_equiv_pos_site_id
 _symmetry_equiv_pos_as_xyz
  1  'x, y, z'
loop_
 _atom_site_type_symbol
 _atom_site_label
 _atom_site_symmetry_multiplicity
 _atom_site_fract_x
 _atom_site_fract_y
 _atom_site_fract_z
 _atom_site_occupancy
 _atom_site_charge
Mn  Mn1  1  0.50000000  0.00000000  0.50000000  1.0 0.7925849444
Mn  Mn2  1  0.00000000  0.50000000  0.50000000  1.0 0.7925849444
Mn  Mn3  1  0.09427000  0.09427000  0.00000000  1.0 0.6039889938
Mn  Mn4  1  0.90573000  0.90573000  0.00000000  1.0 0.6078399307
Mn  Mn5  1  0.09427000  0.90573000  0.00000000  1.0 0.6078399307
Mn  Mn6  1  0.90573000  0.09427000  0.00000000  1.0 0.6078399307
H  H1  1  0.25590000  0.00000000  0.43980000  1.0 0.1222753012
H  H2  1  0.74410000  0.00000000  0.43980000  1.0 0.1222753012
H  H3  1  0.00000000  0.74410000  0.43980000  1.0 0.1222753012
H  H4  1  0.00000000  0.25590000  0.43980000  1.0 0.1222753012
H  H5  1  0.25590000  0.00000000  0.56020000  1.0 0.1222753012
H  H6  1  0.74410000  0.00000000  0.56020000  1.0 0.1222753012
H  H7  1  0.00000000  0.25590000  0.56020000  1.0 0.1222753012
H  H8  1  0.00000000  0.74410000  0.56020000  1.0 0.1222753012
H  H9  1  0.44060000  0.00000000  0.25280000  1.0 0.1297836724
H  H10  1  0.55940000  0.00000000  0.25280000  1.0 0.1297836724
H  H11  1  0.00000000  0.55940000  0.25280000  1.0 0.1297836724
H  H12  1  0.00000000  0.44060000  0.25280000  1.0 0.1297836724
H  H13  1  0.44060000  0.00000000  0.74720000  1.0 0.1297836724
H  H14  1  0.55940000  0.00000000  0.74720000  1.0 0.1297836724
H  H15  1  0.00000000  0.44060000  0.74720000  1.0 0.1297836724
H  H16  1  0.00000000  0.55940000  0.74720000  1.0 0.1297836724
H  H17  1  0.32260000  0.90150000  0.31750000  1.0 0.1297836724
H  H18  1  0.67740000  0.09850000  0.31750000  1.0 0.1297836724
H  H19  1  0.90150000  0.67740000  0.31750000  1.0 0.1297836724
H  H20  1  0.09850000  0.32260000  0.31750000  1.0 0.1297836724
H  H21  1  0.32260000  0.09850000  0.68250000  1.0 0.1297836724
H  H22  1  0.67740000  0.90150000  0.68250000  1.0 0.1297836724
H  H23  1  0.90150000  0.32260000  0.68250000  1.0 0.1297836724
H  H24  1  0.09850000  0.67740000  0.68250000  1.0 0.1297836724
H  H25  1  0.67740000  0.09850000  0.68250000  1.0 0.1297836724
H  H26  1  0.32260000  0.90150000  0.68250000  1.0 0.1297836724
H  H27  1  0.09850000  0.32260000  0.68250000  1.0 0.1297836724
H  H28  1  0.90150000  0.67740000  0.68250000  1.0 0.1297836724
H  H29  1  0.67740000  0.90150000  0.31750000  1.0 0.1297836724
H  H30  1  0.32260000  0.09850000  0.31750000  1.0 0.1297836724
H  H31  1  0.09850000  0.67740000  0.31750000  1.0 0.1297836724
H  H32  1  0.90150000  0.32260000  0.31750000  1.0 0.1297836724
H  H33  1  0.24970000  0.90330000  0.22660000  1.0 0.1297836724
H  H34  1  0.75030000  0.09670000  0.22660000  1.0 0.1297836724
H  H35  1  0.90330000  0.75030000  0.22660000  1.0 0.1297836724
H  H36  1  0.09670000  0.24970000  0.22660000  1.0 0.1297836724
H  H37  1  0.24970000  0.09670000  0.77340000  1.0 0.1297836724
H  H38  1  0.75030000  0.90330000  0.77340000  1.0 0.1297836724
H  H39  1  0.90330000  0.24970000  0.77340000  1.0 0.1297836724
H  H40  1  0.09670000  0.75030000  0.77340000  1.0 0.1297836724
H  H41  1  0.75030000  0.09670000  0.77340000  1.0 0.1297836724
H  H42  1  0.24970000  0.90330000  0.77340000  1.0 0.1297836724
H  H43  1  0.09670000  0.24970000  0.77340000  1.0 0.1297836724
H  H44  1  0.90330000  0.75030000  0.77340000  1.0 0.1297836724
H  H45  1  0.75030000  0.90330000  0.22660000  1.0 0.1297836724
H  H46  1  0.24970000  0.09670000  0.22660000  1.0 0.1297836724
H  H47  1  0.09670000  0.75030000  0.22660000  1.0 0.1297836724
H  H48  1  0.90330000  0.24970000  0.22660000  1.0 0.1297836724
C  C1  1  0.36020000  0.00000000  0.44470000  1.0 0.1626421696
C  C2  1  0.63980000  0.00000000  0.44470000  1.0 0.1626421696
C  C3  1  0.00000000  0.63980000  0.44470000  1.0 0.1626421696
C  C4  1  0.00000000  0.36020000  0.44470000  1.0 0.1626421696
C  C5  1  0.36020000  0.00000000  0.55530000  1.0 0.1626421696
C  C6  1  0.63980000  0.00000000  0.55530000  1.0 0.1626421696
C  C7  1  0.00000000  0.36020000  0.55530000  1.0 0.1626421696
C  C8  1  0.00000000  0.63980000  0.55530000  1.0 0.1626421696
C  C9  1  0.37970000  0.00000000  0.37950000  1.0 -0.0537533374
C  C10  1  0.62030000  0.00000000  0.37950000  1.0 -0.0537533374
C  C11  1  0.00000000  0.62030000  0.37950000  1.0 -0.0537533374
C  C12  1  0.00000000  0.37970000  0.37950000  1.0 -0.0537533374
C  C13  1  0.37970000  0.00000000  0.62050000  1.0 -0.0537533374
C  C14  1  0.62030000  0.00000000  0.62050000  1.0 -0.0537533374
C  C15  1  0.00000000  0.37970000  0.62050000  1.0 -0.0537533374
C  C16  1  0.00000000  0.62030000  0.62050000  1.0 -0.0537533374
C  C17  1  0.44740000  0.00000000  0.35820000  1.0 0.1760009973
C  C18  1  0.55260000  0.00000000  0.35820000  1.0 0.1760009973
C  C19  1  0.00000000  0.55260000  0.35820000  1.0 0.1760009973
C  C20  1  0.00000000  0.44740000  0.35820000  1.0 0.1760009973
C  C21  1  0.44740000  0.00000000  0.64180000  1.0 0.1760009973
C  C22  1  0.55260000  0.00000000  0.64180000  1.0 0.1760009973
C  C23  1  0.00000000  0.44740000  0.64180000  1.0 0.1760009973
C  C24  1  0.00000000  0.55260000  0.64180000  1.0 0.1760009973
C  C25  1  0.29300000  0.00000000  0.46720000  1.0 -0.1524585151
C  C26  1  0.70700000  0.00000000  0.46720000  1.0 -0.1524585151
C  C27  1  0.00000000  0.70700000  0.46720000  1.0 -0.1524585151
C  C28  1  0.00000000  0.29300000  0.46720000  1.0 -0.1524585151
C  C29  1  0.29300000  0.00000000  0.53280000  1.0 -0.1524585151
C  C30  1  0.70700000  0.00000000  0.53280000  1.0 -0.1524585151
C  C31  1  0.00000000  0.29300000  0.53280000  1.0 -0.1524585151
C  C32  1  0.00000000  0.70700000  0.53280000  1.0 -0.1524585151
C  C33  1  0.46780000  0.00000000  0.29040000  1.0 -0.1653431171
C  C34  1  0.53220000  0.00000000  0.29040000  1.0 -0.1630810984
C  C35  1  0.00000000  0.53220000  0.29040000  1.0 -0.1630810984
C  C36  1  0.00000000  0.46780000  0.29040000  1.0 -0.1653431171
C  C37  1  0.46780000  0.00000000  0.70960000  1.0 -0.1653431171
C  C38  1  0.53220000  0.00000000  0.70960000  1.0 -0.1630810984
C  C39  1  0.00000000  0.46780000  0.70960000  1.0 -0.1653431171
C  C40  1  0.00000000  0.53220000  0.70960000  1.0 -0.1630810984
C  C41  1  0.33040000  0.00000000  0.32470000  1.0 0.0750211961
C  C42  1  0.66960000  0.00000000  0.32470000  1.0 0.0750211961
C  C43  1  0.00000000  0.66960000  0.32470000  1.0 0.0750211961
C  C44  1  0.00000000  0.33040000  0.32470000  1.0 0.0750211961
C  C45  1  0.33040000  0.00000000  0.67530000  1.0 0.0750211961
C  C46  1  0.66960000  0.00000000  0.67530000  1.0 0.0750211961
C  C47  1  0.00000000  0.33040000  0.67530000  1.0 0.0750211961
C  C48  1  0.00000000  0.66960000  0.67530000  1.0 0.0750211961
C  C49  1  0.30870000  0.94120000  0.29920000  1.0 -0.1363904459
C  C50  1  0.69130000  0.05880000  0.29920000  1.0 -0.1363904459
C  C51  1  0.94120000  0.69130000  0.29920000  1.0 -0.1363904459
C  C52  1  0.05880000  0.30870000  0.29920000  1.0 -0.1363904459
C  C53  1  0.30870000  0.05880000  0.70080000  1.0 -0.1363904459
C  C54  1  0.69130000  0.94120000  0.70080000  1.0 -0.1363904459
C  C55  1  0.94120000  0.30870000  0.70080000  1.0 -0.1363904459
C  C56  1  0.05880000  0.69130000  0.70080000  1.0 -0.1363904459
C  C57  1  0.69130000  0.05880000  0.70080000  1.0 -0.1363904459
C  C58  1  0.30870000  0.94120000  0.70080000  1.0 -0.1363904459
C  C59  1  0.05880000  0.30870000  0.70080000  1.0 -0.1363904459
C  C60  1  0.94120000  0.69130000  0.70080000  1.0 -0.1363904459
C  C61  1  0.69130000  0.94120000  0.29920000  1.0 -0.1363904459
C  C62  1  0.30870000  0.05880000  0.29920000  1.0 -0.1363904459
C  C63  1  0.05880000  0.69130000  0.29920000  1.0 -0.1363904459
C  C64  1  0.94120000  0.30870000  0.29920000  1.0 -0.1363904459
C  C65  1  0.26470000  0.94290000  0.24450000  1.0 -0.0985991807
C  C66  1  0.73530000  0.05710000  0.24450000  1.0 -0.0985991807
C  C67  1  0.94290000  0.73530000  0.24450000  1.0 -0.0985991807
C  C68  1  0.05710000  0.26470000  0.24450000  1.0 -0.0985991807
C  C69  1  0.26470000  0.05710000  0.75550000  1.0 -0.0985991807
C  C70  1  0.73530000  0.94290000  0.75550000  1.0 -0.0985991807
C  C71  1  0.94290000  0.26470000  0.75550000  1.0 -0.0985991807
C  C72  1  0.05710000  0.73530000  0.75550000  1.0 -0.0985991807
C  C73  1  0.73530000  0.05710000  0.75550000  1.0 -0.0985991807
C  C74  1  0.26470000  0.94290000  0.75550000  1.0 -0.0985991807
C  C75  1  0.05710000  0.26470000  0.75550000  1.0 -0.0985991807
C  C76  1  0.94290000  0.73530000  0.75550000  1.0 -0.0985991807
C  C77  1  0.73530000  0.94290000  0.24450000  1.0 -0.0985991807
C  C78  1  0.26470000  0.05710000  0.24450000  1.0 -0.0985991807
C  C79  1  0.05710000  0.73530000  0.24450000  1.0 -0.0985991807
C  C80  1  0.94290000  0.26470000  0.24450000  1.0 -0.0985991807
C  C81  1  0.24340000  0.00000000  0.21710000  1.0 0.0234311483
C  C82  1  0.75660000  0.00000000  0.21710000  1.0 0.0234311483
C  C83  1  0.00000000  0.75660000  0.21710000  1.0 0.0234311483
C  C84  1  0.00000000  0.24340000  0.21710000  1.0 0.0234311483
C  C85  1  0.24340000  0.00000000  0.78290000  1.0 0.0234311483
C  C86  1  0.75660000  0.00000000  0.78290000  1.0 0.0234311483
C  C87  1  0.00000000  0.24340000  0.78290000  1.0 0.0234311483
C  C88  1  0.00000000  0.75660000  0.78290000  1.0 0.0234311483
C  C89  1  0.20010000  0.00000000  0.15760000  1.0 0.2418023533
C  C90  1  0.79990000  0.00000000  0.15760000  1.0 0.2418023533
C  C91  1  0.00000000  0.79990000  0.15760000  1.0 0.2418023533
C  C92  1  0.00000000  0.20010000  0.15760000  1.0 0.2418023533
C  C93  1  0.20010000  0.00000000  0.84240000  1.0 0.2418023533
C  C94  1  0.79990000  0.00000000  0.84240000  1.0 0.2418023533
C  C95  1  0.00000000  0.20010000  0.84240000  1.0 0.2418023533
C  C96  1  0.00000000  0.79990000  0.84240000  1.0 0.2418023533
N  N1  1  0.40160000  0.00000000  0.50000000  1.0 -0.2910301798
N  N2  1  0.59840000  0.00000000  0.50000000  1.0 -0.2910301798
N  N3  1  0.00000000  0.59840000  0.50000000  1.0 -0.2910301798
N  N4  1  0.00000000  0.40160000  0.50000000  1.0 -0.2910301798
N  N5  1  0.50000000  0.00000000  0.40020000  1.0 -0.301480908
N  N6  1  0.00000000  0.50000000  0.40020000  1.0 -0.301480908
N  N7  1  0.50000000  0.00000000  0.59980000  1.0 -0.301480908
N  N8  1  0.00000000  0.50000000  0.59980000  1.0 -0.301480908
N  N9  1  0.17932000  0.05469000  0.12765000  1.0 -0.2439058238
N  N10  1  0.82068000  0.94531000  0.12765000  1.0 -0.2439058238
N  N11  1  0.05469000  0.82068000  0.12765000  1.0 -0.2439058238
N  N12  1  0.94531000  0.17932000  0.12765000  1.0 -0.2439058238
N  N13  1  0.17932000  0.94531000  0.87235000  1.0 -0.2439058238
N  N14  1  0.82068000  0.05469000  0.87235000  1.0 -0.2439058238
N  N15  1  0.05469000  0.17932000  0.87235000  1.0 -0.2439058238
N  N16  1  0.94531000  0.82068000  0.87235000  1.0 -0.2439058238
N  N17  1  0.82068000  0.94531000  0.87235000  1.0 -0.2439058238
N  N18  1  0.17932000  0.05469000  0.87235000  1.0 -0.2439058238
N  N19  1  0.94531000  0.17932000  0.87235000  1.0 -0.2439058238
N  N20  1  0.05469000  0.82068000  0.87235000  1.0 -0.2439058238
N  N21  1  0.82068000  0.05469000  0.12765000  1.0 -0.2439058238
N  N22  1  0.17932000  0.94531000  0.12765000  1.0 -0.2439058238
N  N23  1  0.94531000  0.82068000  0.12765000  1.0 -0.2439058238
N  N24  1  0.05469000  0.17932000  0.12765000  1.0 -0.2439058238
N  N25  1  0.14304000  0.03192000  0.07726000  1.0 -0.0141618595
N  N26  1  0.85696000  0.96808000  0.07726000  1.0 -0.0141618595
N  N27  1  0.03192000  0.85696000  0.07726000  1.0 -0.0141618595
N  N28  1  0.96808000  0.14304000  0.07726000  1.0 -0.0141618595
N  N29  1  0.14304000  0.96808000  0.92274000  1.0 -0.0141618595
N  N30  1  0.85696000  0.03192000  0.92274000  1.0 -0.0141618595
N  N31  1  0.03192000  0.14304000  0.92274000  1.0 -0.0141618595
N  N32  1  0.96808000  0.85696000  0.92274000  1.0 -0.0141618595
N  N33  1  0.85696000  0.96808000  0.92274000  1.0 -0.0141618595
N  N34  1  0.14304000  0.03192000  0.92274000  1.0 -0.0141618595
N  N35  1  0.96808000  0.14304000  0.92274000  1.0 -0.0141618595
N  N36  1  0.03192000  0.85696000  0.92274000  1.0 -0.0141618595
N  N37  1  0.85696000  0.03192000  0.07726000  1.0 -0.0141618595
N  N38  1  0.14304000  0.96808000  0.07726000  1.0 -0.0141618595
N  N39  1  0.96808000  0.85696000  0.07726000  1.0 -0.0141618595
N  N40  1  0.03192000  0.14304000  0.07726000  1.0 -0.0141618595
Cl  Cl1  1  0.50000000  0.12580000  0.50000000  1.0 -0.4673115277
Cl  Cl2  1  0.50000000  0.87420000  0.50000000  1.0 -0.4673115277
Cl  Cl3  1  0.12580000  0.50000000  0.50000000  1.0 -0.4673115277
Cl  Cl4  1  0.87420000  0.50000000  0.50000000  1.0 -0.4673115277
Cl  Cl5  1  0.00000000  0.00000000  0.00000000  1.0 -0.5218117946
