# DDEC6 charges by PACMAN v1.1 (https://github.com/mtap-research/PACMAN-charge/)
data_DUDKAQ_FSR_pacman
_symmetry_space_group_name_H-M   'P 1'
_cell_length_a   14.34000000
_cell_length_b   14.04740000
_cell_length_c   22.13870000
_cell_angle_alpha   90.00000000
_cell_angle_beta   100.60000000
_cell_angle_gamma   90.00000000
_symmetry_Int_Tables_number   1
_chemical_formula_structural   Mn2H50C36N7O13
_chemical_formula_sum   'Mn8 H200 C144 N28 O52'
_cell_volume   4383.51169432
_cell_formula_units_Z   4
loop_
 _symmetry_equiv_pos_site_id
 _symmetry_equiv_pos_as_xyz
  1  'x, y, z'
loop_
 _atom_site_type_symbol
 _atom_site_label
 _atom_site_symmetry_multiplicity
 _atom_site_fract_x
 _atom_site_fract_y
 _atom_site_fract_z
 _atom_site_occupancy
 _atom_site_charge
Mn  Mn1  1  0.74292000  0.25220000  0.76163000  1.0 0.9466179317
Mn  Mn2  1  0.25708000  0.75220000  0.73837000  1.0 0.9466179317
Mn  Mn3  1  0.25708000  0.74780000  0.23837000  1.0 0.9466179317
Mn  Mn4  1  0.74292000  0.24780000  0.26163000  1.0 0.9466179317
Mn  Mn5  1  0.80992000  0.37603000  0.64040000  1.0 0.9319446391
Mn  Mn6  1  0.19008000  0.87603000  0.85960000  1.0 0.9319446391
Mn  Mn7  1  0.19008000  0.62397000  0.35960000  1.0 0.9319446391
Mn  Mn8  1  0.80992000  0.12397000  0.14040000  1.0 0.9319446391
H  H1  1  0.50860000  0.51980000  0.74670000  1.0 0.1290700691
H  H2  1  0.49140000  0.01980000  0.75330000  1.0 0.1290700691
H  H3  1  0.49140000  0.48020000  0.25330000  1.0 0.1290700691
H  H4  1  0.50860000  0.98020000  0.24670000  1.0 0.1290700691
H  H5  1  0.38100000  0.61400000  0.58100000  1.0 0.1290700691
H  H6  1  0.61900000  0.11400000  0.91900000  1.0 0.1290700691
H  H7  1  0.61900000  0.38600000  0.41900000  1.0 0.1290700691
H  H8  1  0.38100000  0.88600000  0.08100000  1.0 0.1290700691
H  H9  1  0.59960000  0.43040000  0.59470000  1.0 0.1198843374
H  H10  1  0.40040000  0.93040000  0.90530000  1.0 0.1198843374
H  H11  1  0.40040000  0.56960000  0.40530000  1.0 0.1198843374
H  H12  1  0.59960000  0.06960000  0.09470000  1.0 0.1198843374
H  H13  1  0.03310000  0.51710000  0.75910000  1.0 0.1290700691
H  H14  1  0.96690000  0.01710000  0.74090000  1.0 0.1290700691
H  H15  1  0.96690000  0.48290000  0.24090000  1.0 0.1290700691
H  H16  1  0.03310000  0.98290000  0.25910000  1.0 0.1290700691
H  H17  1  0.12110000  0.62600000  0.92750000  1.0 0.1290700691
H  H18  1  0.87890000  0.12600000  0.57250000  1.0 0.1290700691
H  H19  1  0.87890000  0.37400000  0.07250000  1.0 0.1290700691
H  H20  1  0.12110000  0.87400000  0.42750000  1.0 0.1290700691
H  H21  1  0.93160000  0.41240000  0.90320000  1.0 0.1290700691
H  H22  1  0.06840000  0.91240000  0.59680000  1.0 0.1290700691
H  H23  1  0.06840000  0.58760000  0.09680000  1.0 0.1290700691
H  H24  1  0.93160000  0.08760000  0.40320000  1.0 0.1290700691
H  H25  1  0.55120000  0.26290000  0.51650000  1.0 0.1496404166
H  H26  1  0.44880000  0.76290000  0.98350000  1.0 0.1496404166
H  H27  1  0.44880000  0.73710000  0.48350000  1.0 0.1496404166
H  H28  1  0.55120000  0.23710000  0.01650000  1.0 0.1496404166
H  H29  1  0.60170000  0.16590000  0.53630000  1.0 0.1403474317
H  H30  1  0.39830000  0.66590000  0.96370000  1.0 0.1403474317
H  H31  1  0.39830000  0.83410000  0.46370000  1.0 0.1403474317
H  H32  1  0.60170000  0.33410000  0.03630000  1.0 0.1403474317
H  H33  1  0.60400000  0.24820000  0.58440000  1.0 0.1695870465
H  H34  1  0.39600000  0.74820000  0.91560000  1.0 0.1695870465
H  H35  1  0.39600000  0.75180000  0.41560000  1.0 0.1695870465
H  H36  1  0.60400000  0.25180000  0.08440000  1.0 0.1695870465
H  H37  1  0.62420000  0.14760000  0.44790000  1.0 0.1069788448
H  H38  1  0.37580000  0.64760000  0.05210000  1.0 0.1069788448
H  H39  1  0.37580000  0.85240000  0.55210000  1.0 0.1069788448
H  H40  1  0.62420000  0.35240000  0.94790000  1.0 0.1069788448
H  H41  1  0.69780000  0.15800000  0.40410000  1.0 0.1403474317
H  H42  1  0.30220000  0.65800000  0.09590000  1.0 0.1403474317
H  H43  1  0.30220000  0.84200000  0.59590000  1.0 0.1403474317
H  H44  1  0.69780000  0.34200000  0.90410000  1.0 0.1403474317
H  H45  1  0.72030000  0.09160000  0.46180000  1.0 0.1198843374
H  H46  1  0.27970000  0.59160000  0.03820000  1.0 0.1198843374
H  H47  1  0.27970000  0.90840000  0.53820000  1.0 0.1198843374
H  H48  1  0.72030000  0.40840000  0.96180000  1.0 0.1198843374
H  H49  1  0.84940000  0.30970000  0.50170000  1.0 0.1069788448
H  H50  1  0.15060000  0.80970000  0.99830000  1.0 0.1069788448
H  H51  1  0.15060000  0.69030000  0.49830000  1.0 0.1069788448
H  H52  1  0.84940000  0.19030000  0.00170000  1.0 0.1069788448
H  H53  1  0.86420000  0.21460000  0.46760000  1.0 0.0988412271
H  H54  1  0.13580000  0.71460000  0.03240000  1.0 0.0988412271
H  H55  1  0.13580000  0.78540000  0.53240000  1.0 0.0988412271
H  H56  1  0.86420000  0.28540000  0.96760000  1.0 0.0988412271
H  H57  1  0.80900000  0.29940000  0.43120000  1.0 0.1198843374
H  H58  1  0.19100000  0.79940000  0.06880000  1.0 0.1198843374
H  H59  1  0.19100000  0.70060000  0.56880000  1.0 0.1198843374
H  H60  1  0.80900000  0.20060000  0.93120000  1.0 0.1198843374
H  H61  1  0.20000000  0.40130000  0.65140000  1.0 0.0988412271
H  H62  1  0.80000000  0.90130000  0.84860000  1.0 0.0988412271
H  H63  1  0.80000000  0.59870000  0.34860000  1.0 0.0988412271
H  H64  1  0.20000000  0.09870000  0.15140000  1.0 0.0988412271
H  H65  1  0.21540000  0.50300000  0.62580000  1.0 0.0914324309
H  H66  1  0.78460000  0.00300000  0.87420000  1.0 0.0914324309
H  H67  1  0.78460000  0.49700000  0.37420000  1.0 0.0914324309
H  H68  1  0.21540000  0.99700000  0.12580000  1.0 0.0914324309
H  H69  1  0.19210000  0.49150000  0.69190000  1.0 0.0988412271
H  H70  1  0.80790000  0.99150000  0.80810000  1.0 0.0988412271
H  H71  1  0.80790000  0.50850000  0.30810000  1.0 0.0988412271
H  H72  1  0.19210000  0.00850000  0.19190000  1.0 0.0988412271
H  H73  1  0.98600000  0.57970000  0.62830000  1.0 0.0313702678
H  H74  1  0.01400000  0.07970000  0.87170000  1.0 0.0313702678
H  H75  1  0.01400000  0.42030000  0.37170000  1.0 0.0405525037
H  H76  1  0.98600000  0.92030000  0.12830000  1.0 0.0405525037
H  H77  1  0.09110000  0.61530000  0.63550000  1.0 0.0623041658
H  H78  1  0.90890000  0.11530000  0.86450000  1.0 0.0623041658
H  H79  1  0.90890000  0.38470000  0.36450000  1.0 0.0623041658
H  H80  1  0.09110000  0.88470000  0.13550000  1.0 0.0623041658
H  H81  1  0.03500000  0.58520000  0.57070000  1.0 0.0988412271
H  H82  1  0.96500000  0.08520000  0.92930000  1.0 0.0988412271
H  H83  1  0.96500000  0.41480000  0.42930000  1.0 0.0914324309
H  H84  1  0.03500000  0.91480000  0.07070000  1.0 0.0988412271
H  H85  1  0.90280000  0.71570000  0.56230000  1.0 0.0797999489
H  H86  1  0.09720000  0.21570000  0.93770000  1.0 0.0797999489
H  H87  1  0.09720000  0.28430000  0.43770000  1.0 0.0797999489
H  H88  1  0.90280000  0.78430000  0.06230000  1.0 0.0797999489
H  H89  1  0.80530000  0.76940000  0.54910000  1.0 0.0718064961
H  H90  1  0.19470000  0.26940000  0.95090000  1.0 0.0718064961
H  H91  1  0.19470000  0.23060000  0.45090000  1.0 0.0718064961
H  H92  1  0.80530000  0.73060000  0.04910000  1.0 0.0718064961
H  H93  1  0.88780000  0.80710000  0.60000000  1.0 0.0797999489
H  H94  1  0.11220000  0.30710000  0.90000000  1.0 0.0797999489
H  H95  1  0.11220000  0.19290000  0.40000000  1.0 0.0797999489
H  H96  1  0.88780000  0.69290000  0.10000000  1.0 0.0797999489
H  H97  1  0.95580000  0.67930000  0.66210000  1.0 0.0797999489
H  H98  1  0.04420000  0.17930000  0.83790000  1.0 0.0797999489
H  H99  1  0.04420000  0.32070000  0.33790000  1.0 0.0797999489
H  H100  1  0.95580000  0.82070000  0.16210000  1.0 0.0797999489
H  H101  1  0.90100000  0.71790000  0.71210000  1.0 0.0797999489
H  H102  1  0.09900000  0.21790000  0.78790000  1.0 0.0797999489
H  H103  1  0.09900000  0.28210000  0.28790000  1.0 0.0797999489
H  H104  1  0.90100000  0.78210000  0.21210000  1.0 0.0797999489
H  H105  1  0.90270000  0.60840000  0.69870000  1.0 0.0797999489
H  H106  1  0.09730000  0.10840000  0.80130000  1.0 0.0797999489
H  H107  1  0.09730000  0.39160000  0.30130000  1.0 0.0797999489
H  H108  1  0.90270000  0.89160000  0.19870000  1.0 0.0797999489
H  H109  1  0.73180000  0.53220000  0.52270000  1.0 0.1496404166
H  H110  1  0.26820000  0.03220000  0.97730000  1.0 0.1496404166
H  H111  1  0.26820000  0.46780000  0.47730000  1.0 0.1496404166
H  H112  1  0.73180000  0.96780000  0.02270000  1.0 0.1496404166
H  H113  1  0.66380000  0.61570000  0.53280000  1.0 0.1069788448
H  H114  1  0.33620000  0.11570000  0.96720000  1.0 0.1069788448
H  H115  1  0.33620000  0.38430000  0.46720000  1.0 0.1069788448
H  H116  1  0.66380000  0.88430000  0.03280000  1.0 0.1069788448
H  H117  1  0.76220000  0.63790000  0.51470000  1.0 0.0914324309
H  H118  1  0.23780000  0.13790000  0.98530000  1.0 0.0797999489
H  H119  1  0.23780000  0.36210000  0.48530000  1.0 0.0797999489
H  H120  1  0.76220000  0.86210000  0.01470000  1.0 0.0914324309
H  H121  1  0.01140000  0.27680000  0.67350000  1.0 0.1069788448
H  H122  1  0.98860000  0.77680000  0.82650000  1.0 0.1069788448
H  H123  1  0.98860000  0.72320000  0.32650000  1.0 0.1069788448
H  H124  1  0.01140000  0.22320000  0.17350000  1.0 0.1069788448
H  H125  1  0.10760000  0.28330000  0.64970000  1.0 0.1290700691
H  H126  1  0.89240000  0.78330000  0.85030000  1.0 0.1290700691
H  H127  1  0.89240000  0.71670000  0.35030000  1.0 0.1290700691
H  H128  1  0.10760000  0.21670000  0.14970000  1.0 0.1290700691
H  H129  1  0.09180000  0.34500000  0.70590000  1.0 0.0914324309
H  H130  1  0.90820000  0.84500000  0.79410000  1.0 0.0914324309
H  H131  1  0.90820000  0.65500000  0.29410000  1.0 0.0914324309
H  H132  1  0.09180000  0.15500000  0.20590000  1.0 0.0914324309
H  H133  1  0.20270000  0.40780000  0.63860000  1.0 0.1069788448
H  H134  1  0.79730000  0.90780000  0.86140000  1.0 0.1069788448
H  H135  1  0.79730000  0.59220000  0.36140000  1.0 0.1069788448
H  H136  1  0.20270000  0.09220000  0.13860000  1.0 0.1069788448
H  H137  1  0.20690000  0.49820000  0.59770000  1.0 0.0914324309
H  H138  1  0.79310000  0.99820000  0.90230000  1.0 0.0914324309
H  H139  1  0.79310000  0.50180000  0.40230000  1.0 0.0914324309
H  H140  1  0.20690000  0.00180000  0.09770000  1.0 0.0914324309
H  H141  1  0.18680000  0.50910000  0.66460000  1.0 0.0988412271
H  H142  1  0.81320000  0.00910000  0.83540000  1.0 0.0988412271
H  H143  1  0.81320000  0.49090000  0.33540000  1.0 0.0988412271
H  H144  1  0.18680000  0.99090000  0.16460000  1.0 0.0988412271
H  H145  1  0.04470000  0.59890000  0.58890000  1.0 0.0988412271
H  H146  1  0.95530000  0.09890000  0.91110000  1.0 0.0988412271
H  H147  1  0.95530000  0.40110000  0.41110000  1.0 0.0988412271
H  H148  1  0.04470000  0.90110000  0.08890000  1.0 0.0988412271
H  H149  1  0.06570000  0.54460000  0.53110000  1.0 0.0405525037
H  H150  1  0.93430000  0.04460000  0.96890000  1.0 0.0405525037
H  H151  1  0.93430000  0.45540000  0.46890000  1.0 0.0405525037
H  H152  1  0.06570000  0.95540000  0.03110000  1.0 0.0405525037
H  H153  1  0.96840000  0.53000000  0.55250000  1.0 0.0718064961
H  H154  1  0.03160000  0.03000000  0.94750000  1.0 0.0718064961
H  H155  1  0.03160000  0.47000000  0.44750000  1.0 0.0718064961
H  H156  1  0.96840000  0.97000000  0.05250000  1.0 0.0718064961
H  H157  1  0.71090000  0.63990000  0.51970000  1.0 0.0988412271
H  H158  1  0.28910000  0.13990000  0.98030000  1.0 0.0988412271
H  H159  1  0.28910000  0.36010000  0.48030000  1.0 0.0988412271
H  H160  1  0.71090000  0.86010000  0.01970000  1.0 0.0988412271
H  H161  1  0.80720000  0.59360000  0.51130000  1.0 0.0797999489
H  H162  1  0.19280000  0.09360000  0.98870000  1.0 0.0797999489
H  H163  1  0.19280000  0.40640000  0.48870000  1.0 0.0797999489
H  H164  1  0.80720000  0.90640000  0.01130000  1.0 0.0797999489
H  H165  1  0.72270000  0.52890000  0.52220000  1.0 0.1496404166
H  H166  1  0.27730000  0.02890000  0.97780000  1.0 0.1496404166
H  H167  1  0.27730000  0.47110000  0.47780000  1.0 0.1496404166
H  H168  1  0.72270000  0.97110000  0.02220000  1.0 0.1496404166
H  H169  1  0.77480000  0.76940000  0.56180000  1.0 0.0797999489
H  H170  1  0.22520000  0.26940000  0.93820000  1.0 0.0797999489
H  H171  1  0.22520000  0.23060000  0.43820000  1.0 0.0797999489
H  H172  1  0.77480000  0.73060000  0.06180000  1.0 0.0797999489
H  H173  1  0.81900000  0.81210000  0.62620000  1.0 0.0797999489
H  H174  1  0.18100000  0.31210000  0.87380000  1.0 0.0797999489
H  H175  1  0.18100000  0.18790000  0.37380000  1.0 0.0797999489
H  H176  1  0.81900000  0.68790000  0.12620000  1.0 0.0797999489
H  H177  1  0.88500000  0.78270000  0.58020000  1.0 0.0718064961
H  H178  1  0.11500000  0.28270000  0.91980000  1.0 0.0718064961
H  H179  1  0.11500000  0.21730000  0.41980000  1.0 0.0718064961
H  H180  1  0.88500000  0.71730000  0.08020000  1.0 0.0718064961
H  H181  1  0.85230000  0.62120000  0.71190000  1.0 0.0797999489
H  H182  1  0.14770000  0.12120000  0.78810000  1.0 0.0797999489
H  H183  1  0.14770000  0.37880000  0.28810000  1.0 0.0797999489
H  H184  1  0.85230000  0.87880000  0.21190000  1.0 0.0797999489
H  H185  1  0.93140000  0.69480000  0.70430000  1.0 0.0718064961
H  H186  1  0.06860000  0.19480000  0.79570000  1.0 0.0718064961
H  H187  1  0.06860000  0.30520000  0.29570000  1.0 0.0718064961
H  H188  1  0.93140000  0.80520000  0.20430000  1.0 0.0718064961
H  H189  1  0.82880000  0.73020000  0.70760000  1.0 0.0797999489
H  H190  1  0.17120000  0.23020000  0.79240000  1.0 0.0797999489
H  H191  1  0.17120000  0.26980000  0.29240000  1.0 0.0797999489
H  H192  1  0.82880000  0.76980000  0.20760000  1.0 0.0797999489
H  H193  1  0.01300000  0.25480000  0.62680000  1.0 0.1069788448
H  H194  1  0.98700000  0.75480000  0.87320000  1.0 0.1069788448
H  H195  1  0.98700000  0.74520000  0.37320000  1.0 0.1069788448
H  H196  1  0.01300000  0.24520000  0.12680000  1.0 0.1069788448
H  H197  1  0.11630000  0.29860000  0.65290000  1.0 0.1290700691
H  H198  1  0.88370000  0.79860000  0.84710000  1.0 0.1290700691
H  H199  1  0.88370000  0.70140000  0.34710000  1.0 0.1290700691
H  H200  1  0.11630000  0.20140000  0.15290000  1.0 0.1290700691
C  C1  1  0.63190000  0.39690000  0.71459000  1.0 0.5684746062
C  C2  1  0.36810000  0.89690000  0.78541000  1.0 0.5684746062
C  C3  1  0.36810000  0.60310000  0.28541000  1.0 0.5684746062
C  C4  1  0.63190000  0.10310000  0.21459000  1.0 0.5684746062
C  C5  1  0.14740000  0.65640000  0.81518000  1.0 0.5384438342
C  C6  1  0.85260000  0.15640000  0.68482000  1.0 0.5384438342
C  C7  1  0.85260000  0.34360000  0.18482000  1.0 0.5384438342
C  C8  1  0.14740000  0.84360000  0.31518000  1.0 0.5384438342
C  C9  1  0.56410000  0.46410000  0.67640000  1.0 0.00918024
C  C10  1  0.43590000  0.96410000  0.82360000  1.0 0.00918024
C  C11  1  0.43590000  0.53590000  0.32360000  1.0 0.00918024
C  C12  1  0.56410000  0.03590000  0.17640000  1.0 0.00918024
C  C13  1  0.50320000  0.52030000  0.70418000  1.0 -0.1273656347
C  C14  1  0.49680000  0.02030000  0.79582000  1.0 -0.1273656347
C  C15  1  0.49680000  0.47970000  0.29582000  1.0 -0.1273656347
C  C16  1  0.50320000  0.97970000  0.20418000  1.0 -0.1273656347
C  C17  1  0.43550000  0.57650000  0.66883000  1.0 -0.0171260519
C  C18  1  0.56450000  0.07650000  0.83117000  1.0 -0.0171260519
C  C19  1  0.56450000  0.42350000  0.33117000  1.0 -0.0171260519
C  C20  1  0.43550000  0.92350000  0.16883000  1.0 -0.0171260519
C  C21  1  0.42730000  0.57700000  0.60508000  1.0 -0.2057868833
C  C22  1  0.57270000  0.07700000  0.89492000  1.0 -0.2057868833
C  C23  1  0.57270000  0.42300000  0.39492000  1.0 -0.2057868833
C  C24  1  0.42730000  0.92300000  0.10508000  1.0 -0.2057868833
C  C25  1  0.48870000  0.52190000  0.57746000  1.0 0.1198843374
C  C26  1  0.51130000  0.02190000  0.92254000  1.0 0.1198843374
C  C27  1  0.51130000  0.47810000  0.42254000  1.0 0.1198843374
C  C28  1  0.48870000  0.97810000  0.07746000  1.0 0.1198843374
C  C29  1  0.55790000  0.46610000  0.61306000  1.0 -0.1983311968
C  C30  1  0.44210000  0.96610000  0.88694000  1.0 -0.1983311968
C  C31  1  0.44210000  0.53390000  0.38694000  1.0 -0.1983311968
C  C32  1  0.55790000  0.03390000  0.11306000  1.0 -0.1983311968
C  C33  1  0.37080000  0.63920000  0.69779000  1.0 0.5301859087
C  C34  1  0.62920000  0.13920000  0.80221000  1.0 0.5301859087
C  C35  1  0.62920000  0.36080000  0.30221000  1.0 0.5301859087
C  C36  1  0.37080000  0.86080000  0.19779000  1.0 0.5301859087
C  C37  1  0.90440000  0.39130000  0.78267000  1.0 0.4820938936
C  C38  1  0.09560000  0.89130000  0.71733000  1.0 0.4820938936
C  C39  1  0.09560000  0.60870000  0.21733000  1.0 0.4820938936
C  C40  1  0.90440000  0.10870000  0.28267000  1.0 0.4820938936
C  C41  1  0.97170000  0.45590000  0.82464000  1.0 -0.0148324216
C  C42  1  0.02830000  0.95590000  0.67536000  1.0 -0.0171260519
C  C43  1  0.02830000  0.54410000  0.17536000  1.0 -0.0171260519
C  C44  1  0.97170000  0.04410000  0.32464000  1.0 -0.0171260519
C  C45  1  0.03080000  0.51840000  0.80082000  1.0 -0.3154337103
C  C46  1  0.96920000  0.01840000  0.69918000  1.0 -0.3113984261
C  C47  1  0.96920000  0.48160000  0.19918000  1.0 -0.3113984261
C  C48  1  0.03080000  0.98160000  0.30082000  1.0 -0.3113984261
C  C49  1  0.08630000  0.58280000  0.83924000  1.0 -0.0297687243
C  C50  1  0.91370000  0.08280000  0.66076000  1.0 -0.0297687243
C  C51  1  0.91370000  0.41720000  0.16076000  1.0 -0.0297687243
C  C52  1  0.08630000  0.91720000  0.33924000  1.0 -0.0297687243
C  C53  1  0.08400000  0.58290000  0.90166000  1.0 -0.1983311968
C  C54  1  0.91600000  0.08290000  0.59834000  1.0 -0.1983311968
C  C55  1  0.91600000  0.41710000  0.09834000  1.0 -0.1983311968
C  C56  1  0.08400000  0.91710000  0.40166000  1.0 -0.1983311968
C  C57  1  0.02660000  0.51910000  0.92574000  1.0 0.1403474317
C  C58  1  0.97340000  0.01910000  0.57426000  1.0 0.1403474317
C  C59  1  0.97340000  0.48090000  0.07426000  1.0 0.1403474317
C  C60  1  0.02660000  0.98090000  0.42574000  1.0 0.1403474317
C  C61  1  0.97010000  0.45520000  0.88722000  1.0 -0.1983311968
C  C62  1  0.02990000  0.95520000  0.61278000  1.0 -0.1983311968
C  C63  1  0.02990000  0.54480000  0.11278000  1.0 -0.1983311968
C  C64  1  0.97010000  0.04480000  0.38722000  1.0 -0.1983311968
C  C65  1  0.70110000  0.27360000  0.52392000  1.0 0.4638741245
C  C66  1  0.29890000  0.77360000  0.97608000  1.0 0.4638741245
C  C67  1  0.29890000  0.72640000  0.47608000  1.0 0.4638741245
C  C68  1  0.70110000  0.22640000  0.02392000  1.0 0.4638741245
C  C69  1  0.60480000  0.23360000  0.54210000  1.0 -0.5431980783
C  C70  1  0.39520000  0.73360000  0.95790000  1.0 -0.5431980783
C  C71  1  0.39520000  0.76640000  0.45790000  1.0 -0.5431980783
C  C72  1  0.60480000  0.26640000  0.04210000  1.0 -0.5431980783
C  C73  1  0.69050000  0.14990000  0.44600000  1.0 -0.3040429497
C  C74  1  0.30950000  0.64990000  0.05400000  1.0 -0.3040429497
C  C75  1  0.30950000  0.85010000  0.55400000  1.0 -0.3040429497
C  C76  1  0.69050000  0.35010000  0.94600000  1.0 -0.3040429497
C  C77  1  0.82140000  0.26650000  0.46990000  1.0 -0.4595439428
C  C78  1  0.17860000  0.76650000  0.03010000  1.0 -0.4595439428
C  C79  1  0.17860000  0.73350000  0.53010000  1.0 -0.4595439428
C  C80  1  0.82140000  0.23350000  0.96990000  1.0 -0.4595439428
C  C81  1  0.02250000  0.38600000  0.62290000  1.0 0.2450926309
C  C82  1  0.97750000  0.88600000  0.87710000  1.0 0.2450926309
C  C83  1  0.97750000  0.61400000  0.37710000  1.0 0.2448044425
C  C84  1  0.02250000  0.11400000  0.12290000  1.0 0.2450926309
C  C85  1  0.18030000  0.46670000  0.65080000  1.0 -0.1801285142
C  C86  1  0.81970000  0.96670000  0.84920000  1.0 -0.1801285142
C  C87  1  0.81970000  0.53330000  0.34920000  1.0 -0.1801285142
C  C88  1  0.18030000  0.03330000  0.15080000  1.0 -0.1801285142
C  C89  1  0.04480000  0.57200000  0.61390000  1.0 -0.1581305508
C  C90  1  0.95520000  0.07200000  0.88610000  1.0 -0.1581305508
C  C91  1  0.95520000  0.42800000  0.38610000  1.0 -0.1581305508
C  C92  1  0.04480000  0.92800000  0.11390000  1.0 -0.1581305508
C  C93  1  0.85780000  0.75110000  0.58040000  1.0 -0.1719465176
C  C94  1  0.14220000  0.25110000  0.91960000  1.0 -0.1719465176
C  C95  1  0.14220000  0.24890000  0.41960000  1.0 -0.1719465176
C  C96  1  0.85780000  0.74890000  0.08040000  1.0 -0.1719465176
C  C97  1  0.90100000  0.67100000  0.68080000  1.0 -0.1273656347
C  C98  1  0.09900000  0.17100000  0.81920000  1.0 -0.1273656347
C  C99  1  0.09900000  0.32900000  0.31920000  1.0 -0.1273656347
C  C100  1  0.90100000  0.82900000  0.18080000  1.0 -0.1273656347
C  C101  1  0.78020000  0.60020000  0.61380000  1.0 0.3234370952
C  C102  1  0.21980000  0.10020000  0.88620000  1.0 0.3234370952
C  C103  1  0.21980000  0.39980000  0.38620000  1.0 0.3234370952
C  C104  1  0.78020000  0.89980000  0.11380000  1.0 0.3234370952
C  C105  1  0.72900000  0.59600000  0.53760000  1.0 -0.3270890521
C  C106  1  0.27100000  0.09600000  0.96240000  1.0 -0.3270890521
C  C107  1  0.27100000  0.40400000  0.46240000  1.0 -0.3270890521
C  C108  1  0.72900000  0.90400000  0.03760000  1.0 -0.3270890521
C  C109  1  0.06170000  0.31850000  0.66720000  1.0 -0.2436300213
C  C110  1  0.93830000  0.81850000  0.83280000  1.0 -0.2436300213
C  C111  1  0.93830000  0.68150000  0.33280000  1.0 -0.2436300213
C  C112  1  0.06170000  0.18150000  0.16720000  1.0 -0.2436300213
C  C113  1  0.01460000  0.41190000  0.61650000  1.0 0.2925983002
C  C114  1  0.98540000  0.91190000  0.88350000  1.0 0.2925983002
C  C115  1  0.98540000  0.58810000  0.38350000  1.0 0.2925983002
C  C116  1  0.01460000  0.08810000  0.11650000  1.0 0.2925983002
C  C117  1  0.17650000  0.46990000  0.62850000  1.0 -0.1415779957
C  C118  1  0.82350000  0.96990000  0.87150000  1.0 -0.1415779957
C  C119  1  0.82350000  0.53010000  0.37150000  1.0 -0.1415779957
C  C120  1  0.17650000  0.03010000  0.12850000  1.0 -0.1415779957
C  C121  1  0.03520000  0.54050000  0.56610000  1.0 -0.1719465176
C  C122  1  0.96480000  0.04050000  0.93390000  1.0 -0.1719465176
C  C123  1  0.96480000  0.45950000  0.43390000  1.0 -0.1719465176
C  C124  1  0.03520000  0.95950000  0.06610000  1.0 -0.1719465176
C  C125  1  0.78880000  0.59370000  0.59910000  1.0 0.3234370952
C  C126  1  0.21120000  0.09370000  0.90090000  1.0 0.3234370952
C  C127  1  0.21120000  0.40630000  0.40090000  1.0 0.3234370952
C  C128  1  0.78880000  0.90630000  0.09910000  1.0 0.3234370952
C  C129  1  0.75440000  0.58900000  0.53230000  1.0 -0.3270890521
C  C130  1  0.24560000  0.08900000  0.96770000  1.0 -0.3270890521
C  C131  1  0.24560000  0.41100000  0.46770000  1.0 -0.3270890521
C  C132  1  0.75440000  0.91100000  0.03230000  1.0 -0.3270890521
C  C133  1  0.82810000  0.76710000  0.59520000  1.0 -0.1546609992
C  C134  1  0.17190000  0.26710000  0.90480000  1.0 -0.1581305508
C  C135  1  0.17190000  0.23290000  0.40480000  1.0 -0.1581305508
C  C136  1  0.82810000  0.73290000  0.09520000  1.0 -0.1546609992
C  C137  1  0.86500000  0.68030000  0.69330000  1.0 -0.1193814764
C  C138  1  0.13500000  0.18030000  0.80670000  1.0 -0.1193814764
C  C139  1  0.13500000  0.31970000  0.30670000  1.0 -0.1193814764
C  C140  1  0.86500000  0.81970000  0.19330000  1.0 -0.1193814764
C  C141  1  0.05290000  0.30720000  0.63510000  1.0 -0.1983311968
C  C142  1  0.94710000  0.80720000  0.86490000  1.0 -0.1983311968
C  C143  1  0.94710000  0.69280000  0.36490000  1.0 -0.1983311968
C  C144  1  0.05290000  0.19280000  0.13510000  1.0 -0.1983311968
N  N1  1  0.02910000  0.52590000  0.99048000  1.0 -0.1415779957
N  N2  1  0.97090000  0.02590000  0.50952000  1.0 -0.1415779957
N  N3  1  0.97090000  0.47410000  0.00952000  1.0 -0.1415779957
N  N4  1  0.02910000  0.97410000  0.49048000  1.0 -0.1415779957
N  N5  1  0.47540000  0.52830000  0.51178000  1.0 -0.1046189064
N  N6  1  0.52460000  0.02830000  0.98822000  1.0 -0.1071269469
N  N7  1  0.52460000  0.47170000  0.48822000  1.0 -0.1071269469
N  N8  1  0.47540000  0.97170000  0.01178000  1.0 -0.1046189064
N  N9  1  0.73530000  0.23080000  0.48329000  1.0 -0.0535146132
N  N10  1  0.26470000  0.73080000  0.01671000  1.0 -0.0535146132
N  N11  1  0.26470000  0.76920000  0.51671000  1.0 -0.0535146132
N  N12  1  0.73530000  0.26920000  0.98329000  1.0 -0.0535146132
N  N13  1  0.07900000  0.47310000  0.62530000  1.0 0.0797999489
N  N14  1  0.92100000  0.97310000  0.87470000  1.0 0.0797999489
N  N15  1  0.92100000  0.52690000  0.37470000  1.0 0.0797999489
N  N16  1  0.07900000  0.02690000  0.12530000  1.0 0.0797999489
N  N17  1  0.81690000  0.68050000  0.63510000  1.0 0.0313702678
N  N18  1  0.18310000  0.18050000  0.86490000  1.0 0.0313702678
N  N19  1  0.18310000  0.31950000  0.36490000  1.0 0.0313702678
N  N20  1  0.81690000  0.81950000  0.13510000  1.0 0.0313702678
N  N21  1  0.07600000  0.46200000  0.60510000  1.0 0.0623041658
N  N22  1  0.92400000  0.96200000  0.89490000  1.0 0.0623041658
N  N23  1  0.92400000  0.53800000  0.39490000  1.0 0.0623041658
N  N24  1  0.07600000  0.03800000  0.10510000  1.0 0.0623041658
N  N25  1  0.83660000  0.67180000  0.62130000  1.0 0.0313702678
N  N26  1  0.16340000  0.17180000  0.87870000  1.0 0.0313702678
N  N27  1  0.16340000  0.32820000  0.37870000  1.0 0.0313702678
N  N28  1  0.83660000  0.82820000  0.12130000  1.0 0.0313702678
O  O1  1  0.73235000  0.34618000  0.55103000  1.0 -0.5431980783
O  O2  1  0.26765000  0.84618000  0.94897000  1.0 -0.5431980783
O  O3  1  0.26765000  0.65382000  0.44897000  1.0 -0.5431980783
O  O4  1  0.73235000  0.15382000  0.05103000  1.0 -0.5431980783
O  O5  1  0.69026000  0.35135000  0.68775000  1.0 -0.593155309
O  O6  1  0.30974000  0.85135000  0.81225000  1.0 -0.593155309
O  O7  1  0.30974000  0.64865000  0.31225000  1.0 -0.593155309
O  O8  1  0.69026000  0.14865000  0.18775000  1.0 -0.593155309
O  O9  1  0.62749000  0.38222000  0.76908000  1.0 -0.4935294682
O  O10  1  0.37251000  0.88222000  0.73092000  1.0 -0.4935294682
O  O11  1  0.37251000  0.61778000  0.23092000  1.0 -0.4935294682
O  O12  1  0.62749000  0.11778000  0.26908000  1.0 -0.4935294682
O  O13  1  0.17740000  0.72318000  0.85064000  1.0 -0.5431980783
O  O14  1  0.82260000  0.22318000  0.64936000  1.0 -0.5431980783
O  O15  1  0.82260000  0.27682000  0.14936000  1.0 -0.5431980783
O  O16  1  0.17740000  0.77682000  0.35064000  1.0 -0.5431980783
O  O17  1  0.16387000  0.64563000  0.76194000  1.0 -0.5694647554
O  O18  1  0.83613000  0.14563000  0.73806000  1.0 -0.5611004526
O  O19  1  0.83613000  0.35437000  0.23806000  1.0 -0.5694647554
O  O20  1  0.16387000  0.85437000  0.26194000  1.0 -0.5694647554
O  O21  1  0.85374000  0.33643000  0.80800000  1.0 -0.5221311444
O  O22  1  0.14626000  0.83643000  0.69200000  1.0 -0.5221311444
O  O23  1  0.14626000  0.66357000  0.19200000  1.0 -0.5221311444
O  O24  1  0.85374000  0.16357000  0.30800000  1.0 -0.5221311444
O  O25  1  0.90325000  0.39900000  0.72618000  1.0 -0.5694647554
O  O26  1  0.09675000  0.89900000  0.77382000  1.0 -0.5694647554
O  O27  1  0.09675000  0.60100000  0.27382000  1.0 -0.5694647554
O  O28  1  0.90325000  0.10100000  0.22618000  1.0 -0.5694647554
O  O29  1  0.93550000  0.38730000  0.59900000  1.0 -0.1273656347
O  O30  1  0.06450000  0.88730000  0.90100000  1.0 -0.1273656347
O  O31  1  0.06450000  0.61270000  0.40100000  1.0 -0.1273656347
O  O32  1  0.93550000  0.11270000  0.09900000  1.0 -0.1193814764
O  O33  1  0.78720000  0.52330000  0.62780000  1.0 -0.337672233
O  O34  1  0.21280000  0.02330000  0.87220000  1.0 -0.337672233
O  O35  1  0.21280000  0.47670000  0.37220000  1.0 -0.337672233
O  O36  1  0.78720000  0.97670000  0.12780000  1.0 -0.337672233
O  O37  1  0.30377000  0.68133000  0.66269000  1.0 -0.5611004526
O  O38  1  0.69623000  0.18133000  0.83731000  1.0 -0.5611004526
O  O39  1  0.69623000  0.31867000  0.33731000  1.0 -0.5611004526
O  O40  1  0.30377000  0.81867000  0.16269000  1.0 -0.5611004526
O  O41  1  0.38428000  0.64894000  0.75515000  1.0 -0.5221311444
O  O42  1  0.61572000  0.14894000  0.74485000  1.0 -0.5221311444
O  O43  1  0.61572000  0.35106000  0.24485000  1.0 -0.5221311444
O  O44  1  0.38428000  0.85106000  0.25515000  1.0 -0.5221311444
O  O45  1  0.92880000  0.42370000  0.59920000  1.0 -0.1983311968
O  O46  1  0.07120000  0.92370000  0.90080000  1.0 -0.1983311968
O  O47  1  0.07120000  0.57630000  0.40080000  1.0 -0.1983311968
O  O48  1  0.92880000  0.07630000  0.09920000  1.0 -0.1983311968
O  O49  1  0.77480000  0.52770000  0.63980000  1.0 -0.3871790761
O  O50  1  0.22520000  0.02770000  0.86020000  1.0 -0.3871790761
O  O51  1  0.22520000  0.47230000  0.36020000  1.0 -0.3871790761
O  O52  1  0.77480000  0.97230000  0.13980000  1.0 -0.3871790761
