# DDEC6 charges by PACMAN v1.1 (https://github.com/mtap-research/PACMAN-charge/)
data_DUDKOE_FSR_pacman
_symmetry_space_group_name_H-M   'P 1'
_cell_length_a   19.44870000
_cell_length_b   19.44870000
_cell_length_c   21.76720000
_cell_angle_alpha   64.20640000
_cell_angle_beta   115.79400000
_cell_angle_gamma   119.37200000
_symmetry_Int_Tables_number   1
_chemical_formula_structural   Zn3H37C35N7O15
_chemical_formula_sum   'Zn12 H148 C140 N28 O60'
_cell_volume   6196.94494301
_cell_formula_units_Z   4
loop_
 _symmetry_equiv_pos_site_id
 _symmetry_equiv_pos_as_xyz
  1  'x, y, z'
loop_
 _atom_site_type_symbol
 _atom_site_label
 _atom_site_symmetry_multiplicity
 _atom_site_fract_x
 _atom_site_fract_y
 _atom_site_fract_z
 _atom_site_occupancy
 _atom_site_charge
Zn  Zn1  1  0.22440000  0.76056000  0.67339000  1.0 0.9166958553
Zn  Zn2  1  0.76056000  0.22440000  0.82661000  1.0 0.9166958553
Zn  Zn3  1  0.77560000  0.23944000  0.32661000  1.0 0.9166958553
Zn  Zn4  1  0.23944000  0.77560000  0.17339000  1.0 0.9166958553
Zn  Zn5  1  0.31149000  0.80214000  0.81217000  1.0 0.8677216137
Zn  Zn6  1  0.80214000  0.31150000  0.68783000  1.0 0.8677216137
Zn  Zn7  1  0.68851000  0.19786000  0.18783000  1.0 0.8677216137
Zn  Zn8  1  0.19785000  0.68851000  0.31217000  1.0 0.8677216137
Zn  Zn9  1  0.32033000  0.23005000  0.81887000  1.0 0.9146340455
Zn  Zn10  1  0.23005000  0.32033000  0.68113000  1.0 0.9166958553
Zn  Zn11  1  0.67967000  0.76995000  0.18113000  1.0 0.9166958553
Zn  Zn12  1  0.76995000  0.67967000  0.31887000  1.0 0.9166958553
H  H1  1  0.40890000  0.60990000  0.04650000  1.0 0.1299655916
H  H2  1  0.60990000  0.40890000  0.45350000  1.0 0.1299655916
H  H3  1  0.59110000  0.39010000  0.95350000  1.0 0.1299655916
H  H4  1  0.39010000  0.59110000  0.54650000  1.0 0.1299655916
H  H5  1  0.48480000  0.65920000  0.09780000  1.0 0.1488804485
H  H6  1  0.65920000  0.48480000  0.40220000  1.0 0.1488804485
H  H7  1  0.51520000  0.34080000  0.90220000  1.0 0.1488804485
H  H8  1  0.34080000  0.51520000  0.59780000  1.0 0.1488804485
H  H9  1  0.39810000  0.61590000  0.11110000  1.0 0.1488804485
H  H10  1  0.61590000  0.39810000  0.38890000  1.0 0.1488804485
H  H11  1  0.60190000  0.38410000  0.88890000  1.0 0.1488804485
H  H12  1  0.38410000  0.60190000  0.61110000  1.0 0.1488804485
H  H13  1  0.53860000  0.01420000  0.75770000  1.0 0.1299655916
H  H14  1  0.01420000  0.53860000  0.74230000  1.0 0.1299655916
H  H15  1  0.46140000  0.98580000  0.24230000  1.0 0.1299655916
H  H16  1  0.98580000  0.46140000  0.25770000  1.0 0.1299655916
H  H17  1  0.63100000  0.12100000  0.59130000  1.0 0.1112132772
H  H18  1  0.12100000  0.63100000  0.90870000  1.0 0.1112132772
H  H19  1  0.36900000  0.87900000  0.40870000  1.0 0.1112132772
H  H20  1  0.87900000  0.36900000  0.09130000  1.0 0.1112132772
H  H21  1  0.42010000  0.92390000  0.58910000  1.0 0.1299655916
H  H22  1  0.92390000  0.42010000  0.91090000  1.0 0.1299655916
H  H23  1  0.57990000  0.07610000  0.41090000  1.0 0.1299655916
H  H24  1  0.07610000  0.57990000  0.08910000  1.0 0.1221058277
H  H25  1  0.42530000  0.63390000  0.90210000  1.0 0.1112132772
H  H26  1  0.63390000  0.42530000  0.59790000  1.0 0.1112132772
H  H27  1  0.57470000  0.36610000  0.09790000  1.0 0.1112132772
H  H28  1  0.36610000  0.57470000  0.40210000  1.0 0.1112132772
H  H29  1  0.42650000  0.42630000  0.90630000  1.0 0.1221058277
H  H30  1  0.42630000  0.42650000  0.59370000  1.0 0.1221058277
H  H31  1  0.57350000  0.57370000  0.09370000  1.0 0.1221058277
H  H32  1  0.57370000  0.57350000  0.40630000  1.0 0.1221058277
H  H33  1  0.29470000  0.54610000  0.73240000  1.0 0.1299655916
H  H34  1  0.54610000  0.29470000  0.76760000  1.0 0.1299655916
H  H35  1  0.70530000  0.45390000  0.26760000  1.0 0.1299655916
H  H36  1  0.45390000  0.70530000  0.23240000  1.0 0.1299655916
H  H37  1  0.08740000  0.91620000  0.58560000  1.0 0.1221058277
H  H38  1  0.91620000  0.08740000  0.91440000  1.0 0.1221058277
H  H39  1  0.91260000  0.08380000  0.41440000  1.0 0.1221058277
H  H40  1  0.08380000  0.91260000  0.08560000  1.0 0.1221058277
H  H41  1  0.09470000  0.12470000  0.58910000  1.0 0.1221058277
H  H42  1  0.12470000  0.09470000  0.91090000  1.0 0.1221058277
H  H43  1  0.90530000  0.87530000  0.41090000  1.0 0.1221058277
H  H44  1  0.87530000  0.90530000  0.08910000  1.0 0.1221058277
H  H45  1  0.24780000  0.01540000  0.74610000  1.0 0.1299655916
H  H46  1  0.01540000  0.24780000  0.75390000  1.0 0.1299655916
H  H47  1  0.75220000  0.98460000  0.25390000  1.0 0.1299655916
H  H48  1  0.98460000  0.75220000  0.24610000  1.0 0.1299655916
H  H49  1  0.08100000  0.77120000  0.54700000  1.0 0.1112132772
H  H50  1  0.77120000  0.08100000  0.95300000  1.0 0.1112132772
H  H51  1  0.91900000  0.22880000  0.45300000  1.0 0.1112132772
H  H52  1  0.22880000  0.91900000  0.04700000  1.0 0.1112132772
H  H53  1  0.02540000  0.84180000  0.39090000  1.0 0.1488804485
H  H54  1  0.84180000  0.02540000  0.10910000  1.0 0.1488804485
H  H55  1  0.97460000  0.15820000  0.60910000  1.0 0.1488804485
H  H56  1  0.15820000  0.97460000  0.89090000  1.0 0.1488804485
H  H57  1  0.99830000  0.75630000  0.38050000  1.0 0.1488804485
H  H58  1  0.75630000  0.99830000  0.11950000  1.0 0.1488804485
H  H59  1  0.00170000  0.24370000  0.61950000  1.0 0.1488804485
H  H60  1  0.24370000  0.00170000  0.88050000  1.0 0.1488804485
H  H61  1  0.97870000  0.76090000  0.44100000  1.0 0.1299655916
H  H62  1  0.76090000  0.97870000  0.05900000  1.0 0.1299655916
H  H63  1  0.02130000  0.23910000  0.55900000  1.0 0.1299655916
H  H64  1  0.23910000  0.02130000  0.94100000  1.0 0.1299655916
H  H65  1  0.14160000  0.72280000  0.44500000  1.0 0.1299655916
H  H66  1  0.72280000  0.14160000  0.05500000  1.0 0.1299655916
H  H67  1  0.85840000  0.27720000  0.55500000  1.0 0.1299655916
H  H68  1  0.27720000  0.85840000  0.94500000  1.0 0.1299655916
H  H69  1  0.12460000  0.79680000  0.38040000  1.0 0.1488804485
H  H70  1  0.79680000  0.12460000  0.11960000  1.0 0.1488804485
H  H71  1  0.87540000  0.20320000  0.61960000  1.0 0.1488804485
H  H72  1  0.20320000  0.87540000  0.88040000  1.0 0.1488804485
H  H73  1  0.20000000  0.81340000  0.44720000  1.0 0.1299655916
H  H74  1  0.81340000  0.20000000  0.05280000  1.0 0.1299655916
H  H75  1  0.80000000  0.18660000  0.55280000  1.0 0.1299655916
H  H76  1  0.18660000  0.80000000  0.94720000  1.0 0.1299655916
H  H77  1  0.36080000  0.68640000  0.94240000  1.0 0.1112132772
H  H78  1  0.68640000  0.36080000  0.55760000  1.0 0.1112132772
H  H79  1  0.63920000  0.31360000  0.05760000  1.0 0.1112132772
H  H80  1  0.31360000  0.63920000  0.44240000  1.0 0.1112132772
H  H81  1  0.37840000  0.78560000  0.05150000  1.0 0.1012832314
H  H82  1  0.78560000  0.37840000  0.44850000  1.0 0.1012832314
H  H83  1  0.62160000  0.21440000  0.94850000  1.0 0.1012832314
H  H84  1  0.21440000  0.62160000  0.55150000  1.0 0.1012832314
H  H85  1  0.45200000  0.76160000  0.11100000  1.0 0.1299655916
H  H86  1  0.76160000  0.45200000  0.38900000  1.0 0.1299655916
H  H87  1  0.54800000  0.23840000  0.88900000  1.0 0.1299655916
H  H88  1  0.23840000  0.54800000  0.61100000  1.0 0.1299655916
H  H89  1  0.46600000  0.82980000  0.03980000  1.0 0.0682145112
H  H90  1  0.82980000  0.46600000  0.46020000  1.0 0.0682145112
H  H91  1  0.53400000  0.17020000  0.96020000  1.0 0.0682145112
H  H92  1  0.17020000  0.53400000  0.53980000  1.0 0.0682145112
H  H93  1  0.37430000  0.25170000  0.96020000  1.0 0.1112132772
H  H94  1  0.25170000  0.37430000  0.53980000  1.0 0.1112132772
H  H95  1  0.62570000  0.74830000  0.03980000  1.0 0.1112132772
H  H96  1  0.74830000  0.62570000  0.46020000  1.0 0.1112132772
H  H97  1  0.48750000  0.21270000  0.12170000  1.0 0.138461745
H  H98  1  0.21270000  0.48750000  0.37830000  1.0 0.138461745
H  H99  1  0.51250000  0.78730000  0.87830000  1.0 0.138461745
H  H100  1  0.78730000  0.51250000  0.62170000  1.0 0.138461745
H  H101  1  0.41950000  0.25050000  0.07440000  1.0 0.1299655916
H  H102  1  0.25050000  0.41950000  0.42560000  1.0 0.1299655916
H  H103  1  0.58050000  0.74950000  0.92560000  1.0 0.1299655916
H  H104  1  0.74950000  0.58050000  0.57440000  1.0 0.1299655916
H  H105  1  0.39640000  0.16060000  0.12520000  1.0 0.1488804485
H  H106  1  0.16060000  0.39640000  0.37480000  1.0 0.1488804485
H  H107  1  0.60360000  0.83940000  0.87480000  1.0 0.1488804485
H  H108  1  0.83940000  0.60360000  0.62520000  1.0 0.1488804485
H  H109  1  0.42400000  0.08680000  0.01980000  1.0 0.1299655916
H  H110  1  0.08680000  0.42400000  0.48020000  1.0 0.1299655916
H  H111  1  0.57600000  0.91320000  0.98020000  1.0 0.1299655916
H  H112  1  0.91320000  0.57600000  0.51980000  1.0 0.1299655916
H  H113  1  0.48410000  0.10670000  0.09170000  1.0 0.138461745
H  H114  1  0.10670000  0.48410000  0.40830000  1.0 0.138461745
H  H115  1  0.51590000  0.89330000  0.90830000  1.0 0.138461745
H  H116  1  0.89330000  0.51590000  0.59170000  1.0 0.138461745
H  H117  1  0.39050000  0.05350000  0.08518000  1.0 0.1299655916
H  H118  1  0.05350000  0.39050000  0.41482000  1.0 0.1299655916
H  H119  1  0.60950000  0.94650000  0.91482000  1.0 0.1299655916
H  H120  1  0.94650000  0.60950000  0.58518000  1.0 0.1299655916
H  H121  1  0.25850000  0.75430000  0.93490000  1.0 0.1012832314
H  H122  1  0.75430000  0.25850000  0.56510000  1.0 0.1012832314
H  H123  1  0.74150000  0.24570000  0.06510000  1.0 0.1012832314
H  H124  1  0.24570000  0.74150000  0.43490000  1.0 0.1012832314
H  H125  1  0.42640000  0.82900000  0.05690000  1.0 0.0512668661
H  H126  1  0.82900000  0.42640000  0.44310000  1.0 0.0512668661
H  H127  1  0.57360000  0.17100000  0.94310000  1.0 0.0512668661
H  H128  1  0.17100000  0.57360000  0.55690000  1.0 0.0512668661
H  H129  1  0.44320000  0.74920000  0.10980000  1.0 0.138461745
H  H130  1  0.74920000  0.44320000  0.39020000  1.0 0.138461745
H  H131  1  0.55680000  0.25080000  0.89020000  1.0 0.138461745
H  H132  1  0.25080000  0.55680000  0.60980000  1.0 0.138461745
H  H133  1  0.46740000  0.79100000  0.03840000  1.0 0.1012832314
H  H134  1  0.79100000  0.46740000  0.46160000  1.0 0.1012832314
H  H135  1  0.53260000  0.20900000  0.96160000  1.0 0.1012832314
H  H136  1  0.20900000  0.53260000  0.53840000  1.0 0.1012832314
H  H137  1  0.29180000  0.69840000  0.09820000  1.0 0.1595016266
H  H138  1  0.69840000  0.29180000  0.40180000  1.0 0.1595016266
H  H139  1  0.70820000  0.30160000  0.90180000  1.0 0.1595016266
H  H140  1  0.30160000  0.70820000  0.59820000  1.0 0.1595016266
H  H141  1  0.22390000  0.66930000  0.03200000  1.0 0.1299655916
H  H142  1  0.66930000  0.22390000  0.46800000  1.0 0.1299655916
H  H143  1  0.77610000  0.33070000  0.96800000  1.0 0.1299655916
H  H144  1  0.33070000  0.77610000  0.53200000  1.0 0.1299655916
H  H145  1  0.27980000  0.61880000  0.08630000  1.0 0.138461745
H  H146  1  0.61880000  0.27980000  0.41370000  1.0 0.138461745
H  H147  1  0.72020000  0.38120000  0.91370000  1.0 0.138461745
H  H148  1  0.38120000  0.72020000  0.58630000  1.0 0.138461745
C  C1  1  0.39978000  0.89490000  0.71108000  1.0 0.5818572308
C  C2  1  0.89490000  0.39978000  0.78892000  1.0 0.5818572308
C  C3  1  0.60022000  0.10510000  0.28892000  1.0 0.5818572308
C  C4  1  0.10510000  0.60022000  0.21108000  1.0 0.5818572308
C  C5  1  0.42670000  0.64470000  0.07530000  1.0 -0.3994900097
C  C6  1  0.64470000  0.42670000  0.42470000  1.0 -0.3994900097
C  C7  1  0.57330000  0.35530000  0.92470000  1.0 -0.3994900097
C  C8  1  0.35530000  0.57330000  0.57530000  1.0 -0.3994900097
C  C9  1  0.46811000  0.95941000  0.67830000  1.0 -0.0111202293
C  C10  1  0.95941000  0.46811000  0.82170000  1.0 -0.0111202293
C  C11  1  0.53189000  0.04059000  0.32170000  1.0 -0.0111202293
C  C12  1  0.04059000  0.53189000  0.17830000  1.0 -0.0111202293
C  C13  1  0.53480000  0.01680000  0.71271000  1.0 -0.1231350012
C  C14  1  0.01680000  0.53480000  0.78729000  1.0 -0.1297450472
C  C15  1  0.46520000  0.98320000  0.28729000  1.0 -0.1231350012
C  C16  1  0.98320000  0.46520000  0.21271000  1.0 -0.1231350012
C  C17  1  0.59543000  0.07773000  0.68009000  1.0 -0.0111202293
C  C18  1  0.07773000  0.59543000  0.81991000  1.0 -0.0111202293
C  C19  1  0.40457000  0.92227000  0.31991000  1.0 -0.0111202293
C  C20  1  0.92227000  0.40457000  0.18009000  1.0 -0.0111202293
C  C21  1  0.59073000  0.08007000  0.61354000  1.0 -0.1694859263
C  C22  1  0.08007000  0.59073000  0.88646000  1.0 -0.1694859263
C  C23  1  0.40927000  0.91993000  0.38646000  1.0 -0.1694859263
C  C24  1  0.91993000  0.40927000  0.11354000  1.0 -0.1694859263
C  C25  1  0.52579000  0.02109000  0.58042000  1.0 0.1488804485
C  C26  1  0.02109000  0.52579000  0.91958000  1.0 0.1488804485
C  C27  1  0.47421000  0.97891000  0.41958000  1.0 0.1488804485
C  C28  1  0.97891000  0.47421000  0.08042000  1.0 0.1488804485
C  C29  1  0.46433000  0.96209000  0.61216000  1.0 -0.1484003623
C  C30  1  0.96209000  0.46433000  0.88784000  1.0 -0.1484003623
C  C31  1  0.53567000  0.03791000  0.38784000  1.0 -0.1484003623
C  C32  1  0.03791000  0.53567000  0.11216000  1.0 -0.1484003623
C  C33  1  0.32198000  0.66912000  0.77596000  1.0 0.5818572308
C  C34  1  0.66912000  0.32198000  0.72404000  1.0 0.5818572308
C  C35  1  0.67802000  0.33088000  0.22404000  1.0 0.5818572308
C  C36  1  0.33088000  0.67802000  0.27596000  1.0 0.5818572308
C  C37  1  0.35399000  0.60077000  0.81114000  1.0 -0.0177613611
C  C38  1  0.60077000  0.35399000  0.68886000  1.0 -0.0177613611
C  C39  1  0.64601000  0.39923000  0.18886000  1.0 -0.0177613611
C  C40  1  0.39923000  0.64601000  0.31114000  1.0 -0.0177613611
C  C41  1  0.40776000  0.59444000  0.87976000  1.0 -0.1762984988
C  C42  1  0.59444000  0.40776000  0.62024000  1.0 -0.1762984988
C  C43  1  0.59224000  0.40556000  0.12024000  1.0 -0.1762984988
C  C44  1  0.40556000  0.59224000  0.37976000  1.0 -0.1762984988
C  C45  1  0.43520000  0.53000000  0.91481000  1.0 0.1595016266
C  C46  1  0.53000000  0.43520000  0.58519000  1.0 0.1595016266
C  C47  1  0.56480000  0.47000000  0.08519000  1.0 0.1595016266
C  C48  1  0.47000000  0.56480000  0.41481000  1.0 0.1595016266
C  C49  1  0.40860000  0.47000000  0.88231000  1.0 -0.1587087249
C  C50  1  0.47000000  0.40860000  0.61769000  1.0 -0.1587087249
C  C51  1  0.59140000  0.53000000  0.11769000  1.0 -0.1587087249
C  C52  1  0.53000000  0.59140000  0.38231000  1.0 -0.1587087249
C  C53  1  0.35559000  0.47569000  0.81438000  1.0 -0.0111202293
C  C54  1  0.47569000  0.35559000  0.68562000  1.0 -0.0111202293
C  C55  1  0.64441000  0.52431000  0.18562000  1.0 -0.0111202293
C  C56  1  0.52431000  0.64441000  0.31438000  1.0 -0.0111202293
C  C57  1  0.32922000  0.54168000  0.77858000  1.0 -0.1297450472
C  C58  1  0.54168000  0.32922000  0.72142000  1.0 -0.1297450472
C  C59  1  0.67078000  0.45832000  0.22142000  1.0 -0.1297450472
C  C60  1  0.45832000  0.67078000  0.27858000  1.0 -0.1297450472
C  C61  1  0.32430000  0.40762000  0.78145000  1.0 0.5818572308
C  C62  1  0.40762000  0.32430000  0.71855000  1.0 0.5818572308
C  C63  1  0.67570000  0.59238000  0.21855000  1.0 0.5818572308
C  C64  1  0.59238000  0.67570000  0.28145000  1.0 0.5818572308
C  C65  1  0.20758000  0.88974000  0.70131000  1.0 0.59622046
C  C66  1  0.88974000  0.20758000  0.79869000  1.0 0.59622046
C  C67  1  0.79242000  0.11026000  0.29869000  1.0 0.59622046
C  C68  1  0.11026000  0.79242000  0.20131000  1.0 0.59622046
C  C69  1  0.17330000  0.95620000  0.67023000  1.0 -0.0111202293
C  C70  1  0.95620000  0.17330000  0.82977000  1.0 -0.0111202293
C  C71  1  0.82670000  0.04380000  0.32977000  1.0 -0.0111202293
C  C72  1  0.04380000  0.82670000  0.17023000  1.0 -0.0111202293
C  C73  1  0.10970000  0.95710000  0.60772000  1.0 -0.1587087249
C  C74  1  0.95710000  0.10970000  0.89228000  1.0 -0.1587087249
C  C75  1  0.89030000  0.04290000  0.39228000  1.0 -0.1587087249
C  C76  1  0.04290000  0.89030000  0.10772000  1.0 -0.1587087249
C  C77  1  0.07947000  0.01993000  0.57830000  1.0 0.1488804485
C  C78  1  0.01993000  0.07947000  0.92170000  1.0 0.1488804485
C  C79  1  0.92053000  0.98007000  0.42170000  1.0 0.1488804485
C  C80  1  0.98007000  0.92053000  0.07830000  1.0 0.1488804485
C  C81  1  0.11410000  0.08210000  0.60991000  1.0 -0.1694859263
C  C82  1  0.08210000  0.11410000  0.89009000  1.0 -0.1694859263
C  C83  1  0.88590000  0.91790000  0.39009000  1.0 -0.1694859263
C  C84  1  0.91790000  0.88590000  0.10991000  1.0 -0.1694859263
C  C85  1  0.17815000  0.08137000  0.67279000  1.0 -0.0177613611
C  C86  1  0.08137000  0.17815000  0.82721000  1.0 -0.0177613611
C  C87  1  0.82185000  0.91863000  0.32721000  1.0 -0.0177613611
C  C88  1  0.91863000  0.82185000  0.17279000  1.0 -0.0177613611
C  C89  1  0.20635000  0.01741000  0.70319000  1.0 -0.1231350012
C  C90  1  0.01741000  0.20635000  0.79681000  1.0 -0.1231350012
C  C91  1  0.79365000  0.98259000  0.29681000  1.0 -0.1231350012
C  C92  1  0.98259000  0.79365000  0.20319000  1.0 -0.1231350012
C  C93  1  0.21662000  0.15040000  0.70540000  1.0 0.5904225374
C  C94  1  0.15040000  0.21662000  0.79460000  1.0 0.5904225374
C  C95  1  0.78338000  0.84960000  0.29460000  1.0 0.5904225374
C  C96  1  0.84960000  0.78338000  0.20540000  1.0 0.5904225374
C  C97  1  0.11640000  0.76980000  0.52990000  1.0 0.1670052598
C  C98  1  0.76980000  0.11640000  0.97010000  1.0 0.1595016266
C  C99  1  0.88360000  0.23020000  0.47010000  1.0 0.1595016266
C  C100  1  0.23020000  0.88360000  0.02990000  1.0 0.1670052598
C  C101  1  0.01800000  0.78500000  0.41490000  1.0 -0.3195337688
C  C102  1  0.78500000  0.01800000  0.08510000  1.0 -0.3195337688
C  C103  1  0.98200000  0.21500000  0.58510000  1.0 -0.3195337688
C  C104  1  0.21500000  0.98200000  0.91490000  1.0 -0.3195337688
C  C105  1  0.14410000  0.77790000  0.43120000  1.0 -0.3485554864
C  C106  1  0.77790000  0.14410000  0.06880000  1.0 -0.3485554864
C  C107  1  0.85590000  0.22210000  0.56880000  1.0 -0.3485554864
C  C108  1  0.22210000  0.85590000  0.93120000  1.0 -0.3485554864
C  C109  1  0.37460000  0.72860000  0.96010000  1.0 0.1488804485
C  C110  1  0.72860000  0.37460000  0.53990000  1.0 0.1488804485
C  C111  1  0.62540000  0.27140000  0.03990000  1.0 0.1488804485
C  C112  1  0.27140000  0.62540000  0.46010000  1.0 0.1488804485
C  C113  1  0.66520000  0.14318000  0.71427000  1.0 0.5904225374
C  C114  1  0.14318000  0.66520000  0.78573000  1.0 0.5904225374
C  C115  1  0.33480000  0.85682000  0.28573000  1.0 0.5904225374
C  C116  1  0.85682000  0.33480000  0.21427000  1.0 0.5904225374
C  C117  1  0.42790000  0.77870000  0.06060000  1.0 -0.27343538
C  C118  1  0.77870000  0.42790000  0.43940000  1.0 -0.27343538
C  C119  1  0.57210000  0.22130000  0.93940000  1.0 -0.27343538
C  C120  1  0.22130000  0.57210000  0.56060000  1.0 -0.27343538
C  C121  1  0.38476000  0.20524000  0.97106000  1.0 0.1299655916
C  C122  1  0.20524000  0.38476000  0.52894000  1.0 0.1299655916
C  C123  1  0.61524000  0.79476000  0.02894000  1.0 0.138461745
C  C124  1  0.79476000  0.61524000  0.47106000  1.0 0.1299655916
C  C125  1  0.43080000  0.20100000  0.09470000  1.0 -0.3313230609
C  C126  1  0.20100000  0.43080000  0.40530000  1.0 -0.3313230609
C  C127  1  0.56920000  0.79900000  0.90530000  1.0 -0.3313230609
C  C128  1  0.79900000  0.56920000  0.59470000  1.0 -0.3313230609
C  C129  1  0.42930000  0.09870000  0.06040000  1.0 -0.3034598862
C  C130  1  0.09870000  0.42930000  0.43960000  1.0 -0.3034598862
C  C131  1  0.57070000  0.90130000  0.93960000  1.0 -0.3034598862
C  C132  1  0.90130000  0.57070000  0.56040000  1.0 -0.3034598862
C  C133  1  0.31260000  0.75720000  0.95450000  1.0 0.0682145112
C  C134  1  0.75720000  0.31260000  0.54550000  1.0 0.0682145112
C  C135  1  0.68740000  0.24280000  0.04550000  1.0 0.0645713623
C  C136  1  0.24280000  0.68740000  0.45450000  1.0 0.0645713623
C  C137  1  0.27820000  0.67300000  0.06310000  1.0 -0.4105058347
C  C138  1  0.67300000  0.27820000  0.43690000  1.0 -0.4105058347
C  C139  1  0.72180000  0.32700000  0.93690000  1.0 -0.4105058347
C  C140  1  0.32700000  0.72180000  0.56310000  1.0 -0.4105058347
N  N1  1  0.52842000  0.02790000  0.51312000  1.0 -0.1362570112
N  N2  1  0.02790000  0.52842000  0.98688000  1.0 -0.1362570112
N  N3  1  0.47158000  0.97210000  0.48688000  1.0 -0.1362570112
N  N4  1  0.97210000  0.47158000  0.01312000  1.0 -0.1362570112
N  N5  1  0.48996000  0.53026000  0.98425000  1.0 -0.1484003623
N  N6  1  0.53026000  0.48996000  0.51575000  1.0 -0.1484003623
N  N7  1  0.51004000  0.46974000  0.01575000  1.0 -0.1484003623
N  N8  1  0.46974000  0.51004000  0.48425000  1.0 -0.1484003623
N  N9  1  0.01319000  0.02607000  0.51490000  1.0 -0.1231350012
N  N10  1  0.02607000  0.01319000  0.98510000  1.0 -0.1231350012
N  N11  1  0.98681000  0.97393000  0.48510000  1.0 -0.1231350012
N  N12  1  0.97393000  0.98681000  0.01490000  1.0 -0.1231350012
N  N13  1  0.09411000  0.77889000  0.46241000  1.0 0.0390166801
N  N14  1  0.77889000  0.09411000  0.03759000  1.0 0.0390166801
N  N15  1  0.90589000  0.22111000  0.53759000  1.0 0.0390166801
N  N16  1  0.22111000  0.90589000  0.96241000  1.0 0.0390166801
N  N17  1  0.40926000  0.71914000  0.03066000  1.0 0.0512668661
N  N18  1  0.71914000  0.40926000  0.46934000  1.0 0.0512668661
N  N19  1  0.59074000  0.28086000  0.96934000  1.0 0.0512668661
N  N20  1  0.28086000  0.59074000  0.53066000  1.0 0.0512668661
N  N21  1  0.41380000  0.16960000  0.03820000  1.0 0.0090215171
N  N22  1  0.16960000  0.41380000  0.46180000  1.0 0.0090215171
N  N23  1  0.58620000  0.83040000  0.96180000  1.0 0.0090215171
N  N24  1  0.83040000  0.58620000  0.53820000  1.0 0.0090215171
N  N25  1  0.33790000  0.72290000  0.02110000  1.0 0.1488804485
N  N26  1  0.72290000  0.33790000  0.47890000  1.0 0.1488804485
N  N27  1  0.66210000  0.27710000  0.97890000  1.0 0.1488804485
N  N28  1  0.27710000  0.66210000  0.52110000  1.0 0.1488804485
O  O1  1  0.33761000  0.85387000  0.67205000  1.0 -0.5616537814
O  O2  1  0.85387000  0.33761000  0.82795000  1.0 -0.5616537814
O  O3  1  0.66239000  0.14613000  0.32795000  1.0 -0.5616537814
O  O4  1  0.14613000  0.66239000  0.17205000  1.0 -0.5616537814
O  O5  1  0.40973000  0.88747000  0.77466000  1.0 -0.5465714221
O  O6  1  0.88747000  0.40973000  0.72534000  1.0 -0.5465714221
O  O7  1  0.59027000  0.11253000  0.22534000  1.0 -0.5465714221
O  O8  1  0.11253000  0.59027000  0.27466000  1.0 -0.5465714221
O  O9  1  0.27908000  0.67750000  0.71239000  1.0 -0.54179935
O  O10  1  0.67750000  0.27908000  0.78761000  1.0 -0.54179935
O  O11  1  0.72092000  0.32250000  0.28761000  1.0 -0.54179935
O  O12  1  0.32250000  0.72092000  0.21239000  1.0 -0.54179935
O  O13  1  0.34014000  0.71232000  0.81444000  1.0 -0.5891301667
O  O14  1  0.71232000  0.34014000  0.68556000  1.0 -0.5891301667
O  O15  1  0.65986000  0.28768000  0.18556000  1.0 -0.5891301667
O  O16  1  0.28768000  0.65986000  0.31444000  1.0 -0.5891301667
O  O17  1  0.18338000  0.84362000  0.66387000  1.0 -0.5616537814
O  O18  1  0.84362000  0.18338000  0.83613000  1.0 -0.5616537814
O  O19  1  0.81662000  0.15638000  0.33613000  1.0 -0.5616537814
O  O20  1  0.15638000  0.81662000  0.16387000  1.0 -0.5616537814
O  O21  1  0.25905000  0.88661000  0.76211000  1.0 -0.5465714221
O  O22  1  0.88661000  0.25905000  0.73789000  1.0 -0.5465714221
O  O23  1  0.74095000  0.11339000  0.23789000  1.0 -0.5465714221
O  O24  1  0.11339000  0.74095000  0.26211000  1.0 -0.5465714221
O  O25  1  0.66998000  0.13784000  0.77541000  1.0 -0.54179935
O  O26  1  0.13784000  0.66998000  0.72459000  1.0 -0.54179935
O  O27  1  0.33002000  0.86216000  0.22459000  1.0 -0.54179935
O  O28  1  0.86216000  0.33002000  0.27541000  1.0 -0.54179935
O  O29  1  0.71302000  0.19934000  0.67779000  1.0 -0.5809216608
O  O30  1  0.19934000  0.71302000  0.82221000  1.0 -0.5809216608
O  O31  1  0.28698000  0.80066000  0.32221000  1.0 -0.5809216608
O  O32  1  0.80066000  0.28698000  0.17779000  1.0 -0.5809216608
O  O33  1  0.17823000  0.75935000  0.57308000  1.0 -0.4206999128
O  O34  1  0.75935000  0.17823000  0.92692000  1.0 -0.4206999128
O  O35  1  0.82177000  0.24065000  0.42692000  1.0 -0.4206999128
O  O36  1  0.24065000  0.82177000  0.07308000  1.0 -0.4206999128
O  O37  1  0.35952000  0.79458000  0.91534000  1.0 -0.27343538
O  O38  1  0.79458000  0.35952000  0.58466000  1.0 -0.27343538
O  O39  1  0.64048000  0.20542000  0.08466000  1.0 -0.27343538
O  O40  1  0.20542000  0.64048000  0.41534000  1.0 -0.27343538
O  O41  1  0.28338000  0.41958000  0.71706000  1.0 -0.54179935
O  O42  1  0.41958000  0.28338000  0.78294000  1.0 -0.54179935
O  O43  1  0.71662000  0.58042000  0.28294000  1.0 -0.54179935
O  O44  1  0.58042000  0.71662000  0.21706000  1.0 -0.54179935
O  O45  1  0.34076000  0.34482000  0.82126000  1.0 -0.5809216608
O  O46  1  0.34482000  0.34076000  0.67874000  1.0 -0.5809216608
O  O47  1  0.65924000  0.65518000  0.17874000  1.0 -0.5809216608
O  O48  1  0.65518000  0.65924000  0.32126000  1.0 -0.5809216608
O  O49  1  0.18988000  0.20794000  0.67072000  1.0 -0.5660799776
O  O50  1  0.20794000  0.18988000  0.82928000  1.0 -0.5660799776
O  O51  1  0.81012000  0.79206000  0.32928000  1.0 -0.5660799776
O  O52  1  0.79206000  0.81012000  0.17072000  1.0 -0.5660799776
O  O53  1  0.27219000  0.14643000  0.76345000  1.0 -0.5465714221
O  O54  1  0.14643000  0.27219000  0.73655000  1.0 -0.5465714221
O  O55  1  0.72781000  0.85357000  0.23655000  1.0 -0.5465714221
O  O56  1  0.85357000  0.72781000  0.26345000  1.0 -0.5465714221
O  O57  1  0.37022000  0.18078000  0.92056000  1.0 -0.4467697774
O  O58  1  0.18078000  0.37022000  0.57944000  1.0 -0.4467697774
O  O59  1  0.62978000  0.81922000  0.07944000  1.0 -0.4467697774
O  O60  1  0.81922000  0.62978000  0.42056000  1.0 -0.4467697774
