# DDEC6 charges by PACMAN v1.1 (https://github.com/mtap-research/PACMAN-charge/)
data_DUDKEU_FSR_pacman
_symmetry_space_group_name_H-M   'P 1'
_cell_length_a   13.36840000
_cell_length_b   15.91030000
_cell_length_c   24.27840000
_cell_angle_alpha   90.00000000
_cell_angle_beta   90.00000000
_cell_angle_gamma   90.00000000
_symmetry_Int_Tables_number   1
_chemical_formula_structural   Co6H25C37(N2O15)2
_chemical_formula_sum   'Co24 H100 C148 N16 O120'
_cell_volume   5163.90046734
_cell_formula_units_Z   4
loop_
 _symmetry_equiv_pos_site_id
 _symmetry_equiv_pos_as_xyz
  1  'x, y, z'
loop_
 _atom_site_type_symbol
 _atom_site_label
 _atom_site_symmetry_multiplicity
 _atom_site_fract_x
 _atom_site_fract_y
 _atom_site_fract_z
 _atom_site_occupancy
 _atom_site_charge
Co  Co1  1  0.35477000  0.38927000  0.55092000  1.0 0.946871642
Co  Co2  1  0.64523000  0.38927000  0.94908000  1.0 0.946871642
Co  Co3  1  0.14523000  0.11073000  0.55092000  1.0 0.946871642
Co  Co4  1  0.85477000  0.11073000  0.94908000  1.0 0.946871642
Co  Co5  1  0.64523000  0.61073000  0.44908000  1.0 0.946871642
Co  Co6  1  0.35477000  0.61073000  0.05092000  1.0 0.946871642
Co  Co7  1  0.85477000  0.88927000  0.44908000  1.0 0.946871642
Co  Co8  1  0.14523000  0.88927000  0.05092000  1.0 0.946871642
Co  Co9  1  0.06075000  0.61349000  0.38720000  1.0 0.9916454143
Co  Co10  1  0.93925000  0.61349000  0.11280000  1.0 0.9916454143
Co  Co11  1  0.43925000  0.88651000  0.38720000  1.0 0.9916454143
Co  Co12  1  0.56075000  0.88651000  0.11280000  1.0 0.9916454143
Co  Co13  1  0.93925000  0.38651000  0.61280000  1.0 0.9916454143
Co  Co14  1  0.06075000  0.38651000  0.88720000  1.0 0.9916454143
Co  Co15  1  0.56075000  0.11349000  0.61280000  1.0 0.9916454143
Co  Co16  1  0.43925000  0.11349000  0.88720000  1.0 0.9916454143
Co  Co17  1  0.24586000  0.50505000  0.46217000  1.0 1.0357057489
Co  Co18  1  0.75414000  0.50505000  0.03783000  1.0 1.0357057489
Co  Co19  1  0.25414000  0.99495000  0.46217000  1.0 1.0345228351
Co  Co20  1  0.74586000  0.99495000  0.03783000  1.0 1.0345228351
Co  Co21  1  0.75414000  0.49495000  0.53783000  1.0 1.0357057489
Co  Co22  1  0.24586000  0.49495000  0.96217000  1.0 1.0357057489
Co  Co23  1  0.74586000  0.00505000  0.53783000  1.0 1.0357057489
Co  Co24  1  0.25414000  0.00505000  0.96217000  1.0 1.0357057489
H  H1  1  0.12160000  0.82780000  0.50100000  1.0 0.1314965961
H  H2  1  0.87840000  0.82780000  0.99900000  1.0 0.1314965961
H  H3  1  0.37840000  0.67220000  0.50100000  1.0 0.1314965961
H  H4  1  0.62160000  0.67220000  0.99900000  1.0 0.1314965961
H  H5  1  0.87840000  0.17220000  0.49900000  1.0 0.1314965961
H  H6  1  0.12160000  0.17220000  0.00100000  1.0 0.1314965961
H  H7  1  0.62160000  0.32780000  0.49900000  1.0 0.1314965961
H  H8  1  0.37840000  0.32780000  0.00100000  1.0 0.1314965961
H  H9  1  0.06400000  0.44220000  0.51860000  1.0 0.1079626552
H  H10  1  0.93600000  0.44220000  0.98140000  1.0 0.1079626552
H  H11  1  0.43600000  0.05780000  0.51860000  1.0 0.1079626552
H  H12  1  0.56400000  0.05780000  0.98140000  1.0 0.1079626552
H  H13  1  0.93600000  0.55780000  0.48140000  1.0 0.1079626552
H  H14  1  0.06400000  0.55780000  0.01860000  1.0 0.1079626552
H  H15  1  0.56400000  0.94220000  0.48140000  1.0 0.1079626552
H  H16  1  0.43600000  0.94220000  0.01860000  1.0 0.1079626552
H  H17  1  0.25000000  0.25000000  0.54580000  1.0 0.1150142885
H  H18  1  0.75000000  0.25000000  0.95420000  1.0 0.1079626552
H  H19  1  0.75000000  0.75000000  0.45420000  1.0 0.1079626552
H  H20  1  0.25000000  0.75000000  0.04580000  1.0 0.1150142885
H  H21  1  0.49270000  0.33010000  0.60870000  1.0 0.3530907183
H  H22  1  0.50730000  0.33010000  0.89130000  1.0 0.3530907183
H  H23  1  0.00730000  0.16990000  0.60870000  1.0 0.3530907183
H  H24  1  0.99270000  0.16990000  0.89130000  1.0 0.3530907183
H  H25  1  0.50730000  0.66990000  0.39130000  1.0 0.3530907183
H  H26  1  0.49270000  0.66990000  0.10870000  1.0 0.3530907183
H  H27  1  0.99270000  0.83010000  0.39130000  1.0 0.3530907183
H  H28  1  0.00730000  0.83010000  0.10870000  1.0 0.3530907183
H  H29  1  0.53490000  0.39490000  0.57790000  1.0 0.3753513432
H  H30  1  0.46510000  0.39490000  0.92210000  1.0 0.3746105767
H  H31  1  0.96510000  0.10510000  0.57790000  1.0 0.3746105767
H  H32  1  0.03490000  0.10510000  0.92210000  1.0 0.3746105767
H  H33  1  0.46510000  0.60510000  0.42210000  1.0 0.3753513432
H  H34  1  0.53490000  0.60510000  0.07790000  1.0 0.3753513432
H  H35  1  0.03490000  0.89490000  0.42210000  1.0 0.3753513432
H  H36  1  0.96510000  0.89490000  0.07790000  1.0 0.3753513432
H  H37  1  0.14350000  0.85780000  0.82490000  1.0 0.1386162144
H  H38  1  0.85650000  0.85780000  0.67510000  1.0 0.1386162144
H  H39  1  0.35650000  0.64220000  0.82490000  1.0 0.1386162144
H  H40  1  0.64350000  0.64220000  0.67510000  1.0 0.1386162144
H  H41  1  0.85650000  0.14220000  0.17510000  1.0 0.1386162144
H  H42  1  0.14350000  0.14220000  0.32490000  1.0 0.1386162144
H  H43  1  0.64350000  0.35780000  0.17510000  1.0 0.1386162144
H  H44  1  0.35650000  0.35780000  0.32490000  1.0 0.1386162144
H  H45  1  0.09430000  0.61980000  0.77660000  1.0 0.1314965961
H  H46  1  0.90570000  0.61980000  0.72340000  1.0 0.1314965961
H  H47  1  0.40570000  0.88020000  0.77660000  1.0 0.1314965961
H  H48  1  0.59430000  0.88020000  0.72340000  1.0 0.1314965961
H  H49  1  0.90570000  0.38020000  0.22340000  1.0 0.1314965961
H  H50  1  0.09430000  0.38020000  0.27660000  1.0 0.1314965961
H  H51  1  0.59430000  0.11980000  0.22340000  1.0 0.1314965961
H  H52  1  0.40570000  0.11980000  0.27660000  1.0 0.1314965961
H  H53  1  0.11690000  0.67480000  0.93800000  1.0 0.1314965961
H  H54  1  0.88310000  0.67480000  0.56200000  1.0 0.1314965961
H  H55  1  0.38310000  0.82520000  0.93800000  1.0 0.1314965961
H  H56  1  0.61690000  0.82520000  0.56200000  1.0 0.1314965961
H  H57  1  0.88310000  0.32520000  0.06200000  1.0 0.1314965961
H  H58  1  0.11690000  0.32520000  0.43800000  1.0 0.1314965961
H  H59  1  0.61690000  0.17480000  0.06200000  1.0 0.1314965961
H  H60  1  0.38310000  0.17480000  0.43800000  1.0 0.1314965961
H  H61  1  0.11950000  0.87800000  0.66300000  1.0 0.1314965961
H  H62  1  0.88050000  0.87800000  0.83700000  1.0 0.1314965961
H  H63  1  0.38050000  0.62200000  0.66300000  1.0 0.1314965961
H  H64  1  0.61950000  0.62200000  0.83700000  1.0 0.1314965961
H  H65  1  0.88050000  0.12200000  0.33700000  1.0 0.1314965961
H  H66  1  0.11950000  0.12200000  0.16300000  1.0 0.1314965961
H  H67  1  0.61950000  0.37800000  0.33700000  1.0 0.1314965961
H  H68  1  0.38050000  0.37800000  0.16300000  1.0 0.1314965961
H  H69  1  0.13080000  0.63840000  0.61030000  1.0 0.1386162144
H  H70  1  0.86920000  0.63840000  0.88970000  1.0 0.1386162144
H  H71  1  0.36920000  0.86160000  0.61030000  1.0 0.1386162144
H  H72  1  0.63080000  0.86160000  0.88970000  1.0 0.1386162144
H  H73  1  0.86920000  0.36160000  0.38970000  1.0 0.1386162144
H  H74  1  0.13080000  0.36160000  0.11030000  1.0 0.1386162144
H  H75  1  0.63080000  0.13840000  0.38970000  1.0 0.1386162144
H  H76  1  0.36920000  0.13840000  0.11030000  1.0 0.1386162144
H  H77  1  0.93230000  0.72160000  0.34550000  1.0 0.4153764881
H  H78  1  0.06770000  0.72160000  0.15450000  1.0 0.4153764881
H  H79  1  0.56770000  0.77840000  0.34550000  1.0 0.4153764881
H  H80  1  0.43230000  0.77840000  0.15450000  1.0 0.4153764881
H  H81  1  0.06770000  0.27840000  0.65450000  1.0 0.4153764881
H  H82  1  0.93230000  0.27840000  0.84550000  1.0 0.4153764881
H  H83  1  0.43230000  0.22160000  0.65450000  1.0 0.4153764881
H  H84  1  0.56770000  0.22160000  0.84550000  1.0 0.4153764881
H  H85  1  0.00950000  0.70430000  0.30100000  1.0 0.4051421321
H  H86  1  0.99050000  0.70430000  0.19900000  1.0 0.404804591
H  H87  1  0.49050000  0.79570000  0.30100000  1.0 0.4051421321
H  H88  1  0.50950000  0.79570000  0.19900000  1.0 0.4051421321
H  H89  1  0.99050000  0.29570000  0.69900000  1.0 0.4051421321
H  H90  1  0.00950000  0.29570000  0.80100000  1.0 0.4051421321
H  H91  1  0.50950000  0.20430000  0.69900000  1.0 0.404804591
H  H92  1  0.49050000  0.20430000  0.80100000  1.0 0.404804591
H  H93  1  0.33130000  0.67200000  0.35710000  1.0 0.1010191934
H  H94  1  0.66870000  0.67200000  0.14290000  1.0 0.1010191934
H  H95  1  0.16870000  0.82800000  0.35710000  1.0 0.1010191934
H  H96  1  0.83130000  0.82800000  0.14290000  1.0 0.1010191934
H  H97  1  0.66870000  0.32800000  0.64290000  1.0 0.1010191934
H  H98  1  0.33130000  0.32800000  0.85710000  1.0 0.1010191934
H  H99  1  0.83130000  0.17200000  0.64290000  1.0 0.1010191934
H  H100  1  0.16870000  0.17200000  0.85710000  1.0 0.1010191934
C  C1  1  0.12170000  0.74310000  0.79210000  1.0 0.1531450133
C  C2  1  0.87830000  0.74310000  0.70790000  1.0 0.1531450133
C  C3  1  0.37830000  0.75690000  0.79210000  1.0 0.1531450133
C  C4  1  0.62170000  0.75690000  0.70790000  1.0 0.1531450133
C  C5  1  0.87830000  0.25690000  0.20790000  1.0 0.1531450133
C  C6  1  0.12170000  0.25690000  0.29210000  1.0 0.1531450133
C  C7  1  0.62170000  0.24310000  0.20790000  1.0 0.1531450133
C  C8  1  0.37830000  0.24310000  0.29210000  1.0 0.1531450133
C  C9  1  0.12280000  0.80880000  0.53730000  1.0 -0.1002381985
C  C10  1  0.87720000  0.80880000  0.96270000  1.0 -0.1002381985
C  C11  1  0.37720000  0.69120000  0.53730000  1.0 -0.1002381985
C  C12  1  0.62280000  0.69120000  0.96270000  1.0 -0.1002381985
C  C13  1  0.87720000  0.19120000  0.46270000  1.0 -0.1002381985
C  C14  1  0.12280000  0.19120000  0.03730000  1.0 -0.1002381985
C  C15  1  0.62280000  0.30880000  0.46270000  1.0 -0.1002381985
C  C16  1  0.37720000  0.30880000  0.03730000  1.0 -0.1002381985
C  C17  1  0.08860000  0.54160000  0.87080000  1.0 0.5705809034
C  C18  1  0.91140000  0.54160000  0.62920000  1.0 0.5705809034
C  C19  1  0.41140000  0.95840000  0.87080000  1.0 0.5705809034
C  C20  1  0.58860000  0.95840000  0.62920000  1.0 0.5705809034
C  C21  1  0.91140000  0.45840000  0.12920000  1.0 0.5705809034
C  C22  1  0.08860000  0.45840000  0.37080000  1.0 0.5705809034
C  C23  1  0.58860000  0.04160000  0.12920000  1.0 0.5705809034
C  C24  1  0.41140000  0.04160000  0.37080000  1.0 0.5705809034
C  C25  1  0.11400000  0.42350000  0.54220000  1.0 0.5322194881
C  C26  1  0.88600000  0.42350000  0.95780000  1.0 0.5322194881
C  C27  1  0.38600000  0.07650000  0.54220000  1.0 0.5322194881
C  C28  1  0.61400000  0.07650000  0.95780000  1.0 0.5322194881
C  C29  1  0.88600000  0.57650000  0.45780000  1.0 0.5322194881
C  C30  1  0.11400000  0.57650000  0.04220000  1.0 0.5322194881
C  C31  1  0.61400000  0.92350000  0.45780000  1.0 0.5322194881
C  C32  1  0.38600000  0.92350000  0.04220000  1.0 0.5322194881
C  C33  1  0.25000000  0.25000000  0.58410000  1.0 0.497170144
C  C34  1  0.75000000  0.25000000  0.91590000  1.0 0.497170144
C  C35  1  0.75000000  0.75000000  0.41590000  1.0 0.497170144
C  C36  1  0.25000000  0.75000000  0.08410000  1.0 0.497170144
C  C37  1  0.12460000  0.75330000  0.64560000  1.0 0.1531450133
C  C38  1  0.87540000  0.75330000  0.85440000  1.0 0.1531450133
C  C39  1  0.37540000  0.74670000  0.64560000  1.0 0.1531450133
C  C40  1  0.62460000  0.74670000  0.85440000  1.0 0.1531450133
C  C41  1  0.87540000  0.24670000  0.35440000  1.0 0.1531450133
C  C42  1  0.12460000  0.24670000  0.14560000  1.0 0.1531450133
C  C43  1  0.62460000  0.25330000  0.35440000  1.0 0.1531450133
C  C44  1  0.37540000  0.25330000  0.14560000  1.0 0.1531450133
C  C45  1  0.13430000  0.80150000  0.83370000  1.0 -0.1594115933
C  C46  1  0.86570000  0.80150000  0.66630000  1.0 -0.1594115933
C  C47  1  0.36570000  0.69850000  0.83370000  1.0 -0.1594115933
C  C48  1  0.63430000  0.69850000  0.66630000  1.0 -0.1594115933
C  C49  1  0.86570000  0.19850000  0.16630000  1.0 -0.1594115933
C  C50  1  0.13430000  0.19850000  0.33370000  1.0 -0.1594115933
C  C51  1  0.63430000  0.30150000  0.16630000  1.0 -0.1594115933
C  C52  1  0.36570000  0.30150000  0.33370000  1.0 -0.1594115933
C  C53  1  0.13310000  0.77640000  0.88890000  1.0 -0.0148369028
C  C54  1  0.86690000  0.77640000  0.61110000  1.0 -0.0148369028
C  C55  1  0.36690000  0.72360000  0.88890000  1.0 -0.0148369028
C  C56  1  0.63310000  0.72360000  0.61110000  1.0 -0.0148369028
C  C57  1  0.86690000  0.22360000  0.11110000  1.0 -0.0148369028
C  C58  1  0.13310000  0.22360000  0.38890000  1.0 -0.0148369028
C  C59  1  0.63310000  0.27640000  0.11110000  1.0 -0.0148369028
C  C60  1  0.36690000  0.27640000  0.38890000  1.0 -0.0148369028
C  C61  1  0.10530000  0.65860000  0.80460000  1.0 -0.1652047001
C  C62  1  0.89470000  0.65860000  0.69540000  1.0 -0.1594115933
C  C63  1  0.39470000  0.84140000  0.80460000  1.0 -0.1594115933
C  C64  1  0.60530000  0.84140000  0.69540000  1.0 -0.1594115933
C  C65  1  0.89470000  0.34140000  0.19540000  1.0 -0.1652047001
C  C66  1  0.10530000  0.34140000  0.30460000  1.0 -0.1652047001
C  C67  1  0.60530000  0.15860000  0.19540000  1.0 -0.1652047001
C  C68  1  0.39470000  0.15860000  0.30460000  1.0 -0.1594115933
C  C69  1  0.11830000  0.69210000  0.90140000  1.0 -0.1225677469
C  C70  1  0.88170000  0.69210000  0.59860000  1.0 -0.1225677469
C  C71  1  0.38170000  0.80790000  0.90140000  1.0 -0.1225677469
C  C72  1  0.61830000  0.80790000  0.59860000  1.0 -0.1225677469
C  C73  1  0.88170000  0.30790000  0.09860000  1.0 -0.1225677469
C  C74  1  0.11830000  0.30790000  0.40140000  1.0 -0.1225677469
C  C75  1  0.61830000  0.19210000  0.09860000  1.0 -0.1225677469
C  C76  1  0.38170000  0.19210000  0.40140000  1.0 -0.1225677469
C  C77  1  0.10550000  0.63320000  0.85950000  1.0 0.0017726864
C  C78  1  0.89450000  0.63320000  0.64050000  1.0 0.0017726864
C  C79  1  0.39450000  0.86680000  0.85950000  1.0 0.0017726864
C  C80  1  0.60550000  0.86680000  0.64050000  1.0 0.0017726864
C  C81  1  0.89450000  0.36680000  0.14050000  1.0 0.0017726864
C  C82  1  0.10550000  0.36680000  0.35950000  1.0 0.0017726864
C  C83  1  0.60550000  0.13320000  0.14050000  1.0 0.0017726864
C  C84  1  0.39450000  0.13320000  0.35950000  1.0 0.0017726864
C  C85  1  0.12460000  0.72340000  0.54790000  1.0 -0.0171005447
C  C86  1  0.87540000  0.72340000  0.95210000  1.0 -0.0171005447
C  C87  1  0.37540000  0.77660000  0.54790000  1.0 -0.0171005447
C  C88  1  0.62460000  0.77660000  0.95210000  1.0 -0.0171005447
C  C89  1  0.87540000  0.27660000  0.45210000  1.0 -0.0171005447
C  C90  1  0.12460000  0.27660000  0.04790000  1.0 -0.0171005447
C  C91  1  0.62460000  0.22340000  0.45210000  1.0 -0.0171005447
C  C92  1  0.37540000  0.22340000  0.04790000  1.0 -0.0171005447
C  C93  1  0.12190000  0.83920000  0.63430000  1.0 -0.1594115933
C  C94  1  0.87810000  0.83920000  0.86570000  1.0 -0.1594115933
C  C95  1  0.37810000  0.66080000  0.63430000  1.0 -0.1594115933
C  C96  1  0.62190000  0.66080000  0.86570000  1.0 -0.1594115933
C  C97  1  0.87810000  0.16080000  0.36570000  1.0 -0.1594115933
C  C98  1  0.12190000  0.16080000  0.13430000  1.0 -0.1594115933
C  C99  1  0.62190000  0.33920000  0.36570000  1.0 -0.1594115933
C  C100  1  0.37810000  0.33920000  0.13430000  1.0 -0.1594115933
C  C101  1  0.12900000  0.95810000  0.56840000  1.0 0.5705809034
C  C102  1  0.87100000  0.95810000  0.93160000  1.0 0.5705809034
C  C103  1  0.37100000  0.54190000  0.56840000  1.0 0.5705809034
C  C104  1  0.62900000  0.54190000  0.93160000  1.0 0.5705809034
C  C105  1  0.87100000  0.04190000  0.43160000  1.0 0.5705809034
C  C106  1  0.12900000  0.04190000  0.06840000  1.0 0.5705809034
C  C107  1  0.62900000  0.45810000  0.43160000  1.0 0.5705809034
C  C108  1  0.37100000  0.45810000  0.06840000  1.0 0.5705809034
C  C109  1  0.12720000  0.69560000  0.60270000  1.0 -0.1594115933
C  C110  1  0.87280000  0.69560000  0.89730000  1.0 -0.1594115933
C  C111  1  0.37280000  0.80440000  0.60270000  1.0 -0.1594115933
C  C112  1  0.62720000  0.80440000  0.89730000  1.0 -0.1594115933
C  C113  1  0.87280000  0.30440000  0.39730000  1.0 -0.1594115933
C  C114  1  0.12720000  0.30440000  0.10270000  1.0 -0.1594115933
C  C115  1  0.62720000  0.19560000  0.39730000  1.0 -0.1594115933
C  C116  1  0.37280000  0.19560000  0.10270000  1.0 -0.1594115933
C  C117  1  0.12280000  0.86640000  0.58020000  1.0 0.0017726864
C  C118  1  0.87720000  0.86640000  0.91980000  1.0 0.0017726864
C  C119  1  0.37720000  0.63360000  0.58020000  1.0 0.0017726864
C  C120  1  0.62280000  0.63360000  0.91980000  1.0 0.0017726864
C  C121  1  0.87720000  0.13360000  0.41980000  1.0 0.0017726864
C  C122  1  0.12280000  0.13360000  0.08020000  1.0 0.0017726864
C  C123  1  0.62280000  0.36640000  0.41980000  1.0 0.0017726864
C  C124  1  0.37720000  0.36640000  0.08020000  1.0 0.0017726864
C  C125  1  0.14960000  0.84030000  0.93380000  1.0 0.5877814292
C  C126  1  0.85040000  0.84030000  0.56620000  1.0 0.5877814292
C  C127  1  0.35040000  0.65970000  0.93380000  1.0 0.5877814292
C  C128  1  0.64960000  0.65970000  0.56620000  1.0 0.5877814292
C  C129  1  0.85040000  0.15970000  0.06620000  1.0 0.5877814292
C  C130  1  0.14960000  0.15970000  0.43380000  1.0 0.5877814292
C  C131  1  0.64960000  0.34030000  0.06620000  1.0 0.5877814292
C  C132  1  0.35040000  0.34030000  0.43380000  1.0 0.5877814292
C  C133  1  0.12830000  0.66220000  0.50080000  1.0 0.5877814292
C  C134  1  0.87170000  0.66220000  0.99920000  1.0 0.5877814292
C  C135  1  0.37170000  0.83780000  0.50080000  1.0 0.5877814292
C  C136  1  0.62830000  0.83780000  0.99920000  1.0 0.5877814292
C  C137  1  0.87170000  0.33780000  0.49920000  1.0 0.5877814292
C  C138  1  0.12830000  0.33780000  0.00080000  1.0 0.5877814292
C  C139  1  0.62830000  0.16220000  0.49920000  1.0 0.5877814292
C  C140  1  0.37170000  0.16220000  0.00080000  1.0 0.5877814292
C  C141  1  0.28300000  0.63830000  0.37360000  1.0 0.497170144
C  C142  1  0.71700000  0.63830000  0.12640000  1.0 0.497170144
C  C143  1  0.21700000  0.86170000  0.37360000  1.0 0.497170144
C  C144  1  0.78300000  0.86170000  0.12640000  1.0 0.497170144
C  C145  1  0.71700000  0.36170000  0.62640000  1.0 0.497170144
C  C146  1  0.28300000  0.36170000  0.87360000  1.0 0.497170144
C  C147  1  0.78300000  0.13830000  0.62640000  1.0 0.497170144
C  C148  1  0.21700000  0.13830000  0.87360000  1.0 0.497170144
N  N1  1  0.12350000  0.77520000  0.73736000  1.0 -0.1225677469
N  N2  1  0.87650000  0.77520000  0.76264000  1.0 -0.1225677469
N  N3  1  0.37650000  0.72480000  0.73736000  1.0 -0.1225677469
N  N4  1  0.62350000  0.72480000  0.76264000  1.0 -0.1225677469
N  N5  1  0.87650000  0.22480000  0.26264000  1.0 -0.1225677469
N  N6  1  0.12350000  0.22480000  0.23736000  1.0 -0.1225677469
N  N7  1  0.62350000  0.27520000  0.26264000  1.0 -0.1225677469
N  N8  1  0.37650000  0.27520000  0.23736000  1.0 -0.1225677469
N  N9  1  0.12590000  0.72010000  0.70026000  1.0 -0.113635067
N  N10  1  0.87410000  0.72010000  0.79974000  1.0 -0.113635067
N  N11  1  0.37410000  0.77990000  0.70026000  1.0 -0.113635067
N  N12  1  0.62590000  0.77990000  0.79974000  1.0 -0.113635067
N  N13  1  0.87410000  0.27990000  0.29974000  1.0 -0.113635067
N  N14  1  0.12590000  0.27990000  0.20026000  1.0 -0.113635067
N  N15  1  0.62590000  0.22010000  0.29974000  1.0 -0.113635067
N  N16  1  0.37410000  0.22010000  0.20026000  1.0 -0.113635067
O  O1  1  0.17930000  0.91230000  0.91919000  1.0 -0.5596234532
O  O2  1  0.82070000  0.91230000  0.58081000  1.0 -0.5596234532
O  O3  1  0.32070000  0.58770000  0.91919000  1.0 -0.5596234532
O  O4  1  0.67930000  0.58770000  0.58081000  1.0 -0.5596234532
O  O5  1  0.82070000  0.08770000  0.08081000  1.0 -0.5596234532
O  O6  1  0.17930000  0.08770000  0.41919000  1.0 -0.5596234532
O  O7  1  0.67930000  0.41230000  0.08081000  1.0 -0.5651025139
O  O8  1  0.32070000  0.41230000  0.41919000  1.0 -0.5596234532
O  O9  1  0.05190000  0.49560000  0.83465000  1.0 -0.5048709475
O  O10  1  0.94810000  0.49560000  0.66535000  1.0 -0.5048709475
O  O11  1  0.44810000  0.00440000  0.83465000  1.0 -0.5048709475
O  O12  1  0.55190000  0.00440000  0.66535000  1.0 -0.5048709475
O  O13  1  0.94810000  0.50440000  0.16535000  1.0 -0.5081383604
O  O14  1  0.05190000  0.50440000  0.33465000  1.0 -0.5048709475
O  O15  1  0.55190000  0.99560000  0.16535000  1.0 -0.5048709475
O  O16  1  0.44810000  0.99560000  0.33465000  1.0 -0.5048709475
O  O17  1  0.16970000  0.59270000  0.50969000  1.0 -0.578520801
O  O18  1  0.83030000  0.59270000  0.99031000  1.0 -0.578520801
O  O19  1  0.33030000  0.90730000  0.50969000  1.0 -0.578520801
O  O20  1  0.66970000  0.90730000  0.99031000  1.0 -0.578520801
O  O21  1  0.83030000  0.40730000  0.49031000  1.0 -0.578520801
O  O22  1  0.16970000  0.40730000  0.00969000  1.0 -0.578520801
O  O23  1  0.66970000  0.09270000  0.49031000  1.0 -0.578520801
O  O24  1  0.33030000  0.09270000  0.00969000  1.0 -0.578520801
O  O25  1  0.11030000  0.51060000  0.91794000  1.0 -0.6233086475
O  O26  1  0.88970000  0.51060000  0.58206000  1.0 -0.6233086475
O  O27  1  0.38970000  0.98940000  0.91794000  1.0 -0.6233086475
O  O28  1  0.61030000  0.98940000  0.58206000  1.0 -0.6233086475
O  O29  1  0.88970000  0.48940000  0.08206000  1.0 -0.6233086475
O  O30  1  0.11030000  0.48940000  0.41794000  1.0 -0.6233086475
O  O31  1  0.61030000  0.01060000  0.08206000  1.0 -0.6233086475
O  O32  1  0.38970000  0.01060000  0.41794000  1.0 -0.6233086475
O  O33  1  0.30120000  0.30510000  0.60647000  1.0 -0.4647574686
O  O34  1  0.69880000  0.30510000  0.89353000  1.0 -0.4653194212
O  O35  1  0.19880000  0.19490000  0.60647000  1.0 -0.4647574686
O  O36  1  0.80120000  0.19490000  0.89353000  1.0 -0.4653194212
O  O37  1  0.69880000  0.69490000  0.39353000  1.0 -0.4647574686
O  O38  1  0.30120000  0.69490000  0.10647000  1.0 -0.4647574686
O  O39  1  0.80120000  0.80510000  0.39353000  1.0 -0.4653194212
O  O40  1  0.19880000  0.80510000  0.10647000  1.0 -0.4647574686
O  O41  1  0.31260000  0.59360000  0.41334000  1.0 -0.5081383604
O  O42  1  0.68740000  0.59360000  0.08666000  1.0 -0.5081383604
O  O43  1  0.18740000  0.90640000  0.41334000  1.0 -0.5081383604
O  O44  1  0.81260000  0.90640000  0.08666000  1.0 -0.5081383604
O  O45  1  0.68740000  0.40640000  0.58666000  1.0 -0.5081383604
O  O46  1  0.31260000  0.40640000  0.91334000  1.0 -0.5081383604
O  O47  1  0.81260000  0.09360000  0.58666000  1.0 -0.5081383604
O  O48  1  0.18740000  0.09360000  0.91334000  1.0 -0.5081383604
O  O49  1  0.12650000  0.98460000  0.51870000  1.0 -0.578520801
O  O50  1  0.87350000  0.98460000  0.98130000  1.0 -0.578520801
O  O51  1  0.37350000  0.51540000  0.51870000  1.0 -0.578520801
O  O52  1  0.62650000  0.51540000  0.98130000  1.0 -0.578520801
O  O53  1  0.87350000  0.01540000  0.48130000  1.0 -0.578520801
O  O54  1  0.12650000  0.01540000  0.01870000  1.0 -0.578520801
O  O55  1  0.62650000  0.48460000  0.48130000  1.0 -0.578520801
O  O56  1  0.37350000  0.48460000  0.01870000  1.0 -0.578520801
O  O57  1  0.20310000  0.42110000  0.52362000  1.0 -0.5596234532
O  O58  1  0.79690000  0.42110000  0.97638000  1.0 -0.5596234532
O  O59  1  0.29690000  0.07890000  0.52362000  1.0 -0.5546460115
O  O60  1  0.70310000  0.07890000  0.97638000  1.0 -0.5546460115
O  O61  1  0.79690000  0.57890000  0.47638000  1.0 -0.5596234532
O  O62  1  0.20310000  0.57890000  0.02362000  1.0 -0.5546460115
O  O63  1  0.70310000  0.92110000  0.47638000  1.0 -0.5546460115
O  O64  1  0.29690000  0.92110000  0.02362000  1.0 -0.5546460115
O  O65  1  0.08920000  0.40280000  0.58938000  1.0 -0.4838176482
O  O66  1  0.91080000  0.40280000  0.91062000  1.0 -0.4838176482
O  O67  1  0.41080000  0.09720000  0.58938000  1.0 -0.4838176482
O  O68  1  0.58920000  0.09720000  0.91062000  1.0 -0.4838176482
O  O69  1  0.91080000  0.59720000  0.41062000  1.0 -0.4838176482
O  O70  1  0.08920000  0.59720000  0.08938000  1.0 -0.4838176482
O  O71  1  0.58920000  0.90280000  0.41062000  1.0 -0.4838176482
O  O72  1  0.41080000  0.90280000  0.08938000  1.0 -0.4838176482
O  O73  1  0.08840000  0.68540000  0.45597000  1.0 -0.5596234532
O  O74  1  0.91160000  0.68540000  0.04403000  1.0 -0.5596234532
O  O75  1  0.41160000  0.81460000  0.45597000  1.0 -0.5596234532
O  O76  1  0.58840000  0.81460000  0.04403000  1.0 -0.5596234532
O  O77  1  0.91160000  0.31460000  0.54403000  1.0 -0.5596234532
O  O78  1  0.08840000  0.31460000  0.95597000  1.0 -0.5596234532
O  O79  1  0.58840000  0.18540000  0.54403000  1.0 -0.5596234532
O  O80  1  0.41160000  0.18540000  0.95597000  1.0 -0.5596234532
O  O81  1  0.13320000  0.81720000  0.98275000  1.0 -0.5596234532
O  O82  1  0.86680000  0.81720000  0.51725000  1.0 -0.5596234532
O  O83  1  0.36680000  0.68280000  0.98275000  1.0 -0.5596234532
O  O84  1  0.63320000  0.68280000  0.51725000  1.0 -0.5596234532
O  O85  1  0.86680000  0.18280000  0.01725000  1.0 -0.5596234532
O  O86  1  0.13320000  0.18280000  0.48275000  1.0 -0.5596234532
O  O87  1  0.63320000  0.31720000  0.01725000  1.0 -0.5596234532
O  O88  1  0.36680000  0.31720000  0.48275000  1.0 -0.5596234532
O  O89  1  0.13730000  0.00970000  0.60737000  1.0 -0.5081383604
O  O90  1  0.86270000  0.00970000  0.89263000  1.0 -0.5081383604
O  O91  1  0.36270000  0.49030000  0.60737000  1.0 -0.5081383604
O  O92  1  0.63730000  0.49030000  0.89263000  1.0 -0.5081383604
O  O93  1  0.86270000  0.99030000  0.39263000  1.0 -0.5081383604
O  O94  1  0.13730000  0.99030000  0.10737000  1.0 -0.5081383604
O  O95  1  0.63730000  0.50970000  0.39263000  1.0 -0.5081383604
O  O96  1  0.36270000  0.50970000  0.10737000  1.0 -0.5081383604
O  O97  1  0.19760000  0.64290000  0.35381000  1.0 -0.5081383604
O  O98  1  0.80240000  0.64290000  0.14619000  1.0 -0.5081383604
O  O99  1  0.30240000  0.85710000  0.35381000  1.0 -0.5048709475
O  O100  1  0.69760000  0.85710000  0.14619000  1.0 -0.5048709475
O  O101  1  0.80240000  0.35710000  0.64619000  1.0 -0.5081383604
O  O102  1  0.19760000  0.35710000  0.85381000  1.0 -0.5048709475
O  O103  1  0.69760000  0.14290000  0.64619000  1.0 -0.5081383604
O  O104  1  0.30240000  0.14290000  0.85381000  1.0 -0.5081383604
O  O105  1  0.49610000  0.35220000  0.57666000  1.0 -0.638749417
O  O106  1  0.50390000  0.35220000  0.92334000  1.0 -0.638749417
O  O107  1  0.00390000  0.14780000  0.57666000  1.0 -0.638749417
O  O108  1  0.99610000  0.14780000  0.92334000  1.0 -0.638749417
O  O109  1  0.50390000  0.64780000  0.42334000  1.0 -0.638749417
O  O110  1  0.49610000  0.64780000  0.07666000  1.0 -0.638749417
O  O111  1  0.99610000  0.85220000  0.42334000  1.0 -0.638749417
O  O112  1  0.00390000  0.85220000  0.07666000  1.0 -0.638749417
O  O113  1  0.00400000  0.70980000  0.34120000  1.0 -0.7310514413
O  O114  1  0.99600000  0.70980000  0.15880000  1.0 -0.7310514413
O  O115  1  0.49600000  0.79020000  0.34120000  1.0 -0.7310514413
O  O116  1  0.50400000  0.79020000  0.15880000  1.0 -0.7310514413
O  O117  1  0.99600000  0.29020000  0.65880000  1.0 -0.7310514413
O  O118  1  0.00400000  0.29020000  0.84120000  1.0 -0.7310514413
O  O119  1  0.50400000  0.20980000  0.65880000  1.0 -0.7310514413
O  O120  1  0.49600000  0.20980000  0.84120000  1.0 -0.7310514413
