# DDEC6 charges by PACMAN v1.1 (https://github.com/mtap-research/PACMAN-charge/)
data_DUDKUK_FSR_pacman
_symmetry_space_group_name_H-M   'P 1'
_cell_length_a   14.42250000
_cell_length_b   14.26010000
_cell_length_c   22.51060000
_cell_angle_alpha   90.00000000
_cell_angle_beta   100.15400000
_cell_angle_gamma   90.00000000
_symmetry_Int_Tables_number   1
_chemical_formula_structural   Cd2H33C28N5O11
_chemical_formula_sum   'Cd8 H132 C112 N20 O44'
_cell_volume   4557.15923732
_cell_formula_units_Z   4
loop_
 _symmetry_equiv_pos_site_id
 _symmetry_equiv_pos_as_xyz
  1  'x, y, z'
loop_
 _atom_site_type_symbol
 _atom_site_label
 _atom_site_symmetry_multiplicity
 _atom_site_fract_x
 _atom_site_fract_y
 _atom_site_fract_z
 _atom_site_occupancy
 _atom_site_charge
Cd  Cd1  1  0.74395000  0.24887000  0.75983000  1.0 0.955751302
Cd  Cd2  1  0.25605000  0.74887000  0.74017000  1.0 0.955751302
Cd  Cd3  1  0.25605000  0.75113000  0.24017000  1.0 0.955751302
Cd  Cd4  1  0.74395000  0.25113000  0.25983000  1.0 0.955751302
Cd  Cd5  1  0.81545000  0.37591000  0.63957000  1.0 1.0801884553
Cd  Cd6  1  0.18455000  0.87591000  0.86043000  1.0 1.0801884553
Cd  Cd7  1  0.18455000  0.62409000  0.36043000  1.0 1.0801884553
Cd  Cd8  1  0.81545000  0.12409000  0.13957000  1.0 1.0801884553
H  H1  1  0.50580000  0.51460000  0.74200000  1.0 0.1394457294
H  H2  1  0.49420000  0.01460000  0.75800000  1.0 0.1394457294
H  H3  1  0.49420000  0.48540000  0.25800000  1.0 0.1394457294
H  H4  1  0.50580000  0.98540000  0.24200000  1.0 0.1394457294
H  H5  1  0.38290000  0.61270000  0.57980000  1.0 0.13107738
H  H6  1  0.61710000  0.11270000  0.92020000  1.0 0.13107738
H  H7  1  0.61710000  0.38730000  0.42020000  1.0 0.13107738
H  H8  1  0.38290000  0.88730000  0.07980000  1.0 0.13107738
H  H9  1  0.59580000  0.42760000  0.59190000  1.0 0.13107738
H  H10  1  0.40420000  0.92760000  0.90810000  1.0 0.13107738
H  H11  1  0.40420000  0.57240000  0.40810000  1.0 0.13107738
H  H12  1  0.59580000  0.07240000  0.09190000  1.0 0.13107738
H  H13  1  0.11820000  0.62520000  0.92750000  1.0 0.1394457294
H  H14  1  0.88180000  0.12520000  0.57250000  1.0 0.1394457294
H  H15  1  0.88180000  0.37480000  0.07250000  1.0 0.1394457294
H  H16  1  0.11820000  0.87480000  0.42750000  1.0 0.1394457294
H  H17  1  0.02600000  0.51980000  0.76220000  1.0 0.1394457294
H  H18  1  0.97400000  0.01980000  0.73780000  1.0 0.1394457294
H  H19  1  0.97400000  0.48020000  0.23780000  1.0 0.1394457294
H  H20  1  0.02600000  0.98020000  0.26220000  1.0 0.1394457294
H  H21  1  0.93000000  0.41490000  0.90520000  1.0 0.13107738
H  H22  1  0.07000000  0.91490000  0.59480000  1.0 0.13107738
H  H23  1  0.07000000  0.58510000  0.09480000  1.0 0.13107738
H  H24  1  0.93000000  0.08510000  0.40520000  1.0 0.13107738
H  H25  1  0.56630000  0.27990000  0.52980000  1.0 0.1598003565
H  H26  1  0.43370000  0.77990000  0.97020000  1.0 0.1598003565
H  H27  1  0.43370000  0.72010000  0.47020000  1.0 0.1598003565
H  H28  1  0.56630000  0.22010000  0.02980000  1.0 0.1598003565
H  H29  1  0.59690000  0.17720000  0.51770000  1.0 0.1394457294
H  H30  1  0.40310000  0.67720000  0.98230000  1.0 0.1394457294
H  H31  1  0.40310000  0.82280000  0.48230000  1.0 0.1394457294
H  H32  1  0.59690000  0.32280000  0.01770000  1.0 0.1394457294
H  H33  1  0.62540000  0.22130000  0.58210000  1.0 0.1872707775
H  H34  1  0.37460000  0.72130000  0.91790000  1.0 0.1872707775
H  H35  1  0.37460000  0.77870000  0.41790000  1.0 0.1872707775
H  H36  1  0.62540000  0.27870000  0.08210000  1.0 0.1872707775
H  H37  1  0.84720000  0.32210000  0.49060000  1.0 0.1394457294
H  H38  1  0.15280000  0.82210000  0.00940000  1.0 0.1394457294
H  H39  1  0.15280000  0.67790000  0.50940000  1.0 0.1394457294
H  H40  1  0.84720000  0.17790000  0.99060000  1.0 0.1394457294
H  H41  1  0.87840000  0.22040000  0.47630000  1.0 0.12106401
H  H42  1  0.12160000  0.72040000  0.02370000  1.0 0.12106401
H  H43  1  0.12160000  0.77960000  0.52370000  1.0 0.12106401
H  H44  1  0.87840000  0.27960000  0.97630000  1.0 0.12106401
H  H45  1  0.82030000  0.28180000  0.42500000  1.0 0.1394457294
H  H46  1  0.17970000  0.78180000  0.07500000  1.0 0.1394457294
H  H47  1  0.17970000  0.71820000  0.57500000  1.0 0.1394457294
H  H48  1  0.82030000  0.21820000  0.92500000  1.0 0.1394457294
H  H49  1  0.64110000  0.16610000  0.42410000  1.0 0.1502007503
H  H50  1  0.35890000  0.66610000  0.07590000  1.0 0.1502007503
H  H51  1  0.35890000  0.83390000  0.57590000  1.0 0.1502007503
H  H52  1  0.64110000  0.33390000  0.92410000  1.0 0.1502007503
H  H53  1  0.74160000  0.12870000  0.41880000  1.0 0.1394457294
H  H54  1  0.25840000  0.62870000  0.08120000  1.0 0.1394457294
H  H55  1  0.25840000  0.87130000  0.58120000  1.0 0.1394457294
H  H56  1  0.74160000  0.37130000  0.91880000  1.0 0.1394457294
H  H57  1  0.69440000  0.09830000  0.47340000  1.0 0.13107738
H  H58  1  0.30560000  0.59830000  0.02660000  1.0 0.13107738
H  H59  1  0.30560000  0.90170000  0.52660000  1.0 0.13107738
H  H60  1  0.69440000  0.40170000  0.97340000  1.0 0.13107738
H  H61  1  0.71630000  0.52700000  0.53580000  1.0 0.1659131071
H  H62  1  0.28370000  0.02700000  0.96420000  1.0 0.1659131071
H  H63  1  0.28370000  0.47300000  0.46420000  1.0 0.1659131071
H  H64  1  0.71630000  0.97300000  0.03580000  1.0 0.1659131071
H  H65  1  0.69410000  0.63470000  0.53270000  1.0 0.1598003565
H  H66  1  0.30590000  0.13470000  0.96730000  1.0 0.1598003565
H  H67  1  0.30590000  0.36530000  0.46730000  1.0 0.1598003565
H  H68  1  0.69410000  0.86530000  0.03270000  1.0 0.1598003565
H  H69  1  0.79080000  0.59800000  0.51930000  1.0 0.1598003565
H  H70  1  0.20920000  0.09800000  0.98070000  1.0 0.1598003565
H  H71  1  0.20920000  0.40200000  0.48070000  1.0 0.1598003565
H  H72  1  0.79080000  0.90200000  0.01930000  1.0 0.1598003565
H  H73  1  0.80160000  0.76240000  0.55390000  1.0 0.13107738
H  H74  1  0.19840000  0.26240000  0.94610000  1.0 0.13107738
H  H75  1  0.19840000  0.23760000  0.44610000  1.0 0.13107738
H  H76  1  0.80160000  0.73760000  0.05390000  1.0 0.13107738
H  H77  1  0.83310000  0.81790000  0.61420000  1.0 0.13107738
H  H78  1  0.16690000  0.31790000  0.88580000  1.0 0.13107738
H  H79  1  0.16690000  0.18210000  0.38580000  1.0 0.13107738
H  H80  1  0.83310000  0.68210000  0.11420000  1.0 0.13107738
H  H81  1  0.90810000  0.76450000  0.58430000  1.0 0.13107738
H  H82  1  0.09190000  0.26450000  0.91570000  1.0 0.13107738
H  H83  1  0.09190000  0.23550000  0.41570000  1.0 0.13107738
H  H84  1  0.90810000  0.73550000  0.08430000  1.0 0.13107738
H  H85  1  0.83940000  0.64880000  0.71680000  1.0 0.1502007503
H  H86  1  0.16060000  0.14880000  0.78320000  1.0 0.1502007503
H  H87  1  0.16060000  0.35120000  0.28320000  1.0 0.1502007503
H  H88  1  0.83940000  0.85120000  0.21680000  1.0 0.1502007503
H  H89  1  0.93790000  0.65090000  0.69640000  1.0 0.13107738
H  H90  1  0.06210000  0.15090000  0.80360000  1.0 0.13107738
H  H91  1  0.06210000  0.34910000  0.30360000  1.0 0.13107738
H  H92  1  0.93790000  0.84910000  0.19640000  1.0 0.13107738
H  H93  1  0.88500000  0.74490000  0.70420000  1.0 0.13107738
H  H94  1  0.11500000  0.24490000  0.79580000  1.0 0.13107738
H  H95  1  0.11500000  0.25510000  0.29580000  1.0 0.13107738
H  H96  1  0.88500000  0.75510000  0.20420000  1.0 0.13107738
H  H97  1  0.10980000  0.28480000  0.63800000  1.0 0.1502007503
H  H98  1  0.89020000  0.78480000  0.86200000  1.0 0.1502007503
H  H99  1  0.89020000  0.71520000  0.36200000  1.0 0.1502007503
H  H100  1  0.10980000  0.21520000  0.13800000  1.0 0.1502007503
H  H101  1  0.08640000  0.32790000  0.69760000  1.0 0.1502007503
H  H102  1  0.91360000  0.82790000  0.80240000  1.0 0.1502007503
H  H103  1  0.91360000  0.67210000  0.30240000  1.0 0.1502007503
H  H104  1  0.08640000  0.17210000  0.19760000  1.0 0.1502007503
H  H105  1  0.01020000  0.26910000  0.65500000  1.0 0.1598003565
H  H106  1  0.98980000  0.76910000  0.84500000  1.0 0.1598003565
H  H107  1  0.98980000  0.73090000  0.34500000  1.0 0.1598003565
H  H108  1  0.01020000  0.23090000  0.15500000  1.0 0.1598003565
H  H109  1  0.99670000  0.57590000  0.62800000  1.0 0.12106401
H  H110  1  0.00330000  0.07590000  0.87200000  1.0 0.12106401
H  H111  1  0.00330000  0.42410000  0.37200000  1.0 0.12106401
H  H112  1  0.99670000  0.92410000  0.12800000  1.0 0.12106401
H  H113  1  0.10230000  0.60750000  0.64320000  1.0 0.1394457294
H  H114  1  0.89770000  0.10750000  0.85680000  1.0 0.1394457294
H  H115  1  0.89770000  0.39250000  0.35680000  1.0 0.1394457294
H  H116  1  0.10230000  0.89250000  0.14320000  1.0 0.1394457294
H  H117  1  0.05610000  0.58530000  0.57630000  1.0 0.13107738
H  H118  1  0.94390000  0.08530000  0.92370000  1.0 0.13107738
H  H119  1  0.94390000  0.41470000  0.42370000  1.0 0.13107738
H  H120  1  0.05610000  0.91470000  0.07630000  1.0 0.13107738
H  H121  1  0.20200000  0.51000000  0.68330000  1.0 0.1394457294
H  H122  1  0.79800000  0.01000000  0.81670000  1.0 0.1394457294
H  H123  1  0.79800000  0.49000000  0.31670000  1.0 0.1394457294
H  H124  1  0.20200000  0.99000000  0.18330000  1.0 0.1394457294
H  H125  1  0.19840000  0.40140000  0.67260000  1.0 0.12106401
H  H126  1  0.80160000  0.90140000  0.82740000  1.0 0.12106401
H  H127  1  0.80160000  0.59860000  0.32740000  1.0 0.12106401
H  H128  1  0.19840000  0.09860000  0.17260000  1.0 0.12106401
H  H129  1  0.22450000  0.46850000  0.62290000  1.0 0.1394457294
H  H130  1  0.77550000  0.96850000  0.87710000  1.0 0.1394457294
H  H131  1  0.77550000  0.53150000  0.37710000  1.0 0.1394457294
H  H132  1  0.22450000  0.03150000  0.12290000  1.0 0.1394457294
C  C1  1  0.37030000  0.63400000  0.69450000  1.0 0.5369125626
C  C2  1  0.62970000  0.13400000  0.80550000  1.0 0.5369125626
C  C3  1  0.62970000  0.36600000  0.30550000  1.0 0.5369125626
C  C4  1  0.37030000  0.86600000  0.19450000  1.0 0.5369125626
C  C5  1  0.96780000  0.45740000  0.82730000  1.0 -0.0092715985
C  C6  1  0.03220000  0.95740000  0.67270000  1.0 -0.0092715985
C  C7  1  0.03220000  0.54260000  0.17270000  1.0 -0.0092715985
C  C8  1  0.96780000  0.04260000  0.32730000  1.0 -0.0092715985
C  C9  1  0.56060000  0.46020000  0.67250000  1.0 -0.0092715985
C  C10  1  0.43940000  0.96020000  0.82750000  1.0 -0.0092715985
C  C11  1  0.43940000  0.53980000  0.32750000  1.0 -0.0092715985
C  C12  1  0.56060000  0.03980000  0.17250000  1.0 -0.0092715985
C  C13  1  0.48800000  0.52050000  0.57640000  1.0 0.1502007503
C  C14  1  0.51200000  0.02050000  0.92360000  1.0 0.1502007503
C  C15  1  0.51200000  0.47950000  0.42360000  1.0 0.1502007503
C  C16  1  0.48800000  0.97950000  0.07640000  1.0 0.1502007503
C  C17  1  0.50090000  0.51590000  0.70030000  1.0 -0.0909198949
C  C18  1  0.49910000  0.01590000  0.79970000  1.0 -0.0909198949
C  C19  1  0.49910000  0.48410000  0.29970000  1.0 -0.0909198949
C  C20  1  0.50090000  0.98410000  0.20030000  1.0 -0.0909198949
C  C21  1  0.42770000  0.57490000  0.60330000  1.0 -0.148095248
C  C22  1  0.57230000  0.07490000  0.89670000  1.0 -0.148095248
C  C23  1  0.57230000  0.42510000  0.39670000  1.0 -0.148095248
C  C24  1  0.42770000  0.92510000  0.10330000  1.0 -0.148095248
C  C25  1  0.55510000  0.46330000  0.61050000  1.0 -0.1578484641
C  C26  1  0.44490000  0.96330000  0.88950000  1.0 -0.1578484641
C  C27  1  0.44490000  0.53670000  0.38950000  1.0 -0.1578484641
C  C28  1  0.55510000  0.03670000  0.11050000  1.0 -0.1578484641
C  C29  1  0.02430000  0.52050000  0.92650000  1.0 0.1502007503
C  C30  1  0.97570000  0.02050000  0.57350000  1.0 0.1502007503
C  C31  1  0.97570000  0.47950000  0.07350000  1.0 0.1502007503
C  C32  1  0.02430000  0.97950000  0.42650000  1.0 0.1502007503
C  C33  1  0.08070000  0.58300000  0.90250000  1.0 -0.1578484641
C  C34  1  0.91930000  0.08300000  0.59750000  1.0 -0.1578484641
C  C35  1  0.91930000  0.41700000  0.09750000  1.0 -0.1578484641
C  C36  1  0.08070000  0.91700000  0.40250000  1.0 -0.1578484641
C  C37  1  0.43450000  0.57270000  0.66610000  1.0 -0.0092715985
C  C38  1  0.56550000  0.07270000  0.83390000  1.0 -0.0092715985
C  C39  1  0.56550000  0.42730000  0.33390000  1.0 -0.0092715985
C  C40  1  0.43450000  0.92730000  0.16610000  1.0 -0.0092715985
C  C41  1  0.02520000  0.52000000  0.80340000  1.0 -0.1108556071
C  C42  1  0.97480000  0.02000000  0.69660000  1.0 -0.1108556071
C  C43  1  0.97480000  0.48000000  0.19660000  1.0 -0.1108556071
C  C44  1  0.02520000  0.98000000  0.30340000  1.0 -0.1108556071
C  C45  1  0.96780000  0.45720000  0.88890000  1.0 -0.1682770343
C  C46  1  0.03220000  0.95720000  0.61110000  1.0 -0.1682770343
C  C47  1  0.03220000  0.54280000  0.11110000  1.0 -0.1682770343
C  C48  1  0.96780000  0.04280000  0.38890000  1.0 -0.1682770343
C  C49  1  0.90240000  0.39130000  0.78730000  1.0 0.5717029592
C  C50  1  0.09760000  0.89130000  0.71270000  1.0 0.5717029592
C  C51  1  0.09760000  0.60870000  0.21270000  1.0 0.5717029592
C  C52  1  0.90240000  0.10870000  0.28730000  1.0 0.5717029592
C  C53  1  0.08140000  0.58280000  0.84070000  1.0 -0.0092715985
C  C54  1  0.91860000  0.08280000  0.65930000  1.0 -0.0092715985
C  C55  1  0.91860000  0.41720000  0.15930000  1.0 -0.0092715985
C  C56  1  0.08140000  0.91720000  0.34070000  1.0 -0.0092715985
C  C57  1  0.62730000  0.39470000  0.71020000  1.0 0.5717029592
C  C58  1  0.37270000  0.89470000  0.78980000  1.0 0.5717029592
C  C59  1  0.37270000  0.60530000  0.28980000  1.0 0.5717029592
C  C60  1  0.62730000  0.10530000  0.21020000  1.0 0.5717029592
C  C61  1  0.14180000  0.65320000  0.81580000  1.0 0.5614666215
C  C62  1  0.85820000  0.15320000  0.68420000  1.0 0.5614666215
C  C63  1  0.85820000  0.34680000  0.18420000  1.0 0.5614666215
C  C64  1  0.14180000  0.84680000  0.31580000  1.0 0.5614666215
C  C65  1  0.61530000  0.23390000  0.53960000  1.0 -0.5498692521
C  C66  1  0.38470000  0.73390000  0.96040000  1.0 -0.5498692521
C  C67  1  0.38470000  0.76610000  0.46040000  1.0 -0.5498692521
C  C68  1  0.61530000  0.26610000  0.03960000  1.0 -0.5498692521
C  C69  1  0.70940000  0.27250000  0.52170000  1.0 0.4898183963
C  C70  1  0.29060000  0.77250000  0.97830000  1.0 0.4898183963
C  C71  1  0.29060000  0.72750000  0.47830000  1.0 0.4898183963
C  C72  1  0.70940000  0.22750000  0.02170000  1.0 0.4898183963
C  C73  1  0.82950000  0.26660000  0.46720000  1.0 -0.3207007104
C  C74  1  0.17050000  0.76660000  0.03280000  1.0 -0.3207007104
C  C75  1  0.17050000  0.73340000  0.53280000  1.0 -0.3207007104
C  C76  1  0.82950000  0.23340000  0.96720000  1.0 -0.3207007104
C  C77  1  0.70170000  0.14870000  0.44630000  1.0 -0.3207007104
C  C78  1  0.29830000  0.64870000  0.05370000  1.0 -0.3207007104
C  C79  1  0.29830000  0.85130000  0.55370000  1.0 -0.3207007104
C  C80  1  0.70170000  0.35130000  0.94630000  1.0 -0.3207007104
C  C81  1  0.78510000  0.59810000  0.60920000  1.0 0.5098081848
C  C82  1  0.21490000  0.09810000  0.89080000  1.0 0.5098081848
C  C83  1  0.21490000  0.40190000  0.39080000  1.0 0.5098081848
C  C84  1  0.78510000  0.90190000  0.10920000  1.0 0.5098081848
C  C85  1  0.74300000  0.58900000  0.54330000  1.0 -0.5948220709
C  C86  1  0.25700000  0.08900000  0.95670000  1.0 -0.5948220709
C  C87  1  0.25700000  0.41100000  0.45670000  1.0 -0.5948220709
C  C88  1  0.74300000  0.91100000  0.04330000  1.0 -0.5948220709
C  C89  1  0.84500000  0.76300000  0.59170000  1.0 -0.3372831622
C  C90  1  0.15500000  0.26300000  0.90830000  1.0 -0.3372831622
C  C91  1  0.15500000  0.23700000  0.40830000  1.0 -0.3372831622
C  C92  1  0.84500000  0.73700000  0.09170000  1.0 -0.3372831622
C  C93  1  0.87700000  0.68000000  0.69200000  1.0 -0.3321643898
C  C94  1  0.12300000  0.18000000  0.80800000  1.0 -0.3321643898
C  C95  1  0.12300000  0.32000000  0.30800000  1.0 -0.3321643898
C  C96  1  0.87700000  0.82000000  0.19200000  1.0 -0.3321643898
C  C97  1  0.06100000  0.31300000  0.65640000  1.0 -0.5961547473
C  C98  1  0.93900000  0.81300000  0.84360000  1.0 -0.5961547473
C  C99  1  0.93900000  0.68700000  0.34360000  1.0 -0.5948220709
C  C100  1  0.06100000  0.18700000  0.15640000  1.0 -0.5961547473
C  C101  1  0.05800000  0.56800000  0.61780000  1.0 -0.3321643898
C  C102  1  0.94200000  0.06800000  0.88220000  1.0 -0.3321643898
C  C103  1  0.94200000  0.43200000  0.38220000  1.0 -0.3321643898
C  C104  1  0.05800000  0.93200000  0.11780000  1.0 -0.3321643898
C  C105  1  0.02800000  0.39600000  0.62450000  1.0 0.4846383205
C  C106  1  0.97200000  0.89600000  0.87550000  1.0 0.4846383205
C  C107  1  0.97200000  0.60400000  0.37550000  1.0 0.4846383205
C  C108  1  0.02800000  0.10400000  0.12450000  1.0 0.4846383205
C  C109  1  0.18650000  0.46200000  0.65370000  1.0 -0.3372831622
C  C110  1  0.81350000  0.96200000  0.84630000  1.0 -0.3372831622
C  C111  1  0.81350000  0.53800000  0.34630000  1.0 -0.3372831622
C  C112  1  0.18650000  0.03800000  0.15370000  1.0 -0.3372831622
N  N1  1  0.47650000  0.52900000  0.51200000  1.0 -0.0977912338
N  N2  1  0.52350000  0.02900000  0.98800000  1.0 -0.0977912338
N  N3  1  0.52350000  0.47100000  0.48800000  1.0 -0.0977912338
N  N4  1  0.47650000  0.97100000  0.01200000  1.0 -0.0977912338
N  N5  1  0.02790000  0.52650000  0.99030000  1.0 -0.1108556071
N  N6  1  0.97210000  0.02650000  0.50970000  1.0 -0.1108556071
N  N7  1  0.97210000  0.47350000  0.00970000  1.0 -0.1108556071
N  N8  1  0.02790000  0.97350000  0.49030000  1.0 -0.1108556071
N  N9  1  0.74510000  0.23060000  0.48140000  1.0 -0.0192383424
N  N10  1  0.25490000  0.73060000  0.01860000  1.0 -0.0192383424
N  N11  1  0.25490000  0.76940000  0.51860000  1.0 -0.0192383424
N  N12  1  0.74510000  0.26940000  0.98140000  1.0 -0.0192383424
N  N13  1  0.82990000  0.67560000  0.62760000  1.0 -0.0192383424
N  N14  1  0.17010000  0.17560000  0.87240000  1.0 -0.0192383424
N  N15  1  0.17010000  0.32440000  0.37240000  1.0 -0.0192383424
N  N16  1  0.82990000  0.82440000  0.12760000  1.0 -0.0092715985
N  N17  1  0.08770000  0.46850000  0.62660000  1.0 -0.0045257791
N  N18  1  0.91230000  0.96850000  0.87340000  1.0 -0.0045257791
N  N19  1  0.91230000  0.53150000  0.37340000  1.0 -0.0045257791
N  N20  1  0.08770000  0.03150000  0.12660000  1.0 -0.0045257791
O  O1  1  0.90240000  0.39670000  0.73200000  1.0 -0.5704426149
O  O2  1  0.09760000  0.89670000  0.76800000  1.0 -0.5704426149
O  O3  1  0.09760000  0.60330000  0.26800000  1.0 -0.5704426149
O  O4  1  0.90240000  0.10330000  0.23200000  1.0 -0.5704426149
O  O5  1  0.68450000  0.34750000  0.68310000  1.0 -0.6095783391
O  O6  1  0.31550000  0.84750000  0.81690000  1.0 -0.6095783391
O  O7  1  0.31550000  0.65250000  0.31690000  1.0 -0.6095783391
O  O8  1  0.68450000  0.15250000  0.18310000  1.0 -0.6095783391
O  O9  1  0.74080000  0.34620000  0.54680000  1.0 -0.5498692521
O  O10  1  0.25920000  0.84620000  0.95320000  1.0 -0.5498692521
O  O11  1  0.25920000  0.65380000  0.45320000  1.0 -0.5498692521
O  O12  1  0.74080000  0.15380000  0.04680000  1.0 -0.5498692521
O  O13  1  0.38310000  0.63940000  0.75130000  1.0 -0.5190077999
O  O14  1  0.61690000  0.13940000  0.74870000  1.0 -0.5190077999
O  O15  1  0.61690000  0.36060000  0.24870000  1.0 -0.5190077999
O  O16  1  0.38310000  0.86060000  0.25130000  1.0 -0.5190077999
O  O17  1  0.15240000  0.64210000  0.76210000  1.0 -0.5253924706
O  O18  1  0.84760000  0.14210000  0.73790000  1.0 -0.5253924706
O  O19  1  0.84760000  0.35790000  0.23790000  1.0 -0.5253924706
O  O20  1  0.15240000  0.85790000  0.26210000  1.0 -0.5253924706
O  O21  1  0.30610000  0.67860000  0.66090000  1.0 -0.5387124995
O  O22  1  0.69390000  0.17860000  0.83910000  1.0 -0.5387124995
O  O23  1  0.69390000  0.32140000  0.33910000  1.0 -0.5387124995
O  O24  1  0.30610000  0.82140000  0.16090000  1.0 -0.5387124995
O  O25  1  0.62450000  0.38180000  0.76370000  1.0 -0.4867668429
O  O26  1  0.37550000  0.88180000  0.73630000  1.0 -0.4867668429
O  O27  1  0.37550000  0.61820000  0.23630000  1.0 -0.4867668429
O  O28  1  0.62450000  0.11820000  0.26370000  1.0 -0.4867668429
O  O29  1  0.17850000  0.71680000  0.84950000  1.0 -0.5704426149
O  O30  1  0.82150000  0.21680000  0.65050000  1.0 -0.5704426149
O  O31  1  0.82150000  0.28320000  0.15050000  1.0 -0.5704426149
O  O32  1  0.17850000  0.78320000  0.34950000  1.0 -0.5704426149
O  O33  1  0.78150000  0.53120000  0.63640000  1.0 -0.4751089492
O  O34  1  0.21850000  0.03120000  0.86360000  1.0 -0.4741792062
O  O35  1  0.21850000  0.46880000  0.36360000  1.0 -0.4751089492
O  O36  1  0.78150000  0.96880000  0.13640000  1.0 -0.4751089492
O  O37  1  0.85380000  0.33770000  0.81240000  1.0 -0.5190077999
O  O38  1  0.14620000  0.83770000  0.68760000  1.0 -0.5190077999
O  O39  1  0.14620000  0.66230000  0.18760000  1.0 -0.5190077999
O  O40  1  0.85380000  0.16230000  0.31240000  1.0 -0.5190077999
O  O41  1  0.94560000  0.40400000  0.60320000  1.0 -0.5190077999
O  O42  1  0.05440000  0.90400000  0.89680000  1.0 -0.5190077999
O  O43  1  0.05440000  0.59600000  0.39680000  1.0 -0.5190077999
O  O44  1  0.94560000  0.09600000  0.10320000  1.0 -0.5190077999
