# DDEC6 charges by PACMAN v1.1 (https://github.com/mtap-research/PACMAN-charge/)
data_DUDKUK_ASR_pacman
_symmetry_space_group_name_H-M   'P 1'
_cell_length_a   14.42250000
_cell_length_b   14.26010000
_cell_length_c   22.51060000
_cell_angle_alpha   90.00000000
_cell_angle_beta   100.15400000
_cell_angle_gamma   90.00000000
_symmetry_Int_Tables_number   1
_chemical_formula_structural   CdH3C8NO4
_chemical_formula_sum   'Cd8 H24 C64 N8 O32'
_cell_volume   4557.15923732
_cell_formula_units_Z   8
loop_
 _symmetry_equiv_pos_site_id
 _symmetry_equiv_pos_as_xyz
  1  'x, y, z'
loop_
 _atom_site_type_symbol
 _atom_site_label
 _atom_site_symmetry_multiplicity
 _atom_site_fract_x
 _atom_site_fract_y
 _atom_site_fract_z
 _atom_site_occupancy
 _atom_site_charge
Cd  Cd1  1  0.74395000  0.24887000  0.75983000  1.0 0.9923908108
Cd  Cd2  1  0.25605000  0.74887000  0.74017000  1.0 0.9923908108
Cd  Cd3  1  0.25605000  0.75113000  0.24017000  1.0 0.9923908108
Cd  Cd4  1  0.74395000  0.25113000  0.25983000  1.0 0.9923908108
Cd  Cd5  1  0.81545000  0.37591000  0.63957000  1.0 1.1105036878
Cd  Cd6  1  0.18455000  0.87591000  0.86043000  1.0 1.1105036878
Cd  Cd7  1  0.18455000  0.62409000  0.36043000  1.0 1.1105036878
Cd  Cd8  1  0.81545000  0.12409000  0.13957000  1.0 1.1105036878
H  H1  1  0.50580000  0.51460000  0.74200000  1.0 0.1385441929
H  H2  1  0.49420000  0.01460000  0.75800000  1.0 0.1385441929
H  H3  1  0.49420000  0.48540000  0.25800000  1.0 0.1385441929
H  H4  1  0.50580000  0.98540000  0.24200000  1.0 0.1385441929
H  H5  1  0.38290000  0.61270000  0.57980000  1.0 0.1315443137
H  H6  1  0.61710000  0.11270000  0.92020000  1.0 0.1315443137
H  H7  1  0.61710000  0.38730000  0.42020000  1.0 0.1315443137
H  H8  1  0.38290000  0.88730000  0.07980000  1.0 0.1315443137
H  H9  1  0.59580000  0.42760000  0.59190000  1.0 0.101123988
H  H10  1  0.40420000  0.92760000  0.90810000  1.0 0.101123988
H  H11  1  0.40420000  0.57240000  0.40810000  1.0 0.101123988
H  H12  1  0.59580000  0.07240000  0.09190000  1.0 0.101123988
H  H13  1  0.11820000  0.62520000  0.92750000  1.0 0.1315443137
H  H14  1  0.88180000  0.12520000  0.57250000  1.0 0.1315443137
H  H15  1  0.88180000  0.37480000  0.07250000  1.0 0.1315443137
H  H16  1  0.11820000  0.87480000  0.42750000  1.0 0.1315443137
H  H17  1  0.02600000  0.51980000  0.76220000  1.0 0.1315443137
H  H18  1  0.97400000  0.01980000  0.73780000  1.0 0.1315443137
H  H19  1  0.97400000  0.48020000  0.23780000  1.0 0.1315443137
H  H20  1  0.02600000  0.98020000  0.26220000  1.0 0.1315443137
H  H21  1  0.93000000  0.41490000  0.90520000  1.0 0.1226180637
H  H22  1  0.07000000  0.91490000  0.59480000  1.0 0.1226180637
H  H23  1  0.07000000  0.58510000  0.09480000  1.0 0.1226180637
H  H24  1  0.93000000  0.08510000  0.40520000  1.0 0.1226180637
C  C1  1  0.37030000  0.63400000  0.69450000  1.0 0.5397838199
C  C2  1  0.62970000  0.13400000  0.80550000  1.0 0.5397838199
C  C3  1  0.62970000  0.36600000  0.30550000  1.0 0.5397838199
C  C4  1  0.37030000  0.86600000  0.19450000  1.0 0.5397838199
C  C5  1  0.96780000  0.45740000  0.82730000  1.0 -0.0213006925
C  C6  1  0.03220000  0.95740000  0.67270000  1.0 -0.0213006925
C  C7  1  0.03220000  0.54260000  0.17270000  1.0 -0.0213006925
C  C8  1  0.96780000  0.04260000  0.32730000  1.0 -0.0213006925
C  C9  1  0.56060000  0.46020000  0.67250000  1.0 -0.0126309181
C  C10  1  0.43940000  0.96020000  0.82750000  1.0 -0.0126309181
C  C11  1  0.43940000  0.53980000  0.32750000  1.0 -0.0126309181
C  C12  1  0.56060000  0.03980000  0.17250000  1.0 -0.0126309181
C  C13  1  0.48800000  0.52050000  0.57640000  1.0 0.1473851893
C  C14  1  0.51200000  0.02050000  0.92360000  1.0 0.1385441929
C  C15  1  0.51200000  0.47950000  0.42360000  1.0 0.1473851893
C  C16  1  0.48800000  0.97950000  0.07640000  1.0 0.1473851893
C  C17  1  0.50090000  0.51590000  0.70030000  1.0 -0.0841694499
C  C18  1  0.49910000  0.01590000  0.79970000  1.0 -0.0841694499
C  C19  1  0.49910000  0.48410000  0.29970000  1.0 -0.0841694499
C  C20  1  0.50090000  0.98410000  0.20030000  1.0 -0.0841694499
C  C21  1  0.42770000  0.57490000  0.60330000  1.0 -0.1488391602
C  C22  1  0.57230000  0.07490000  0.89670000  1.0 -0.1488391602
C  C23  1  0.57230000  0.42510000  0.39670000  1.0 -0.1488391602
C  C24  1  0.42770000  0.92510000  0.10330000  1.0 -0.1488391602
C  C25  1  0.55510000  0.46330000  0.61050000  1.0 -0.156588637
C  C26  1  0.44490000  0.96330000  0.88950000  1.0 -0.156588637
C  C27  1  0.44490000  0.53670000  0.38950000  1.0 -0.156588637
C  C28  1  0.55510000  0.03670000  0.11050000  1.0 -0.156588637
C  C29  1  0.02430000  0.52050000  0.92650000  1.0 0.1385441929
C  C30  1  0.97570000  0.02050000  0.57350000  1.0 0.1385441929
C  C31  1  0.97570000  0.47950000  0.07350000  1.0 0.1385441929
C  C32  1  0.02430000  0.97950000  0.42650000  1.0 0.1385441929
C  C33  1  0.08070000  0.58300000  0.90250000  1.0 -0.1488391602
C  C34  1  0.91930000  0.08300000  0.59750000  1.0 -0.1488391602
C  C35  1  0.91930000  0.41700000  0.09750000  1.0 -0.1488391602
C  C36  1  0.08070000  0.91700000  0.40250000  1.0 -0.1488391602
C  C37  1  0.43450000  0.57270000  0.66610000  1.0 -0.0126309181
C  C38  1  0.56550000  0.07270000  0.83390000  1.0 -0.0126309181
C  C39  1  0.56550000  0.42730000  0.33390000  1.0 -0.0126309181
C  C40  1  0.43450000  0.92730000  0.16610000  1.0 -0.0126309181
C  C41  1  0.02520000  0.52000000  0.80340000  1.0 -0.086523025
C  C42  1  0.97480000  0.02000000  0.69660000  1.0 -0.086523025
C  C43  1  0.97480000  0.48000000  0.19660000  1.0 -0.086523025
C  C44  1  0.02520000  0.98000000  0.30340000  1.0 -0.086523025
C  C45  1  0.96780000  0.45720000  0.88890000  1.0 -0.1488391602
C  C46  1  0.03220000  0.95720000  0.61110000  1.0 -0.1488391602
C  C47  1  0.03220000  0.54280000  0.11110000  1.0 -0.1488391602
C  C48  1  0.96780000  0.04280000  0.38890000  1.0 -0.1488391602
C  C49  1  0.90240000  0.39130000  0.78730000  1.0 0.590437208
C  C50  1  0.09760000  0.89130000  0.71270000  1.0 0.590437208
C  C51  1  0.09760000  0.60870000  0.21270000  1.0 0.590437208
C  C52  1  0.90240000  0.10870000  0.28730000  1.0 0.590437208
C  C53  1  0.08140000  0.58280000  0.84070000  1.0 -0.0276175473
C  C54  1  0.91860000  0.08280000  0.65930000  1.0 -0.0276175473
C  C55  1  0.91860000  0.41720000  0.15930000  1.0 -0.0276175473
C  C56  1  0.08140000  0.91720000  0.34070000  1.0 -0.0276175473
C  C57  1  0.62730000  0.39470000  0.71020000  1.0 0.5704547608
C  C58  1  0.37270000  0.89470000  0.78980000  1.0 0.5704547608
C  C59  1  0.37270000  0.60530000  0.28980000  1.0 0.5704547608
C  C60  1  0.62730000  0.10530000  0.21020000  1.0 0.5704547608
C  C61  1  0.14180000  0.65320000  0.81580000  1.0 0.590437208
C  C62  1  0.85820000  0.15320000  0.68420000  1.0 0.5849553489
C  C63  1  0.85820000  0.34680000  0.18420000  1.0 0.5849553489
C  C64  1  0.14180000  0.84680000  0.31580000  1.0 0.590437208
N  N1  1  0.47650000  0.52900000  0.51200000  1.0 -0.1389025009
N  N2  1  0.52350000  0.02900000  0.98800000  1.0 -0.1389025009
N  N3  1  0.52350000  0.47100000  0.48800000  1.0 -0.1389025009
N  N4  1  0.47650000  0.97100000  0.01200000  1.0 -0.1389025009
N  N5  1  0.02790000  0.52650000  0.99030000  1.0 -0.1274654294
N  N6  1  0.97210000  0.02650000  0.50970000  1.0 -0.1274654294
N  N7  1  0.97210000  0.47350000  0.00970000  1.0 -0.1274654294
N  N8  1  0.02790000  0.97350000  0.49030000  1.0 -0.1274654294
O  O1  1  0.90240000  0.39670000  0.73200000  1.0 -0.5884493447
O  O2  1  0.09760000  0.89670000  0.76800000  1.0 -0.5884493447
O  O3  1  0.09760000  0.60330000  0.26800000  1.0 -0.5884493447
O  O4  1  0.90240000  0.10330000  0.23200000  1.0 -0.5884493447
O  O5  1  0.68450000  0.34750000  0.68310000  1.0 -0.6178567267
O  O6  1  0.31550000  0.84750000  0.81690000  1.0 -0.6178567267
O  O7  1  0.31550000  0.65250000  0.31690000  1.0 -0.6178567267
O  O8  1  0.68450000  0.15250000  0.18310000  1.0 -0.6178567267
O  O9  1  0.38310000  0.63940000  0.75130000  1.0 -0.5204694725
O  O10  1  0.61690000  0.13940000  0.74870000  1.0 -0.5204694725
O  O11  1  0.61690000  0.36060000  0.24870000  1.0 -0.5204694725
O  O12  1  0.38310000  0.86060000  0.25130000  1.0 -0.5204694725
O  O13  1  0.15240000  0.64210000  0.76210000  1.0 -0.5116360343
O  O14  1  0.84760000  0.14210000  0.73790000  1.0 -0.5116360343
O  O15  1  0.84760000  0.35790000  0.23790000  1.0 -0.5116360343
O  O16  1  0.15240000  0.85790000  0.26210000  1.0 -0.5116360343
O  O17  1  0.30610000  0.67860000  0.66090000  1.0 -0.5204694725
O  O18  1  0.69390000  0.17860000  0.83910000  1.0 -0.5204694725
O  O19  1  0.69390000  0.32140000  0.33910000  1.0 -0.5204694725
O  O20  1  0.30610000  0.82140000  0.16090000  1.0 -0.5204694725
O  O21  1  0.62450000  0.38180000  0.76370000  1.0 -0.466269382
O  O22  1  0.37550000  0.88180000  0.73630000  1.0 -0.466269382
O  O23  1  0.37550000  0.61820000  0.23630000  1.0 -0.466269382
O  O24  1  0.62450000  0.11820000  0.26370000  1.0 -0.466269382
O  O25  1  0.17850000  0.71680000  0.84950000  1.0 -0.5807718194
O  O26  1  0.82150000  0.21680000  0.65050000  1.0 -0.5807718194
O  O27  1  0.82150000  0.28320000  0.15050000  1.0 -0.5807718194
O  O28  1  0.17850000  0.78320000  0.34950000  1.0 -0.5807718194
O  O29  1  0.85380000  0.33770000  0.81240000  1.0 -0.5116360343
O  O30  1  0.14620000  0.83770000  0.68760000  1.0 -0.5116360343
O  O31  1  0.14620000  0.66230000  0.18760000  1.0 -0.5116360343
O  O32  1  0.85380000  0.16230000  0.31240000  1.0 -0.5116360343
