# DDEC6 charges by PACMAN v1.1 (https://github.com/mtap-research/PACMAN-charge/)
data_DUFKAS_ion_pacman
_symmetry_space_group_name_H-M   'P 1'
_cell_length_a   29.18260000
_cell_length_b   29.18260000
_cell_length_c   28.60800000
_cell_angle_alpha   90.00000000
_cell_angle_beta   90.00000000
_cell_angle_gamma   104.25400000
_symmetry_Int_Tables_number   1
_chemical_formula_structural   Ce4H45C93(N2O11)3
_chemical_formula_sum   'Ce16 H180 C372 N24 O132'
_cell_volume   23613.20928841
_cell_formula_units_Z   4
loop_
 _symmetry_equiv_pos_site_id
 _symmetry_equiv_pos_as_xyz
  1  'x, y, z'
loop_
 _atom_site_type_symbol
 _atom_site_label
 _atom_site_symmetry_multiplicity
 _atom_site_fract_x
 _atom_site_fract_y
 _atom_site_fract_z
 _atom_site_occupancy
 _atom_site_charge
Ce  Ce1  1  0.94587000  0.28457000  0.23585000  1.0 1.8712005609
Ce  Ce2  1  0.55413000  0.21543000  0.73585000  1.0 1.8712005609
Ce  Ce3  1  0.78457000  0.44587000  0.26415000  1.0 1.8760918074
Ce  Ce4  1  0.71543000  0.05413000  0.76415000  1.0 1.8624264889
Ce  Ce5  1  0.05413000  0.71543000  0.76415000  1.0 1.8624264889
Ce  Ce6  1  0.44587000  0.78457000  0.26415000  1.0 1.8712005609
Ce  Ce7  1  0.21543000  0.55413000  0.73585000  1.0 1.8624264889
Ce  Ce8  1  0.28457000  0.94587000  0.23585000  1.0 1.8712005609
Ce  Ce9  1  0.90403000  0.40403000  0.25000000  1.0 1.9141960236
Ce  Ce10  1  0.59597000  0.09597000  0.75000000  1.0 1.9157795601
Ce  Ce11  1  0.09597000  0.59597000  0.75000000  1.0 1.9141960236
Ce  Ce12  1  0.40403000  0.90403000  0.25000000  1.0 1.9141960236
Ce  Ce13  1  0.44490000  0.44490000  0.52940000  1.0 1.9969348007
Ce  Ce14  1  0.05510000  0.05510000  0.02940000  1.0 1.9969348007
Ce  Ce15  1  0.94490000  0.94490000  0.97060000  1.0 2.0098970824
Ce  Ce16  1  0.55510000  0.55510000  0.47060000  1.0 2.0098970824
H  H1  1  0.99780000  0.39140000  0.94640000  1.0 0.1282022474
H  H2  1  0.50220000  0.10860000  0.44640000  1.0 0.1282022474
H  H3  1  0.89140000  0.49780000  0.55360000  1.0 0.1282022474
H  H4  1  0.60860000  0.00220000  0.05360000  1.0 0.1282022474
H  H5  1  0.00220000  0.60860000  0.05360000  1.0 0.1282022474
H  H6  1  0.49780000  0.89140000  0.55360000  1.0 0.1282022474
H  H7  1  0.10860000  0.50220000  0.44640000  1.0 0.1282022474
H  H8  1  0.39140000  0.99780000  0.94640000  1.0 0.1282022474
H  H9  1  0.96430000  0.30930000  0.83230000  1.0 0.1401210644
H  H10  1  0.53570000  0.19070000  0.33230000  1.0 0.1401210644
H  H11  1  0.80930000  0.46430000  0.66770000  1.0 0.1401210644
H  H12  1  0.69070000  0.03570000  0.16770000  1.0 0.1401210644
H  H13  1  0.03570000  0.69070000  0.16770000  1.0 0.1401210644
H  H14  1  0.46430000  0.80930000  0.66770000  1.0 0.1401210644
H  H15  1  0.19070000  0.53570000  0.33230000  1.0 0.1401210644
H  H16  1  0.30930000  0.96430000  0.83230000  1.0 0.1401210644
H  H17  1  0.89770000  0.27110000  0.95300000  1.0 0.1282022474
H  H18  1  0.60230000  0.22890000  0.45300000  1.0 0.1282022474
H  H19  1  0.77110000  0.39770000  0.54700000  1.0 0.1282022474
H  H20  1  0.72890000  0.10230000  0.04700000  1.0 0.1282022474
H  H21  1  0.10230000  0.72890000  0.04700000  1.0 0.1282022474
H  H22  1  0.39770000  0.77110000  0.54700000  1.0 0.1282022474
H  H23  1  0.22890000  0.60230000  0.45300000  1.0 0.1282022474
H  H24  1  0.27110000  0.89770000  0.95300000  1.0 0.1282022474
H  H25  1  0.94260000  0.41160000  0.00170000  1.0 0.1282022474
H  H26  1  0.55740000  0.08840000  0.50170000  1.0 0.1282022474
H  H27  1  0.91160000  0.44260000  0.49830000  1.0 0.1282022474
H  H28  1  0.58840000  0.05740000  0.99830000  1.0 0.1282022474
H  H29  1  0.05740000  0.58840000  0.99830000  1.0 0.1282022474
H  H30  1  0.44260000  0.91160000  0.49830000  1.0 0.1282022474
H  H31  1  0.08840000  0.55740000  0.50170000  1.0 0.1282022474
H  H32  1  0.41160000  0.94260000  0.00170000  1.0 0.1282022474
H  H33  1  0.93070000  0.42570000  0.08030000  1.0 0.1401210644
H  H34  1  0.56930000  0.07430000  0.58030000  1.0 0.1401210644
H  H35  1  0.92570000  0.43070000  0.41970000  1.0 0.1401210644
H  H36  1  0.57430000  0.06930000  0.91970000  1.0 0.1401210644
H  H37  1  0.06930000  0.57430000  0.91970000  1.0 0.1401210644
H  H38  1  0.43070000  0.92570000  0.41970000  1.0 0.1401210644
H  H39  1  0.07430000  0.56930000  0.58030000  1.0 0.1401210644
H  H40  1  0.42570000  0.93070000  0.08030000  1.0 0.1401210644
H  H41  1  0.92040000  0.29160000  0.11060000  1.0 0.1401210644
H  H42  1  0.57960000  0.20840000  0.61060000  1.0 0.1401210644
H  H43  1  0.79160000  0.42040000  0.38940000  1.0 0.1401210644
H  H44  1  0.70840000  0.07960000  0.88940000  1.0 0.1401210644
H  H45  1  0.07960000  0.70840000  0.88940000  1.0 0.1401210644
H  H46  1  0.42040000  0.79160000  0.38940000  1.0 0.1401210644
H  H47  1  0.20840000  0.57960000  0.61060000  1.0 0.1401210644
H  H48  1  0.29160000  0.92040000  0.11060000  1.0 0.1401210644
H  H49  1  0.93550000  0.27570000  0.03350000  1.0 0.1282022474
H  H50  1  0.56450000  0.22430000  0.53350000  1.0 0.1230521056
H  H51  1  0.77570000  0.43550000  0.46650000  1.0 0.1282022474
H  H52  1  0.72430000  0.06450000  0.96650000  1.0 0.1230521056
H  H53  1  0.06450000  0.72430000  0.96650000  1.0 0.1282022474
H  H54  1  0.43550000  0.77570000  0.46650000  1.0 0.1282022474
H  H55  1  0.22430000  0.56450000  0.53350000  1.0 0.1282022474
H  H56  1  0.27570000  0.93550000  0.03350000  1.0 0.1282022474
H  H57  1  0.00760000  0.44940000  0.87950000  1.0 0.1282022474
H  H58  1  0.49240000  0.05060000  0.37950000  1.0 0.1282022474
H  H59  1  0.94940000  0.50760000  0.62050000  1.0 0.1282022474
H  H60  1  0.55060000  0.99240000  0.12050000  1.0 0.1282022474
H  H61  1  0.99240000  0.55060000  0.12050000  1.0 0.1282022474
H  H62  1  0.50760000  0.94940000  0.62050000  1.0 0.1282022474
H  H63  1  0.05060000  0.49240000  0.37950000  1.0 0.1282022474
H  H64  1  0.44940000  0.00760000  0.87950000  1.0 0.1282022474
H  H65  1  0.06760000  0.50120000  0.83880000  1.0 0.1401210644
H  H66  1  0.43240000  0.99880000  0.33880000  1.0 0.1401210644
H  H67  1  0.00120000  0.56760000  0.66120000  1.0 0.1401210644
H  H68  1  0.49880000  0.93240000  0.16120000  1.0 0.1401210644
H  H69  1  0.93240000  0.49880000  0.16120000  1.0 0.1401210644
H  H70  1  0.56760000  0.00120000  0.66120000  1.0 0.1401210644
H  H71  1  0.99880000  0.43240000  0.33880000  1.0 0.1401210644
H  H72  1  0.50120000  0.06760000  0.83880000  1.0 0.1401210644
H  H73  1  0.11220000  0.39480000  0.78680000  1.0 0.1507464492
H  H74  1  0.38780000  0.10520000  0.28680000  1.0 0.1507464492
H  H75  1  0.89480000  0.61220000  0.71320000  1.0 0.1507464492
H  H76  1  0.60520000  0.88780000  0.21320000  1.0 0.1507464492
H  H77  1  0.88780000  0.60520000  0.21320000  1.0 0.1507464492
H  H78  1  0.61220000  0.89480000  0.71320000  1.0 0.1507464492
H  H79  1  0.10520000  0.38780000  0.28680000  1.0 0.1507464492
H  H80  1  0.39480000  0.11220000  0.78680000  1.0 0.1507464492
H  H81  1  0.05080000  0.34280000  0.82450000  1.0 0.1401210644
H  H82  1  0.44920000  0.15720000  0.32450000  1.0 0.1401210644
H  H83  1  0.84280000  0.55080000  0.67550000  1.0 0.1401210644
H  H84  1  0.65720000  0.94920000  0.17550000  1.0 0.1401210644
H  H85  1  0.94920000  0.65720000  0.17550000  1.0 0.1401210644
H  H86  1  0.55080000  0.84280000  0.67550000  1.0 0.1401210644
H  H87  1  0.15720000  0.44920000  0.32450000  1.0 0.1401210644
H  H88  1  0.34280000  0.05080000  0.82450000  1.0 0.1401210644
H  H89  1  0.88690000  0.27470000  0.80800000  1.0 0.1230521056
H  H90  1  0.61310000  0.22530000  0.30800000  1.0 0.1230521056
H  H91  1  0.77470000  0.38690000  0.69200000  1.0 0.1230521056
H  H92  1  0.72530000  0.11310000  0.19200000  1.0 0.1230521056
H  H93  1  0.11310000  0.72530000  0.19200000  1.0 0.1230521056
H  H94  1  0.38690000  0.77470000  0.69200000  1.0 0.1230521056
H  H95  1  0.22530000  0.61310000  0.30800000  1.0 0.1230521056
H  H96  1  0.27470000  0.88690000  0.80800000  1.0 0.1230521056
H  H97  1  0.83330000  0.21230000  0.77060000  1.0 0.1401210644
H  H98  1  0.66666667  0.28770000  0.27060000  1.0 0.1401210644
H  H99  1  0.71230000  0.33333333  0.72940000  1.0 0.1401210644
H  H100  1  0.78770000  0.16670000  0.22940000  1.0 0.1401210644
H  H101  1  0.16670000  0.78770000  0.22940000  1.0 0.1401210644
H  H102  1  0.33333333  0.71230000  0.72940000  1.0 0.1401210644
H  H103  1  0.28770000  0.66666667  0.27060000  1.0 0.1401210644
H  H104  1  0.21230000  0.83330000  0.77060000  1.0 0.1401210644
H  H105  1  0.84110000  0.13210000  0.88290000  1.0 0.1230521056
H  H106  1  0.65890000  0.36790000  0.38290000  1.0 0.1230521056
H  H107  1  0.63210000  0.34110000  0.61710000  1.0 0.1230521056
H  H108  1  0.86790000  0.15890000  0.11710000  1.0 0.1282022474
H  H109  1  0.15890000  0.86790000  0.11710000  1.0 0.1230521056
H  H110  1  0.34110000  0.63210000  0.61710000  1.0 0.1282022474
H  H111  1  0.36790000  0.65890000  0.38290000  1.0 0.1230521056
H  H112  1  0.13210000  0.84110000  0.88290000  1.0 0.1230521056
H  H113  1  0.89300000  0.19440000  0.91740000  1.0 0.1230521056
H  H114  1  0.60700000  0.30560000  0.41740000  1.0 0.1230521056
H  H115  1  0.69440000  0.39300000  0.58260000  1.0 0.1230521056
H  H116  1  0.80560000  0.10700000  0.08260000  1.0 0.1230521056
H  H117  1  0.10700000  0.80560000  0.08260000  1.0 0.1230521056
H  H118  1  0.39300000  0.69440000  0.58260000  1.0 0.1230521056
H  H119  1  0.30560000  0.60700000  0.41740000  1.0 0.1230521056
H  H120  1  0.19440000  0.89300000  0.91740000  1.0 0.1230521056
H  H121  1  0.80200000  0.31880000  0.31650000  1.0 0.1507464492
H  H122  1  0.69800000  0.18120000  0.81650000  1.0 0.1507464492
H  H123  1  0.81880000  0.30200000  0.18350000  1.0 0.1507464492
H  H124  1  0.68120000  0.19800000  0.68350000  1.0 0.1507464492
H  H125  1  0.19800000  0.68120000  0.68350000  1.0 0.1507464492
H  H126  1  0.30200000  0.81880000  0.18350000  1.0 0.1507464492
H  H127  1  0.18120000  0.69800000  0.81650000  1.0 0.1507464492
H  H128  1  0.31880000  0.80200000  0.31650000  1.0 0.1507464492
H  H129  1  0.74540000  0.31300000  0.37560000  1.0 0.1282022474
H  H130  1  0.75460000  0.18700000  0.87560000  1.0 0.1282022474
H  H131  1  0.81300000  0.24540000  0.12440000  1.0 0.1282022474
H  H132  1  0.68700000  0.25460000  0.62440000  1.0 0.1282022474
H  H133  1  0.25460000  0.68700000  0.62440000  1.0 0.1282022474
H  H134  1  0.24540000  0.81300000  0.12440000  1.0 0.1282022474
H  H135  1  0.18700000  0.75460000  0.87560000  1.0 0.1282022474
H  H136  1  0.31300000  0.74540000  0.37560000  1.0 0.1282022474
H  H137  1  0.83360000  0.27040000  0.46290000  1.0 0.1282022474
H  H138  1  0.66640000  0.22960000  0.96290000  1.0 0.1282022474
H  H139  1  0.77040000  0.33360000  0.03710000  1.0 0.1282022474
H  H140  1  0.72960000  0.16640000  0.53710000  1.0 0.1282022474
H  H141  1  0.16640000  0.72960000  0.53710000  1.0 0.1282022474
H  H142  1  0.33360000  0.77040000  0.03710000  1.0 0.1282022474
H  H143  1  0.22960000  0.66640000  0.96290000  1.0 0.1282022474
H  H144  1  0.27040000  0.83360000  0.46290000  1.0 0.1282022474
H  H145  1  0.88890000  0.27650000  0.40500000  1.0 0.1401210644
H  H146  1  0.61110000  0.22350000  0.90500000  1.0 0.1401210644
H  H147  1  0.77650000  0.38890000  0.09500000  1.0 0.1401210644
H  H148  1  0.72350000  0.11110000  0.59500000  1.0 0.1401210644
H  H149  1  0.11110000  0.72350000  0.59500000  1.0 0.1401210644
H  H150  1  0.38890000  0.77650000  0.09500000  1.0 0.1401210644
H  H151  1  0.22350000  0.61110000  0.90500000  1.0 0.1401210644
H  H152  1  0.27650000  0.88890000  0.40500000  1.0 0.1401210644
H  H153  1  0.76500000  0.23500000  0.50000000  1.0 0.1282022474
H  H154  1  0.73500000  0.26500000  0.00000000  1.0 0.1282022474
H  H155  1  0.23500000  0.76500000  0.50000000  1.0 0.1282022474
H  H156  1  0.26500000  0.73500000  0.00000000  1.0 0.1282022474
H  H157  1  0.72070000  0.34030000  0.44230000  1.0 0.1282022474
H  H158  1  0.77930000  0.15970000  0.94230000  1.0 0.1282022474
H  H159  1  0.84030000  0.22070000  0.05770000  1.0 0.1282022474
H  H160  1  0.65970000  0.27930000  0.55770000  1.0 0.1282022474
H  H161  1  0.27930000  0.65970000  0.55770000  1.0 0.1282022474
H  H162  1  0.22070000  0.84030000  0.05770000  1.0 0.1282022474
H  H163  1  0.15970000  0.77930000  0.94230000  1.0 0.1282022474
H  H164  1  0.34030000  0.72070000  0.44230000  1.0 0.1282022474
H  H165  1  0.69710000  0.40190000  0.46930000  1.0 0.1282022474
H  H166  1  0.80290000  0.09810000  0.96930000  1.0 0.1282022474
H  H167  1  0.90190000  0.19710000  0.03070000  1.0 0.1282022474
H  H168  1  0.59810000  0.30290000  0.53070000  1.0 0.1282022474
H  H169  1  0.30290000  0.59810000  0.53070000  1.0 0.1282022474
H  H170  1  0.19710000  0.90190000  0.03070000  1.0 0.1282022474
H  H171  1  0.09810000  0.80290000  0.96930000  1.0 0.1282022474
H  H172  1  0.40190000  0.69710000  0.46930000  1.0 0.1282022474
H  H173  1  0.65000000  0.45080000  0.46990000  1.0 0.1507464492
H  H174  1  0.85000000  0.04920000  0.96990000  1.0 0.1507464492
H  H175  1  0.95080000  0.15000000  0.03010000  1.0 0.1507464492
H  H176  1  0.54920000  0.35000000  0.53010000  1.0 0.1507464492
H  H177  1  0.35000000  0.54920000  0.53010000  1.0 0.1507464492
H  H178  1  0.15000000  0.95080000  0.03010000  1.0 0.1507464492
H  H179  1  0.04920000  0.85000000  0.96990000  1.0 0.1507464492
H  H180  1  0.45080000  0.65000000  0.46990000  1.0 0.1507464492
C  C1  1  0.94720000  0.33280000  0.95830000  1.0 0.0880554321
C  C2  1  0.55280000  0.16720000  0.45830000  1.0 0.0880554321
C  C3  1  0.83280000  0.44720000  0.54170000  1.0 0.0880554321
C  C4  1  0.66720000  0.05280000  0.04170000  1.0 0.0880554321
C  C5  1  0.05280000  0.66720000  0.04170000  1.0 0.0880554321
C  C6  1  0.44720000  0.83280000  0.54170000  1.0 0.0880554321
C  C7  1  0.16720000  0.55280000  0.45830000  1.0 0.0880554321
C  C8  1  0.33280000  0.94720000  0.95830000  1.0 0.0880554321
C  C9  1  0.97970000  0.36430000  0.93220000  1.0 -0.1793151095
C  C10  1  0.52030000  0.13570000  0.43220000  1.0 -0.1793151095
C  C11  1  0.86430000  0.47970000  0.56780000  1.0 -0.1793151095
C  C12  1  0.63570000  0.02030000  0.06780000  1.0 -0.1793151095
C  C13  1  0.02030000  0.63570000  0.06780000  1.0 -0.1793151095
C  C14  1  0.47970000  0.86430000  0.56780000  1.0 -0.1793151095
C  C15  1  0.13570000  0.52030000  0.43220000  1.0 -0.1793151095
C  C16  1  0.36430000  0.97970000  0.93220000  1.0 -0.1793151095
C  C17  1  0.98660000  0.35640000  0.88450000  1.0 0.1094952495
C  C18  1  0.51340000  0.14360000  0.38450000  1.0 0.1094952495
C  C19  1  0.85640000  0.48660000  0.61550000  1.0 0.1094952495
C  C20  1  0.64360000  0.01340000  0.11550000  1.0 0.1094952495
C  C21  1  0.01340000  0.64360000  0.11550000  1.0 0.1094952495
C  C22  1  0.48660000  0.85640000  0.61550000  1.0 0.1094952495
C  C23  1  0.14360000  0.51340000  0.38450000  1.0 0.1094952495
C  C24  1  0.35640000  0.98660000  0.88450000  1.0 0.1094952495
C  C25  1  0.96000000  0.31520000  0.86370000  1.0 -0.1793151095
C  C26  1  0.54000000  0.18480000  0.36370000  1.0 -0.1793151095
C  C27  1  0.81520000  0.46000000  0.63630000  1.0 -0.1793151095
C  C28  1  0.68480000  0.04000000  0.13630000  1.0 -0.1793151095
C  C29  1  0.04000000  0.68480000  0.13630000  1.0 -0.1793151095
C  C30  1  0.46000000  0.81520000  0.63630000  1.0 -0.1793151095
C  C31  1  0.18480000  0.54000000  0.36370000  1.0 -0.1793151095
C  C32  1  0.31520000  0.96000000  0.86370000  1.0 -0.1793151095
C  C33  1  0.92700000  0.28300000  0.89010000  1.0 0.1094952495
C  C34  1  0.57300000  0.21700000  0.39010000  1.0 0.1094952495
C  C35  1  0.78300000  0.42700000  0.60990000  1.0 0.1094952495
C  C36  1  0.71700000  0.07300000  0.10990000  1.0 0.1094952495
C  C37  1  0.07300000  0.71700000  0.10990000  1.0 0.1094952495
C  C38  1  0.42700000  0.78300000  0.60990000  1.0 0.1094952495
C  C39  1  0.21700000  0.57300000  0.39010000  1.0 0.1094952495
C  C40  1  0.28300000  0.92700000  0.89010000  1.0 0.1094952495
C  C41  1  0.92060000  0.29240000  0.93600000  1.0 -0.1793151095
C  C42  1  0.57940000  0.20760000  0.43600000  1.0 -0.1793151095
C  C43  1  0.79240000  0.42060000  0.56400000  1.0 -0.1793151095
C  C44  1  0.70760000  0.07940000  0.06400000  1.0 -0.1793151095
C  C45  1  0.07940000  0.70760000  0.06400000  1.0 -0.1793151095
C  C46  1  0.42060000  0.79240000  0.56400000  1.0 -0.1793151095
C  C47  1  0.20760000  0.57940000  0.43600000  1.0 -0.1793151095
C  C48  1  0.29240000  0.92060000  0.93600000  1.0 -0.1793151095
C  C49  1  0.93970000  0.34190000  0.00770000  1.0 0.0880554321
C  C50  1  0.56030000  0.15810000  0.50770000  1.0 0.0880554321
C  C51  1  0.84190000  0.43970000  0.49230000  1.0 0.0880554321
C  C52  1  0.65810000  0.06030000  0.99230000  1.0 0.0880554321
C  C53  1  0.06030000  0.65810000  0.99230000  1.0 0.0880554321
C  C54  1  0.43970000  0.84190000  0.49230000  1.0 0.0880554321
C  C55  1  0.15810000  0.56030000  0.50770000  1.0 0.0880554321
C  C56  1  0.34190000  0.93970000  0.00770000  1.0 0.0880554321
C  C57  1  0.93870000  0.38690000  0.02310000  1.0 -0.1400251433
C  C58  1  0.56130000  0.11310000  0.52310000  1.0 -0.1400251433
C  C59  1  0.88690000  0.43870000  0.47690000  1.0 -0.1400251433
C  C60  1  0.61310000  0.06130000  0.97690000  1.0 -0.1400251433
C  C61  1  0.06130000  0.61310000  0.97690000  1.0 -0.1400251433
C  C62  1  0.43870000  0.88690000  0.47690000  1.0 -0.1400251433
C  C63  1  0.11310000  0.56130000  0.52310000  1.0 -0.1400251433
C  C64  1  0.38690000  0.93870000  0.02310000  1.0 -0.1400251433
C  C65  1  0.93180000  0.39560000  0.07070000  1.0 -0.0706166166
C  C66  1  0.56820000  0.10440000  0.57070000  1.0 -0.0706166166
C  C67  1  0.89560000  0.43180000  0.42930000  1.0 -0.0706166166
C  C68  1  0.60440000  0.06820000  0.92930000  1.0 -0.0706166166
C  C69  1  0.06820000  0.60440000  0.92930000  1.0 -0.0706166166
C  C70  1  0.43180000  0.89560000  0.42930000  1.0 -0.0706166166
C  C71  1  0.10440000  0.56820000  0.57070000  1.0 -0.0706166166
C  C72  1  0.39560000  0.93180000  0.07070000  1.0 -0.0706166166
C  C73  1  0.92690000  0.36030000  0.10280000  1.0 -0.0191840025
C  C74  1  0.57310000  0.13970000  0.60280000  1.0 -0.0191840025
C  C75  1  0.86030000  0.42690000  0.39720000  1.0 -0.0191840025
C  C76  1  0.63970000  0.07310000  0.89720000  1.0 -0.0191840025
C  C77  1  0.07310000  0.63970000  0.89720000  1.0 -0.0191840025
C  C78  1  0.42690000  0.86030000  0.39720000  1.0 -0.0191840025
C  C79  1  0.13970000  0.57310000  0.60280000  1.0 -0.0191840025
C  C80  1  0.36030000  0.92690000  0.10280000  1.0 -0.0191840025
C  C81  1  0.92620000  0.31600000  0.08880000  1.0 -0.0787230019
C  C82  1  0.57380000  0.18400000  0.58880000  1.0 -0.0787230019
C  C83  1  0.81600000  0.42620000  0.41120000  1.0 -0.0787230019
C  C84  1  0.68400000  0.07380000  0.91120000  1.0 -0.0787230019
C  C85  1  0.07380000  0.68400000  0.91120000  1.0 -0.0787230019
C  C86  1  0.42620000  0.81600000  0.41120000  1.0 -0.0787230019
C  C87  1  0.18400000  0.57380000  0.58880000  1.0 -0.0706166166
C  C88  1  0.31600000  0.92620000  0.08880000  1.0 -0.0787230019
C  C89  1  0.93400000  0.30600000  0.04200000  1.0 -0.1327734605
C  C90  1  0.56600000  0.19400000  0.54200000  1.0 -0.1327734605
C  C91  1  0.80600000  0.43400000  0.45800000  1.0 -0.1327734605
C  C92  1  0.69400000  0.06600000  0.95800000  1.0 -0.1327734605
C  C93  1  0.06600000  0.69400000  0.95800000  1.0 -0.1327734605
C  C94  1  0.43400000  0.80600000  0.45800000  1.0 -0.1327734605
C  C95  1  0.19400000  0.56600000  0.54200000  1.0 -0.1327734605
C  C96  1  0.30600000  0.93400000  0.04200000  1.0 -0.1327734605
C  C97  1  0.02470000  0.39110000  0.85730000  1.0 0.0822542914
C  C98  1  0.47530000  0.10890000  0.35730000  1.0 0.0822542914
C  C99  1  0.89110000  0.52470000  0.64270000  1.0 0.0822542914
C  C100  1  0.60890000  0.97530000  0.14270000  1.0 0.0822542914
C  C101  1  0.97530000  0.60890000  0.14270000  1.0 0.0822542914
C  C102  1  0.52470000  0.89110000  0.64270000  1.0 0.0822542914
C  C103  1  0.10890000  0.47530000  0.35730000  1.0 0.0822542914
C  C104  1  0.39110000  0.02470000  0.85730000  1.0 0.0822542914
C  C105  1  0.02830000  0.43790000  0.86090000  1.0 -0.1327734605
C  C106  1  0.47170000  0.06210000  0.36090000  1.0 -0.1327734605
C  C107  1  0.93790000  0.52830000  0.63910000  1.0 -0.1327734605
C  C108  1  0.56210000  0.97170000  0.13910000  1.0 -0.1327734605
C  C109  1  0.97170000  0.56210000  0.13910000  1.0 -0.1327734605
C  C110  1  0.52830000  0.93790000  0.63910000  1.0 -0.1327734605
C  C111  1  0.06210000  0.47170000  0.36090000  1.0 -0.1327734605
C  C112  1  0.43790000  0.02830000  0.86090000  1.0 -0.1327734605
C  C113  1  0.06450000  0.46890000  0.83580000  1.0 -0.0787230019
C  C114  1  0.43550000  0.03110000  0.33580000  1.0 -0.0787230019
C  C115  1  0.96890000  0.56450000  0.66420000  1.0 -0.0787230019
C  C116  1  0.53110000  0.93550000  0.16420000  1.0 -0.0787230019
C  C117  1  0.93550000  0.53110000  0.16420000  1.0 -0.0787230019
C  C118  1  0.56450000  0.96890000  0.66420000  1.0 -0.0787230019
C  C119  1  0.03110000  0.43550000  0.33580000  1.0 -0.0787230019
C  C120  1  0.46890000  0.06450000  0.83580000  1.0 -0.0787230019
C  C121  1  0.09530000  0.45350000  0.80700000  1.0 -0.0191840025
C  C122  1  0.40470000  0.04650000  0.30700000  1.0 -0.0191840025
C  C123  1  0.95350000  0.59530000  0.69300000  1.0 -0.0191840025
C  C124  1  0.54650000  0.90470000  0.19300000  1.0 -0.0191840025
C  C125  1  0.90470000  0.54650000  0.19300000  1.0 -0.0191840025
C  C126  1  0.59530000  0.95350000  0.69300000  1.0 -0.0191840025
C  C127  1  0.04650000  0.40470000  0.30700000  1.0 -0.0191840025
C  C128  1  0.45350000  0.09530000  0.80700000  1.0 -0.0191840025
C  C129  1  0.09090000  0.40650000  0.80460000  1.0 -0.0787230019
C  C130  1  0.40910000  0.09350000  0.30460000  1.0 -0.0706166166
C  C131  1  0.90650000  0.59090000  0.69540000  1.0 -0.0787230019
C  C132  1  0.59350000  0.90910000  0.19540000  1.0 -0.0787230019
C  C133  1  0.90910000  0.59350000  0.19540000  1.0 -0.0787230019
C  C134  1  0.59090000  0.90650000  0.69540000  1.0 -0.0787230019
C  C135  1  0.09350000  0.40910000  0.30460000  1.0 -0.0787230019
C  C136  1  0.40650000  0.09090000  0.80460000  1.0 -0.0787230019
C  C137  1  0.05460000  0.37520000  0.82840000  1.0 -0.1195902539
C  C138  1  0.44540000  0.12480000  0.32840000  1.0 -0.1195902539
C  C139  1  0.87520000  0.55460000  0.67160000  1.0 -0.1195902539
C  C140  1  0.62480000  0.94540000  0.17160000  1.0 -0.1195902539
C  C141  1  0.94540000  0.62480000  0.17160000  1.0 -0.1195902539
C  C142  1  0.55460000  0.87520000  0.67160000  1.0 -0.1195902539
C  C143  1  0.12480000  0.44540000  0.32840000  1.0 -0.1195902539
C  C144  1  0.37520000  0.05460000  0.82840000  1.0 -0.1195902539
C  C145  1  0.89500000  0.24040000  0.86700000  1.0 0.0822542914
C  C146  1  0.60500000  0.25960000  0.36700000  1.0 0.0822542914
C  C147  1  0.74040000  0.39500000  0.63300000  1.0 0.0822542914
C  C148  1  0.75960000  0.10500000  0.13300000  1.0 0.0822542914
C  C149  1  0.10500000  0.75960000  0.13300000  1.0 0.0822542914
C  C150  1  0.39500000  0.74040000  0.63300000  1.0 0.0822542914
C  C151  1  0.25960000  0.60500000  0.36700000  1.0 0.0822542914
C  C152  1  0.24040000  0.89500000  0.86700000  1.0 0.0822542914
C  C153  1  0.87720000  0.24580000  0.82320000  1.0 -0.1195902539
C  C154  1  0.62280000  0.25420000  0.32320000  1.0 -0.1195902539
C  C155  1  0.74580000  0.37720000  0.67680000  1.0 -0.1195902539
C  C156  1  0.75420000  0.12280000  0.17680000  1.0 -0.1195902539
C  C157  1  0.12280000  0.75420000  0.17680000  1.0 -0.1195902539
C  C158  1  0.37720000  0.74580000  0.67680000  1.0 -0.1195902539
C  C159  1  0.25420000  0.62280000  0.32320000  1.0 -0.1195902539
C  C160  1  0.24580000  0.87720000  0.82320000  1.0 -0.1195902539
C  C161  1  0.84450000  0.20830000  0.80040000  1.0 -0.0706166166
C  C162  1  0.65550000  0.29170000  0.30040000  1.0 -0.0706166166
C  C163  1  0.70830000  0.34450000  0.69960000  1.0 -0.0706166166
C  C164  1  0.79170000  0.15550000  0.19960000  1.0 -0.0706166166
C  C165  1  0.15550000  0.79170000  0.19960000  1.0 -0.0706166166
C  C166  1  0.34450000  0.70830000  0.69960000  1.0 -0.0706166166
C  C167  1  0.29170000  0.65550000  0.30040000  1.0 -0.0706166166
C  C168  1  0.20830000  0.84450000  0.80040000  1.0 -0.0706166166
C  C169  1  0.82950000  0.16590000  0.82370000  1.0 -0.0191840025
C  C170  1  0.67050000  0.33410000  0.32370000  1.0 -0.0191840025
C  C171  1  0.66590000  0.32950000  0.67630000  1.0 -0.0191840025
C  C172  1  0.83410000  0.17050000  0.17630000  1.0 -0.0191840025
C  C173  1  0.17050000  0.83410000  0.17630000  1.0 -0.0191840025
C  C174  1  0.32950000  0.66590000  0.67630000  1.0 -0.0191840025
C  C175  1  0.33410000  0.67050000  0.32370000  1.0 -0.0191840025
C  C176  1  0.16590000  0.82950000  0.82370000  1.0 -0.0191840025
C  C177  1  0.84940000  0.16100000  0.86750000  1.0 -0.0873120396
C  C178  1  0.65060000  0.33900000  0.36750000  1.0 -0.0873120396
C  C179  1  0.66100000  0.34940000  0.63250000  1.0 -0.0873120396
C  C180  1  0.83900000  0.15060000  0.13250000  1.0 -0.0873120396
C  C181  1  0.15060000  0.83900000  0.13250000  1.0 -0.0873120396
C  C182  1  0.34940000  0.66100000  0.63250000  1.0 -0.0873120396
C  C183  1  0.33900000  0.65060000  0.36750000  1.0 -0.0873120396
C  C184  1  0.16100000  0.84940000  0.86750000  1.0 -0.0873120396
C  C185  1  0.88100000  0.19840000  0.88800000  1.0 -0.1327734605
C  C186  1  0.61900000  0.30160000  0.38800000  1.0 -0.1327734605
C  C187  1  0.69840000  0.38100000  0.61200000  1.0 -0.1327734605
C  C188  1  0.80160000  0.11900000  0.11200000  1.0 -0.1327734605
C  C189  1  0.11900000  0.80160000  0.11200000  1.0 -0.1327734605
C  C190  1  0.38100000  0.69840000  0.61200000  1.0 -0.1327734605
C  C191  1  0.30160000  0.61900000  0.38800000  1.0 -0.1327734605
C  C192  1  0.19840000  0.88100000  0.88800000  1.0 -0.1327734605
C  C193  1  0.92140000  0.37100000  0.15270000  1.0 0.6086262433
C  C194  1  0.57860000  0.12900000  0.65270000  1.0 0.6086262433
C  C195  1  0.87100000  0.42140000  0.34730000  1.0 0.6086262433
C  C196  1  0.62900000  0.07860000  0.84730000  1.0 0.6086262433
C  C197  1  0.07860000  0.62900000  0.84730000  1.0 0.6086262433
C  C198  1  0.42140000  0.87100000  0.34730000  1.0 0.6086262433
C  C199  1  0.12900000  0.57860000  0.65270000  1.0 0.6086262433
C  C200  1  0.37100000  0.92140000  0.15270000  1.0 0.6086262433
C  C201  1  0.13220000  0.48940000  0.78140000  1.0 0.6086262433
C  C202  1  0.36780000  0.01060000  0.28140000  1.0 0.6086262433
C  C203  1  0.98940000  0.63220000  0.71860000  1.0 0.6086262433
C  C204  1  0.51060000  0.86780000  0.21860000  1.0 0.6086262433
C  C205  1  0.86780000  0.51060000  0.21860000  1.0 0.6086262433
C  C206  1  0.63220000  0.98940000  0.71860000  1.0 0.6086262433
C  C207  1  0.01060000  0.36780000  0.28140000  1.0 0.6086262433
C  C208  1  0.48940000  0.13220000  0.78140000  1.0 0.6086262433
C  C209  1  0.79110000  0.12810000  0.80360000  1.0 0.5731995397
C  C210  1  0.70890000  0.37190000  0.30360000  1.0 0.5731995397
C  C211  1  0.62810000  0.29110000  0.69640000  1.0 0.5731995397
C  C212  1  0.87190000  0.20890000  0.19640000  1.0 0.5731995397
C  C213  1  0.20890000  0.87190000  0.19640000  1.0 0.5731995397
C  C214  1  0.29110000  0.62810000  0.69640000  1.0 0.5731995397
C  C215  1  0.37190000  0.70890000  0.30360000  1.0 0.5731995397
C  C216  1  0.12810000  0.79110000  0.80360000  1.0 0.5731995397
C  C217  1  0.85010000  0.29730000  0.35390000  1.0 -0.003752192
C  C218  1  0.64990000  0.20270000  0.85390000  1.0 -0.003752192
C  C219  1  0.79730000  0.35010000  0.14610000  1.0 -0.003752192
C  C220  1  0.70270000  0.14990000  0.64610000  1.0 -0.003752192
C  C221  1  0.14990000  0.70270000  0.64610000  1.0 -0.003752192
C  C222  1  0.35010000  0.79730000  0.14610000  1.0 -0.003752192
C  C223  1  0.20270000  0.64990000  0.85390000  1.0 -0.003752192
C  C224  1  0.29730000  0.85010000  0.35390000  1.0 -0.003752192
C  C225  1  0.80830000  0.30870000  0.34610000  1.0 -0.062881208
C  C226  1  0.69170000  0.19130000  0.84610000  1.0 -0.062881208
C  C227  1  0.80870000  0.30830000  0.15390000  1.0 -0.062881208
C  C228  1  0.69130000  0.19170000  0.65390000  1.0 -0.062881208
C  C229  1  0.19170000  0.69130000  0.65390000  1.0 -0.062881208
C  C230  1  0.30830000  0.80870000  0.15390000  1.0 -0.062881208
C  C231  1  0.19130000  0.69170000  0.84610000  1.0 -0.062881208
C  C232  1  0.30870000  0.80830000  0.34610000  1.0 -0.062881208
C  C233  1  0.77410000  0.30570000  0.38160000  1.0 -0.1195902539
C  C234  1  0.72590000  0.19430000  0.88160000  1.0 -0.1195902539
C  C235  1  0.80570000  0.27410000  0.11840000  1.0 -0.1195902539
C  C236  1  0.69430000  0.22590000  0.61840000  1.0 -0.1195902539
C  C237  1  0.22590000  0.69430000  0.61840000  1.0 -0.1195902539
C  C238  1  0.27410000  0.80570000  0.11840000  1.0 -0.1195902539
C  C239  1  0.19430000  0.72590000  0.88160000  1.0 -0.1195902539
C  C240  1  0.30570000  0.77410000  0.38160000  1.0 -0.1195902539
C  C241  1  0.78460000  0.29160000  0.42530000  1.0 0.0880554321
C  C242  1  0.71540000  0.20840000  0.92530000  1.0 0.0880554321
C  C243  1  0.79160000  0.28460000  0.07470000  1.0 0.0880554321
C  C244  1  0.70840000  0.21540000  0.57470000  1.0 0.0880554321
C  C245  1  0.21540000  0.70840000  0.57470000  1.0 0.0880554321
C  C246  1  0.28460000  0.79160000  0.07470000  1.0 0.0880554321
C  C247  1  0.20840000  0.71540000  0.92530000  1.0 0.0880554321
C  C248  1  0.29160000  0.78460000  0.42530000  1.0 0.0880554321
C  C249  1  0.82720000  0.28040000  0.43330000  1.0 -0.1400251433
C  C250  1  0.67280000  0.21960000  0.93330000  1.0 -0.1400251433
C  C251  1  0.78040000  0.32720000  0.06670000  1.0 -0.1400251433
C  C252  1  0.71960000  0.17280000  0.56670000  1.0 -0.1400251433
C  C253  1  0.17280000  0.71960000  0.56670000  1.0 -0.1400251433
C  C254  1  0.32720000  0.78040000  0.06670000  1.0 -0.1400251433
C  C255  1  0.21960000  0.67280000  0.93330000  1.0 -0.1400251433
C  C256  1  0.28040000  0.82720000  0.43330000  1.0 -0.1400251433
C  C257  1  0.86010000  0.28350000  0.39880000  1.0 -0.0787230019
C  C258  1  0.63990000  0.21650000  0.89880000  1.0 -0.0787230019
C  C259  1  0.78350000  0.36010000  0.10120000  1.0 -0.0787230019
C  C260  1  0.71650000  0.13990000  0.60120000  1.0 -0.0787230019
C  C261  1  0.13990000  0.71650000  0.60120000  1.0 -0.0787230019
C  C262  1  0.36010000  0.78350000  0.10120000  1.0 -0.0787230019
C  C263  1  0.21650000  0.63990000  0.89880000  1.0 -0.0787230019
C  C264  1  0.28350000  0.86010000  0.39880000  1.0 -0.0787230019
C  C265  1  0.74800000  0.28880000  0.46410000  1.0 0.1094952495
C  C266  1  0.75200000  0.21120000  0.96410000  1.0 0.1094952495
C  C267  1  0.78880000  0.24800000  0.03590000  1.0 0.1094952495
C  C268  1  0.71120000  0.25200000  0.53590000  1.0 0.1094952495
C  C269  1  0.25200000  0.71120000  0.53590000  1.0 0.1094952495
C  C270  1  0.24800000  0.78880000  0.03590000  1.0 0.1094952495
C  C271  1  0.21120000  0.75200000  0.96410000  1.0 0.1094952495
C  C272  1  0.28880000  0.74800000  0.46410000  1.0 0.1094952495
C  C273  1  0.74480000  0.25520000  0.50000000  1.0 -0.1910316914
C  C274  1  0.75520000  0.24480000  0.00000000  1.0 -0.1910316914
C  C275  1  0.25520000  0.74480000  0.50000000  1.0 -0.1910316914
C  C276  1  0.24480000  0.75520000  0.00000000  1.0 -0.1910316914
C  C277  1  0.71850000  0.31750000  0.46550000  1.0 -0.1631608723
C  C278  1  0.78150000  0.18250000  0.96550000  1.0 -0.1631608723
C  C279  1  0.81750000  0.21850000  0.03450000  1.0 -0.1631608723
C  C280  1  0.68250000  0.28150000  0.53450000  1.0 -0.1631608723
C  C281  1  0.28150000  0.68250000  0.53450000  1.0 -0.1631608723
C  C282  1  0.21850000  0.81750000  0.03450000  1.0 -0.1631608723
C  C283  1  0.18250000  0.78150000  0.96550000  1.0 -0.1631608723
C  C284  1  0.31750000  0.71850000  0.46550000  1.0 -0.1631608723
C  C285  1  0.68530000  0.31470000  0.50000000  1.0 0.0822542914
C  C286  1  0.81470000  0.18530000  0.00000000  1.0 0.0822542914
C  C287  1  0.31470000  0.68530000  0.50000000  1.0 0.0822542914
C  C288  1  0.18530000  0.81470000  0.00000000  1.0 0.0822542914
C  C289  1  0.65340000  0.34660000  0.50000000  1.0 0.069075439
C  C290  1  0.84660000  0.15340000  0.00000000  1.0 0.069075439
C  C291  1  0.34660000  0.65340000  0.50000000  1.0 0.069075439
C  C292  1  0.15340000  0.84660000  0.00000000  1.0 0.069075439
C  C293  1  0.66700000  0.39160000  0.48200000  1.0 -0.1327734605
C  C294  1  0.83300000  0.10840000  0.98200000  1.0 -0.1327734605
C  C295  1  0.89160000  0.16700000  0.01800000  1.0 -0.1327734605
C  C296  1  0.60840000  0.33300000  0.51800000  1.0 -0.1327734605
C  C297  1  0.33300000  0.60840000  0.51800000  1.0 -0.1327734605
C  C298  1  0.16700000  0.89160000  0.01800000  1.0 -0.1327734605
C  C299  1  0.10840000  0.83300000  0.98200000  1.0 -0.1327734605
C  C300  1  0.39160000  0.66700000  0.48200000  1.0 -0.1327734605
C  C301  1  0.63880000  0.42060000  0.48210000  1.0 -0.0706166166
C  C302  1  0.86120000  0.07940000  0.98210000  1.0 -0.0706166166
C  C303  1  0.92060000  0.13880000  0.01790000  1.0 -0.0706166166
C  C304  1  0.57940000  0.36120000  0.51790000  1.0 -0.0706166166
C  C305  1  0.36120000  0.57940000  0.51790000  1.0 -0.0706166166
C  C306  1  0.13880000  0.92060000  0.01790000  1.0 -0.0706166166
C  C307  1  0.07940000  0.86120000  0.98210000  1.0 -0.0706166166
C  C308  1  0.42060000  0.63880000  0.48210000  1.0 -0.0706166166
C  C309  1  0.59250000  0.40750000  0.50000000  1.0 0.0219816251
C  C310  1  0.90750000  0.09250000  0.00000000  1.0 0.0219816251
C  C311  1  0.40750000  0.59250000  0.50000000  1.0 0.0219816251
C  C312  1  0.09250000  0.90750000  0.00000000  1.0 0.0219816251
C  C313  1  0.55940000  0.44060000  0.50000000  1.0 0.6465723806
C  C314  1  0.94060000  0.05940000  0.00000000  1.0 0.6438874894
C  C315  1  0.44060000  0.55940000  0.50000000  1.0 0.6438874894
C  C316  1  0.05940000  0.94060000  0.00000000  1.0 0.6465723806
C  C317  1  0.88620000  0.29920000  0.31630000  1.0 0.6086262433
C  C318  1  0.61380000  0.20080000  0.81630000  1.0 0.6086262433
C  C319  1  0.79920000  0.38620000  0.18370000  1.0 0.6086262433
C  C320  1  0.70080000  0.11380000  0.68370000  1.0 0.6086262433
C  C321  1  0.11380000  0.70080000  0.68370000  1.0 0.6086262433
C  C322  1  0.38620000  0.79920000  0.18370000  1.0 0.6086262433
C  C323  1  0.20080000  0.61380000  0.81630000  1.0 0.6086262433
C  C324  1  0.29920000  0.88620000  0.31630000  1.0 0.6086262433
C  C325  1  0.02090000  0.26770000  0.15240000  1.0 0.2829683289
C  C326  1  0.47910000  0.23230000  0.65240000  1.0 0.2829683289
C  C327  1  0.76770000  0.52090000  0.34760000  1.0 0.2829683289
C  C328  1  0.73230000  0.97910000  0.84760000  1.0 0.2857549482
C  C329  1  0.97910000  0.73230000  0.84760000  1.0 0.2829683289
C  C330  1  0.52090000  0.76770000  0.34760000  1.0 0.2829683289
C  C331  1  0.23230000  0.47910000  0.65240000  1.0 0.2829683289
C  C332  1  0.26770000  0.02090000  0.15240000  1.0 0.2829683289
C  C333  1  0.99850000  0.17890000  0.13660000  1.0 0.0880554321
C  C334  1  0.50150000  0.32110000  0.63660000  1.0 0.0880554321
C  C335  1  0.67890000  0.49850000  0.36340000  1.0 0.0880554321
C  C336  1  0.82110000  0.00150000  0.86340000  1.0 0.096626594
C  C337  1  0.00150000  0.82110000  0.86340000  1.0 0.0880554321
C  C338  1  0.49850000  0.67890000  0.36340000  1.0 0.0880554321
C  C339  1  0.32110000  0.50150000  0.63660000  1.0 0.0880554321
C  C340  1  0.17890000  0.99850000  0.13660000  1.0 0.0880554321
C  C341  1  0.03940000  0.23600000  0.07360000  1.0 0.0090504808
C  C342  1  0.46060000  0.26400000  0.57360000  1.0 0.0090504808
C  C343  1  0.73600000  0.53940000  0.42640000  1.0 0.0090504808
C  C344  1  0.76400000  0.96060000  0.92640000  1.0 0.0219816251
C  C345  1  0.96060000  0.76400000  0.92640000  1.0 0.0090504808
C  C346  1  0.53940000  0.73600000  0.42640000  1.0 0.0090504808
C  C347  1  0.26400000  0.46060000  0.57360000  1.0 0.0090504808
C  C348  1  0.23600000  0.03940000  0.07360000  1.0 0.0090504808
C  C349  1  0.02520000  0.22400000  0.25390000  1.0 0.2394132086
C  C350  1  0.47480000  0.27600000  0.75390000  1.0 0.2286289353
C  C351  1  0.72400000  0.52520000  0.24610000  1.0 0.2286289353
C  C352  1  0.77600000  0.97480000  0.74610000  1.0 0.2286289353
C  C353  1  0.97480000  0.77600000  0.74610000  1.0 0.2394132086
C  C354  1  0.52520000  0.72400000  0.24610000  1.0 0.2286289353
C  C355  1  0.27600000  0.47480000  0.75390000  1.0 0.2286289353
C  C356  1  0.22400000  0.02520000  0.25390000  1.0 0.2286289353
C  C357  1  0.08490000  0.18890000  0.29700000  1.0 -0.0076012087
C  C358  1  0.41510000  0.31110000  0.79700000  1.0 -0.0191840025
C  C359  1  0.68890000  0.58490000  0.20300000  1.0 -0.0191840025
C  C360  1  0.81110000  0.91510000  0.70300000  1.0 -0.0191840025
C  C361  1  0.91510000  0.81110000  0.70300000  1.0 -0.0191840025
C  C362  1  0.58490000  0.68890000  0.20300000  1.0 -0.0076012087
C  C363  1  0.31110000  0.41510000  0.79700000  1.0 -0.0076012087
C  C364  1  0.18890000  0.08490000  0.29700000  1.0 -0.0191840025
C  C365  1  0.11330000  0.26290000  0.24730000  1.0 -0.062881208
C  C366  1  0.38670000  0.23710000  0.74730000  1.0 -0.062881208
C  C367  1  0.76290000  0.61330000  0.25270000  1.0 -0.062881208
C  C368  1  0.73710000  0.88670000  0.75270000  1.0 -0.062881208
C  C369  1  0.88670000  0.73710000  0.75270000  1.0 -0.062881208
C  C370  1  0.61330000  0.76290000  0.25270000  1.0 -0.0706166166
C  C371  1  0.23710000  0.38670000  0.74730000  1.0 -0.0706166166
C  C372  1  0.26290000  0.11330000  0.24730000  1.0 -0.062881208
N  N1  1  0.01930000  0.22750000  0.12070000  1.0 -0.0320615618
N  N2  1  0.48070000  0.27250000  0.62070000  1.0 -0.0363454564
N  N3  1  0.72750000  0.51930000  0.37930000  1.0 -0.0363454564
N  N4  1  0.77250000  0.98070000  0.87930000  1.0 -0.0363454564
N  N5  1  0.98070000  0.77250000  0.87930000  1.0 -0.0320615618
N  N6  1  0.51930000  0.72750000  0.37930000  1.0 -0.0320615618
N  N7  1  0.27250000  0.48070000  0.62070000  1.0 -0.0320615618
N  N8  1  0.22750000  0.01930000  0.12070000  1.0 -0.0320615618
N  N9  1  0.07480000  0.22500000  0.26500000  1.0 0.0822542914
N  N10  1  0.42520000  0.27500000  0.76500000  1.0 0.069075439
N  N11  1  0.72500000  0.57480000  0.23500000  1.0 0.069075439
N  N12  1  0.77500000  0.92520000  0.73500000  1.0 0.0822542914
N  N13  1  0.92520000  0.77500000  0.73500000  1.0 0.0822542914
N  N14  1  0.57480000  0.72500000  0.23500000  1.0 0.069075439
N  N15  1  0.27500000  0.42520000  0.76500000  1.0 0.0822542914
N  N16  1  0.22500000  0.07480000  0.26500000  1.0 0.0822542914
N  N17  1  0.00550000  0.50550000  0.25000000  1.0 0.6257844433
N  N18  1  0.49450000  0.99450000  0.75000000  1.0 0.6257844433
N  N19  1  0.99450000  0.49450000  0.75000000  1.0 0.6257844433
N  N20  1  0.50550000  0.00550000  0.25000000  1.0 0.6257844433
N  N21  1  0.31870000  0.81870000  0.75000000  1.0 0.6257844433
N  N22  1  0.18130000  0.68130000  0.25000000  1.0 0.6257844433
N  N23  1  0.68130000  0.18130000  0.25000000  1.0 0.6257844433
N  N24  1  0.81870000  0.31870000  0.75000000  1.0 0.6245141917
O  O1  1  0.91770000  0.34030000  0.18500000  1.0 -0.6433774016
O  O2  1  0.58230000  0.15970000  0.68500000  1.0 -0.6433774016
O  O3  1  0.84030000  0.41770000  0.31500000  1.0 -0.6433774016
O  O4  1  0.65970000  0.08230000  0.81500000  1.0 -0.6433774016
O  O5  1  0.08230000  0.65970000  0.81500000  1.0 -0.6433774016
O  O6  1  0.41770000  0.84030000  0.31500000  1.0 -0.6433774016
O  O7  1  0.15970000  0.58230000  0.68500000  1.0 -0.6433774016
O  O8  1  0.34030000  0.91770000  0.18500000  1.0 -0.6433774016
O  O9  1  0.91860000  0.41220000  0.16300000  1.0 -0.5622240563
O  O10  1  0.58140000  0.08780000  0.66300000  1.0 -0.5622240563
O  O11  1  0.91220000  0.41860000  0.33700000  1.0 -0.5622240563
O  O12  1  0.58780000  0.08140000  0.83700000  1.0 -0.5622240563
O  O13  1  0.08140000  0.58780000  0.83700000  1.0 -0.5622240563
O  O14  1  0.41860000  0.91220000  0.33700000  1.0 -0.5622240563
O  O15  1  0.08780000  0.58140000  0.66300000  1.0 -0.5622240563
O  O16  1  0.41220000  0.91860000  0.16300000  1.0 -0.5622240563
O  O17  1  0.77530000  0.09110000  0.82720000  1.0 -0.5997370116
O  O18  1  0.72470000  0.40890000  0.32720000  1.0 -0.5997370116
O  O19  1  0.59110000  0.27530000  0.67280000  1.0 -0.5997370116
O  O20  1  0.90890000  0.22470000  0.17280000  1.0 -0.5997370116
O  O21  1  0.22470000  0.90890000  0.17280000  1.0 -0.5997370116
O  O22  1  0.27530000  0.59110000  0.67280000  1.0 -0.5997370116
O  O23  1  0.40890000  0.72470000  0.32720000  1.0 -0.5997370116
O  O24  1  0.09110000  0.77530000  0.82720000  1.0 -0.5997370116
O  O25  1  0.77610000  0.13230000  0.76280000  1.0 -0.5336406908
O  O26  1  0.72390000  0.36770000  0.26280000  1.0 -0.5336406908
O  O27  1  0.63230000  0.27610000  0.73720000  1.0 -0.5336406908
O  O28  1  0.86770000  0.22390000  0.23720000  1.0 -0.5336406908
O  O29  1  0.22390000  0.86770000  0.23720000  1.0 -0.5336406908
O  O30  1  0.27610000  0.63230000  0.73720000  1.0 -0.5336406908
O  O31  1  0.36770000  0.72390000  0.26280000  1.0 -0.5336406908
O  O32  1  0.13230000  0.77610000  0.76280000  1.0 -0.5336406908
O  O33  1  0.17210000  0.47650000  0.77680000  1.0 -0.5922468982
O  O34  1  0.32790000  0.02350000  0.27680000  1.0 -0.5922468982
O  O35  1  0.97650000  0.67210000  0.72320000  1.0 -0.5922468982
O  O36  1  0.52350000  0.82790000  0.22320000  1.0 -0.5922468982
O  O37  1  0.82790000  0.52350000  0.22320000  1.0 -0.5922468982
O  O38  1  0.67210000  0.97650000  0.72320000  1.0 -0.5922468982
O  O39  1  0.02350000  0.32790000  0.27680000  1.0 -0.5922468982
O  O40  1  0.47650000  0.17210000  0.77680000  1.0 -0.5922468982
O  O41  1  0.12780000  0.52660000  0.76800000  1.0 -0.5683180324
O  O42  1  0.37220000  0.97340000  0.26800000  1.0 -0.5683180324
O  O43  1  0.02660000  0.62780000  0.73200000  1.0 -0.5683180324
O  O44  1  0.47340000  0.87220000  0.23200000  1.0 -0.5683180324
O  O45  1  0.87220000  0.47340000  0.23200000  1.0 -0.5683180324
O  O46  1  0.62780000  0.02660000  0.73200000  1.0 -0.5683180324
O  O47  1  0.97340000  0.37220000  0.26800000  1.0 -0.5683180324
O  O48  1  0.52660000  0.12780000  0.76800000  1.0 -0.5683180324
O  O49  1  0.87940000  0.32120000  0.27730000  1.0 -0.6942116625
O  O50  1  0.62060000  0.17880000  0.77730000  1.0 -0.6942116625
O  O51  1  0.82120000  0.37940000  0.22270000  1.0 -0.6942116625
O  O52  1  0.67880000  0.12060000  0.72270000  1.0 -0.6942116625
O  O53  1  0.12060000  0.67880000  0.72270000  1.0 -0.6942116625
O  O54  1  0.37940000  0.82120000  0.22270000  1.0 -0.6942116625
O  O55  1  0.17880000  0.62060000  0.77730000  1.0 -0.6942116625
O  O56  1  0.32120000  0.87940000  0.27730000  1.0 -0.6942116625
O  O57  1  0.91830000  0.27950000  0.32020000  1.0 -0.5217161036
O  O58  1  0.58170000  0.22050000  0.82020000  1.0 -0.5217161036
O  O59  1  0.77950000  0.41830000  0.17980000  1.0 -0.5217161036
O  O60  1  0.72050000  0.08170000  0.67980000  1.0 -0.5217161036
O  O61  1  0.08170000  0.72050000  0.67980000  1.0 -0.5217161036
O  O62  1  0.41830000  0.77950000  0.17980000  1.0 -0.5217161036
O  O63  1  0.22050000  0.58170000  0.82020000  1.0 -0.5217161036
O  O64  1  0.27950000  0.91830000  0.32020000  1.0 -0.5217161036
O  O65  1  0.51870000  0.42530000  0.51690000  1.0 -0.6207283359
O  O66  1  0.98130000  0.07470000  0.01690000  1.0 -0.6207283359
O  O67  1  0.92530000  0.01870000  0.98310000  1.0 -0.6276302046
O  O68  1  0.57470000  0.48130000  0.48310000  1.0 -0.6207283359
O  O69  1  0.48130000  0.57470000  0.48310000  1.0 -0.6207283359
O  O70  1  0.01870000  0.92530000  0.98310000  1.0 -0.6207283359
O  O71  1  0.07470000  0.98130000  0.01690000  1.0 -0.6207283359
O  O72  1  0.42530000  0.51870000  0.51690000  1.0 -0.6207283359
O  O73  1  0.97220000  0.47220000  0.25000000  1.0 -0.4267247102
O  O74  1  0.52780000  0.02780000  0.75000000  1.0 -0.4267247102
O  O75  1  0.02780000  0.52780000  0.75000000  1.0 -0.4267247102
O  O76  1  0.47220000  0.97220000  0.25000000  1.0 -0.4267247102
O  O77  1  0.51730000  0.51730000  0.56000000  1.0 -0.8632640945
O  O78  1  0.98270000  0.98270000  0.06000000  1.0 -0.8632640945
O  O79  1  0.01730000  0.01730000  0.94000000  1.0 -0.8725182719
O  O80  1  0.48270000  0.48270000  0.44000000  1.0 -0.8632640945
O  O81  1  0.01330000  0.30310000  0.17350000  1.0 -0.4600718475
O  O82  1  0.48670000  0.19690000  0.67350000  1.0 -0.4600718475
O  O83  1  0.80310000  0.51330000  0.32650000  1.0 -0.4600718475
O  O84  1  0.69690000  0.98670000  0.82650000  1.0 -0.4600718475
O  O85  1  0.98670000  0.69690000  0.82650000  1.0 -0.4600718475
O  O86  1  0.51330000  0.80310000  0.32650000  1.0 -0.4600718475
O  O87  1  0.19690000  0.48670000  0.67350000  1.0 -0.4600718475
O  O88  1  0.30310000  0.01330000  0.17350000  1.0 -0.4600718475
O  O89  1  0.98180000  0.21400000  0.26230000  1.0 -0.4097380123
O  O90  1  0.51820000  0.28600000  0.76230000  1.0 -0.4207563481
O  O91  1  0.71400000  0.48180000  0.23770000  1.0 -0.4207563481
O  O92  1  0.78600000  0.01820000  0.73770000  1.0 -0.4207563481
O  O93  1  0.01820000  0.78600000  0.73770000  1.0 -0.4097380123
O  O94  1  0.48180000  0.71400000  0.23770000  1.0 -0.4207563481
O  O95  1  0.28600000  0.51820000  0.76230000  1.0 -0.4097380123
O  O96  1  0.21400000  0.98180000  0.26230000  1.0 -0.4097380123
O  O97  1  0.04450000  0.50650000  0.23680000  1.0 -0.2540377683
O  O98  1  0.45550000  0.99350000  0.73680000  1.0 -0.2591953454
O  O99  1  0.00650000  0.54450000  0.26320000  1.0 -0.2591953454
O  O100  1  0.49350000  0.95550000  0.76320000  1.0 -0.2591953454
O  O101  1  0.95550000  0.49350000  0.76320000  1.0 -0.2591953454
O  O102  1  0.54450000  0.00650000  0.26320000  1.0 -0.2591953454
O  O103  1  0.99350000  0.45550000  0.73680000  1.0 -0.2591953454
O  O104  1  0.50650000  0.04450000  0.23680000  1.0 -0.2591953454
O  O105  1  0.45400000  0.38440000  0.59750000  1.0 -0.5622240563
O  O106  1  0.04600000  0.11560000  0.09750000  1.0 -0.5622240563
O  O107  1  0.88440000  0.95400000  0.90250000  1.0 -0.5622240563
O  O108  1  0.61560000  0.54600000  0.40250000  1.0 -0.5622240563
O  O109  1  0.54600000  0.61560000  0.40250000  1.0 -0.553566228
O  O110  1  0.95400000  0.88440000  0.90250000  1.0 -0.5622240563
O  O111  1  0.11560000  0.04600000  0.09750000  1.0 -0.553566228
O  O112  1  0.38440000  0.45400000  0.59750000  1.0 -0.553566228
O  O113  1  0.42650000  0.35150000  0.51560000  1.0 -0.7210315373
O  O114  1  0.07350000  0.14850000  0.01560000  1.0 -0.7210315373
O  O115  1  0.85150000  0.92650000  0.98440000  1.0 -0.7309009539
O  O116  1  0.64850000  0.57350000  0.48440000  1.0 -0.7210315373
O  O117  1  0.57350000  0.64850000  0.48440000  1.0 -0.7362284667
O  O118  1  0.92650000  0.85150000  0.98440000  1.0 -0.7362284667
O  O119  1  0.14850000  0.07350000  0.01560000  1.0 -0.7309009539
O  O120  1  0.35150000  0.42650000  0.51560000  1.0 -0.7309009539
O  O121  1  0.28500000  0.78500000  0.75000000  1.0 -0.3494274847
O  O122  1  0.35280000  0.81840000  0.77430000  1.0 -0.3356879758
O  O123  1  0.31840000  0.85280000  0.72570000  1.0 -0.3356879758
O  O124  1  0.21500000  0.71500000  0.25000000  1.0 -0.3494274847
O  O125  1  0.14720000  0.68160000  0.27430000  1.0 -0.3337080485
O  O126  1  0.18160000  0.64720000  0.22570000  1.0 -0.3337080485
O  O127  1  0.71500000  0.21500000  0.25000000  1.0 -0.3494274847
O  O128  1  0.64720000  0.18160000  0.22570000  1.0 -0.3356879758
O  O129  1  0.68160000  0.14720000  0.27430000  1.0 -0.3356879758
O  O130  1  0.78500000  0.28500000  0.75000000  1.0 -0.3494274847
O  O131  1  0.85280000  0.31840000  0.72570000  1.0 -0.3356879758
O  O132  1  0.81840000  0.35280000  0.77430000  1.0 -0.3356879758
