# DDEC6 charges by PACMAN v1.1 (https://github.com/mtap-research/PACMAN-charge/)
data_DUFZUA_FSR_pacman
_symmetry_space_group_name_H-M   'P 1'
_cell_length_a   15.29100000
_cell_length_b   15.29100000
_cell_length_c   15.57300000
_cell_angle_alpha   90.00000000
_cell_angle_beta   90.00000000
_cell_angle_gamma   120.00000000
_symmetry_Int_Tables_number   1
_chemical_formula_structural   Gd2Fe3H18C42(NO5)6
_chemical_formula_sum   'Gd4 Fe6 H36 C84 N12 O60'
_cell_volume   3153.36825973
_cell_formula_units_Z   2
loop_
 _symmetry_equiv_pos_site_id
 _symmetry_equiv_pos_as_xyz
  1  'x, y, z'
loop_
 _atom_site_type_symbol
 _atom_site_label
 _atom_site_symmetry_multiplicity
 _atom_site_fract_x
 _atom_site_fract_y
 _atom_site_fract_z
 _atom_site_occupancy
 _atom_site_charge
Gd  Gd1  1  0.33333333  0.66666667  0.25000000  1.0 1.7629658596
Gd  Gd2  1  0.66666667  0.33333333  0.25000000  1.0 1.7629658596
Gd  Gd3  1  0.66666667  0.33333333  0.75000000  1.0 1.7629658596
Gd  Gd4  1  0.33333333  0.66666667  0.75000000  1.0 1.7629658596
Fe  Fe1  1  0.50000000  0.50000000  0.00000000  1.0 1.1641327278
Fe  Fe2  1  0.50000000  0.00000000  0.00000000  1.0 1.1686827557
Fe  Fe3  1  0.00000000  0.50000000  0.00000000  1.0 1.1641327278
Fe  Fe4  1  0.50000000  0.50000000  0.50000000  1.0 1.1641327278
Fe  Fe5  1  0.00000000  0.50000000  0.50000000  1.0 1.1641327278
Fe  Fe6  1  0.50000000  0.00000000  0.50000000  1.0 1.1641327278
H  H1  1  0.79990000  0.89995000  0.25000000  1.0 0.1060190925
H  H2  1  0.10005000  0.89995000  0.25000000  1.0 0.1060190925
H  H3  1  0.10005000  0.20010000  0.25000000  1.0 0.1060190925
H  H4  1  0.20010000  0.10005000  0.25000000  1.0 0.1060190925
H  H5  1  0.89995000  0.10005000  0.25000000  1.0 0.1060190925
H  H6  1  0.89995000  0.79990000  0.25000000  1.0 0.1060190925
H  H7  1  0.20010000  0.10005000  0.75000000  1.0 0.1060190925
H  H8  1  0.89995000  0.10005000  0.75000000  1.0 0.1060190925
H  H9  1  0.89995000  0.79990000  0.75000000  1.0 0.1060190925
H  H10  1  0.79990000  0.89995000  0.75000000  1.0 0.1060190925
H  H11  1  0.10005000  0.89995000  0.75000000  1.0 0.1060190925
H  H12  1  0.10005000  0.20010000  0.75000000  1.0 0.1060190925
H  H13  1  0.71310000  0.76590000  0.15810000  1.0 0.1321711556
H  H14  1  0.23410000  0.94720000  0.15810000  1.0 0.1321711556
H  H15  1  0.05280000  0.28690000  0.15810000  1.0 0.1321711556
H  H16  1  0.28690000  0.23410000  0.15810000  1.0 0.1321711556
H  H17  1  0.76590000  0.05280000  0.15810000  1.0 0.1321711556
H  H18  1  0.94720000  0.71310000  0.15810000  1.0 0.1321711556
H  H19  1  0.76590000  0.71310000  0.34190000  1.0 0.1321711556
H  H20  1  0.94720000  0.23410000  0.34190000  1.0 0.1321711556
H  H21  1  0.28690000  0.05280000  0.34190000  1.0 0.1321711556
H  H22  1  0.23410000  0.28690000  0.34190000  1.0 0.1321711556
H  H23  1  0.05280000  0.76590000  0.34190000  1.0 0.1321711556
H  H24  1  0.71310000  0.94720000  0.34190000  1.0 0.1321711556
H  H25  1  0.28690000  0.23410000  0.84190000  1.0 0.1321711556
H  H26  1  0.76590000  0.05280000  0.84190000  1.0 0.1321711556
H  H27  1  0.94720000  0.71310000  0.84190000  1.0 0.1321711556
H  H28  1  0.71310000  0.76590000  0.84190000  1.0 0.1321711556
H  H29  1  0.23410000  0.94720000  0.84190000  1.0 0.1321711556
H  H30  1  0.05280000  0.28690000  0.84190000  1.0 0.1321711556
H  H31  1  0.23410000  0.28690000  0.65810000  1.0 0.1321711556
H  H32  1  0.05280000  0.76590000  0.65810000  1.0 0.1321711556
H  H33  1  0.71310000  0.94720000  0.65810000  1.0 0.1321711556
H  H34  1  0.76590000  0.71310000  0.65810000  1.0 0.1321711556
H  H35  1  0.94720000  0.23410000  0.65810000  1.0 0.1321711556
H  H36  1  0.28690000  0.05280000  0.65810000  1.0 0.1321711556
C  C1  1  0.72970000  0.86485000  0.25000000  1.0 -0.0677530936
C  C2  1  0.13515000  0.86485000  0.25000000  1.0 -0.0677530936
C  C3  1  0.13515000  0.27030000  0.25000000  1.0 -0.0677530936
C  C4  1  0.27030000  0.13515000  0.25000000  1.0 -0.0677530936
C  C5  1  0.86485000  0.13515000  0.25000000  1.0 -0.0677530936
C  C6  1  0.86485000  0.72970000  0.25000000  1.0 -0.0677530936
C  C7  1  0.27030000  0.13515000  0.75000000  1.0 -0.0677530936
C  C8  1  0.86485000  0.13515000  0.75000000  1.0 -0.0677530936
C  C9  1  0.86485000  0.72970000  0.75000000  1.0 -0.0677530936
C  C10  1  0.72970000  0.86485000  0.75000000  1.0 -0.0677530936
C  C11  1  0.13515000  0.86485000  0.75000000  1.0 -0.0677530936
C  C12  1  0.13515000  0.27030000  0.75000000  1.0 -0.0677530936
C  C13  1  0.67850000  0.78580000  0.19520000  1.0 -0.1477522797
C  C14  1  0.21420000  0.89270000  0.19520000  1.0 -0.1477522797
C  C15  1  0.10730000  0.32150000  0.19520000  1.0 -0.1477522797
C  C16  1  0.32150000  0.21420000  0.19520000  1.0 -0.1477522797
C  C17  1  0.78580000  0.10730000  0.19520000  1.0 -0.1477522797
C  C18  1  0.89270000  0.67850000  0.19520000  1.0 -0.1477522797
C  C19  1  0.78580000  0.67850000  0.30480000  1.0 -0.1477522797
C  C20  1  0.89270000  0.21420000  0.30480000  1.0 -0.1477522797
C  C21  1  0.32150000  0.10730000  0.30480000  1.0 -0.1477522797
C  C22  1  0.21420000  0.32150000  0.30480000  1.0 -0.1477522797
C  C23  1  0.10730000  0.78580000  0.30480000  1.0 -0.1477522797
C  C24  1  0.67850000  0.89270000  0.30480000  1.0 -0.1477522797
C  C25  1  0.32150000  0.21420000  0.80480000  1.0 -0.1477522797
C  C26  1  0.78580000  0.10730000  0.80480000  1.0 -0.1477522797
C  C27  1  0.89270000  0.67850000  0.80480000  1.0 -0.1477522797
C  C28  1  0.67850000  0.78580000  0.80480000  1.0 -0.1477522797
C  C29  1  0.21420000  0.89270000  0.80480000  1.0 -0.1477522797
C  C30  1  0.10730000  0.32150000  0.80480000  1.0 -0.1477522797
C  C31  1  0.21420000  0.32150000  0.69520000  1.0 -0.1477522797
C  C32  1  0.10730000  0.78580000  0.69520000  1.0 -0.1477522797
C  C33  1  0.67850000  0.89270000  0.69520000  1.0 -0.1477522797
C  C34  1  0.78580000  0.67850000  0.69520000  1.0 -0.1477522797
C  C35  1  0.89270000  0.21420000  0.69520000  1.0 -0.1477522797
C  C36  1  0.32150000  0.10730000  0.69520000  1.0 -0.1477522797
C  C37  1  0.57400000  0.73570000  0.19590000  1.0 0.1200337128
C  C38  1  0.26430000  0.83830000  0.19590000  1.0 0.1200337128
C  C39  1  0.16170000  0.42600000  0.19590000  1.0 0.1200337128
C  C40  1  0.42600000  0.26430000  0.19590000  1.0 0.1200337128
C  C41  1  0.73570000  0.16170000  0.19590000  1.0 0.1200337128
C  C42  1  0.83830000  0.57400000  0.19590000  1.0 0.1200337128
C  C43  1  0.73570000  0.57400000  0.30410000  1.0 0.1200337128
C  C44  1  0.83830000  0.26430000  0.30410000  1.0 0.1200337128
C  C45  1  0.42600000  0.16170000  0.30410000  1.0 0.1200337128
C  C46  1  0.26430000  0.42600000  0.30410000  1.0 0.1200337128
C  C47  1  0.16170000  0.73570000  0.30410000  1.0 0.1200337128
C  C48  1  0.57400000  0.83830000  0.30410000  1.0 0.1200337128
C  C49  1  0.42600000  0.26430000  0.80410000  1.0 0.1200337128
C  C50  1  0.73570000  0.16170000  0.80410000  1.0 0.1200337128
C  C51  1  0.83830000  0.57400000  0.80410000  1.0 0.1200337128
C  C52  1  0.57400000  0.73570000  0.80410000  1.0 0.1200337128
C  C53  1  0.26430000  0.83830000  0.80410000  1.0 0.1200337128
C  C54  1  0.16170000  0.42600000  0.80410000  1.0 0.1200337128
C  C55  1  0.26430000  0.42600000  0.69590000  1.0 0.1200337128
C  C56  1  0.16170000  0.73570000  0.69590000  1.0 0.1200337128
C  C57  1  0.57400000  0.83830000  0.69590000  1.0 0.1200337128
C  C58  1  0.73570000  0.57400000  0.69590000  1.0 0.1200337128
C  C59  1  0.83830000  0.26430000  0.69590000  1.0 0.1200337128
C  C60  1  0.42600000  0.16170000  0.69590000  1.0 0.1200337128
C  C61  1  0.50840000  0.64730000  0.13850000  1.0 0.5408265806
C  C62  1  0.35270000  0.86110000  0.13850000  1.0 0.5408265806
C  C63  1  0.13890000  0.49160000  0.13850000  1.0 0.5408265806
C  C64  1  0.49160000  0.35270000  0.13850000  1.0 0.5408265806
C  C65  1  0.64730000  0.13890000  0.13850000  1.0 0.5408265806
C  C66  1  0.86110000  0.50840000  0.13850000  1.0 0.5408265806
C  C67  1  0.64730000  0.50840000  0.36150000  1.0 0.5408265806
C  C68  1  0.86110000  0.35270000  0.36150000  1.0 0.5408265806
C  C69  1  0.49160000  0.13890000  0.36150000  1.0 0.5408265806
C  C70  1  0.35270000  0.49160000  0.36150000  1.0 0.5408265806
C  C71  1  0.13890000  0.64730000  0.36150000  1.0 0.5408265806
C  C72  1  0.50840000  0.86110000  0.36150000  1.0 0.5408265806
C  C73  1  0.49160000  0.35270000  0.86150000  1.0 0.5408265806
C  C74  1  0.64730000  0.13890000  0.86150000  1.0 0.5408265806
C  C75  1  0.86110000  0.50840000  0.86150000  1.0 0.5408265806
C  C76  1  0.50840000  0.64730000  0.86150000  1.0 0.5408265806
C  C77  1  0.35270000  0.86110000  0.86150000  1.0 0.5408265806
C  C78  1  0.13890000  0.49160000  0.86150000  1.0 0.5408265806
C  C79  1  0.35270000  0.49160000  0.63850000  1.0 0.5408265806
C  C80  1  0.13890000  0.64730000  0.63850000  1.0 0.5408265806
C  C81  1  0.50840000  0.86110000  0.63850000  1.0 0.5408265806
C  C82  1  0.64730000  0.50840000  0.63850000  1.0 0.5408265806
C  C83  1  0.86110000  0.35270000  0.63850000  1.0 0.5408265806
C  C84  1  0.49160000  0.13890000  0.63850000  1.0 0.5408265806
N  N1  1  0.52230000  0.76115000  0.25000000  1.0 -0.3315534873
N  N2  1  0.23885000  0.76115000  0.25000000  1.0 -0.3315534873
N  N3  1  0.23885000  0.47770000  0.25000000  1.0 -0.3315534873
N  N4  1  0.47770000  0.23885000  0.25000000  1.0 -0.3315534873
N  N5  1  0.76115000  0.23885000  0.25000000  1.0 -0.3315534873
N  N6  1  0.76115000  0.52230000  0.25000000  1.0 -0.3315534873
N  N7  1  0.47770000  0.23885000  0.75000000  1.0 -0.3315534873
N  N8  1  0.76115000  0.23885000  0.75000000  1.0 -0.3315534873
N  N9  1  0.76115000  0.52230000  0.75000000  1.0 -0.3315534873
N  N10  1  0.52230000  0.76115000  0.75000000  1.0 -0.3315534873
N  N11  1  0.23885000  0.76115000  0.75000000  1.0 -0.3315534873
N  N12  1  0.23885000  0.47770000  0.75000000  1.0 -0.3315534873
O  O1  1  0.41380000  0.61310000  0.14330000  1.0 -0.5593270084
O  O2  1  0.38690000  0.80070000  0.14330000  1.0 -0.5593270084
O  O3  1  0.19930000  0.58620000  0.14330000  1.0 -0.5593270084
O  O4  1  0.58620000  0.38690000  0.14330000  1.0 -0.5593270084
O  O5  1  0.61310000  0.19930000  0.14330000  1.0 -0.5593270084
O  O6  1  0.80070000  0.41380000  0.14330000  1.0 -0.5593270084
O  O7  1  0.61310000  0.41380000  0.35670000  1.0 -0.5593270084
O  O8  1  0.80070000  0.38690000  0.35670000  1.0 -0.5593270084
O  O9  1  0.58620000  0.19930000  0.35670000  1.0 -0.5593270084
O  O10  1  0.38690000  0.58620000  0.35670000  1.0 -0.5593270084
O  O11  1  0.19930000  0.61310000  0.35670000  1.0 -0.5593270084
O  O12  1  0.41380000  0.80070000  0.35670000  1.0 -0.5593270084
O  O13  1  0.58620000  0.38690000  0.85670000  1.0 -0.5593270084
O  O14  1  0.61310000  0.19930000  0.85670000  1.0 -0.5593270084
O  O15  1  0.80070000  0.41380000  0.85670000  1.0 -0.5593270084
O  O16  1  0.41380000  0.61310000  0.85670000  1.0 -0.5593270084
O  O17  1  0.38690000  0.80070000  0.85670000  1.0 -0.5593270084
O  O18  1  0.19930000  0.58620000  0.85670000  1.0 -0.5593270084
O  O19  1  0.38690000  0.58620000  0.64330000  1.0 -0.5593270084
O  O20  1  0.19930000  0.61310000  0.64330000  1.0 -0.5593270084
O  O21  1  0.41380000  0.80070000  0.64330000  1.0 -0.5593270084
O  O22  1  0.61310000  0.41380000  0.64330000  1.0 -0.5593270084
O  O23  1  0.80070000  0.38690000  0.64330000  1.0 -0.5593270084
O  O24  1  0.58620000  0.19930000  0.64330000  1.0 -0.5593270084
O  O25  1  0.55290000  0.61530000  0.09210000  1.0 -0.5593270084
O  O26  1  0.38470000  0.93760000  0.09210000  1.0 -0.5593270084
O  O27  1  0.06240000  0.44710000  0.09210000  1.0 -0.5593270084
O  O28  1  0.44710000  0.38470000  0.09210000  1.0 -0.5593270084
O  O29  1  0.61530000  0.06240000  0.09210000  1.0 -0.5593270084
O  O30  1  0.93760000  0.55290000  0.09210000  1.0 -0.5593270084
O  O31  1  0.61530000  0.55290000  0.40790000  1.0 -0.5593270084
O  O32  1  0.93760000  0.38470000  0.40790000  1.0 -0.5593270084
O  O33  1  0.44710000  0.06240000  0.40790000  1.0 -0.5593270084
O  O34  1  0.38470000  0.44710000  0.40790000  1.0 -0.5593270084
O  O35  1  0.06240000  0.61530000  0.40790000  1.0 -0.5593270084
O  O36  1  0.55290000  0.93760000  0.40790000  1.0 -0.5593270084
O  O37  1  0.44710000  0.38470000  0.90790000  1.0 -0.5593270084
O  O38  1  0.61530000  0.06240000  0.90790000  1.0 -0.5593270084
O  O39  1  0.93760000  0.55290000  0.90790000  1.0 -0.5593270084
O  O40  1  0.55290000  0.61530000  0.90790000  1.0 -0.5593270084
O  O41  1  0.38470000  0.93760000  0.90790000  1.0 -0.5593270084
O  O42  1  0.06240000  0.44710000  0.90790000  1.0 -0.5593270084
O  O43  1  0.38470000  0.44710000  0.59210000  1.0 -0.5593270084
O  O44  1  0.06240000  0.61530000  0.59210000  1.0 -0.5593270084
O  O45  1  0.55290000  0.93760000  0.59210000  1.0 -0.5593270084
O  O46  1  0.61530000  0.55290000  0.59210000  1.0 -0.5593270084
O  O47  1  0.93760000  0.38470000  0.59210000  1.0 -0.5593270084
O  O48  1  0.44710000  0.06240000  0.59210000  1.0 -0.5593270084
O  O49  1  0.64890000  0.51180000  0.00000000  1.0 0.0709652768
O  O50  1  0.48820000  0.13710000  0.00000000  1.0 0.0647918002
O  O51  1  0.86290000  0.35110000  0.00000000  1.0 0.0709652768
O  O52  1  0.35110000  0.48820000  0.00000000  1.0 0.0709652768
O  O53  1  0.51180000  0.86290000  0.00000000  1.0 0.0647918002
O  O54  1  0.13710000  0.64890000  0.00000000  1.0 0.0709652768
O  O55  1  0.51180000  0.64890000  0.50000000  1.0 0.0709652768
O  O56  1  0.13710000  0.48820000  0.50000000  1.0 0.0709652768
O  O57  1  0.35110000  0.86290000  0.50000000  1.0 0.0709652768
O  O58  1  0.48820000  0.35110000  0.50000000  1.0 0.0709652768
O  O59  1  0.86290000  0.51180000  0.50000000  1.0 0.0709652768
O  O60  1  0.64890000  0.13710000  0.50000000  1.0 0.0709652768
