# DDEC6 charges by PACMAN v1.1 (https://github.com/mtap-research/PACMAN-charge/)
data_DUKDOD_FSR_pacman
_symmetry_space_group_name_H-M   'P 1'
_cell_length_a   7.90680000
_cell_length_b   14.90240000
_cell_length_c   16.21580000
_cell_angle_alpha   90.00000000
_cell_angle_beta   91.82600000
_cell_angle_gamma   90.00000000
_symmetry_Int_Tables_number   1
_chemical_formula_structural   HoAgH16C15N2O7
_chemical_formula_sum   'Ho4 Ag4 H64 C60 N8 O28'
_cell_volume   1909.74226633
_cell_formula_units_Z   4
loop_
 _symmetry_equiv_pos_site_id
 _symmetry_equiv_pos_as_xyz
  1  'x, y, z'
loop_
 _atom_site_type_symbol
 _atom_site_label
 _atom_site_symmetry_multiplicity
 _atom_site_fract_x
 _atom_site_fract_y
 _atom_site_fract_z
 _atom_site_occupancy
 _atom_site_charge
Ho  Ho1  1  0.95004000  0.61619000  0.54502000  1.0 1.9837842242
Ho  Ho2  1  0.54996000  0.11619000  0.45498000  1.0 1.9837842242
Ho  Ho3  1  0.04996000  0.38381000  0.45498000  1.0 1.9837842242
Ho  Ho4  1  0.45004000  0.88381000  0.54502000  1.0 1.9837842242
Ag  Ag1  1  0.60033000  0.25967000  0.97323000  1.0 0.215260695
Ag  Ag2  1  0.89967000  0.75967000  0.02677000  1.0 0.215260695
Ag  Ag3  1  0.39967000  0.74033000  0.02677000  1.0 0.215260695
Ag  Ag4  1  0.10033000  0.24033000  0.97323000  1.0 0.215260695
H  H1  1  0.82680000  0.48830000  0.78010000  1.0 0.1313323894
H  H2  1  0.67320000  0.98830000  0.21990000  1.0 0.1313323894
H  H3  1  0.17320000  0.51170000  0.21990000  1.0 0.1313323894
H  H4  1  0.32680000  0.01170000  0.78010000  1.0 0.1313323894
H  H5  1  0.73800000  0.42380000  0.89980000  1.0 0.0829063294
H  H6  1  0.76200000  0.92380000  0.10020000  1.0 0.0829063294
H  H7  1  0.26200000  0.57620000  0.10020000  1.0 0.0829063294
H  H8  1  0.23800000  0.07620000  0.89980000  1.0 0.0829063294
H  H9  1  0.67610000  0.19280000  0.79140000  1.0 0.1061176838
H  H10  1  0.82390000  0.69280000  0.20860000  1.0 0.1061176838
H  H11  1  0.32390000  0.80720000  0.20860000  1.0 0.1061176838
H  H12  1  0.17610000  0.30720000  0.79140000  1.0 0.1061176838
H  H13  1  0.76340000  0.25070000  0.66850000  1.0 0.1480430172
H  H14  1  0.73660000  0.75070000  0.33150000  1.0 0.1480430172
H  H15  1  0.23660000  0.74930000  0.33150000  1.0 0.1480430172
H  H16  1  0.26340000  0.24930000  0.66850000  1.0 0.1480430172
H  H17  1  0.02510000  0.88240000  0.89340000  1.0 0.0942891802
H  H18  1  0.47490000  0.38240000  0.10660000  1.0 0.0942891802
H  H19  1  0.97490000  0.11760000  0.10660000  1.0 0.0942891802
H  H20  1  0.52510000  0.61760000  0.89340000  1.0 0.0942891802
H  H21  1  0.13020000  0.88340000  0.76280000  1.0 0.1313323894
H  H22  1  0.36980000  0.38340000  0.23720000  1.0 0.1313323894
H  H23  1  0.86980000  0.11660000  0.23720000  1.0 0.1313323894
H  H24  1  0.63020000  0.61660000  0.76280000  1.0 0.1313323894
H  H25  1  0.10170000  0.61540000  0.76180000  1.0 0.1313323894
H  H26  1  0.39830000  0.11540000  0.23820000  1.0 0.1313323894
H  H27  1  0.89830000  0.38460000  0.23820000  1.0 0.1313323894
H  H28  1  0.60170000  0.88460000  0.76180000  1.0 0.1313323894
H  H29  1  0.99660000  0.62130000  0.89200000  1.0 0.0942891802
H  H30  1  0.50340000  0.12130000  0.10800000  1.0 0.0942891802
H  H31  1  0.00340000  0.37870000  0.10800000  1.0 0.0942891802
H  H32  1  0.49660000  0.87870000  0.89200000  1.0 0.0942891802
H  H33  1  0.85700000  0.80300000  0.52200000  1.0 0.3156917722
H  H34  1  0.64300000  0.30300000  0.47800000  1.0 0.3156917722
H  H35  1  0.14300000  0.19700000  0.47800000  1.0 0.3156917722
H  H36  1  0.35700000  0.69700000  0.52200000  1.0 0.3156917722
H  H37  1  0.99800000  0.80000000  0.48400000  1.0 0.3252608136
H  H38  1  0.50200000  0.30000000  0.51600000  1.0 0.3252608136
H  H39  1  0.00200000  0.20000000  0.51600000  1.0 0.3252608136
H  H40  1  0.49800000  0.70000000  0.48400000  1.0 0.3252608136
H  H41  1  0.51790000  0.55140000  0.34550000  1.0 0.0998174728
H  H42  1  0.98210000  0.05140000  0.65450000  1.0 0.0998174728
H  H43  1  0.48210000  0.44860000  0.65450000  1.0 0.0998174728
H  H44  1  0.01790000  0.94860000  0.34550000  1.0 0.0998174728
H  H45  1  0.57030000  0.45160000  0.36320000  1.0 0.1061176838
H  H46  1  0.92970000  0.95160000  0.63680000  1.0 0.1061176838
H  H47  1  0.42970000  0.54840000  0.63680000  1.0 0.1061176838
H  H48  1  0.07030000  0.04840000  0.36320000  1.0 0.1061176838
H  H49  1  0.68290000  0.51230000  0.30820000  1.0 0.0829063294
H  H50  1  0.81710000  0.01230000  0.69180000  1.0 0.0829063294
H  H51  1  0.31710000  0.48770000  0.69180000  1.0 0.0829063294
H  H52  1  0.18290000  0.98770000  0.30820000  1.0 0.0829063294
H  H53  1  0.47530000  0.49260000  0.40440000  1.0 0.0998174728
H  H54  1  0.02470000  0.99260000  0.59560000  1.0 0.0998174728
H  H55  1  0.52470000  0.50740000  0.59560000  1.0 0.0998174728
H  H56  1  0.97530000  0.00740000  0.40440000  1.0 0.0998174728
H  H57  1  0.61480000  0.44400000  0.35430000  1.0 0.1249786572
H  H58  1  0.88520000  0.94400000  0.64570000  1.0 0.1249786572
H  H59  1  0.38520000  0.55600000  0.64570000  1.0 0.1249786572
H  H60  1  0.11480000  0.05600000  0.35430000  1.0 0.1249786572
H  H61  1  0.55450000  0.54060000  0.32870000  1.0 0.0829063294
H  H62  1  0.94550000  0.04060000  0.67130000  1.0 0.0829063294
H  H63  1  0.44550000  0.45940000  0.67130000  1.0 0.0829063294
H  H64  1  0.05450000  0.95940000  0.32870000  1.0 0.0829063294
C  C1  1  0.86220000  0.41920000  0.63230000  1.0 0.544513549
C  C2  1  0.63780000  0.91920000  0.36770000  1.0 0.544513549
C  C3  1  0.13780000  0.58080000  0.36770000  1.0 0.544513549
C  C4  1  0.36220000  0.08080000  0.63230000  1.0 0.544513549
C  C5  1  0.80410000  0.37640000  0.71080000  1.0 0.0174277182
C  C6  1  0.69590000  0.87640000  0.28920000  1.0 0.0174277182
C  C7  1  0.19590000  0.62360000  0.28920000  1.0 0.0174277182
C  C8  1  0.30410000  0.12360000  0.71080000  1.0 0.0174277182
C  C9  1  0.79640000  0.42800000  0.78090000  1.0 -0.1825936182
C  C10  1  0.70360000  0.92800000  0.21910000  1.0 -0.1825936182
C  C11  1  0.20360000  0.57200000  0.21910000  1.0 -0.1825936182
C  C12  1  0.29640000  0.07200000  0.78090000  1.0 -0.1825936182
C  C13  1  0.74270000  0.38860000  0.85260000  1.0 0.0174277182
C  C14  1  0.75730000  0.88860000  0.14740000  1.0 0.0174277182
C  C15  1  0.25730000  0.61140000  0.14740000  1.0 0.0174277182
C  C16  1  0.24270000  0.11140000  0.85260000  1.0 0.0174277182
C  C17  1  0.70640000  0.25300000  0.78890000  1.0 0.0174277182
C  C18  1  0.79360000  0.75300000  0.21110000  1.0 0.0174277182
C  C19  1  0.29360000  0.74700000  0.21110000  1.0 0.0174277182
C  C20  1  0.20640000  0.24700000  0.78890000  1.0 0.0174277182
C  C21  1  0.75880000  0.28720000  0.71480000  1.0 -0.1598182215
C  C22  1  0.74120000  0.78720000  0.28520000  1.0 -0.1598182215
C  C23  1  0.24120000  0.71280000  0.28520000  1.0 -0.1598182215
C  C24  1  0.25880000  0.21280000  0.71480000  1.0 -0.1598182215
C  C25  1  0.04050000  0.82810000  0.86640000  1.0 0.0174277182
C  C26  1  0.45950000  0.32810000  0.13360000  1.0 0.0174277182
C  C27  1  0.95950000  0.17190000  0.13360000  1.0 0.0174277182
C  C28  1  0.54050000  0.67190000  0.86640000  1.0 0.0174277182
C  C29  1  0.10430000  0.82930000  0.78800000  1.0 -0.1685598164
C  C30  1  0.39570000  0.32930000  0.21200000  1.0 -0.1685598164
C  C31  1  0.89570000  0.17070000  0.21200000  1.0 -0.1685598164
C  C32  1  0.60430000  0.67070000  0.78800000  1.0 -0.1685598164
C  C33  1  0.12890000  0.74900000  0.74790000  1.0 0.0048063934
C  C34  1  0.37110000  0.24900000  0.25210000  1.0 0.0048063934
C  C35  1  0.87110000  0.25100000  0.25210000  1.0 0.0048063934
C  C36  1  0.62890000  0.75100000  0.74790000  1.0 0.0048063934
C  C37  1  0.19830000  0.74900000  0.66250000  1.0 0.6021649198
C  C38  1  0.30170000  0.24900000  0.33750000  1.0 0.6021649198
C  C39  1  0.80170000  0.25100000  0.33750000  1.0 0.6021649198
C  C40  1  0.69830000  0.75100000  0.66250000  1.0 0.6021649198
C  C41  1  0.08720000  0.67050000  0.78750000  1.0 -0.1685598164
C  C42  1  0.41280000  0.17050000  0.21250000  1.0 -0.1685598164
C  C43  1  0.91280000  0.32950000  0.21250000  1.0 -0.1685598164
C  C44  1  0.58720000  0.82950000  0.78750000  1.0 -0.1685598164
C  C45  1  0.02380000  0.67460000  0.86570000  1.0 0.033829599
C  C46  1  0.47620000  0.17460000  0.13430000  1.0 0.033829599
C  C47  1  0.97620000  0.32540000  0.13430000  1.0 0.033829599
C  C48  1  0.52380000  0.82540000  0.86570000  1.0 0.033829599
C  C49  1  0.71240000  0.54110000  0.43090000  1.0 0.5230389194
C  C50  1  0.78760000  0.04110000  0.56910000  1.0 0.5230389194
C  C51  1  0.28760000  0.45890000  0.56910000  1.0 0.5230389194
C  C52  1  0.21240000  0.95890000  0.43090000  1.0 0.5230389194
C  C53  1  0.61200000  0.51140000  0.35500000  1.0 -0.2524034946
C  C54  1  0.88800000  0.01140000  0.64500000  1.0 -0.2524034946
C  C55  1  0.38800000  0.48860000  0.64500000  1.0 -0.2524034946
C  C56  1  0.11200000  0.98860000  0.35500000  1.0 -0.2524034946
C  C57  1  0.57700000  0.50090000  0.37440000  1.0 -0.2524034946
C  C58  1  0.92300000  0.00090000  0.62560000  1.0 -0.2524034946
C  C59  1  0.42300000  0.49910000  0.62560000  1.0 -0.2524034946
C  C60  1  0.07700000  0.99910000  0.37440000  1.0 -0.2524034946
N  N1  1  0.69740000  0.30310000  0.85730000  1.0 -0.1992368817
N  N2  1  0.80260000  0.80310000  0.14270000  1.0 -0.1992368817
N  N3  1  0.30260000  0.69690000  0.14270000  1.0 -0.1992368817
N  N4  1  0.19740000  0.19690000  0.85730000  1.0 -0.1992368817
N  N5  1  0.99990000  0.75200000  0.90500000  1.0 -0.1992368817
N  N6  1  0.50010000  0.25200000  0.09500000  1.0 -0.1992368817
N  N7  1  0.00010000  0.24800000  0.09500000  1.0 -0.1992368817
N  N8  1  0.49990000  0.74800000  0.90500000  1.0 -0.1992368817
O  O1  1  0.90720000  0.36680000  0.57580000  1.0 -0.6526834263
O  O2  1  0.59280000  0.86680000  0.42420000  1.0 -0.6526834263
O  O3  1  0.09280000  0.63320000  0.42420000  1.0 -0.6526834263
O  O4  1  0.40720000  0.13320000  0.57580000  1.0 -0.6526834263
O  O5  1  0.86160000  0.50290000  0.63010000  1.0 -0.6526834263
O  O6  1  0.63840000  0.00290000  0.36990000  1.0 -0.6526834263
O  O7  1  0.13840000  0.49710000  0.36990000  1.0 -0.6526834263
O  O8  1  0.36160000  0.99710000  0.63010000  1.0 -0.6526834263
O  O9  1  0.28100000  0.81559000  0.64094000  1.0 -0.6430744572
O  O10  1  0.21900000  0.31559000  0.35906000  1.0 -0.6430744572
O  O11  1  0.71900000  0.18441000  0.35906000  1.0 -0.6430744572
O  O12  1  0.78100000  0.68441000  0.64094000  1.0 -0.6430744572
O  O13  1  0.16910000  0.68120000  0.61743000  1.0 -0.6772846325
O  O14  1  0.33090000  0.18120000  0.38257000  1.0 -0.6772846325
O  O15  1  0.83090000  0.31880000  0.38257000  1.0 -0.6772846325
O  O16  1  0.66910000  0.81880000  0.61743000  1.0 -0.6772846325
O  O17  1  0.84170000  0.49650000  0.45264000  1.0 -0.6655235036
O  O18  1  0.65830000  0.99650000  0.54736000  1.0 -0.6655235036
O  O19  1  0.15830000  0.50350000  0.54736000  1.0 -0.6655235036
O  O20  1  0.34170000  0.00350000  0.45264000  1.0 -0.6655235036
O  O21  1  0.68710000  0.61530000  0.46560000  1.0 -0.539157544
O  O22  1  0.81290000  0.11530000  0.53440000  1.0 -0.539157544
O  O23  1  0.31290000  0.38470000  0.53440000  1.0 -0.539157544
O  O24  1  0.18710000  0.88470000  0.46560000  1.0 -0.539157544
O  O25  1  0.92370000  0.76820000  0.50150000  1.0 -0.7210290476
O  O26  1  0.57630000  0.26820000  0.49850000  1.0 -0.7210290476
O  O27  1  0.07630000  0.23180000  0.49850000  1.0 -0.7210290476
O  O28  1  0.42370000  0.73180000  0.50150000  1.0 -0.7210290476
