# DDEC6 charges by PACMAN v1.1 (https://github.com/mtap-research/PACMAN-charge/)
data_DUKDIX_FSR_pacman
_symmetry_space_group_name_H-M   'P 1'
_cell_length_a   7.89380000
_cell_length_b   14.86730000
_cell_length_c   16.19520000
_cell_angle_alpha   90.00000000
_cell_angle_beta   91.78300000
_cell_angle_gamma   90.00000000
_symmetry_Int_Tables_number   1
_chemical_formula_structural   ErAgH16C15N2O7
_chemical_formula_sum   'Er4 Ag4 H64 C60 N8 O28'
_cell_volume   1899.74022570
_cell_formula_units_Z   4
loop_
 _symmetry_equiv_pos_site_id
 _symmetry_equiv_pos_as_xyz
  1  'x, y, z'
loop_
 _atom_site_type_symbol
 _atom_site_label
 _atom_site_symmetry_multiplicity
 _atom_site_fract_x
 _atom_site_fract_y
 _atom_site_fract_z
 _atom_site_occupancy
 _atom_site_charge
Er  Er1  1  0.94975000  0.11621000  0.04470000  1.0 1.9637627279
Er  Er2  1  0.55025000  0.61621000  0.95530000  1.0 1.9637627279
Er  Er3  1  0.05025000  0.88379000  0.95530000  1.0 1.9662223136
Er  Er4  1  0.44975000  0.38379000  0.04470000  1.0 1.9662223136
Ag  Ag1  1  0.39945000  0.24056000  0.52648000  1.0 0.2041318467
Ag  Ag2  1  0.10055000  0.74056000  0.47352000  1.0 0.2041318467
Ag  Ag3  1  0.60055000  0.75944000  0.47352000  1.0 0.2041318467
Ag  Ag4  1  0.89945000  0.25944000  0.52648000  1.0 0.2041318467
H  H1  1  0.17290000  0.01140000  0.72000000  1.0 0.1325384254
H  H2  1  0.32710000  0.51140000  0.28000000  1.0 0.1325384254
H  H3  1  0.82710000  0.98860000  0.28000000  1.0 0.1325384254
H  H4  1  0.67290000  0.48860000  0.72000000  1.0 0.1325384254
H  H5  1  0.26030000  0.07530000  0.60000000  1.0 0.0916691994
H  H6  1  0.23970000  0.57530000  0.40000000  1.0 0.0916691994
H  H7  1  0.73970000  0.92470000  0.40000000  1.0 0.0916691994
H  H8  1  0.76030000  0.42470000  0.60000000  1.0 0.0916691994
H  H9  1  0.32330000  0.30700000  0.70860000  1.0 0.1067429905
H  H10  1  0.17670000  0.80700000  0.29140000  1.0 0.1067429905
H  H11  1  0.67670000  0.69300000  0.29140000  1.0 0.1067429905
H  H12  1  0.82330000  0.19300000  0.70860000  1.0 0.1067429905
H  H13  1  0.23700000  0.24850000  0.83190000  1.0 0.149429073
H  H14  1  0.26300000  0.74850000  0.16810000  1.0 0.149429073
H  H15  1  0.76300000  0.75150000  0.16810000  1.0 0.149429073
H  H16  1  0.73700000  0.25150000  0.83190000  1.0 0.149429073
H  H17  1  0.52210000  0.11710000  0.39240000  1.0 0.0971258177
H  H18  1  0.97790000  0.61710000  0.60760000  1.0 0.0971258177
H  H19  1  0.47790000  0.88290000  0.60760000  1.0 0.0971258177
H  H20  1  0.02210000  0.38290000  0.39240000  1.0 0.0971258177
H  H21  1  0.63150000  0.11670000  0.26280000  1.0 0.1325384254
H  H22  1  0.86850000  0.61670000  0.73720000  1.0 0.1325384254
H  H23  1  0.36850000  0.88330000  0.73720000  1.0 0.1325384254
H  H24  1  0.13150000  0.38330000  0.26280000  1.0 0.1325384254
H  H25  1  0.60180000  0.38510000  0.26060000  1.0 0.1325384254
H  H26  1  0.89820000  0.88510000  0.73940000  1.0 0.1325384254
H  H27  1  0.39820000  0.61490000  0.73940000  1.0 0.1325384254
H  H28  1  0.10180000  0.11490000  0.26060000  1.0 0.1325384254
H  H29  1  0.49600000  0.37920000  0.39150000  1.0 0.0916691994
H  H30  1  0.00400000  0.87920000  0.60850000  1.0 0.0916691994
H  H31  1  0.50400000  0.62080000  0.60850000  1.0 0.0916691994
H  H32  1  0.99600000  0.12080000  0.39150000  1.0 0.0916691994
H  H33  1  0.99900000  0.29800000  0.98300000  1.0 0.3272570943
H  H34  1  0.50100000  0.79800000  0.01700000  1.0 0.3272570943
H  H35  1  0.00100000  0.70200000  0.01700000  1.0 0.3272570943
H  H36  1  0.49900000  0.20200000  0.98300000  1.0 0.3272570943
H  H37  1  0.85800000  0.30300000  0.02200000  1.0 0.3191882944
H  H38  1  0.64200000  0.80300000  0.97800000  1.0 0.3191882944
H  H39  1  0.14200000  0.69700000  0.97800000  1.0 0.3191882944
H  H40  1  0.35800000  0.19700000  0.02200000  1.0 0.3191882944
H  H41  1  0.66150000  0.96730000  0.82720000  1.0 0.0761941945
H  H42  1  0.83850000  0.46730000  0.17280000  1.0 0.0761941945
H  H43  1  0.33850000  0.03270000  0.17280000  1.0 0.0761941945
H  H44  1  0.16150000  0.53270000  0.82720000  1.0 0.0761941945
H  H45  1  0.58710000  0.06490000  0.82150000  1.0 0.0971258177
H  H46  1  0.91290000  0.56490000  0.17850000  1.0 0.0971258177
H  H47  1  0.41290000  0.93510000  0.17850000  1.0 0.0971258177
H  H48  1  0.08710000  0.43510000  0.82150000  1.0 0.0971258177
H  H49  1  0.49760000  0.99180000  0.87450000  1.0 0.0681165833
H  H50  1  0.00240000  0.49180000  0.12550000  1.0 0.0681165833
H  H51  1  0.50240000  0.00820000  0.12550000  1.0 0.0681165833
H  H52  1  0.99760000  0.50820000  0.87450000  1.0 0.0681165833
H  H53  1  0.57700000  0.93410000  0.88580000  1.0 0.0971258177
H  H54  1  0.92300000  0.43410000  0.11420000  1.0 0.0971258177
H  H55  1  0.42300000  0.06590000  0.11420000  1.0 0.0971258177
H  H56  1  0.07700000  0.56590000  0.88580000  1.0 0.0971258177
H  H57  1  0.61640000  0.00530000  0.81760000  1.0 0.0681165833
H  H58  1  0.88360000  0.50530000  0.18240000  1.0 0.0681165833
H  H59  1  0.38360000  0.99470000  0.18240000  1.0 0.0681165833
H  H60  1  0.11640000  0.49470000  0.81760000  1.0 0.0681165833
H  H61  1  0.47450000  0.02440000  0.88090000  1.0 0.0916691994
H  H62  1  0.02550000  0.52440000  0.11910000  1.0 0.0916691994
H  H63  1  0.52550000  0.97560000  0.11910000  1.0 0.0916691994
H  H64  1  0.97450000  0.47560000  0.88090000  1.0 0.0916691994
C  C1  1  0.13710000  0.08020000  0.86790000  1.0 0.5317194139
C  C2  1  0.36290000  0.58020000  0.13210000  1.0 0.5317194139
C  C3  1  0.86290000  0.91980000  0.13210000  1.0 0.5317194139
C  C4  1  0.63710000  0.41980000  0.86790000  1.0 0.5317194139
C  C5  1  0.19520000  0.12290000  0.78920000  1.0 0.0301470965
C  C6  1  0.30480000  0.62290000  0.21080000  1.0 0.0301470965
C  C7  1  0.80480000  0.87710000  0.21080000  1.0 0.0301470965
C  C8  1  0.69520000  0.37710000  0.78920000  1.0 0.0301470965
C  C9  1  0.20320000  0.07180000  0.71900000  1.0 -0.1701959936
C  C10  1  0.29680000  0.57180000  0.28100000  1.0 -0.1701959936
C  C11  1  0.79680000  0.92820000  0.28100000  1.0 -0.1701959936
C  C12  1  0.70320000  0.42820000  0.71900000  1.0 -0.1701959936
C  C13  1  0.25640000  0.11050000  0.64730000  1.0 0.0059942541
C  C14  1  0.24360000  0.61050000  0.35270000  1.0 0.0059942541
C  C15  1  0.74360000  0.88950000  0.35270000  1.0 0.0059942541
C  C16  1  0.75640000  0.38950000  0.64730000  1.0 0.0059942541
C  C17  1  0.29340000  0.24660000  0.71100000  1.0 0.0301470965
C  C18  1  0.20660000  0.74660000  0.28900000  1.0 0.0301470965
C  C19  1  0.70660000  0.75340000  0.28900000  1.0 0.0301470965
C  C20  1  0.79340000  0.25340000  0.71100000  1.0 0.0301470965
C  C21  1  0.24110000  0.21210000  0.78530000  1.0 -0.1480510371
C  C22  1  0.25890000  0.71210000  0.21470000  1.0 -0.1480510371
C  C23  1  0.75890000  0.78790000  0.21470000  1.0 -0.1480510371
C  C24  1  0.74110000  0.28790000  0.78530000  1.0 -0.1480510371
C  C25  1  0.53950000  0.17160000  0.36580000  1.0 0.0201031769
C  C26  1  0.96050000  0.67160000  0.63420000  1.0 0.0201031769
C  C27  1  0.46050000  0.82840000  0.63420000  1.0 0.0201031769
C  C28  1  0.03950000  0.32840000  0.36580000  1.0 0.0201031769
C  C29  1  0.60410000  0.17090000  0.28780000  1.0 -0.1613135884
C  C30  1  0.89590000  0.67090000  0.71220000  1.0 -0.1613135884
C  C31  1  0.39590000  0.82910000  0.71220000  1.0 -0.1613135884
C  C32  1  0.10410000  0.32910000  0.28780000  1.0 -0.1613135884
C  C33  1  0.62810000  0.25120000  0.24690000  1.0 0.0201031769
C  C34  1  0.87190000  0.75120000  0.75310000  1.0 0.0201031769
C  C35  1  0.37190000  0.74880000  0.75310000  1.0 0.0201031769
C  C36  1  0.12810000  0.24880000  0.24690000  1.0 0.0201031769
C  C37  1  0.69720000  0.25110000  0.16130000  1.0 0.5982121652
C  C38  1  0.80280000  0.75110000  0.83870000  1.0 0.5982121652
C  C39  1  0.30280000  0.74890000  0.83870000  1.0 0.5982121652
C  C40  1  0.19720000  0.24890000  0.16130000  1.0 0.5982121652
C  C41  1  0.58710000  0.32990000  0.28640000  1.0 -0.1701959936
C  C42  1  0.91290000  0.82990000  0.71360000  1.0 -0.1701959936
C  C43  1  0.41290000  0.67010000  0.71360000  1.0 -0.1701959936
C  C44  1  0.08710000  0.17010000  0.28640000  1.0 -0.1701959936
C  C45  1  0.52370000  0.32580000  0.36510000  1.0 0.0370323447
C  C46  1  0.97630000  0.82580000  0.63490000  1.0 0.0370323447
C  C47  1  0.47630000  0.67420000  0.63490000  1.0 0.0370323447
C  C48  1  0.02370000  0.17420000  0.36510000  1.0 0.0370323447
C  C49  1  0.71250000  0.04090000  0.93130000  1.0 0.4949528848
C  C50  1  0.78750000  0.54090000  0.06870000  1.0 0.4959305798
C  C51  1  0.28750000  0.95910000  0.06870000  1.0 0.4959305798
C  C52  1  0.21250000  0.45910000  0.93130000  1.0 0.4959305798
C  C53  1  0.60500000  0.01370000  0.85690000  1.0 -0.2387203896
C  C54  1  0.89500000  0.51370000  0.14310000  1.0 -0.2387203896
C  C55  1  0.39500000  0.98630000  0.14310000  1.0 -0.2387203896
C  C56  1  0.10500000  0.48630000  0.85690000  1.0 -0.2387203896
C  C57  1  0.58300000  0.99720000  0.87360000  1.0 -0.2343359167
C  C58  1  0.91700000  0.49720000  0.12640000  1.0 -0.2343359167
C  C59  1  0.41700000  0.00280000  0.12640000  1.0 -0.2343359167
C  C60  1  0.08300000  0.50280000  0.87360000  1.0 -0.2343359167
N  N1  1  0.30270000  0.19690000  0.64270000  1.0 -0.1971140528
N  N2  1  0.19730000  0.69690000  0.35730000  1.0 -0.1971140528
N  N3  1  0.69730000  0.80310000  0.35730000  1.0 -0.1971140528
N  N4  1  0.80270000  0.30310000  0.64270000  1.0 -0.1971140528
N  N5  1  0.50070000  0.24810000  0.40470000  1.0 -0.1971140528
N  N6  1  0.99930000  0.74810000  0.59530000  1.0 -0.1971140528
N  N7  1  0.49930000  0.75190000  0.59530000  1.0 -0.1971140528
N  N8  1  0.00070000  0.25190000  0.40470000  1.0 -0.1971140528
O  O1  1  0.09260000  0.13280000  0.92470000  1.0 -0.6520516343
O  O2  1  0.40740000  0.63280000  0.07530000  1.0 -0.6520516343
O  O3  1  0.90740000  0.86720000  0.07530000  1.0 -0.6520516343
O  O4  1  0.59260000  0.36720000  0.92470000  1.0 -0.6520516343
O  O5  1  0.13820000  0.99630000  0.87020000  1.0 -0.6520516343
O  O6  1  0.36180000  0.49630000  0.12980000  1.0 -0.6560527766
O  O7  1  0.86180000  0.00370000  0.12980000  1.0 -0.6520516343
O  O8  1  0.63820000  0.50370000  0.87020000  1.0 -0.6520516343
O  O9  1  0.78060000  0.18420000  0.14022000  1.0 -0.6431987012
O  O10  1  0.71940000  0.68420000  0.85978000  1.0 -0.6431987012
O  O11  1  0.21940000  0.81580000  0.85978000  1.0 -0.6431987012
O  O12  1  0.28060000  0.31580000  0.14022000  1.0 -0.6431987012
O  O13  1  0.66840000  0.31870000  0.11634000  1.0 -0.6675467217
O  O14  1  0.83160000  0.81870000  0.88366000  1.0 -0.6675467217
O  O15  1  0.33160000  0.68130000  0.88366000  1.0 -0.6675467217
O  O16  1  0.16840000  0.18130000  0.11634000  1.0 -0.6675467217
O  O17  1  0.92330000  0.26770000  0.00080000  1.0 -0.7137213672
O  O18  1  0.57670000  0.76770000  0.99920000  1.0 -0.7137213672
O  O19  1  0.07670000  0.73230000  0.99920000  1.0 -0.7137213672
O  O20  1  0.42330000  0.23230000  0.00080000  1.0 -0.7137213672
O  O21  1  0.68700000  0.11530000  0.96540000  1.0 -0.5143146838
O  O22  1  0.81300000  0.61530000  0.03460000  1.0 -0.5143146838
O  O23  1  0.31300000  0.88470000  0.03460000  1.0 -0.5143146838
O  O24  1  0.18700000  0.38470000  0.96540000  1.0 -0.5156569207
O  O25  1  0.84330000  0.99660000  0.95240000  1.0 -0.6560527766
O  O26  1  0.65670000  0.49660000  0.04760000  1.0 -0.6560527766
O  O27  1  0.15670000  0.00340000  0.04760000  1.0 -0.6560527766
O  O28  1  0.34330000  0.50340000  0.95240000  1.0 -0.6560527766
