# DDEC6 charges by PACMAN v1.1 (https://github.com/mtap-research/PACMAN-charge/)
data_DUKNEE_FSR_pacman
_symmetry_space_group_name_H-M   'P 1'
_cell_length_a   23.64610000
_cell_length_b   23.64610000
_cell_length_c   24.48900000
_cell_angle_alpha   81.44480000
_cell_angle_beta   98.55520000
_cell_angle_gamma   152.53200000
_symmetry_Int_Tables_number   1
_chemical_formula_structural   CdH21C27N2O9
_chemical_formula_sum   'Cd8 H168 C216 N16 O72'
_cell_volume   6241.31656967
_cell_formula_units_Z   8
loop_
 _symmetry_equiv_pos_site_id
 _symmetry_equiv_pos_as_xyz
  1  'x, y, z'
loop_
 _atom_site_type_symbol
 _atom_site_label
 _atom_site_symmetry_multiplicity
 _atom_site_fract_x
 _atom_site_fract_y
 _atom_site_fract_z
 _atom_site_occupancy
 _atom_site_charge
Cd  Cd1  1  0.64832000  0.67676000  0.94107000  1.0 0.8739257155
Cd  Cd2  1  0.67676000  0.64832000  0.55893000  1.0 0.8739257155
Cd  Cd3  1  0.35168000  0.32324000  0.05893000  1.0 0.8739257155
Cd  Cd4  1  0.32324000  0.35168000  0.44107000  1.0 0.8739257155
Cd  Cd5  1  0.14527000  0.57889000  0.92043000  1.0 0.8230977057
Cd  Cd6  1  0.57889000  0.14527000  0.57957000  1.0 0.8230977057
Cd  Cd7  1  0.85473000  0.42111000  0.07957000  1.0 0.8230977057
Cd  Cd8  1  0.42111000  0.85473000  0.42043000  1.0 0.8230977057
H  H1  1  0.42600000  0.47960000  0.88250000  1.0 0.3891115783
H  H2  1  0.47960000  0.42600000  0.61750000  1.0 0.3891115783
H  H3  1  0.57400000  0.52040000  0.11750000  1.0 0.3891115783
H  H4  1  0.52040000  0.57400000  0.38250000  1.0 0.3891115783
H  H5  1  0.40060000  0.48460000  0.93550000  1.0 0.3801770035
H  H6  1  0.48460000  0.40060000  0.56450000  1.0 0.3801770035
H  H7  1  0.59940000  0.51540000  0.06450000  1.0 0.3801770035
H  H8  1  0.51540000  0.59940000  0.43550000  1.0 0.3801770035
H  H9  1  0.83510000  0.03770000  0.97010000  1.0 0.1289063385
H  H10  1  0.03770000  0.83510000  0.52990000  1.0 0.1289063385
H  H11  1  0.16490000  0.96230000  0.02990000  1.0 0.1289063385
H  H12  1  0.96230000  0.16490000  0.47010000  1.0 0.1289063385
H  H13  1  0.96340000  0.08000000  0.01510000  1.0 0.1092509915
H  H14  1  0.08000000  0.96340000  0.48490000  1.0 0.1092509915
H  H15  1  0.03660000  0.92000000  0.98490000  1.0 0.1092509915
H  H16  1  0.92000000  0.03660000  0.51510000  1.0 0.1092509915
H  H17  1  0.23130000  0.37610000  0.91510000  1.0 0.1092509915
H  H18  1  0.37610000  0.23130000  0.58490000  1.0 0.1092509915
H  H19  1  0.76870000  0.62390000  0.08490000  1.0 0.1092509915
H  H20  1  0.62390000  0.76870000  0.41510000  1.0 0.1092509915
H  H21  1  0.24940000  0.74760000  0.98490000  1.0 0.3801770035
H  H22  1  0.74760000  0.24940000  0.51510000  1.0 0.3801770035
H  H23  1  0.75060000  0.25240000  0.01510000  1.0 0.3801770035
H  H24  1  0.25240000  0.75060000  0.48490000  1.0 0.3801770035
H  H25  1  0.18920000  0.65920000  0.03200000  1.0 0.3801770035
H  H26  1  0.65920000  0.18920000  0.46800000  1.0 0.3801770035
H  H27  1  0.81080000  0.34080000  0.96800000  1.0 0.3801770035
H  H28  1  0.34080000  0.81080000  0.53200000  1.0 0.3801770035
H  H29  1  0.10060000  0.32880000  0.86930000  1.0 0.1289063385
H  H30  1  0.32880000  0.10060000  0.63070000  1.0 0.1289063385
H  H31  1  0.89940000  0.67120000  0.13070000  1.0 0.1289063385
H  H32  1  0.67120000  0.89940000  0.36930000  1.0 0.1289063385
H  H33  1  0.22780000  0.25660000  0.56130000  1.0 0.1092509915
H  H34  1  0.25660000  0.22780000  0.93870000  1.0 0.1092509915
H  H35  1  0.77220000  0.74340000  0.43870000  1.0 0.1092509915
H  H36  1  0.74340000  0.77220000  0.06130000  1.0 0.1092509915
H  H37  1  0.30940000  0.47080000  0.46910000  1.0 0.1092509915
H  H38  1  0.47080000  0.30940000  0.03090000  1.0 0.1092509915
H  H39  1  0.69060000  0.52920000  0.53090000  1.0 0.1092509915
H  H40  1  0.52920000  0.69060000  0.96910000  1.0 0.1092509915
H  H41  1  0.59360000  0.71920000  0.83300000  1.0 0.1092509915
H  H42  1  0.71920000  0.59360000  0.66700000  1.0 0.1092509915
H  H43  1  0.40640000  0.28080000  0.16700000  1.0 0.1092509915
H  H44  1  0.28080000  0.40640000  0.33300000  1.0 0.1092509915
H  H45  1  0.68470000  0.86110000  0.76440000  1.0 0.1397271281
H  H46  1  0.86110000  0.68470000  0.73560000  1.0 0.1397271281
H  H47  1  0.31530000  0.13890000  0.23560000  1.0 0.1397271281
H  H48  1  0.13890000  0.31530000  0.26440000  1.0 0.1397271281
H  H49  1  0.00740000  0.11080000  0.84450000  1.0 0.1587250035
H  H50  1  0.11080000  0.00740000  0.65550000  1.0 0.1587250035
H  H51  1  0.99260000  0.88920000  0.15550000  1.0 0.1587250035
H  H52  1  0.88920000  0.99260000  0.34450000  1.0 0.1587250035
H  H53  1  0.90950000  0.95950000  0.90650000  1.0 0.1092509915
H  H54  1  0.95950000  0.90950000  0.59350000  1.0 0.1092509915
H  H55  1  0.09050000  0.04050000  0.09350000  1.0 0.1092509915
H  H56  1  0.04050000  0.09050000  0.40650000  1.0 0.1092509915
H  H57  1  0.80940000  0.00220000  0.69310000  1.0 0.1009977686
H  H58  1  0.00220000  0.80940000  0.80690000  1.0 0.1009977686
H  H59  1  0.19060000  0.99780000  0.30690000  1.0 0.1009977686
H  H60  1  0.99780000  0.19060000  0.19310000  1.0 0.1009977686
H  H61  1  0.80270000  0.04710000  0.72770000  1.0 0.1092509915
H  H62  1  0.04710000  0.80270000  0.77230000  1.0 0.1092509915
H  H63  1  0.19730000  0.95290000  0.27230000  1.0 0.1092509915
H  H64  1  0.95290000  0.19730000  0.22770000  1.0 0.1092509915
H  H65  1  0.97740000  0.13840000  0.63910000  1.0 0.1092509915
H  H66  1  0.13840000  0.97740000  0.86090000  1.0 0.1092509915
H  H67  1  0.02260000  0.86160000  0.36090000  1.0 0.1092509915
H  H68  1  0.86160000  0.02260000  0.13910000  1.0 0.1092509915
H  H69  1  0.08040000  0.23600000  0.68440000  1.0 0.1092509915
H  H70  1  0.23600000  0.08040000  0.81560000  1.0 0.1092509915
H  H71  1  0.91960000  0.76400000  0.31560000  1.0 0.1092509915
H  H72  1  0.76400000  0.91960000  0.18440000  1.0 0.1092509915
H  H73  1  0.21700000  0.44160000  0.52630000  1.0 0.1587250035
H  H74  1  0.44160000  0.21700000  0.97370000  1.0 0.1587250035
H  H75  1  0.78300000  0.55840000  0.47370000  1.0 0.1587250035
H  H76  1  0.55840000  0.78300000  0.02630000  1.0 0.1587250035
H  H77  1  0.13390000  0.22110000  0.62250000  1.0 0.1397271281
H  H78  1  0.22110000  0.13390000  0.87750000  1.0 0.1397271281
H  H79  1  0.86610000  0.77890000  0.37750000  1.0 0.1397271281
H  H80  1  0.77890000  0.86610000  0.12250000  1.0 0.1397271281
H  H81  1  0.64770000  0.88210000  0.54210000  1.0 0.1587250035
H  H82  1  0.88210000  0.64770000  0.95790000  1.0 0.1587250035
H  H83  1  0.35230000  0.11790000  0.45790000  1.0 0.1587250035
H  H84  1  0.11790000  0.35230000  0.04210000  1.0 0.1587250035
H  H85  1  0.77530000  0.14710000  0.56940000  1.0 0.1539786158
H  H86  1  0.14710000  0.77530000  0.93060000  1.0 0.1539786158
H  H87  1  0.22470000  0.85290000  0.43060000  1.0 0.1539786158
H  H88  1  0.85290000  0.22470000  0.06940000  1.0 0.1539786158
H  H89  1  0.08880000  0.36680000  0.68560000  1.0 0.1092509915
H  H90  1  0.36680000  0.08880000  0.81440000  1.0 0.1092509915
H  H91  1  0.91120000  0.63320000  0.31440000  1.0 0.1092509915
H  H92  1  0.63320000  0.91120000  0.18560000  1.0 0.1092509915
H  H93  1  0.07970000  0.31230000  0.73850000  1.0 0.1092509915
H  H94  1  0.31230000  0.07970000  0.76150000  1.0 0.1092509915
H  H95  1  0.92030000  0.68770000  0.26150000  1.0 0.1092509915
H  H96  1  0.68770000  0.92030000  0.23850000  1.0 0.1092509915
H  H97  1  0.83610000  0.21990000  0.78500000  1.0 0.1587250035
H  H98  1  0.21990000  0.83610000  0.71500000  1.0 0.1587250035
H  H99  1  0.16390000  0.78010000  0.21500000  1.0 0.1587250035
H  H100  1  0.78010000  0.16390000  0.28500000  1.0 0.1587250035
H  H101  1  0.90860000  0.33920000  0.84880000  1.0 0.1009977686
H  H102  1  0.33920000  0.90860000  0.65120000  1.0 0.1009977686
H  H103  1  0.09140000  0.66080000  0.15120000  1.0 0.1009977686
H  H104  1  0.66080000  0.09140000  0.34880000  1.0 0.1009977686
H  H105  1  0.24340000  0.59120000  0.82930000  1.0 0.1009977686
H  H106  1  0.59120000  0.24340000  0.67070000  1.0 0.1009977686
H  H107  1  0.75660000  0.40880000  0.17070000  1.0 0.1009977686
H  H108  1  0.40880000  0.75660000  0.32930000  1.0 0.1009977686
H  H109  1  0.18440000  0.48260000  0.76600000  1.0 0.1397271281
H  H110  1  0.48260000  0.18440000  0.73400000  1.0 0.1397271281
H  H111  1  0.81560000  0.51740000  0.23400000  1.0 0.1397271281
H  H112  1  0.51740000  0.81560000  0.26600000  1.0 0.1397271281
H  H113  1  0.51260000  0.80820000  0.47660000  1.0 0.1009977686
H  H114  1  0.80820000  0.51260000  0.02340000  1.0 0.1009977686
H  H115  1  0.48740000  0.19180000  0.52340000  1.0 0.1009977686
H  H116  1  0.19180000  0.48740000  0.97660000  1.0 0.1009977686
H  H117  1  0.63810000  0.06750000  0.50210000  1.0 0.1092509915
H  H118  1  0.06750000  0.63810000  0.99790000  1.0 0.1092509915
H  H119  1  0.36190000  0.93250000  0.49790000  1.0 0.1092509915
H  H120  1  0.93250000  0.36190000  0.00210000  1.0 0.1092509915
H  H121  1  0.74900000  0.33280000  0.89240000  1.0 0.1092509915
H  H122  1  0.33280000  0.74900000  0.60760000  1.0 0.1092509915
H  H123  1  0.25100000  0.66720000  0.10760000  1.0 0.1092509915
H  H124  1  0.66720000  0.25100000  0.39240000  1.0 0.1092509915
H  H125  1  0.61270000  0.27790000  0.84570000  1.0 0.1397271281
H  H126  1  0.27790000  0.61270000  0.65430000  1.0 0.1397271281
H  H127  1  0.38730000  0.72210000  0.15430000  1.0 0.1397271281
H  H128  1  0.72210000  0.38730000  0.34570000  1.0 0.1397271281
H  H129  1  0.87770000  0.57850000  0.74990000  1.0 0.1289063385
H  H130  1  0.57850000  0.87770000  0.75010000  1.0 0.1289063385
H  H131  1  0.12230000  0.42150000  0.25010000  1.0 0.1289063385
H  H132  1  0.42150000  0.12230000  0.24990000  1.0 0.1289063385
H  H133  1  0.01250000  0.63410000  0.79770000  1.0 0.1221150214
H  H134  1  0.63410000  0.01250000  0.70230000  1.0 0.1221150214
H  H135  1  0.98750000  0.36590000  0.20230000  1.0 0.1221150214
H  H136  1  0.36590000  0.98750000  0.29770000  1.0 0.1221150214
H  H137  1  0.74650000  0.51330000  0.85690000  1.0 0.1221150214
H  H138  1  0.51330000  0.74650000  0.64310000  1.0 0.1221150214
H  H139  1  0.25350000  0.48670000  0.14310000  1.0 0.1221150214
H  H140  1  0.48670000  0.25350000  0.35690000  1.0 0.1221150214
H  H141  1  0.69750000  0.55150000  0.89360000  1.0 0.1092509915
H  H142  1  0.55150000  0.69750000  0.60640000  1.0 0.1092509915
H  H143  1  0.30250000  0.44850000  0.10640000  1.0 0.1092509915
H  H144  1  0.44850000  0.30250000  0.39360000  1.0 0.1092509915
H  H145  1  0.45870000  0.38390000  0.76620000  1.0 0.1221150214
H  H146  1  0.38390000  0.45870000  0.73380000  1.0 0.1221150214
H  H147  1  0.54130000  0.61610000  0.23380000  1.0 0.1221150214
H  H148  1  0.61610000  0.54130000  0.26620000  1.0 0.1221150214
H  H149  1  0.50670000  0.34550000  0.73230000  1.0 0.1397271281
H  H150  1  0.34550000  0.50670000  0.76770000  1.0 0.1397271281
H  H151  1  0.49330000  0.65450000  0.26770000  1.0 0.1397271281
H  H152  1  0.65450000  0.49330000  0.23230000  1.0 0.1397271281
H  H153  1  0.50560000  0.79220000  0.87620000  1.0 0.1092509915
H  H154  1  0.79220000  0.50560000  0.62380000  1.0 0.1092509915
H  H155  1  0.49440000  0.20780000  0.12380000  1.0 0.1092509915
H  H156  1  0.20780000  0.49440000  0.37620000  1.0 0.1092509915
H  H157  1  0.59950000  0.00950000  0.94080000  1.0 0.1221150214
H  H158  1  0.00950000  0.59950000  0.55920000  1.0 0.1221150214
H  H159  1  0.40050000  0.99050000  0.05920000  1.0 0.1221150214
H  H160  1  0.99050000  0.40050000  0.44080000  1.0 0.1221150214
H  H161  1  0.71850000  0.96210000  0.86810000  1.0 0.1289063385
H  H162  1  0.96210000  0.71850000  0.63190000  1.0 0.1289063385
H  H163  1  0.28150000  0.03790000  0.13190000  1.0 0.1289063385
H  H164  1  0.03790000  0.28150000  0.36810000  1.0 0.1289063385
H  H165  1  0.80340000  0.17300000  0.93120000  1.0 0.1289063385
H  H166  1  0.17300000  0.80340000  0.56880000  1.0 0.1289063385
H  H167  1  0.19660000  0.82700000  0.06880000  1.0 0.1289063385
H  H168  1  0.82700000  0.19660000  0.43120000  1.0 0.1289063385
C  C1  1  0.95950000  0.18310000  0.91620000  1.0 0.2447610831
C  C2  1  0.18310000  0.95950000  0.58380000  1.0 0.2447610831
C  C3  1  0.04050000  0.81690000  0.08380000  1.0 0.2447610831
C  C4  1  0.81690000  0.04050000  0.41620000  1.0 0.2447610831
C  C5  1  0.88570000  0.16850000  0.63060000  1.0 -0.0097342665
C  C6  1  0.16850000  0.88570000  0.86940000  1.0 -0.0097342665
C  C7  1  0.11430000  0.83150000  0.36940000  1.0 -0.0097342665
C  C8  1  0.83150000  0.11430000  0.13060000  1.0 -0.0097342665
C  C9  1  0.91540000  0.10600000  0.95930000  1.0 -0.2297498777
C  C10  1  0.10600000  0.91540000  0.54070000  1.0 -0.2297498777
C  C11  1  0.08460000  0.89400000  0.04070000  1.0 -0.2297498777
C  C12  1  0.89400000  0.08460000  0.45930000  1.0 -0.2297498777
C  C13  1  0.99231000  0.13169000  0.98620000  1.0 -0.0858837368
C  C14  1  0.13169000  0.99231000  0.51380000  1.0 -0.0858837368
C  C15  1  0.00769000  0.86831000  0.01380000  1.0 -0.0858837368
C  C16  1  0.86831000  0.00769000  0.48620000  1.0 -0.0858837368
C  C17  1  0.11407000  0.23573000  0.97020000  1.0 -0.0649789834
C  C18  1  0.23573000  0.11407000  0.52980000  1.0 -0.0649789834
C  C19  1  0.88593000  0.76427000  0.02980000  1.0 -0.0649789834
C  C20  1  0.76427000  0.88593000  0.47020000  1.0 -0.0649789834
C  C21  1  0.15138000  0.30722000  0.92660000  1.0 -0.0962899267
C  C22  1  0.30722000  0.15138000  0.57340000  1.0 -0.0962899267
C  C23  1  0.84862000  0.69278000  0.07340000  1.0 -0.0962899267
C  C24  1  0.69278000  0.84862000  0.42660000  1.0 -0.0962899267
C  C25  1  0.07355000  0.27985000  0.89940000  1.0 -0.2196983783
C  C26  1  0.27985000  0.07355000  0.60060000  1.0 -0.2196983783
C  C27  1  0.92645000  0.72015000  0.10060000  1.0 -0.2196983783
C  C28  1  0.72015000  0.92645000  0.39940000  1.0 -0.2196983783
C  C29  1  0.19518000  0.26162000  0.99810000  1.0 0.5458275376
C  C30  1  0.26162000  0.19518000  0.50190000  1.0 0.5458275376
C  C31  1  0.80482000  0.73838000  0.00190000  1.0 0.5458275376
C  C32  1  0.73838000  0.80482000  0.49810000  1.0 0.5458275376
C  C33  1  0.22393000  0.29287000  0.55390000  1.0 0.0882956219
C  C34  1  0.29287000  0.22393000  0.94610000  1.0 0.0882956219
C  C35  1  0.77607000  0.70713000  0.44610000  1.0 0.0882956219
C  C36  1  0.70713000  0.77607000  0.05390000  1.0 0.0882956219
C  C37  1  0.27144000  0.41796000  0.49990000  1.0 0.0807479658
C  C38  1  0.41796000  0.27144000  0.00010000  1.0 0.0807479658
C  C39  1  0.72856000  0.58204000  0.50010000  1.0 0.0807479658
C  C40  1  0.58204000  0.72856000  0.99990000  1.0 0.0807479658
C  C41  1  0.67832000  0.79888000  0.83480000  1.0 0.1092509915
C  C42  1  0.79888000  0.67832000  0.66520000  1.0 0.1092509915
C  C43  1  0.32168000  0.20112000  0.16520000  1.0 0.1092509915
C  C44  1  0.20112000  0.32168000  0.33480000  1.0 0.1092509915
C  C45  1  0.73233000  0.88367000  0.79340000  1.0 -0.2791267784
C  C46  1  0.88367000  0.73233000  0.70660000  1.0 -0.2791267784
C  C47  1  0.26767000  0.11633000  0.20660000  1.0 -0.2791267784
C  C48  1  0.11633000  0.26767000  0.29340000  1.0 -0.2791267784
C  C49  1  0.85635000  0.00065000  0.79570000  1.0 0.2717431633
C  C50  1  0.00065000  0.85635000  0.70430000  1.0 0.2717431633
C  C51  1  0.14365000  0.99935000  0.20430000  1.0 0.2717431633
C  C52  1  0.99935000  0.14365000  0.29570000  1.0 0.2717431633
C  C53  1  0.92335000  0.03065000  0.84050000  1.0 -0.24986223
C  C54  1  0.03065000  0.92335000  0.65950000  1.0 -0.24986223
C  C55  1  0.07665000  0.96935000  0.15950000  1.0 -0.24986223
C  C56  1  0.96935000  0.07665000  0.34050000  1.0 -0.24986223
C  C57  1  0.86360000  0.94060000  0.87830000  1.0 0.0882956219
C  C58  1  0.94060000  0.86360000  0.62170000  1.0 0.0882956219
C  C59  1  0.13640000  0.05940000  0.12170000  1.0 0.0882956219
C  C60  1  0.05940000  0.13640000  0.37830000  1.0 0.0882956219
C  C61  1  0.85764000  0.06956000  0.71380000  1.0 -0.0799086853
C  C62  1  0.06956000  0.85764000  0.78620000  1.0 -0.0799086853
C  C63  1  0.14236000  0.93044000  0.28620000  1.0 -0.0799086853
C  C64  1  0.93044000  0.14236000  0.21380000  1.0 -0.0799086853
C  C65  1  0.95237000  0.18663000  0.67700000  1.0 0.0462510901
C  C66  1  0.18663000  0.95237000  0.82300000  1.0 0.0462510901
C  C67  1  0.04763000  0.81337000  0.32300000  1.0 0.0462510901
C  C68  1  0.81337000  0.04763000  0.17700000  1.0 0.0462510901
C  C69  1  0.02983000  0.21197000  0.65470000  1.0 -0.0858837368
C  C70  1  0.21197000  0.02983000  0.84530000  1.0 -0.0858837368
C  C71  1  0.97017000  0.78803000  0.34530000  1.0 -0.0858837368
C  C72  1  0.78803000  0.97017000  0.15470000  1.0 -0.0858837368
C  C73  1  0.16266000  0.32534000  0.58050000  1.0 0.2779042272
C  C74  1  0.32534000  0.16266000  0.91950000  1.0 0.2779042272
C  C75  1  0.83734000  0.67466000  0.41950000  1.0 0.2779042272
C  C76  1  0.67466000  0.83734000  0.08050000  1.0 0.2779042272
C  C77  1  0.21730000  0.40210000  0.53400000  1.0 -0.2577182011
C  C78  1  0.40210000  0.21730000  0.96600000  1.0 -0.2577182011
C  C79  1  0.78270000  0.59790000  0.46600000  1.0 -0.2577182011
C  C80  1  0.59790000  0.78270000  0.03400000  1.0 -0.2577182011
C  C81  1  0.16768000  0.27112000  0.59100000  1.0 -0.2678162034
C  C82  1  0.27112000  0.16768000  0.90900000  1.0 -0.2678162034
C  C83  1  0.83232000  0.72888000  0.40900000  1.0 -0.2678162034
C  C84  1  0.72888000  0.83232000  0.09100000  1.0 -0.2678162034
C  C85  1  0.72507000  0.02153000  0.56280000  1.0 0.2873661591
C  C86  1  0.02153000  0.72507000  0.93720000  1.0 0.2873661591
C  C87  1  0.27493000  0.97847000  0.43720000  1.0 0.2873661591
C  C88  1  0.97847000  0.27493000  0.06280000  1.0 0.2873661591
C  C89  1  0.64662000  0.92098000  0.53480000  1.0 -0.2577182011
C  C90  1  0.92098000  0.64662000  0.96520000  1.0 -0.2577182011
C  C91  1  0.35338000  0.07902000  0.46520000  1.0 -0.2577182011
C  C92  1  0.07902000  0.35338000  0.03480000  1.0 -0.24986223
C  C93  1  0.72242000  0.07798000  0.55100000  1.0 -0.2577182011
C  C94  1  0.07798000  0.72242000  0.94900000  1.0 -0.2577182011
C  C95  1  0.27758000  0.92202000  0.44900000  1.0 -0.2577182011
C  C96  1  0.92202000  0.27758000  0.05100000  1.0 -0.2577182011
C  C97  1  0.03242000  0.29438000  0.70970000  1.0 -0.0799086853
C  C98  1  0.29438000  0.03242000  0.79030000  1.0 -0.0799086853
C  C99  1  0.96758000  0.70562000  0.29030000  1.0 -0.0799086853
C  C100  1  0.70562000  0.96758000  0.20970000  1.0 -0.0799086853
C  C101  1  0.00164000  0.33736000  0.76910000  1.0 0.2779042272
C  C102  1  0.33736000  0.00164000  0.73090000  1.0 0.2779042272
C  C103  1  0.99836000  0.66264000  0.23090000  1.0 0.2779042272
C  C104  1  0.66264000  0.99836000  0.26910000  1.0 0.2779042272
C  C105  1  0.91968000  0.29532000  0.79370000  1.0 -0.2386429699
C  C106  1  0.29532000  0.91968000  0.70630000  1.0 -0.2386429699
C  C107  1  0.08032000  0.70468000  0.20630000  1.0 -0.2386429699
C  C108  1  0.70468000  0.08032000  0.29370000  1.0 -0.2386429699
C  C109  1  0.96423000  0.36757000  0.83180000  1.0 0.1009977686
C  C110  1  0.36757000  0.96423000  0.66820000  1.0 0.1009977686
C  C111  1  0.03577000  0.63243000  0.16820000  1.0 0.1009977686
C  C112  1  0.63243000  0.03577000  0.33180000  1.0 0.1009977686
C  C113  1  0.16027000  0.51493000  0.82030000  1.0 0.0807479658
C  C114  1  0.51493000  0.16027000  0.67970000  1.0 0.0807479658
C  C115  1  0.83973000  0.48507000  0.17970000  1.0 0.0807479658
C  C116  1  0.48507000  0.83973000  0.32030000  1.0 0.0807479658
C  C117  1  0.12656000  0.45144000  0.78250000  1.0 -0.2678162034
C  C118  1  0.45144000  0.12656000  0.71750000  1.0 -0.2678162034
C  C119  1  0.87344000  0.54856000  0.21750000  1.0 -0.2678162034
C  C120  1  0.54856000  0.87344000  0.28250000  1.0 -0.2678162034
C  C121  1  0.56533000  0.87687000  0.49560000  1.0 0.0807479658
C  C122  1  0.87687000  0.56533000  0.00440000  1.0 0.0807479658
C  C123  1  0.43467000  0.12313000  0.50440000  1.0 0.0882956219
C  C124  1  0.12313000  0.43467000  0.99560000  1.0 0.0807479658
C  C125  1  0.63888000  0.02852000  0.51090000  1.0 0.0807479658
C  C126  1  0.02852000  0.63888000  0.98910000  1.0 0.0807479658
C  C127  1  0.36112000  0.97148000  0.48910000  1.0 0.0807479658
C  C128  1  0.97148000  0.36112000  0.01090000  1.0 0.0807479658
C  C129  1  0.98344000  0.52076000  0.87750000  1.0 0.5429503171
C  C130  1  0.52076000  0.98344000  0.62250000  1.0 0.5429503171
C  C131  1  0.01656000  0.47924000  0.12250000  1.0 0.5429503171
C  C132  1  0.47924000  0.01656000  0.37750000  1.0 0.5429503171
C  C133  1  0.89587000  0.48853000  0.84830000  1.0 -0.0243883861
C  C134  1  0.48853000  0.89587000  0.65170000  1.0 -0.0243883861
C  C135  1  0.10413000  0.51147000  0.15170000  1.0 -0.0243883861
C  C136  1  0.51147000  0.10413000  0.34830000  1.0 -0.0243883861
C  C137  1  0.77562000  0.38298000  0.86350000  1.0 -0.107425742
C  C138  1  0.38298000  0.77562000  0.63650000  1.0 -0.107425742
C  C139  1  0.22438000  0.61702000  0.13650000  1.0 -0.107425742
C  C140  1  0.61702000  0.22438000  0.36350000  1.0 -0.107425742
C  C141  1  0.69457000  0.35103000  0.83640000  1.0 -0.1824347937
C  C142  1  0.35103000  0.69457000  0.66360000  1.0 -0.1824347937
C  C143  1  0.30543000  0.64897000  0.16360000  1.0 -0.1824347937
C  C144  1  0.64897000  0.30543000  0.33640000  1.0 -0.1824347937
C  C145  1  0.73503000  0.42677000  0.79630000  1.0 0.2020273915
C  C146  1  0.42677000  0.73503000  0.70370000  1.0 0.2020273915
C  C147  1  0.26497000  0.57323000  0.20370000  1.0 0.2020273915
C  C148  1  0.57323000  0.26497000  0.29630000  1.0 0.2020273915
C  C149  1  0.85213000  0.52987000  0.77960000  1.0 -0.1995188484
C  C150  1  0.52987000  0.85213000  0.72040000  1.0 -0.1995188484
C  C151  1  0.14787000  0.47013000  0.22040000  1.0 -0.1995188484
C  C152  1  0.47013000  0.14787000  0.27960000  1.0 -0.1995188484
C  C153  1  0.93081000  0.56039000  0.80730000  1.0 -0.0962899267
C  C154  1  0.56039000  0.93081000  0.69270000  1.0 -0.0962899267
C  C155  1  0.06919000  0.43961000  0.19270000  1.0 -0.0962899267
C  C156  1  0.43961000  0.06919000  0.30730000  1.0 -0.0962899267
C  C157  1  0.62758000  0.42182000  0.79220000  1.0 0.22435984
C  C158  1  0.42182000  0.62758000  0.70780000  1.0 0.22435984
C  C159  1  0.37242000  0.57818000  0.20780000  1.0 0.22435984
C  C160  1  0.57818000  0.37242000  0.29220000  1.0 0.22435984
C  C161  1  0.68723000  0.48597000  0.83930000  1.0 -0.2297498777
C  C162  1  0.48597000  0.68723000  0.66070000  1.0 -0.2297498777
C  C163  1  0.31277000  0.51403000  0.16070000  1.0 -0.2386429699
C  C164  1  0.51403000  0.31277000  0.33930000  1.0 -0.2297498777
C  C165  1  0.65907000  0.51033000  0.86070000  1.0 -0.0962899267
C  C166  1  0.51033000  0.65907000  0.63930000  1.0 -0.0962899267
C  C167  1  0.34093000  0.48967000  0.13930000  1.0 -0.0962899267
C  C168  1  0.48967000  0.34093000  0.36070000  1.0 -0.0962899267
C  C169  1  0.57400000  0.47380000  0.83360000  1.0 -0.0371532311
C  C170  1  0.47380000  0.57400000  0.66640000  1.0 -0.0371532311
C  C171  1  0.42600000  0.52620000  0.16640000  1.0 -0.0371532311
C  C172  1  0.52620000  0.42600000  0.33360000  1.0 -0.0371532311
C  C173  1  0.51680000  0.41020000  0.78510000  1.0 -0.0799086853
C  C174  1  0.41020000  0.51680000  0.71490000  1.0 -0.0799086853
C  C175  1  0.48320000  0.58980000  0.21490000  1.0 -0.0799086853
C  C176  1  0.58980000  0.48320000  0.28510000  1.0 -0.0799086853
C  C177  1  0.54469000  0.38651000  0.76510000  1.0 -0.2129648851
C  C178  1  0.38651000  0.54469000  0.73490000  1.0 -0.2129648851
C  C179  1  0.45531000  0.61349000  0.23490000  1.0 -0.2129648851
C  C180  1  0.61349000  0.45531000  0.26510000  1.0 -0.2129648851
C  C181  1  0.55188000  0.50892000  0.85550000  1.0 0.5633539854
C  C182  1  0.50892000  0.55188000  0.64450000  1.0 0.5633539854
C  C183  1  0.44812000  0.49108000  0.14450000  1.0 0.5633539854
C  C184  1  0.49108000  0.44812000  0.35550000  1.0 0.5633539854
C  C185  1  0.39680000  0.76760000  0.91020000  1.0 0.2779042272
C  C186  1  0.76760000  0.39680000  0.58980000  1.0 0.2779042272
C  C187  1  0.60320000  0.23240000  0.08980000  1.0 0.2779042272
C  C188  1  0.23240000  0.60320000  0.41020000  1.0 0.2779042272
C  C189  1  0.53518000  0.88482000  0.91540000  1.0 -0.0097342665
C  C190  1  0.88482000  0.53518000  0.58460000  1.0 -0.0097342665
C  C191  1  0.46482000  0.11518000  0.08460000  1.0 -0.0097342665
C  C192  1  0.11518000  0.46482000  0.41540000  1.0 -0.0097342665
C  C193  1  0.56540000  0.86780000  0.89000000  1.0 -0.1696023943
C  C194  1  0.86780000  0.56540000  0.61000000  1.0 -0.1696023943
C  C195  1  0.43460000  0.13220000  0.11000000  1.0 -0.1696023943
C  C196  1  0.13220000  0.43460000  0.39000000  1.0 -0.1696023943
C  C197  1  0.62200000  0.99640000  0.92760000  1.0 -0.1261640071
C  C198  1  0.99640000  0.62200000  0.57240000  1.0 -0.1261640071
C  C199  1  0.37800000  0.00360000  0.07240000  1.0 -0.1261640071
C  C200  1  0.00360000  0.37800000  0.42760000  1.0 -0.1261640071
C  C201  1  0.77350000  0.07450000  0.90340000  1.0 0.2020273915
C  C202  1  0.07450000  0.77350000  0.59660000  1.0 0.2020273915
C  C203  1  0.22650000  0.92550000  0.09660000  1.0 0.2020273915
C  C204  1  0.92550000  0.22650000  0.40340000  1.0 0.2020273915
C  C205  1  0.69350000  0.97070000  0.88480000  1.0 -0.2196983783
C  C206  1  0.97070000  0.69350000  0.61520000  1.0 -0.2196983783
C  C207  1  0.30650000  0.02930000  0.11520000  1.0 -0.2196983783
C  C208  1  0.02930000  0.30650000  0.38480000  1.0 -0.2196983783
C  C209  1  0.74410000  0.09490000  0.92200000  1.0 -0.187789783
C  C210  1  0.09490000  0.74410000  0.57800000  1.0 -0.187789783
C  C211  1  0.25590000  0.90510000  0.07800000  1.0 -0.187789783
C  C212  1  0.90510000  0.25590000  0.42200000  1.0 -0.187789783
C  C213  1  0.41750000  0.80210000  0.93810000  1.0 0.2996690793
C  C214  1  0.80210000  0.41750000  0.56190000  1.0 0.2996690793
C  C215  1  0.58250000  0.19790000  0.06190000  1.0 0.2996690793
C  C216  1  0.19790000  0.58250000  0.43810000  1.0 0.2996690793
N  N1  1  0.27376000  0.36284000  0.50760000  1.0 -0.2678162034
N  N2  1  0.36284000  0.27376000  0.99240000  1.0 -0.2678162034
N  N3  1  0.72624000  0.63716000  0.49240000  1.0 -0.2678162034
N  N4  1  0.63716000  0.72624000  0.00760000  1.0 -0.2678162034
N  N5  1  0.74160000  0.82600000  0.87690000  1.0 -0.2577182011
N  N6  1  0.82600000  0.74160000  0.62310000  1.0 -0.2577182011
N  N7  1  0.25840000  0.17400000  0.12310000  1.0 -0.2577182011
N  N8  1  0.17400000  0.25840000  0.37690000  1.0 -0.2577182011
N  N9  1  0.08201000  0.47539000  0.84560000  1.0 -0.2678162034
N  N10  1  0.47539000  0.08201000  0.65440000  1.0 -0.2678162034
N  N11  1  0.91799000  0.52461000  0.15440000  1.0 -0.2678162034
N  N12  1  0.52461000  0.91799000  0.34560000  1.0 -0.2678162034
N  N13  1  0.55829000  0.92711000  0.48350000  1.0 -0.2791267784
N  N14  1  0.92711000  0.55829000  0.01650000  1.0 -0.2791267784
N  N15  1  0.44171000  0.07289000  0.51650000  1.0 -0.2791267784
N  N16  1  0.07289000  0.44171000  0.98350000  1.0 -0.2791267784
O  O1  1  0.15330000  0.18710000  0.03452000  1.0 -0.5463768543
O  O2  1  0.18710000  0.15330000  0.46548000  1.0 -0.5463768543
O  O3  1  0.84670000  0.81290000  0.96548000  1.0 -0.5463768543
O  O4  1  0.81290000  0.84670000  0.53452000  1.0 -0.5463768543
O  O5  1  0.30680000  0.36080000  0.98687000  1.0 -0.5593403877
O  O6  1  0.36080000  0.30680000  0.51313000  1.0 -0.5593403877
O  O7  1  0.69320000  0.63920000  0.01313000  1.0 -0.5593403877
O  O8  1  0.63920000  0.69320000  0.48687000  1.0 -0.5593403877
O  O9  1  0.63098000  0.59162000  0.89090000  1.0 -0.5593403877
O  O10  1  0.59162000  0.63098000  0.60910000  1.0 -0.5593403877
O  O11  1  0.36902000  0.40838000  0.10910000  1.0 -0.5593403877
O  O12  1  0.40838000  0.36902000  0.39090000  1.0 -0.5593403877
O  O13  1  0.45518000  0.53242000  0.90567000  1.0 -0.7608256491
O  O14  1  0.53242000  0.45518000  0.59433000  1.0 -0.7608256491
O  O15  1  0.54482000  0.46758000  0.09433000  1.0 -0.7608256491
O  O16  1  0.46758000  0.54482000  0.40567000  1.0 -0.7608256491
O  O17  1  0.92394000  0.09506000  0.75839000  1.0 -0.1824347937
O  O18  1  0.09506000  0.92394000  0.74161000  1.0 -0.1824347937
O  O19  1  0.07606000  0.90494000  0.24161000  1.0 -0.1824347937
O  O20  1  0.90494000  0.07606000  0.25839000  1.0 -0.1824347937
O  O21  1  0.10591000  0.30809000  0.61321000  1.0 -0.1625272931
O  O22  1  0.30809000  0.10591000  0.88679000  1.0 -0.1625272931
O  O23  1  0.89409000  0.69191000  0.38679000  1.0 -0.1625272931
O  O24  1  0.69191000  0.89409000  0.11321000  1.0 -0.1625272931
O  O25  1  0.95349000  0.26091000  0.73311000  1.0 -0.1625272931
O  O26  1  0.26091000  0.95349000  0.76689000  1.0 -0.1625272931
O  O27  1  0.04651000  0.73909000  0.26689000  1.0 -0.1625272931
O  O28  1  0.73909000  0.04651000  0.23311000  1.0 -0.1625272931
O  O29  1  0.20200000  0.67500000  0.99550000  1.0 -0.7175287308
O  O30  1  0.67500000  0.20200000  0.50450000  1.0 -0.7175287308
O  O31  1  0.79800000  0.32500000  0.00450000  1.0 -0.7175287308
O  O32  1  0.32500000  0.79800000  0.49550000  1.0 -0.7175287308
O  O33  1  0.94526000  0.45034000  0.91544000  1.0 -0.57360518
O  O34  1  0.45034000  0.94526000  0.58456000  1.0 -0.57360518
O  O35  1  0.05474000  0.54966000  0.08456000  1.0 -0.57360518
O  O36  1  0.54966000  0.05474000  0.41544000  1.0 -0.57360518
O  O37  1  0.09103000  0.61677000  0.86120000  1.0 -0.5421456696
O  O38  1  0.61677000  0.09103000  0.63880000  1.0 -0.5421456696
O  O39  1  0.90897000  0.38323000  0.13880000  1.0 -0.5421456696
O  O40  1  0.38323000  0.90897000  0.36120000  1.0 -0.5421456696
O  O41  1  0.65090000  0.39410000  0.76680000  1.0 -0.2577182011
O  O42  1  0.39410000  0.65090000  0.73320000  1.0 -0.2678162034
O  O43  1  0.34910000  0.60590000  0.23320000  1.0 -0.2678162034
O  O44  1  0.60590000  0.34910000  0.26680000  1.0 -0.2678162034
O  O45  1  0.46375000  0.46185000  0.83710000  1.0 -0.5593403877
O  O46  1  0.46185000  0.46375000  0.66290000  1.0 -0.5593403877
O  O47  1  0.53625000  0.53815000  0.16290000  1.0 -0.5593403877
O  O48  1  0.53815000  0.53625000  0.33710000  1.0 -0.5593403877
O  O49  1  0.80190000  0.06050000  0.60136000  1.0 -0.1995188484
O  O50  1  0.06050000  0.80190000  0.89864000  1.0 -0.1995188484
O  O51  1  0.19810000  0.93950000  0.39864000  1.0 -0.1995188484
O  O52  1  0.93950000  0.19810000  0.10136000  1.0 -0.1995188484
O  O53  1  0.32980000  0.66420000  0.91910000  1.0 -0.2577182011
O  O54  1  0.66420000  0.32980000  0.58090000  1.0 -0.2577182011
O  O55  1  0.67020000  0.33580000  0.08090000  1.0 -0.2577182011
O  O56  1  0.33580000  0.67020000  0.41910000  1.0 -0.2577182011
O  O57  1  0.35340000  0.77820000  0.90700000  1.0 -0.1261640071
O  O58  1  0.77820000  0.35340000  0.59300000  1.0 -0.1261640071
O  O59  1  0.64660000  0.22180000  0.09300000  1.0 -0.1261640071
O  O60  1  0.22180000  0.64660000  0.40700000  1.0 -0.1261640071
O  O61  1  0.89300000  0.16860000  0.88850000  1.0 -0.2196983783
O  O62  1  0.16860000  0.89300000  0.61150000  1.0 -0.2196983783
O  O63  1  0.10700000  0.83140000  0.11150000  1.0 -0.2196983783
O  O64  1  0.83140000  0.10700000  0.38850000  1.0 -0.2196983783
O  O65  1  0.32930000  0.71950000  0.91040000  1.0 0.0140492629
O  O66  1  0.71950000  0.32930000  0.58960000  1.0 0.0140492629
O  O67  1  0.67070000  0.28050000  0.08960000  1.0 0.0140492629
O  O68  1  0.28050000  0.67070000  0.41040000  1.0 0.0150008722
O  O69  1  0.41970000  0.82850000  0.98220000  1.0 -0.4029641749
O  O70  1  0.82850000  0.41970000  0.51780000  1.0 -0.4060717326
O  O71  1  0.58030000  0.17150000  0.01780000  1.0 -0.4060717326
O  O72  1  0.17150000  0.58030000  0.48220000  1.0 -0.4060717326
