# DDEC6 charges by PACMAN v1.1 (https://github.com/mtap-research/PACMAN-charge/)
data_DUKNEE_ASR_pacman
_symmetry_space_group_name_H-M   'P 1'
_cell_length_a   11.22800000
_cell_length_b   23.64610000
_cell_length_c   24.48900000
_cell_angle_alpha   98.55520000
_cell_angle_beta   90.00000000
_cell_angle_gamma   103.73400000
_symmetry_Int_Tables_number   1
_chemical_formula_structural   Cd2H38C53(N2O7)2
_chemical_formula_sum   'Cd8 H152 C212 N16 O56'
_cell_volume   6241.39421714
_cell_formula_units_Z   4
loop_
 _symmetry_equiv_pos_site_id
 _symmetry_equiv_pos_as_xyz
  1  'x, y, z'
loop_
 _atom_site_type_symbol
 _atom_site_label
 _atom_site_symmetry_multiplicity
 _atom_site_fract_x
 _atom_site_fract_y
 _atom_site_fract_z
 _atom_site_occupancy
 _atom_site_charge
Cd  Cd1  1  0.63937000  0.97458000  0.94224000  1.0 0.8603413859
Cd  Cd2  1  0.36063000  0.02542000  0.05776000  1.0 0.8603413859
Cd  Cd3  1  0.66478000  0.02542000  0.55776000  1.0 0.8603413859
Cd  Cd4  1  0.33522000  0.97458000  0.44224000  1.0 0.8603413859
Cd  Cd5  1  0.15079000  0.56634000  0.91729000  1.0 0.8375089922
Cd  Cd6  1  0.84921000  0.43366000  0.08271000  1.0 0.8375089922
Cd  Cd7  1  0.58445000  0.43366000  0.58271000  1.0 0.8375089922
Cd  Cd8  1  0.41555000  0.56634000  0.41729000  1.0 0.8375089922
H  H1  1  0.17574000  0.21071000  0.02723000  1.0 0.1102627326
H  H2  1  0.82426000  0.78929000  0.97277000  1.0 0.1102627326
H  H3  1  0.96503000  0.78929000  0.47277000  1.0 0.1102627326
H  H4  1  0.03497000  0.21071000  0.52723000  1.0 0.1102627326
H  H5  1  0.04340000  0.11388000  0.98266000  1.0 0.1102627326
H  H6  1  0.95660000  0.88612000  0.01734000  1.0 0.1102627326
H  H7  1  0.92952000  0.88612000  0.51734000  1.0 0.1102627326
H  H8  1  0.07048000  0.11388000  0.48266000  1.0 0.1102627326
H  H9  1  0.74890000  0.13900000  0.08859000  1.0 0.1102627326
H  H10  1  0.25110000  0.86100000  0.91141000  1.0 0.1102627326
H  H11  1  0.60989000  0.86100000  0.41141000  1.0 0.1102627326
H  H12  1  0.39011000  0.13900000  0.58859000  1.0 0.1102627326
H  H13  1  0.88061000  0.23692000  0.13459000  1.0 0.118969379
H  H14  1  0.11939000  0.76308000  0.86541000  1.0 0.118969379
H  H15  1  0.64369000  0.76308000  0.36541000  1.0 0.118969379
H  H16  1  0.35631000  0.23692000  0.63459000  1.0 0.118969379
H  H17  1  0.73439000  0.97948000  0.05768000  1.0 0.0901401749
H  H18  1  0.26561000  0.02052000  0.94232000  1.0 0.0901401749
H  H19  1  0.75491000  0.02052000  0.44232000  1.0 0.0901401749
H  H20  1  0.24509000  0.97948000  0.55768000  1.0 0.0901401749
H  H21  1  0.51292000  0.83383000  0.95895000  1.0 0.0901401749
H  H22  1  0.48708000  0.16617000  0.04105000  1.0 0.0901401749
H  H23  1  0.67909000  0.16617000  0.54105000  1.0 0.0901401749
H  H24  1  0.32091000  0.83383000  0.45895000  1.0 0.0901401749
H  H25  1  0.57366000  0.87617000  0.82971000  1.0 0.0901401749
H  H26  1  0.42634000  0.12383000  0.17029000  1.0 0.0901401749
H  H27  1  0.69749000  0.12383000  0.67029000  1.0 0.0901401749
H  H28  1  0.30251000  0.87617000  0.32971000  1.0 0.0901401749
H  H29  1  0.67365000  0.82082000  0.75775000  1.0 0.1293578614
H  H30  1  0.32635000  0.17918000  0.24225000  1.0 0.1293578614
H  H31  1  0.85283000  0.17918000  0.74225000  1.0 0.1293578614
H  H32  1  0.14717000  0.82082000  0.25775000  1.0 0.1293578614
H  H33  1  0.02212000  0.90232000  0.84861000  1.0 0.1406319568
H  H34  1  0.97788000  0.09768000  0.15139000  1.0 0.1406319568
H  H35  1  0.11980000  0.09768000  0.65139000  1.0 0.1406319568
H  H36  1  0.88020000  0.90232000  0.34861000  1.0 0.1406319568
H  H37  1  0.90264000  0.95363000  0.91853000  1.0 0.0991776052
H  H38  1  0.09736000  0.04637000  0.08147000  1.0 0.0991776052
H  H39  1  0.94901000  0.04637000  0.58147000  1.0 0.0991776052
H  H40  1  0.05099000  0.95363000  0.41853000  1.0 0.0991776052
H  H41  1  0.80354000  0.81098000  0.69109000  1.0 0.0791368643
H  H42  1  0.19646000  0.18902000  0.30891000  1.0 0.0791368643
H  H43  1  0.99256000  0.18902000  0.80891000  1.0 0.0791368643
H  H44  1  0.00744000  0.81098000  0.19109000  1.0 0.0791368643
H  H45  1  0.79803000  0.75107000  0.73007000  1.0 0.0901401749
H  H46  1  0.20197000  0.24893000  0.26993000  1.0 0.0901401749
H  H47  1  0.04696000  0.24893000  0.76993000  1.0 0.0901401749
H  H48  1  0.95304000  0.75107000  0.23007000  1.0 0.0901401749
H  H49  1  0.96985000  0.84120000  0.63307000  1.0 0.0901401749
H  H50  1  0.03015000  0.15880000  0.36693000  1.0 0.0901401749
H  H51  1  0.12865000  0.15880000  0.86693000  1.0 0.0901401749
H  H52  1  0.87135000  0.84120000  0.13307000  1.0 0.0901401749
H  H53  1  0.08812000  0.85054000  0.68731000  1.0 0.0991776052
H  H54  1  0.91188000  0.14946000  0.31269000  1.0 0.0991776052
H  H55  1  0.23758000  0.14946000  0.81269000  1.0 0.0991776052
H  H56  1  0.76242000  0.85054000  0.18731000  1.0 0.0991776052
H  H57  1  0.21973000  0.76585000  0.52354000  1.0 0.1406319568
H  H58  1  0.78027000  0.23415000  0.47646000  1.0 0.1406319568
H  H59  1  0.45388000  0.23415000  0.97646000  1.0 0.1406319568
H  H60  1  0.54612000  0.76585000  0.02354000  1.0 0.1406319568
H  H61  1  0.13679000  0.91858000  0.62494000  1.0 0.1406319568
H  H62  1  0.86321000  0.08142000  0.37506000  1.0 0.1406319568
H  H63  1  0.21821000  0.08142000  0.87506000  1.0 0.1406319568
H  H64  1  0.78179000  0.91858000  0.12494000  1.0 0.1406319568
H  H65  1  0.64995000  0.77154000  0.53775000  1.0 0.118969379
H  H66  1  0.35005000  0.22846000  0.46225000  1.0 0.118969379
H  H67  1  0.87841000  0.22846000  0.96225000  1.0 0.118969379
H  H68  1  0.12159000  0.77154000  0.03775000  1.0 0.118969379
H  H69  1  0.78457000  0.62266000  0.57451000  1.0 0.1406319568
H  H70  1  0.21543000  0.37734000  0.42549000  1.0 0.1406319568
H  H71  1  0.16191000  0.37734000  0.92549000  1.0 0.1406319568
H  H72  1  0.83809000  0.62266000  0.07451000  1.0 0.1406319568
H  H73  1  0.08564000  0.71483000  0.67389000  1.0 0.0991776052
H  H74  1  0.91436000  0.28517000  0.32611000  1.0 0.0991776052
H  H75  1  0.37081000  0.28517000  0.82611000  1.0 0.0991776052
H  H76  1  0.62919000  0.71483000  0.17389000  1.0 0.0991776052
H  H77  1  0.08745000  0.76542000  0.73689000  1.0 0.0901401749
H  H78  1  0.91255000  0.23458000  0.26311000  1.0 0.0901401749
H  H79  1  0.32203000  0.23458000  0.76311000  1.0 0.0901401749
H  H80  1  0.67797000  0.76542000  0.23689000  1.0 0.0901401749
H  H81  1  0.81374000  0.60955000  0.78138000  1.0 0.1406319568
H  H82  1  0.18626000  0.39045000  0.21862000  1.0 0.1406319568
H  H83  1  0.20419000  0.39045000  0.71862000  1.0 0.1406319568
H  H84  1  0.79581000  0.60955000  0.28138000  1.0 0.1406319568
H  H85  1  0.89943000  0.56086000  0.85147000  1.0 0.0901401749
H  H86  1  0.10057000  0.43914000  0.14853000  1.0 0.0901401749
H  H87  1  0.33857000  0.43914000  0.64853000  1.0 0.0901401749
H  H88  1  0.66143000  0.56086000  0.35147000  1.0 0.0901401749
H  H89  1  0.25563000  0.65513000  0.83139000  1.0 0.0991776052
H  H90  1  0.74437000  0.34487000  0.16861000  1.0 0.0991776052
H  H91  1  0.60050000  0.34487000  0.66861000  1.0 0.0991776052
H  H92  1  0.39950000  0.65513000  0.33139000  1.0 0.0991776052
H  H93  1  0.18987000  0.70505000  0.75913000  1.0 0.1293578614
H  H94  1  0.81013000  0.29495000  0.24087000  1.0 0.1293578614
H  H95  1  0.48482000  0.29495000  0.74087000  1.0 0.1293578614
H  H96  1  0.51518000  0.70505000  0.25913000  1.0 0.1293578614
H  H97  1  0.20756000  0.69866000  0.97132000  1.0 0.0991776052
H  H98  1  0.79244000  0.30134000  0.02868000  1.0 0.0991776052
H  H99  1  0.50890000  0.30134000  0.52868000  1.0 0.0991776052
H  H100  1  0.49110000  0.69866000  0.47132000  1.0 0.0991776052
H  H101  1  0.93054000  0.55806000  0.00338000  1.0 0.1102627326
H  H102  1  0.06946000  0.44194000  0.99662000  1.0 0.1102627326
H  H103  1  0.37248000  0.44194000  0.49662000  1.0 0.1102627326
H  H104  1  0.62752000  0.55806000  0.50338000  1.0 0.1102627326
H  H105  1  0.74352000  0.42269000  0.89943000  1.0 0.1102627326
H  H106  1  0.25648000  0.57731000  0.10057000  1.0 0.1102627326
H  H107  1  0.32083000  0.57731000  0.60057000  1.0 0.1102627326
H  H108  1  0.67917000  0.42269000  0.39943000  1.0 0.1102627326
H  H109  1  0.59584000  0.33126000  0.85119000  1.0 0.118969379
H  H110  1  0.40416000  0.66874000  0.14881000  1.0 0.118969379
H  H111  1  0.26458000  0.66874000  0.64881000  1.0 0.118969379
H  H112  1  0.73542000  0.33126000  0.35119000  1.0 0.118969379
H  H113  1  0.88198000  0.29372000  0.74392000  1.0 0.1102627326
H  H114  1  0.11802000  0.70628000  0.25608000  1.0 0.1102627326
H  H115  1  0.58826000  0.70628000  0.75608000  1.0 0.1102627326
H  H116  1  0.41174000  0.29372000  0.24392000  1.0 0.1102627326
H  H117  1  0.03139000  0.38346000  0.79457000  1.0 0.1102627326
H  H118  1  0.96861000  0.61654000  0.20543000  1.0 0.1102627326
H  H119  1  0.64793000  0.61654000  0.70543000  1.0 0.1102627326
H  H120  1  0.35207000  0.38346000  0.29457000  1.0 0.1102627326
H  H121  1  0.75194000  0.23828000  0.86143000  1.0 0.1102627326
H  H122  1  0.24806000  0.76172000  0.13857000  1.0 0.1102627326
H  H123  1  0.51365000  0.76172000  0.63857000  1.0 0.1102627326
H  H124  1  0.48635000  0.23828000  0.36143000  1.0 0.1102627326
H  H125  1  0.70431000  0.14128000  0.89618000  1.0 0.1102627326
H  H126  1  0.29569000  0.85872000  0.10382000  1.0 0.1102627326
H  H127  1  0.56303000  0.85872000  0.60382000  1.0 0.1102627326
H  H128  1  0.43697000  0.14128000  0.39618000  1.0 0.1102627326
H  H129  1  0.44742000  0.06509000  0.75902000  1.0 0.118969379
H  H130  1  0.55258000  0.93491000  0.24098000  1.0 0.118969379
H  H131  1  0.38233000  0.93491000  0.74098000  1.0 0.118969379
H  H132  1  0.61767000  0.06509000  0.25902000  1.0 0.118969379
H  H133  1  0.49424000  0.16183000  0.72314000  1.0 0.118969379
H  H134  1  0.50576000  0.83817000  0.27686000  1.0 0.118969379
H  H135  1  0.33241000  0.83817000  0.77686000  1.0 0.118969379
H  H136  1  0.66759000  0.16183000  0.22314000  1.0 0.118969379
H  H137  1  0.49563000  0.72457000  0.87671000  1.0 0.0991776052
H  H138  1  0.50437000  0.27543000  0.12329000  1.0 0.0991776052
H  H139  1  0.77106000  0.27543000  0.62329000  1.0 0.0991776052
H  H140  1  0.22894000  0.72457000  0.37671000  1.0 0.0991776052
H  H141  1  0.58301000  0.57941000  0.94239000  1.0 0.118969379
H  H142  1  0.41699000  0.42059000  0.05761000  1.0 0.118969379
H  H143  1  0.00361000  0.42059000  0.55761000  1.0 0.118969379
H  H144  1  0.99639000  0.57941000  0.44239000  1.0 0.118969379
H  H145  1  0.72073000  0.76664000  0.86297000  1.0 0.1102627326
H  H146  1  0.27927000  0.23336000  0.13703000  1.0 0.1102627326
H  H147  1  0.95409000  0.23336000  0.63703000  1.0 0.1102627326
H  H148  1  0.04591000  0.76664000  0.36297000  1.0 0.1102627326
H  H149  1  0.80948000  0.62400000  0.93360000  1.0 0.118969379
H  H150  1  0.19052000  0.37600000  0.06640000  1.0 0.118969379
H  H151  1  0.18548000  0.37600000  0.56640000  1.0 0.118969379
H  H152  1  0.81452000  0.62400000  0.43360000  1.0 0.118969379
C  C1  1  0.03588000  0.22819000  0.08449000  1.0 0.266173319
C  C2  1  0.96412000  0.77181000  0.91551000  1.0 0.266173319
C  C3  1  0.80769000  0.77181000  0.41551000  1.0 0.266173319
C  C4  1  0.19231000  0.22819000  0.58449000  1.0 0.266173319
C  C5  1  0.08301000  0.19459000  0.04134000  1.0 -0.2230199417
C  C6  1  0.91699000  0.80541000  0.95866000  1.0 -0.2230199417
C  C7  1  0.88842000  0.80541000  0.45866000  1.0 -0.2230199417
C  C8  1  0.11158000  0.19459000  0.54134000  1.0 -0.2230199417
C  C9  1  0.00877000  0.14085000  0.01628000  1.0 -0.0696701644
C  C10  1  0.99123000  0.85915000  0.98372000  1.0 -0.0696701644
C  C11  1  0.86792000  0.85915000  0.48372000  1.0 -0.0696701644
C  C12  1  0.13208000  0.14085000  0.51628000  1.0 -0.0696701644
C  C13  1  0.88845000  0.12080000  0.03312000  1.0 -0.0504441774
C  C14  1  0.11155000  0.87920000  0.96688000  1.0 -0.0504441774
C  C15  1  0.76765000  0.87920000  0.46688000  1.0 -0.0504441774
C  C16  1  0.23235000  0.12080000  0.53312000  1.0 -0.0504441774
C  C17  1  0.84283000  0.15541000  0.07603000  1.0 -0.0787340958
C  C18  1  0.15717000  0.84459000  0.92397000  1.0 -0.0787340958
C  C19  1  0.68743000  0.84459000  0.42397000  1.0 -0.0787340958
C  C20  1  0.31257000  0.15541000  0.57603000  1.0 -0.0787340958
C  C21  1  0.91565000  0.20888000  0.10190000  1.0 -0.2093261635
C  C22  1  0.08435000  0.79112000  0.89810000  1.0 -0.2093261635
C  C23  1  0.70677000  0.79112000  0.39810000  1.0 -0.2093261635
C  C24  1  0.29323000  0.20888000  0.60190000  1.0 -0.2093261635
C  C25  1  0.80672000  0.06461000  0.00505000  1.0 0.5504144216
C  C26  1  0.19328000  0.93539000  0.99495000  1.0 0.5504144216
C  C27  1  0.74211000  0.93539000  0.49495000  1.0 0.5504144216
C  C28  1  0.25789000  0.06461000  0.50505000  1.0 0.5504144216
C  C29  1  0.69697000  0.93173000  0.05110000  1.0 0.1293578614
C  C30  1  0.30303000  0.06827000  0.94890000  1.0 0.1293578614
C  C31  1  0.76524000  0.06827000  0.44890000  1.0 0.1293578614
C  C32  1  0.23476000  0.93173000  0.55110000  1.0 0.1293578614
C  C33  1  0.57159000  0.85097000  0.99644000  1.0 0.1102627326
C  C34  1  0.42841000  0.14903000  0.00356000  1.0 0.1102627326
C  C35  1  0.72061000  0.14903000  0.50356000  1.0 0.1102627326
C  C36  1  0.27939000  0.85097000  0.49644000  1.0 0.1102627326
C  C37  1  0.67257000  0.87982000  0.83328000  1.0 0.118969379
C  C38  1  0.32743000  0.12018000  0.16672000  1.0 0.118969379
C  C39  1  0.79275000  0.12018000  0.66666667  1.0 0.118969379
C  C40  1  0.20725000  0.87982000  0.33328000  1.0 0.118969379
C  C41  1  0.72966000  0.84886000  0.79255000  1.0 -0.2714826493
C  C42  1  0.27034000  0.15114000  0.20745000  1.0 -0.2714826493
C  C43  1  0.88080000  0.15114000  0.70745000  1.0 -0.2714826493
C  C44  1  0.11920000  0.84886000  0.29255000  1.0 -0.2714826493
C  C45  1  0.85779000  0.85698000  0.79787000  1.0 0.2943191687
C  C46  1  0.14221000  0.14302000  0.20213000  1.0 0.2943191687
C  C47  1  0.00080000  0.14302000  0.70213000  1.0 0.2943191687
C  C48  1  0.99920000  0.85698000  0.29787000  1.0 0.2943191687
C  C49  1  0.92227000  0.89525000  0.84347000  1.0 -0.2368819518
C  C50  1  0.07773000  0.10475000  0.15653000  1.0 -0.2368819518
C  C51  1  0.02703000  0.10475000  0.65653000  1.0 -0.2368819518
C  C52  1  0.97297000  0.89525000  0.34347000  1.0 -0.2368819518
C  C53  1  0.85658000  0.92335000  0.88230000  1.0 0.1102627326
C  C54  1  0.14342000  0.07665000  0.11770000  1.0 0.1102627326
C  C55  1  0.93323000  0.07665000  0.61770000  1.0 0.1102627326
C  C56  1  0.06677000  0.92335000  0.38230000  1.0 0.1102627326
C  C57  1  0.85877000  0.78947000  0.71524000  1.0 -0.0628753631
C  C58  1  0.14123000  0.21053000  0.28476000  1.0 -0.0628753631
C  C59  1  0.06931000  0.21053000  0.78476000  1.0 -0.0628753631
C  C60  1  0.93069000  0.78947000  0.21524000  1.0 -0.0628753631
C  C61  1  0.95167000  0.76811000  0.67672000  1.0 0.2074842946
C  C62  1  0.04833000  0.23189000  0.32328000  1.0 0.2074842946
C  C63  1  0.18356000  0.23189000  0.82328000  1.0 0.2074842946
C  C64  1  0.81644000  0.76811000  0.17672000  1.0 0.2074842946
C  C65  1  0.03175000  0.81972000  0.65328000  1.0 -0.0787340958
C  C66  1  0.96825000  0.18028000  0.34672000  1.0 -0.0787340958
C  C67  1  0.21203000  0.18028000  0.84672000  1.0 -0.0787340958
C  C68  1  0.78797000  0.81972000  0.15328000  1.0 -0.0787340958
C  C69  1  0.16726000  0.83627000  0.57911000  1.0 0.2943191687
C  C70  1  0.83274000  0.16373000  0.42089000  1.0 0.2943191687
C  C71  1  0.33099000  0.16373000  0.92089000  1.0 0.2943191687
C  C72  1  0.66901000  0.83627000  0.07911000  1.0 0.2943191687
C  C73  1  0.22288000  0.81306000  0.53214000  1.0 -0.2473502523
C  C74  1  0.77712000  0.18694000  0.46786000  1.0 -0.2473502523
C  C75  1  0.40982000  0.18694000  0.96786000  1.0 -0.2473502523
C  C76  1  0.59018000  0.81306000  0.03214000  1.0 -0.2473502523
C  C77  1  0.17436000  0.89711000  0.58873000  1.0 -0.2607465228
C  C78  1  0.82564000  0.10289000  0.41127000  1.0 -0.2607465228
C  C79  1  0.27725000  0.10289000  0.91127000  1.0 -0.2607465228
C  C80  1  0.72275000  0.89711000  0.08873000  1.0 -0.2607465228
C  C81  1  0.80923000  0.75041000  0.60135000  1.0 0.0253805956
C  C82  1  0.19077000  0.24959000  0.39865000  1.0 0.0240823449
C  C83  1  0.05883000  0.24959000  0.89865000  1.0 0.0240823449
C  C84  1  0.94117000  0.75041000  0.10135000  1.0 0.0253805956
C  C85  1  0.72874000  0.70320000  0.56152000  1.0 0.0591293806
C  C86  1  0.27126000  0.29680000  0.43848000  1.0 0.0591293806
C  C87  1  0.02553000  0.29680000  0.93848000  1.0 0.0591293806
C  C88  1  0.97447000  0.70320000  0.06152000  1.0 0.0591293806
C  C89  1  0.64584000  0.72426000  0.53160000  1.0 -0.163413479
C  C90  1  0.35416000  0.27574000  0.46840000  1.0 -0.163413479
C  C91  1  0.92158000  0.27574000  0.96840000  1.0 -0.163413479
C  C92  1  0.07842000  0.72426000  0.03160000  1.0 -0.163413479
C  C93  1  0.72353000  0.64207000  0.55207000  1.0 -0.1497341534
C  C94  1  0.27647000  0.35793000  0.44793000  1.0 -0.1497341534
C  C95  1  0.08146000  0.35793000  0.94793000  1.0 -0.1497341534
C  C96  1  0.91854000  0.64207000  0.05207000  1.0 -0.1497341534
C  C97  1  0.02744000  0.73421000  0.70416000  1.0 -0.0420226598
C  C98  1  0.97256000  0.26579000  0.29584000  1.0 -0.0420226598
C  C99  1  0.29323000  0.26579000  0.79584000  1.0 -0.0420226598
C  C100  1  0.70677000  0.73421000  0.20416000  1.0 -0.0420226598
C  C101  1  0.99442000  0.66156000  0.76453000  1.0 0.298444883
C  C102  1  0.00558000  0.33844000  0.23547000  1.0 0.298444883
C  C103  1  0.33286000  0.33844000  0.73547000  1.0 0.298444883
C  C104  1  0.66714000  0.66156000  0.26453000  1.0 0.298444883
C  C105  1  0.91277000  0.61963000  0.79046000  1.0 -0.2368819518
C  C106  1  0.08723000  0.38037000  0.20954000  1.0 -0.2368819518
C  C107  1  0.29314000  0.38037000  0.70954000  1.0 -0.2368819518
C  C108  1  0.70686000  0.61963000  0.29046000  1.0 -0.2368819518
C  C109  1  0.95990000  0.59306000  0.82960000  1.0 0.1102627326
C  C110  1  0.04010000  0.40694000  0.17040000  1.0 0.1102627326
C  C111  1  0.36684000  0.40694000  0.67040000  1.0 0.1102627326
C  C112  1  0.63316000  0.59306000  0.32960000  1.0 0.1102627326
C  C113  1  0.15880000  0.64510000  0.81804000  1.0 0.1293578614
C  C114  1  0.84120000  0.35490000  0.18196000  1.0 0.1293578614
C  C115  1  0.51369000  0.35490000  0.68196000  1.0 0.1293578614
C  C116  1  0.48631000  0.64510000  0.31804000  1.0 0.1293578614
C  C117  1  0.12059000  0.67380000  0.77800000  1.0 -0.2858677944
C  C118  1  0.87941000  0.32620000  0.22200000  1.0 -0.2858677944
C  C119  1  0.44679000  0.32620000  0.72200000  1.0 -0.2858677944
C  C120  1  0.55321000  0.67380000  0.27800000  1.0 -0.2858677944
C  C121  1  0.12568000  0.68476000  0.99502000  1.0 0.0991776052
C  C122  1  0.87432000  0.31524000  0.00498000  1.0 0.0991776052
C  C123  1  0.44092000  0.31524000  0.50498000  1.0 0.0991776052
C  C124  1  0.55908000  0.68476000  0.49502000  1.0 0.0991776052
C  C125  1  0.96968000  0.60550000  0.01380000  1.0 0.0991776052
C  C126  1  0.03032000  0.39450000  0.98620000  1.0 0.0991776052
C  C127  1  0.36418000  0.39450000  0.48620000  1.0 0.0991776052
C  C128  1  0.63582000  0.60550000  0.51380000  1.0 0.0991776052
C  C129  1  0.98525000  0.46140000  0.88033000  1.0 0.5374427298
C  C130  1  0.01475000  0.53860000  0.11967000  1.0 0.5374427298
C  C131  1  0.52385000  0.53860000  0.61967000  1.0 0.5374427298
C  C132  1  0.47615000  0.46140000  0.38033000  1.0 0.5374427298
C  C133  1  0.89668000  0.40774000  0.85052000  1.0 -0.0420226598
C  C134  1  0.10332000  0.59226000  0.14948000  1.0 -0.0420226598
C  C135  1  0.48894000  0.59226000  0.64948000  1.0 -0.0420226598
C  C136  1  0.51106000  0.40774000  0.35052000  1.0 -0.0420226598
C  C137  1  0.77373000  0.39363000  0.86600000  1.0 -0.0696701644
C  C138  1  0.22627000  0.60637000  0.13400000  1.0 -0.0696701644
C  C139  1  0.38010000  0.60637000  0.63400000  1.0 -0.0696701644
C  C140  1  0.61990000  0.39363000  0.36600000  1.0 -0.0696701644
C  C141  1  0.69138000  0.34324000  0.83901000  1.0 -0.2001521951
C  C142  1  0.30862000  0.65676000  0.16099000  1.0 -0.2001521951
C  C143  1  0.34814000  0.65676000  0.66099000  1.0 -0.2001521951
C  C144  1  0.65186000  0.34324000  0.33901000  1.0 -0.2001521951
C  C145  1  0.73218000  0.30738000  0.79581000  1.0 0.2481904424
C  C146  1  0.26782000  0.69262000  0.20419000  1.0 0.2481904424
C  C147  1  0.42479000  0.69262000  0.70419000  1.0 0.2481904424
C  C148  1  0.57521000  0.30738000  0.29581000  1.0 0.2481904424
C  C149  1  0.85339000  0.32163000  0.77887000  1.0 -0.2093261635
C  C150  1  0.14661000  0.67837000  0.22113000  1.0 -0.2093261635
C  C151  1  0.53177000  0.67837000  0.72113000  1.0 -0.2093261635
C  C152  1  0.46823000  0.32163000  0.27887000  1.0 -0.2093261635
C  C153  1  0.93570000  0.37165000  0.80663000  1.0 -0.0696701644
C  C154  1  0.06430000  0.62835000  0.19337000  1.0 -0.0696701644
C  C155  1  0.56405000  0.62835000  0.69337000  1.0 -0.0696701644
C  C156  1  0.43595000  0.37165000  0.30663000  1.0 -0.0696701644
C  C157  1  0.62487000  0.20569000  0.79037000  1.0 0.2481904424
C  C158  1  0.37513000  0.79431000  0.20963000  1.0 0.2481904424
C  C159  1  0.41918000  0.79431000  0.70963000  1.0 0.2481904424
C  C160  1  0.58082000  0.20569000  0.29037000  1.0 0.2481904424
C  C161  1  0.68491000  0.20058000  0.83912000  1.0 -0.2368819518
C  C162  1  0.31509000  0.79942000  0.16088000  1.0 -0.2368819518
C  C163  1  0.48433000  0.79942000  0.66088000  1.0 -0.2368819518
C  C164  1  0.51567000  0.20058000  0.33912000  1.0 -0.2368819518
C  C165  1  0.65722000  0.14640000  0.85867000  1.0 -0.0696701644
C  C166  1  0.34278000  0.85360000  0.14133000  1.0 -0.0696701644
C  C167  1  0.51082000  0.85360000  0.64133000  1.0 -0.0696701644
C  C168  1  0.48918000  0.14640000  0.35867000  1.0 -0.0696701644
C  C169  1  0.57029000  0.09765000  0.83096000  1.0 -0.0504441774
C  C170  1  0.42971000  0.90235000  0.16904000  1.0 -0.0504441774
C  C171  1  0.47264000  0.90235000  0.66904000  1.0 -0.0504441774
C  C172  1  0.52736000  0.09765000  0.33096000  1.0 -0.0504441774
C  C173  1  0.51157000  0.10363000  0.78207000  1.0 -0.0628753631
C  C174  1  0.48843000  0.89637000  0.21793000  1.0 -0.0628753631
C  C175  1  0.40794000  0.89637000  0.71793000  1.0 -0.0628753631
C  C176  1  0.59206000  0.10363000  0.28207000  1.0 -0.0628753631
C  C177  1  0.53840000  0.15737000  0.76177000  1.0 -0.2093261635
C  C178  1  0.46160000  0.84263000  0.23823000  1.0 -0.2093261635
C  C179  1  0.38103000  0.84263000  0.73823000  1.0 -0.2093261635
C  C180  1  0.61897000  0.15737000  0.26177000  1.0 -0.2093261635
C  C181  1  0.54147000  0.03952000  0.85316000  1.0 0.5706140408
C  C182  1  0.45853000  0.96048000  0.14684000  1.0 0.5706140408
C  C183  1  0.50196000  0.96048000  0.64684000  1.0 0.5706140408
C  C184  1  0.49804000  0.03952000  0.35316000  1.0 0.5706140408
C  C185  1  0.39363000  0.62623000  0.91967000  1.0 0.5504144216
C  C186  1  0.60637000  0.37377000  0.08033000  1.0 0.5504144216
C  C187  1  0.76740000  0.37377000  0.58033000  1.0 0.5504144216
C  C188  1  0.23260000  0.62623000  0.41967000  1.0 0.5504144216
C  C189  1  0.52722000  0.65038000  0.91163000  1.0 -0.0420226598
C  C190  1  0.47278000  0.34962000  0.08837000  1.0 -0.0420226598
C  C191  1  0.87684000  0.34962000  0.58837000  1.0 -0.0420226598
C  C192  1  0.12316000  0.65038000  0.41163000  1.0 -0.0420226598
C  C193  1  0.56535000  0.70305000  0.88913000  1.0 -0.0787340958
C  C194  1  0.43465000  0.29695000  0.11087000  1.0 -0.0787340958
C  C195  1  0.86230000  0.29695000  0.61087000  1.0 -0.0787340958
C  C196  1  0.13770000  0.70305000  0.38913000  1.0 -0.0787340958
C  C197  1  0.61462000  0.62124000  0.92651000  1.0 -0.0696701644
C  C198  1  0.38538000  0.37876000  0.07349000  1.0 -0.0696701644
C  C199  1  0.99338000  0.37876000  0.57349000  1.0 -0.0696701644
C  C200  1  0.00662000  0.62124000  0.42651000  1.0 -0.0696701644
C  C201  1  0.77543000  0.69736000  0.89817000  1.0 0.2481904424
C  C202  1  0.22457000  0.30264000  0.10183000  1.0 0.2481904424
C  C203  1  0.07807000  0.30264000  0.60183000  1.0 0.2481904424
C  C204  1  0.92193000  0.69736000  0.39817000  1.0 0.2481904424
C  C205  1  0.68955000  0.72642000  0.88148000  1.0 -0.2093261635
C  C206  1  0.31045000  0.27358000  0.11852000  1.0 -0.2093261635
C  C207  1  0.96312000  0.27358000  0.61852000  1.0 -0.2093261635
C  C208  1  0.03688000  0.72642000  0.38148000  1.0 -0.2093261635
C  C209  1  0.73952000  0.64525000  0.92090000  1.0 -0.2001521951
C  C210  1  0.26048000  0.35475000  0.07910000  1.0 -0.2001521951
C  C211  1  0.09427000  0.35475000  0.57910000  1.0 -0.2001521951
C  C212  1  0.90573000  0.64525000  0.42090000  1.0 -0.2001521951
N  N1  1  0.62404000  0.90989000  0.00493000  1.0 -0.2832755735
N  N2  1  0.37596000  0.09011000  0.99507000  1.0 -0.2832755735
N  N3  1  0.71415000  0.09011000  0.49507000  1.0 -0.2832755735
N  N4  1  0.28585000  0.90989000  0.50493000  1.0 -0.2832755735
N  N5  1  0.73267000  0.91613000  0.87781000  1.0 -0.2832755735
N  N6  1  0.26733000  0.08387000  0.12219000  1.0 -0.2832755735
N  N7  1  0.81654000  0.08387000  0.62219000  1.0 -0.2832755735
N  N8  1  0.18346000  0.91613000  0.37781000  1.0 -0.2832755735
N  N9  1  0.08144000  0.60547000  0.84417000  1.0 -0.2714826493
N  N10  1  0.91856000  0.39453000  0.15583000  1.0 -0.2714826493
N  N11  1  0.47598000  0.39453000  0.65583000  1.0 -0.2714826493
N  N12  1  0.52402000  0.60547000  0.34417000  1.0 -0.2714826493
N  N13  1  0.07238000  0.62615000  0.98628000  1.0 -0.2368819518
N  N14  1  0.92762000  0.37385000  0.01372000  1.0 -0.2368819518
N  N15  1  0.44624000  0.37385000  0.51372000  1.0 -0.2368819518
N  N16  1  0.55376000  0.62615000  0.48628000  1.0 -0.2368819518
O  O1  1  0.85096000  0.03089000  0.96915000  1.0 -0.5626683127
O  O2  1  0.14904000  0.96911000  0.03085000  1.0 -0.5626683127
O  O3  1  0.82007000  0.96911000  0.53085000  1.0 -0.5626683127
O  O4  1  0.17993000  0.03089000  0.46915000  1.0 -0.5626683127
O  O5  1  0.69306000  0.05230000  0.01811000  1.0 -0.5626683127
O  O6  1  0.30694000  0.94770000  0.98189000  1.0 -0.5626683127
O  O7  1  0.64076000  0.94770000  0.48189000  1.0 -0.5626683127
O  O8  1  0.35924000  0.05230000  0.51811000  1.0 -0.5626683127
O  O9  1  0.61593000  0.04012000  0.89464000  1.0 -0.5815289607
O  O10  1  0.38407000  0.95988000  0.10536000  1.0 -0.5815289607
O  O11  1  0.57581000  0.95988000  0.60536000  1.0 -0.5815289607
O  O12  1  0.42419000  0.04012000  0.39464000  1.0 -0.5815289607
O  O13  1  0.92615000  0.83001000  0.76097000  1.0 -0.1791377506
O  O14  1  0.07385000  0.16999000  0.23903000  1.0 -0.1791377506
O  O15  1  0.09613000  0.16999000  0.73903000  1.0 -0.1791377506
O  O16  1  0.90387000  0.83001000  0.26097000  1.0 -0.1791377506
O  O17  1  0.10909000  0.79733000  0.61222000  1.0 -0.1734024501
O  O18  1  0.89091000  0.20267000  0.38778000  1.0 -0.1734024501
O  O19  1  0.31176000  0.20267000  0.88778000  1.0 -0.1734024501
O  O20  1  0.68824000  0.79733000  0.11222000  1.0 -0.1734024501
O  O21  1  0.87460000  0.72563000  0.63198000  1.0 -0.1338986596
O  O22  1  0.12540000  0.27437000  0.36802000  1.0 -0.1338986596
O  O23  1  0.14897000  0.27437000  0.86802000  1.0 -0.1338986596
O  O24  1  0.85103000  0.72563000  0.13198000  1.0 -0.1338986596
O  O25  1  0.94392000  0.68866000  0.72804000  1.0 -0.1791377506
O  O26  1  0.05608000  0.31134000  0.27196000  1.0 -0.1791377506
O  O27  1  0.25526000  0.31134000  0.77196000  1.0 -0.1791377506
O  O28  1  0.74474000  0.68866000  0.22804000  1.0 -0.1791377506
O  O29  1  0.94423000  0.49672000  0.91628000  1.0 -0.5867578825
O  O30  1  0.05577000  0.50328000  0.08372000  1.0 -0.5867578825
O  O31  1  0.44751000  0.50328000  0.58372000  1.0 -0.5867578825
O  O32  1  0.55249000  0.49672000  0.41628000  1.0 -0.5867578825
O  O33  1  0.09896000  0.47029000  0.86817000  1.0 -0.549602083
O  O34  1  0.90104000  0.52971000  0.13183000  1.0 -0.549602083
O  O35  1  0.62866000  0.52971000  0.63183000  1.0 -0.549602083
O  O36  1  0.37134000  0.47029000  0.36817000  1.0 -0.549602083
O  O37  1  0.64880000  0.25776000  0.76685000  1.0 -0.2312364271
O  O38  1  0.35120000  0.74224000  0.23315000  1.0 -0.2312364271
O  O39  1  0.39104000  0.74224000  0.73315000  1.0 -0.2312364271
O  O40  1  0.60896000  0.25776000  0.26685000  1.0 -0.2312364271
O  O41  1  0.45476000  0.99771000  0.83275000  1.0 -0.5626683127
O  O42  1  0.54524000  0.00229000  0.16725000  1.0 -0.5626683127
O  O43  1  0.45705000  0.00229000  0.66725000  1.0 -0.5626683127
O  O44  1  0.54295000  0.99771000  0.33275000  1.0 -0.5626683127
O  O45  1  0.32167000  0.66027000  0.91704000  1.0 -0.5815289607
O  O46  1  0.67833000  0.33973000  0.08296000  1.0 -0.5815289607
O  O47  1  0.66140000  0.33973000  0.58296000  1.0 -0.5815289607
O  O48  1  0.33860000  0.66027000  0.41704000  1.0 -0.5815289607
O  O49  1  0.35628000  0.57218000  0.92792000  1.0 -0.549602083
O  O50  1  0.64372000  0.42782000  0.07208000  1.0 -0.549602083
O  O51  1  0.78410000  0.42782000  0.57208000  1.0 -0.549602083
O  O52  1  0.21590000  0.57218000  0.42792000  1.0 -0.549602083
O  O53  1  0.09963000  0.28304000  0.11122000  1.0 -0.2093261635
O  O54  1  0.90037000  0.71696000  0.88878000  1.0 -0.2093261635
O  O55  1  0.81659000  0.71696000  0.38878000  1.0 -0.2093261635
O  O56  1  0.18341000  0.28304000  0.61122000  1.0 -0.2093261635
