# DDEC6 charges by PACMAN v1.1 (https://github.com/mtap-research/PACMAN-charge/)
data_DUNJON_FSR_pacman
_symmetry_space_group_name_H-M   'P 1'
_cell_length_a   13.41300000
_cell_length_b   29.32500000
_cell_length_c   36.01600000
_cell_angle_alpha   90.00000000
_cell_angle_beta   90.00000000
_cell_angle_gamma   90.00000000
_symmetry_Int_Tables_number   1
_chemical_formula_structural   Co9P2H48W18C72(N12O43)2
_chemical_formula_sum   'Co36 P8 H192 W72 C288 N96 O344'
_cell_volume   14166.39747960
_cell_formula_units_Z   4
loop_
 _symmetry_equiv_pos_site_id
 _symmetry_equiv_pos_as_xyz
  1  'x, y, z'
loop_
 _atom_site_type_symbol
 _atom_site_label
 _atom_site_symmetry_multiplicity
 _atom_site_fract_x
 _atom_site_fract_y
 _atom_site_fract_z
 _atom_site_occupancy
 _atom_site_charge
Co  Co1  1  0.57590000  0.41348000  0.50472000  1.0 1.217492899
Co  Co2  1  0.42410000  0.08652000  0.00472000  1.0 1.217492899
Co  Co3  1  0.92410000  0.91348000  0.49528000  1.0 1.217492899
Co  Co4  1  0.07590000  0.58652000  0.99528000  1.0 1.217492899
Co  Co5  1  0.42410000  0.58652000  0.49528000  1.0 1.217492899
Co  Co6  1  0.57590000  0.91348000  0.99528000  1.0 1.217492899
Co  Co7  1  0.07590000  0.08652000  0.50472000  1.0 1.217492899
Co  Co8  1  0.92410000  0.41348000  0.00472000  1.0 1.217492899
Co  Co9  1  0.38606000  0.47895000  0.50706000  1.0 1.2064926532
Co  Co10  1  0.61394000  0.02105000  0.00706000  1.0 1.2064926532
Co  Co11  1  0.11394000  0.97895000  0.49294000  1.0 1.2064926532
Co  Co12  1  0.88606000  0.52105000  0.99294000  1.0 1.2064926532
Co  Co13  1  0.61394000  0.52105000  0.49294000  1.0 1.2064926532
Co  Co14  1  0.38606000  0.97895000  0.99294000  1.0 1.2064926532
Co  Co15  1  0.88606000  0.02105000  0.50706000  1.0 1.2064926532
Co  Co16  1  0.11394000  0.47895000  0.00706000  1.0 1.2064926532
Co  Co17  1  0.17661000  0.46987000  0.26149000  1.0 1.0730498788
Co  Co18  1  0.82339000  0.03013000  0.76149000  1.0 1.0730498788
Co  Co19  1  0.32339000  0.96987000  0.73851000  1.0 1.0730498788
Co  Co20  1  0.67661000  0.53013000  0.23851000  1.0 1.0730498788
Co  Co21  1  0.82339000  0.53013000  0.73851000  1.0 1.0730498788
Co  Co22  1  0.17661000  0.96987000  0.23851000  1.0 1.0730498788
Co  Co23  1  0.67661000  0.03013000  0.26149000  1.0 1.0730498788
Co  Co24  1  0.32339000  0.46987000  0.76149000  1.0 1.0730498788
Co  Co25  1  0.10965000  0.71568000  0.56523000  1.0 1.2412660626
Co  Co26  1  0.89035000  0.78432000  0.06523000  1.0 1.2412660626
Co  Co27  1  0.39035000  0.21568000  0.43477000  1.0 1.2412660626
Co  Co28  1  0.60965000  0.28432000  0.93477000  1.0 1.2412660626
Co  Co29  1  0.89035000  0.28432000  0.43477000  1.0 1.2412660626
Co  Co30  1  0.10965000  0.21568000  0.93477000  1.0 1.2412660626
Co  Co31  1  0.60965000  0.78432000  0.56523000  1.0 1.2412660626
Co  Co32  1  0.39035000  0.71568000  0.06523000  1.0 1.2412660626
Co  Co33  1  0.00000000  0.50000000  0.50000000  1.0 1.3636811581
Co  Co34  1  0.00000000  0.00000000  0.00000000  1.0 1.3692122308
Co  Co35  1  0.50000000  0.00000000  0.50000000  1.0 1.3692122308
Co  Co36  1  0.50000000  0.50000000  0.00000000  1.0 1.3692122308
P  P1  1  0.50830000  0.45897000  0.42648000  1.0 1.4630776452
P  P2  1  0.49170000  0.04103000  0.92648000  1.0 1.4630776452
P  P3  1  0.99170000  0.95897000  0.57352000  1.0 1.4657003489
P  P4  1  0.00830000  0.54103000  0.07352000  1.0 1.4630776452
P  P5  1  0.49170000  0.54103000  0.57352000  1.0 1.4630776452
P  P6  1  0.50830000  0.95897000  0.07352000  1.0 1.4630776452
P  P7  1  0.00830000  0.04103000  0.42648000  1.0 1.4630776452
P  P8  1  0.99170000  0.45897000  0.92648000  1.0 1.4657003489
H  H1  1  0.27780000  0.19900000  0.23320000  1.0 0.1410865134
H  H2  1  0.72220000  0.30100000  0.73320000  1.0 0.1410865134
H  H3  1  0.22220000  0.69900000  0.76680000  1.0 0.1410865134
H  H4  1  0.77780000  0.80100000  0.26680000  1.0 0.1410865134
H  H5  1  0.72220000  0.80100000  0.76680000  1.0 0.1410865134
H  H6  1  0.27780000  0.69900000  0.26680000  1.0 0.1410865134
H  H7  1  0.77780000  0.30100000  0.23320000  1.0 0.1410865134
H  H8  1  0.22220000  0.19900000  0.73320000  1.0 0.1410865134
H  H9  1  0.33000000  0.14140000  0.13390000  1.0 0.1498114505
H  H10  1  0.67000000  0.35860000  0.63390000  1.0 0.1498114505
H  H11  1  0.17000000  0.64140000  0.86610000  1.0 0.1498114505
H  H12  1  0.83000000  0.85860000  0.36610000  1.0 0.1498114505
H  H13  1  0.67000000  0.85860000  0.86610000  1.0 0.1498114505
H  H14  1  0.33000000  0.64140000  0.36610000  1.0 0.1498114505
H  H15  1  0.83000000  0.35860000  0.13390000  1.0 0.1498114505
H  H16  1  0.17000000  0.14140000  0.63390000  1.0 0.1498114505
H  H17  1  0.34640000  0.07250000  0.16390000  1.0 0.1410865134
H  H18  1  0.65360000  0.42750000  0.66390000  1.0 0.1410865134
H  H19  1  0.15360000  0.57250000  0.83610000  1.0 0.1410865134
H  H20  1  0.84640000  0.92750000  0.33610000  1.0 0.1410865134
H  H21  1  0.65360000  0.92750000  0.83610000  1.0 0.1410865134
H  H22  1  0.34640000  0.57250000  0.33610000  1.0 0.1410865134
H  H23  1  0.84640000  0.42750000  0.16390000  1.0 0.1410865134
H  H24  1  0.15360000  0.07250000  0.66390000  1.0 0.1410865134
H  H25  1  0.06790000  0.57160000  0.36770000  1.0 0.1586159608
H  H26  1  0.93210000  0.92840000  0.86770000  1.0 0.1586159608
H  H27  1  0.43210000  0.07160000  0.63230000  1.0 0.1586159608
H  H28  1  0.56790000  0.42840000  0.13230000  1.0 0.1586159608
H  H29  1  0.93210000  0.42840000  0.63230000  1.0 0.1586159608
H  H30  1  0.06790000  0.07160000  0.13230000  1.0 0.1586159608
H  H31  1  0.56790000  0.92840000  0.36770000  1.0 0.1586159608
H  H32  1  0.43210000  0.57160000  0.86770000  1.0 0.1586159608
H  H33  1  0.10570000  0.50300000  0.33740000  1.0 0.1410865134
H  H34  1  0.89430000  0.99700000  0.83740000  1.0 0.1410865134
H  H35  1  0.39430000  0.00300000  0.66260000  1.0 0.1410865134
H  H36  1  0.60570000  0.49700000  0.16260000  1.0 0.1410865134
H  H37  1  0.89430000  0.49700000  0.66260000  1.0 0.1410865134
H  H38  1  0.10570000  0.00300000  0.16260000  1.0 0.1410865134
H  H39  1  0.60570000  0.99700000  0.33740000  1.0 0.1410865134
H  H40  1  0.39430000  0.50300000  0.83740000  1.0 0.1410865134
H  H41  1  0.08850000  0.77080000  0.43230000  1.0 0.1410865134
H  H42  1  0.91150000  0.72920000  0.93230000  1.0 0.1410865134
H  H43  1  0.41150000  0.27080000  0.56770000  1.0 0.1410865134
H  H44  1  0.58850000  0.22920000  0.06770000  1.0 0.1410865134
H  H45  1  0.91150000  0.22920000  0.56770000  1.0 0.1410865134
H  H46  1  0.08850000  0.27080000  0.06770000  1.0 0.1410865134
H  H47  1  0.58850000  0.72920000  0.43230000  1.0 0.1410865134
H  H48  1  0.41150000  0.77080000  0.93230000  1.0 0.1410865134
H  H49  1  0.06300000  0.81840000  0.34900000  1.0 0.1498114505
H  H50  1  0.93700000  0.68160000  0.84900000  1.0 0.1498114505
H  H51  1  0.43700000  0.31840000  0.65100000  1.0 0.1498114505
H  H52  1  0.56300000  0.18160000  0.15100000  1.0 0.1498114505
H  H53  1  0.93700000  0.18160000  0.65100000  1.0 0.1498114505
H  H54  1  0.06300000  0.31840000  0.15100000  1.0 0.1498114505
H  H55  1  0.56300000  0.68160000  0.34900000  1.0 0.1498114505
H  H56  1  0.43700000  0.81840000  0.84900000  1.0 0.1498114505
H  H57  1  0.05540000  0.88120000  0.31200000  1.0 0.1410865134
H  H58  1  0.94460000  0.61880000  0.81200000  1.0 0.1301878758
H  H59  1  0.44460000  0.38120000  0.68800000  1.0 0.1410865134
H  H60  1  0.55540000  0.11880000  0.18800000  1.0 0.1410865134
H  H61  1  0.94460000  0.11880000  0.68800000  1.0 0.1301878758
H  H62  1  0.05540000  0.38120000  0.18800000  1.0 0.1410865134
H  H63  1  0.55540000  0.61880000  0.31200000  1.0 0.1410865134
H  H64  1  0.44460000  0.88120000  0.81200000  1.0 0.1410865134
H  H65  1  0.07360000  0.55950000  0.24070000  1.0 0.1301878758
H  H66  1  0.92640000  0.94050000  0.74070000  1.0 0.1301878758
H  H67  1  0.42640000  0.05950000  0.75930000  1.0 0.1301878758
H  H68  1  0.57360000  0.44050000  0.25930000  1.0 0.1301878758
H  H69  1  0.92640000  0.44050000  0.75930000  1.0 0.1301878758
H  H70  1  0.07360000  0.05950000  0.25930000  1.0 0.1301878758
H  H71  1  0.57360000  0.94050000  0.24070000  1.0 0.1301878758
H  H72  1  0.42640000  0.55950000  0.74070000  1.0 0.1301878758
H  H73  1  0.27870000  0.12760000  0.25870000  1.0 0.1301878758
H  H74  1  0.72130000  0.37240000  0.75870000  1.0 0.1301878758
H  H75  1  0.22130000  0.62760000  0.74130000  1.0 0.1301878758
H  H76  1  0.77870000  0.87240000  0.24130000  1.0 0.1301878758
H  H77  1  0.72130000  0.87240000  0.74130000  1.0 0.1301878758
H  H78  1  0.27870000  0.62760000  0.24130000  1.0 0.1301878758
H  H79  1  0.77870000  0.37240000  0.25870000  1.0 0.1301878758
H  H80  1  0.22130000  0.12760000  0.75870000  1.0 0.1301878758
H  H81  1  0.31860000  0.38800000  0.15330000  1.0 0.1498114505
H  H82  1  0.68140000  0.11200000  0.65330000  1.0 0.1498114505
H  H83  1  0.18140000  0.88800000  0.84670000  1.0 0.1498114505
H  H84  1  0.81860000  0.61200000  0.34670000  1.0 0.1498114505
H  H85  1  0.68140000  0.61200000  0.84670000  1.0 0.1498114505
H  H86  1  0.31860000  0.88800000  0.34670000  1.0 0.1498114505
H  H87  1  0.81860000  0.11200000  0.15330000  1.0 0.1498114505
H  H88  1  0.18140000  0.38800000  0.65330000  1.0 0.1498114505
H  H89  1  0.03760000  0.63020000  0.26840000  1.0 0.1498114505
H  H90  1  0.96240000  0.86980000  0.76840000  1.0 0.1498114505
H  H91  1  0.46240000  0.13020000  0.73160000  1.0 0.1498114505
H  H92  1  0.53760000  0.36980000  0.23160000  1.0 0.1498114505
H  H93  1  0.96240000  0.36980000  0.73160000  1.0 0.1498114505
H  H94  1  0.03760000  0.13020000  0.23160000  1.0 0.1498114505
H  H95  1  0.53760000  0.86980000  0.26840000  1.0 0.1498114505
H  H96  1  0.46240000  0.63020000  0.76840000  1.0 0.1498114505
H  H97  1  0.28220000  0.44920000  0.18940000  1.0 0.1410865134
H  H98  1  0.71780000  0.05080000  0.68940000  1.0 0.1410865134
H  H99  1  0.21780000  0.94920000  0.81060000  1.0 0.1410865134
H  H100  1  0.78220000  0.55080000  0.31060000  1.0 0.1410865134
H  H101  1  0.71780000  0.55080000  0.81060000  1.0 0.1410865134
H  H102  1  0.28220000  0.94920000  0.31060000  1.0 0.1410865134
H  H103  1  0.78220000  0.05080000  0.18940000  1.0 0.1410865134
H  H104  1  0.21780000  0.44920000  0.68940000  1.0 0.1410865134
H  H105  1  0.03310000  0.73870000  0.25930000  1.0 0.1498114505
H  H106  1  0.96690000  0.76130000  0.75930000  1.0 0.1498114505
H  H107  1  0.46690000  0.23870000  0.74070000  1.0 0.1498114505
H  H108  1  0.53310000  0.26130000  0.24070000  1.0 0.1498114505
H  H109  1  0.96690000  0.26130000  0.74070000  1.0 0.1498114505
H  H110  1  0.03310000  0.23870000  0.24070000  1.0 0.1498114505
H  H111  1  0.53310000  0.76130000  0.25930000  1.0 0.1498114505
H  H112  1  0.46690000  0.73870000  0.75930000  1.0 0.1498114505
H  H113  1  0.11580000  0.77460000  0.49440000  1.0 0.1301878758
H  H114  1  0.88420000  0.72540000  0.99440000  1.0 0.1301878758
H  H115  1  0.38420000  0.27460000  0.50560000  1.0 0.1301878758
H  H116  1  0.61580000  0.22540000  0.00560000  1.0 0.1301878758
H  H117  1  0.88420000  0.22540000  0.50560000  1.0 0.1301878758
H  H118  1  0.11580000  0.27460000  0.00560000  1.0 0.1301878758
H  H119  1  0.61580000  0.72540000  0.49440000  1.0 0.1301878758
H  H120  1  0.38420000  0.77460000  0.99440000  1.0 0.1301878758
H  H121  1  0.29750000  0.30860000  0.24360000  1.0 0.1410865134
H  H122  1  0.70250000  0.19140000  0.74360000  1.0 0.1410865134
H  H123  1  0.20250000  0.80860000  0.75640000  1.0 0.1410865134
H  H124  1  0.79750000  0.69140000  0.25640000  1.0 0.1410865134
H  H125  1  0.70250000  0.69140000  0.75640000  1.0 0.1410865134
H  H126  1  0.29750000  0.80860000  0.25640000  1.0 0.1410865134
H  H127  1  0.79750000  0.19140000  0.24360000  1.0 0.1410865134
H  H128  1  0.20250000  0.30860000  0.74360000  1.0 0.1410865134
H  H129  1  0.25970000  0.37240000  0.27780000  1.0 0.1410865134
H  H130  1  0.74030000  0.12760000  0.77780000  1.0 0.1410865134
H  H131  1  0.24030000  0.87240000  0.72220000  1.0 0.1410865134
H  H132  1  0.75970000  0.62760000  0.22220000  1.0 0.1410865134
H  H133  1  0.74030000  0.62760000  0.72220000  1.0 0.1410865134
H  H134  1  0.25970000  0.87240000  0.22220000  1.0 0.1410865134
H  H135  1  0.75970000  0.12760000  0.27780000  1.0 0.1410865134
H  H136  1  0.24030000  0.37240000  0.77780000  1.0 0.1410865134
H  H137  1  0.37070000  0.21470000  0.05950000  1.0 0.1586159608
H  H138  1  0.62930000  0.28530000  0.55950000  1.0 0.1586159608
H  H139  1  0.12930000  0.71470000  0.94050000  1.0 0.1586159608
H  H140  1  0.87070000  0.78530000  0.44050000  1.0 0.1586159608
H  H141  1  0.62930000  0.78530000  0.94050000  1.0 0.1586159608
H  H142  1  0.37070000  0.71470000  0.44050000  1.0 0.1586159608
H  H143  1  0.87070000  0.28530000  0.05950000  1.0 0.1586159608
H  H144  1  0.12930000  0.21470000  0.55950000  1.0 0.1586159608
H  H145  1  0.37650000  0.22640000  0.99760000  1.0 0.1498114505
H  H146  1  0.62350000  0.27360000  0.49760000  1.0 0.1498114505
H  H147  1  0.12350000  0.72640000  0.00240000  1.0 0.1498114505
H  H148  1  0.87650000  0.77360000  0.50240000  1.0 0.1498114505
H  H149  1  0.62350000  0.77360000  0.00240000  1.0 0.1498114505
H  H150  1  0.37650000  0.72640000  0.50240000  1.0 0.1498114505
H  H151  1  0.87650000  0.27360000  0.99760000  1.0 0.1498114505
H  H152  1  0.12350000  0.22640000  0.49760000  1.0 0.1498114505
H  H153  1  0.28630000  0.34400000  0.07180000  1.0 0.1586159608
H  H154  1  0.71370000  0.15600000  0.57180000  1.0 0.1586159608
H  H155  1  0.21370000  0.84400000  0.92820000  1.0 0.1586159608
H  H156  1  0.78630000  0.65600000  0.42820000  1.0 0.1586159608
H  H157  1  0.71370000  0.65600000  0.92820000  1.0 0.1586159608
H  H158  1  0.28630000  0.84400000  0.42820000  1.0 0.1586159608
H  H159  1  0.78630000  0.15600000  0.07180000  1.0 0.1586159608
H  H160  1  0.21370000  0.34400000  0.57180000  1.0 0.1586159608
H  H161  1  0.29050000  0.35040000  0.00940000  1.0 0.1498114505
H  H162  1  0.70950000  0.14960000  0.50940000  1.0 0.1498114505
H  H163  1  0.20950000  0.85040000  0.99060000  1.0 0.1498114505
H  H164  1  0.79050000  0.64960000  0.49060000  1.0 0.1498114505
H  H165  1  0.70950000  0.64960000  0.99060000  1.0 0.1498114505
H  H166  1  0.29050000  0.85040000  0.49060000  1.0 0.1498114505
H  H167  1  0.79050000  0.14960000  0.00940000  1.0 0.1498114505
H  H168  1  0.20950000  0.35040000  0.50940000  1.0 0.1498114505
H  H169  1  0.08630000  0.63530000  0.44070000  1.0 0.1586159608
H  H170  1  0.91370000  0.86470000  0.94070000  1.0 0.1586159608
H  H171  1  0.41370000  0.13530000  0.55930000  1.0 0.1586159608
H  H172  1  0.58630000  0.36470000  0.05930000  1.0 0.1586159608
H  H173  1  0.91370000  0.36470000  0.55930000  1.0 0.1586159608
H  H174  1  0.08630000  0.13530000  0.05930000  1.0 0.1586159608
H  H175  1  0.58630000  0.86470000  0.44070000  1.0 0.1586159608
H  H176  1  0.41370000  0.63530000  0.94070000  1.0 0.1586159608
H  H177  1  0.11410000  0.64370000  0.50370000  1.0 0.1498114505
H  H178  1  0.88590000  0.85630000  0.00370000  1.0 0.1498114505
H  H179  1  0.38590000  0.14370000  0.49630000  1.0 0.1498114505
H  H180  1  0.61410000  0.35630000  0.99630000  1.0 0.1498114505
H  H181  1  0.88590000  0.35630000  0.49630000  1.0 0.1498114505
H  H182  1  0.11410000  0.14370000  0.99630000  1.0 0.1498114505
H  H183  1  0.61410000  0.85630000  0.50370000  1.0 0.1498114505
H  H184  1  0.38590000  0.64370000  0.00370000  1.0 0.1498114505
H  H185  1  0.02690000  0.80240000  0.22410000  1.0 0.1301878758
H  H186  1  0.97310000  0.69760000  0.72410000  1.0 0.1301878758
H  H187  1  0.47310000  0.30240000  0.77590000  1.0 0.1301878758
H  H188  1  0.52690000  0.19760000  0.27590000  1.0 0.1301878758
H  H189  1  0.97310000  0.19760000  0.77590000  1.0 0.1301878758
H  H190  1  0.02690000  0.30240000  0.27590000  1.0 0.1301878758
H  H191  1  0.52690000  0.69760000  0.22410000  1.0 0.1301878758
H  H192  1  0.47310000  0.80240000  0.72410000  1.0 0.1301878758
W  W1  1  0.32659000  0.45686000  0.35050000  1.0 2.450467114
W  W2  1  0.67341000  0.04314000  0.85050000  1.0 2.450467114
W  W3  1  0.17341000  0.95686000  0.64950000  1.0 2.450467114
W  W4  1  0.82659000  0.54314000  0.14950000  1.0 2.4559614268
W  W5  1  0.67341000  0.54314000  0.64950000  1.0 2.450467114
W  W6  1  0.32659000  0.95686000  0.14950000  1.0 2.4559614268
W  W7  1  0.82659000  0.04314000  0.35050000  1.0 2.450467114
W  W8  1  0.17341000  0.45686000  0.85050000  1.0 2.450467114
W  W9  1  0.29707000  0.53058000  0.42397000  1.0 2.3972002473
W  W10  1  0.70293000  0.96942000  0.92397000  1.0 2.3972002473
W  W11  1  0.20293000  0.03058000  0.57603000  1.0 2.3972002473
W  W12  1  0.79707000  0.46942000  0.07603000  1.0 2.3972002473
W  W13  1  0.70293000  0.46942000  0.57603000  1.0 2.3972002473
W  W14  1  0.29707000  0.03058000  0.07603000  1.0 2.3972002473
W  W15  1  0.79707000  0.96942000  0.42397000  1.0 2.3972002473
W  W16  1  0.20293000  0.53058000  0.92397000  1.0 2.3972002473
W  W17  1  0.54914000  0.57823000  0.41028000  1.0 2.3722528723
W  W18  1  0.45086000  0.92177000  0.91028000  1.0 2.3722528723
W  W19  1  0.95086000  0.07823000  0.58972000  1.0 2.3722528723
W  W20  1  0.04914000  0.42177000  0.08972000  1.0 2.3722528723
W  W21  1  0.45086000  0.42177000  0.58972000  1.0 2.3722528723
W  W22  1  0.54914000  0.07823000  0.08972000  1.0 2.3722528723
W  W23  1  0.04914000  0.92177000  0.41028000  1.0 2.3722528723
W  W24  1  0.95086000  0.57823000  0.91028000  1.0 2.3722528723
W  W25  1  0.74767000  0.50588000  0.40879000  1.0 2.450467114
W  W26  1  0.25233000  0.99412000  0.90879000  1.0 2.450467114
W  W27  1  0.75233000  0.00588000  0.59121000  1.0 2.450467114
W  W28  1  0.24767000  0.49412000  0.09121000  1.0 2.450467114
W  W29  1  0.25233000  0.49412000  0.59121000  1.0 2.450467114
W  W30  1  0.74767000  0.00588000  0.09121000  1.0 2.450467114
W  W31  1  0.24767000  0.99412000  0.40879000  1.0 2.450467114
W  W32  1  0.75233000  0.50588000  0.90879000  1.0 2.450467114
W  W33  1  0.54813000  0.38082000  0.34814000  1.0 2.4389044252
W  W34  1  0.45187000  0.11918000  0.84814000  1.0 2.4389044252
W  W35  1  0.95187000  0.88082000  0.65186000  1.0 2.4389044252
W  W36  1  0.04813000  0.61918000  0.15186000  1.0 2.4389044252
W  W37  1  0.45187000  0.61918000  0.65186000  1.0 2.4389044252
W  W38  1  0.54813000  0.88082000  0.15186000  1.0 2.4389044252
W  W39  1  0.04813000  0.11918000  0.34814000  1.0 2.4389044252
W  W40  1  0.95187000  0.38082000  0.84814000  1.0 2.4389044252
W  W41  1  0.47960000  0.33904000  0.43505000  1.0 2.450467114
W  W42  1  0.52040000  0.16096000  0.93505000  1.0 2.450467114
W  W43  1  0.02040000  0.83904000  0.56495000  1.0 2.450467114
W  W44  1  0.97960000  0.66096000  0.06495000  1.0 2.450467114
W  W45  1  0.52040000  0.66096000  0.56495000  1.0 2.450467114
W  W46  1  0.47960000  0.83904000  0.06495000  1.0 2.450467114
W  W47  1  0.97960000  0.16096000  0.43505000  1.0 2.450467114
W  W48  1  0.02040000  0.33904000  0.93505000  1.0 2.450467114
W  W49  1  0.26408000  0.41563000  0.43735000  1.0 2.4163016584
W  W50  1  0.73592000  0.08437000  0.93735000  1.0 2.4163016584
W  W51  1  0.23592000  0.91563000  0.56265000  1.0 2.4163016584
W  W52  1  0.76408000  0.58437000  0.06265000  1.0 2.4163016584
W  W53  1  0.73592000  0.58437000  0.56265000  1.0 2.4163016584
W  W54  1  0.26408000  0.91563000  0.06265000  1.0 2.4163016584
W  W55  1  0.76408000  0.08437000  0.43735000  1.0 2.4163016584
W  W56  1  0.23592000  0.41563000  0.93735000  1.0 2.4163016584
W  W57  1  0.71223000  0.38224000  0.42360000  1.0 2.4675180521
W  W58  1  0.28777000  0.11776000  0.92360000  1.0 2.4675180521
W  W59  1  0.78777000  0.88224000  0.57640000  1.0 2.4675180521
W  W60  1  0.21223000  0.61776000  0.07640000  1.0 2.4675180521
W  W61  1  0.28777000  0.61776000  0.57640000  1.0 2.4675180521
W  W62  1  0.71223000  0.88224000  0.07640000  1.0 2.4675180521
W  W63  1  0.21223000  0.11776000  0.42360000  1.0 2.4675180521
W  W64  1  0.78777000  0.38224000  0.92360000  1.0 2.4675180521
W  W65  1  0.57798000  0.50544000  0.33584000  1.0 2.4286982325
W  W66  1  0.42202000  0.99456000  0.83584000  1.0 2.4286982325
W  W67  1  0.92202000  0.00544000  0.66416000  1.0 2.4286982325
W  W68  1  0.07798000  0.49456000  0.16416000  1.0 2.4286982325
W  W69  1  0.42202000  0.49456000  0.66416000  1.0 2.4286982325
W  W70  1  0.57798000  0.00544000  0.16416000  1.0 2.4286982325
W  W71  1  0.07798000  0.99456000  0.33584000  1.0 2.4286982325
W  W72  1  0.92202000  0.50544000  0.83584000  1.0 2.4286982325
C  C1  1  0.31090000  0.29930000  0.17110000  1.0 0.3637804595
C  C2  1  0.68910000  0.20070000  0.67110000  1.0 0.3637804595
C  C3  1  0.18910000  0.79930000  0.82890000  1.0 0.3637804595
C  C4  1  0.81090000  0.70070000  0.32890000  1.0 0.3637804595
C  C5  1  0.68910000  0.70070000  0.82890000  1.0 0.3637804595
C  C6  1  0.31090000  0.79930000  0.32890000  1.0 0.3637804595
C  C7  1  0.81090000  0.20070000  0.17110000  1.0 0.3637804595
C  C8  1  0.18910000  0.29930000  0.67110000  1.0 0.3637804595
C  C9  1  0.32010000  0.27020000  0.11390000  1.0 0.3782575623
C  C10  1  0.67990000  0.22980000  0.61390000  1.0 0.3782575623
C  C11  1  0.17990000  0.77020000  0.88610000  1.0 0.3782575623
C  C12  1  0.82010000  0.72980000  0.38610000  1.0 0.3782575623
C  C13  1  0.67990000  0.72980000  0.88610000  1.0 0.3782575623
C  C14  1  0.32010000  0.77020000  0.38610000  1.0 0.3782575623
C  C15  1  0.82010000  0.22980000  0.11390000  1.0 0.3782575623
C  C16  1  0.17990000  0.27020000  0.61390000  1.0 0.3782575623
C  C17  1  0.31120000  0.22420000  0.16310000  1.0 0.3782575623
C  C18  1  0.68880000  0.27580000  0.66310000  1.0 0.3782575623
C  C19  1  0.18880000  0.72420000  0.83690000  1.0 0.3782575623
C  C20  1  0.81120000  0.77580000  0.33690000  1.0 0.3782575623
C  C21  1  0.68880000  0.77580000  0.83690000  1.0 0.3782575623
C  C22  1  0.31120000  0.72420000  0.33690000  1.0 0.3782575623
C  C23  1  0.81120000  0.27580000  0.16310000  1.0 0.3782575623
C  C24  1  0.18880000  0.22420000  0.66310000  1.0 0.3782575623
C  C25  1  0.32470000  0.27750000  0.07280000  1.0 0.0248784014
C  C26  1  0.67530000  0.22250000  0.57280000  1.0 0.0248784014
C  C27  1  0.17530000  0.77750000  0.92720000  1.0 0.0248784014
C  C28  1  0.82470000  0.72250000  0.42720000  1.0 0.0248784014
C  C29  1  0.67530000  0.72250000  0.92720000  1.0 0.0248784014
C  C30  1  0.32470000  0.77750000  0.42720000  1.0 0.0248784014
C  C31  1  0.82470000  0.22250000  0.07280000  1.0 0.0248784014
C  C32  1  0.17530000  0.27750000  0.57280000  1.0 0.0248784014
C  C33  1  0.30610000  0.17750000  0.18110000  1.0 0.0430237037
C  C34  1  0.69390000  0.32250000  0.68110000  1.0 0.0430237037
C  C35  1  0.19390000  0.67750000  0.81890000  1.0 0.0430237037
C  C36  1  0.80610000  0.82250000  0.31890000  1.0 0.0430237037
C  C37  1  0.69390000  0.82250000  0.81890000  1.0 0.0430237037
C  C38  1  0.30610000  0.67750000  0.31890000  1.0 0.0430237037
C  C39  1  0.80610000  0.32250000  0.18110000  1.0 0.0430237037
C  C40  1  0.19390000  0.17750000  0.68110000  1.0 0.0430237037
C  C41  1  0.28970000  0.17350000  0.21850000  1.0 -0.1505329942
C  C42  1  0.71030000  0.32650000  0.71850000  1.0 -0.1505329942
C  C43  1  0.21030000  0.67350000  0.78150000  1.0 -0.1505329942
C  C44  1  0.78970000  0.82650000  0.28150000  1.0 -0.1505329942
C  C45  1  0.71030000  0.82650000  0.78150000  1.0 -0.1505329942
C  C46  1  0.28970000  0.67350000  0.28150000  1.0 -0.1505329942
C  C47  1  0.78970000  0.32650000  0.21850000  1.0 -0.1505329942
C  C48  1  0.21030000  0.17350000  0.71850000  1.0 -0.1505329942
C  C49  1  0.32290000  0.13930000  0.15950000  1.0 -0.1505329942
C  C50  1  0.67710000  0.36070000  0.65950000  1.0 -0.1505329942
C  C51  1  0.17710000  0.63930000  0.84050000  1.0 -0.1505329942
C  C52  1  0.82290000  0.86070000  0.34050000  1.0 -0.1505329942
C  C53  1  0.67710000  0.86070000  0.84050000  1.0 -0.1505329942
C  C54  1  0.32290000  0.63930000  0.34050000  1.0 -0.1505329942
C  C55  1  0.82290000  0.36070000  0.15950000  1.0 -0.1505329942
C  C56  1  0.17710000  0.13930000  0.65950000  1.0 -0.1505329942
C  C57  1  0.32880000  0.09800000  0.17780000  1.0 0.0902566749
C  C58  1  0.67120000  0.40200000  0.67780000  1.0 0.0902566749
C  C59  1  0.17120000  0.59800000  0.82220000  1.0 0.0902566749
C  C60  1  0.82880000  0.90200000  0.32220000  1.0 0.0902566749
C  C61  1  0.67120000  0.90200000  0.82220000  1.0 0.0902566749
C  C62  1  0.32880000  0.59800000  0.32220000  1.0 0.0902566749
C  C63  1  0.82880000  0.40200000  0.17780000  1.0 0.0902566749
C  C64  1  0.17120000  0.09800000  0.67780000  1.0 0.0902566749
C  C65  1  0.07260000  0.69740000  0.38840000  1.0 0.3726921883
C  C66  1  0.92740000  0.80260000  0.88840000  1.0 0.3726921883
C  C67  1  0.42740000  0.19740000  0.61160000  1.0 0.3782575623
C  C68  1  0.57260000  0.30260000  0.11160000  1.0 0.3726921883
C  C69  1  0.92740000  0.30260000  0.61160000  1.0 0.3782575623
C  C70  1  0.07260000  0.19740000  0.11160000  1.0 0.3726921883
C  C71  1  0.57260000  0.80260000  0.38840000  1.0 0.3726921883
C  C72  1  0.42740000  0.69740000  0.88840000  1.0 0.3726921883
C  C73  1  0.05510000  0.72960000  0.33250000  1.0 0.3726921883
C  C74  1  0.94490000  0.77040000  0.83250000  1.0 0.3726921883
C  C75  1  0.44490000  0.22960000  0.66750000  1.0 0.3726921883
C  C76  1  0.55510000  0.27040000  0.16750000  1.0 0.3726921883
C  C77  1  0.94490000  0.27040000  0.66750000  1.0 0.3726921883
C  C78  1  0.05510000  0.22960000  0.16750000  1.0 0.3726921883
C  C79  1  0.55510000  0.77040000  0.33250000  1.0 0.3726921883
C  C80  1  0.44490000  0.72960000  0.83250000  1.0 0.3726921883
C  C81  1  0.05800000  0.65420000  0.33850000  1.0 0.3782575623
C  C82  1  0.94200000  0.84580000  0.83850000  1.0 0.3782575623
C  C83  1  0.44200000  0.15420000  0.66150000  1.0 0.3782575623
C  C84  1  0.55800000  0.34580000  0.16150000  1.0 0.3782575623
C  C85  1  0.94200000  0.34580000  0.66150000  1.0 0.3782575623
C  C86  1  0.05800000  0.15420000  0.16150000  1.0 0.3782575623
C  C87  1  0.55800000  0.84580000  0.33850000  1.0 0.3782575623
C  C88  1  0.44200000  0.65420000  0.83850000  1.0 0.3782575623
C  C89  1  0.05910000  0.60750000  0.32030000  1.0 0.0510164342
C  C90  1  0.94090000  0.89250000  0.82030000  1.0 0.0510164342
C  C91  1  0.44090000  0.10750000  0.67970000  1.0 0.0510164342
C  C92  1  0.55910000  0.39250000  0.17970000  1.0 0.0510164342
C  C93  1  0.94090000  0.39250000  0.67970000  1.0 0.0510164342
C  C94  1  0.05910000  0.10750000  0.17970000  1.0 0.0510164342
C  C95  1  0.55910000  0.89250000  0.32030000  1.0 0.0510164342
C  C96  1  0.44090000  0.60750000  0.82030000  1.0 0.0510164342
C  C97  1  0.07240000  0.57010000  0.34200000  1.0 -0.1183416042
C  C98  1  0.92760000  0.92990000  0.84200000  1.0 -0.1183416042
C  C99  1  0.42760000  0.07010000  0.65800000  1.0 -0.1183416042
C  C100  1  0.57240000  0.42990000  0.15800000  1.0 -0.1183416042
C  C101  1  0.92760000  0.42990000  0.65800000  1.0 -0.1183416042
C  C102  1  0.07240000  0.07010000  0.15800000  1.0 -0.1183416042
C  C103  1  0.57240000  0.92990000  0.34200000  1.0 -0.1183416042
C  C104  1  0.42760000  0.57010000  0.84200000  1.0 -0.1183416042
C  C105  1  0.09370000  0.52890000  0.32320000  1.0 0.1183403033
C  C106  1  0.90630000  0.97110000  0.82320000  1.0 0.1183403033
C  C107  1  0.40630000  0.02890000  0.67680000  1.0 0.1183403033
C  C108  1  0.59370000  0.47110000  0.17680000  1.0 0.1183403033
C  C109  1  0.90630000  0.47110000  0.67680000  1.0 0.1183403033
C  C110  1  0.09370000  0.02890000  0.17680000  1.0 0.1183403033
C  C111  1  0.59370000  0.97110000  0.32320000  1.0 0.1183403033
C  C112  1  0.40630000  0.52890000  0.82320000  1.0 0.1183403033
C  C113  1  0.08670000  0.70230000  0.42930000  1.0 0.0510164342
C  C114  1  0.91330000  0.79770000  0.92930000  1.0 0.0510164342
C  C115  1  0.41330000  0.20230000  0.57070000  1.0 0.0510164342
C  C116  1  0.58670000  0.29770000  0.07070000  1.0 0.0510164342
C  C117  1  0.91330000  0.29770000  0.57070000  1.0 0.0510164342
C  C118  1  0.08670000  0.20230000  0.07070000  1.0 0.0510164342
C  C119  1  0.58670000  0.79770000  0.42930000  1.0 0.0510164342
C  C120  1  0.41330000  0.70230000  0.92930000  1.0 0.0510164342
C  C121  1  0.09340000  0.74420000  0.44620000  1.0 -0.155274609
C  C122  1  0.90660000  0.75580000  0.94620000  1.0 -0.155274609
C  C123  1  0.40660000  0.24420000  0.55380000  1.0 -0.1505329942
C  C124  1  0.59340000  0.25580000  0.05380000  1.0 -0.155274609
C  C125  1  0.90660000  0.25580000  0.55380000  1.0 -0.1505329942
C  C126  1  0.09340000  0.24420000  0.05380000  1.0 -0.155274609
C  C127  1  0.59340000  0.75580000  0.44620000  1.0 -0.155274609
C  C128  1  0.40660000  0.74420000  0.94620000  1.0 -0.155274609
C  C129  1  0.04880000  0.77130000  0.30820000  1.0 0.0510164342
C  C130  1  0.95120000  0.72870000  0.80820000  1.0 0.0510164342
C  C131  1  0.45120000  0.27130000  0.69180000  1.0 0.0510164342
C  C132  1  0.54880000  0.22870000  0.19180000  1.0 0.0510164342
C  C133  1  0.95120000  0.22870000  0.69180000  1.0 0.0510164342
C  C134  1  0.04880000  0.27130000  0.19180000  1.0 0.0510164342
C  C135  1  0.54880000  0.72870000  0.30820000  1.0 0.0510164342
C  C136  1  0.45120000  0.77130000  0.80820000  1.0 0.0510164342
C  C137  1  0.05570000  0.81490000  0.32350000  1.0 -0.1424841768
C  C138  1  0.94430000  0.68510000  0.82350000  1.0 -0.1424841768
C  C139  1  0.44430000  0.31490000  0.67650000  1.0 -0.1424841768
C  C140  1  0.55570000  0.18510000  0.17650000  1.0 -0.1424841768
C  C141  1  0.94430000  0.18510000  0.67650000  1.0 -0.1424841768
C  C142  1  0.05570000  0.31490000  0.17650000  1.0 -0.1424841768
C  C143  1  0.55570000  0.68510000  0.32350000  1.0 -0.1424841768
C  C144  1  0.44430000  0.81490000  0.82350000  1.0 -0.1424841768
C  C145  1  0.05190000  0.85240000  0.30130000  1.0 0.0696466231
C  C146  1  0.94810000  0.64760000  0.80130000  1.0 0.0696466231
C  C147  1  0.44810000  0.35240000  0.69870000  1.0 0.0696466231
C  C148  1  0.55190000  0.14760000  0.19870000  1.0 0.0696466231
C  C149  1  0.94810000  0.14760000  0.69870000  1.0 0.0696466231
C  C150  1  0.05190000  0.35240000  0.19870000  1.0 0.0696466231
C  C151  1  0.55190000  0.64760000  0.30130000  1.0 0.0696466231
C  C152  1  0.44810000  0.85240000  0.80130000  1.0 0.0696466231
C  C153  1  0.07530000  0.56180000  0.26640000  1.0 0.1183403033
C  C154  1  0.92470000  0.93820000  0.76640000  1.0 0.1183403033
C  C155  1  0.42470000  0.06180000  0.73360000  1.0 0.1183403033
C  C156  1  0.57530000  0.43820000  0.23360000  1.0 0.1183403033
C  C157  1  0.92470000  0.43820000  0.73360000  1.0 0.1183403033
C  C158  1  0.07530000  0.06180000  0.23360000  1.0 0.1183403033
C  C159  1  0.57530000  0.93820000  0.26640000  1.0 0.1183403033
C  C160  1  0.42470000  0.56180000  0.76640000  1.0 0.1183403033
C  C161  1  0.29150000  0.13070000  0.23340000  1.0 0.0629083024
C  C162  1  0.70850000  0.36930000  0.73340000  1.0 0.0629083024
C  C163  1  0.20850000  0.63070000  0.76660000  1.0 0.0629083024
C  C164  1  0.79150000  0.86930000  0.26660000  1.0 0.0629083024
C  C165  1  0.70850000  0.86930000  0.76660000  1.0 0.0629083024
C  C166  1  0.29150000  0.63070000  0.26660000  1.0 0.0629083024
C  C167  1  0.79150000  0.36930000  0.23340000  1.0 0.0629083024
C  C168  1  0.20850000  0.13070000  0.73340000  1.0 0.0629083024
C  C169  1  0.30350000  0.34070000  0.19450000  1.0 0.0510164342
C  C170  1  0.69650000  0.15930000  0.69450000  1.0 0.0510164342
C  C171  1  0.19650000  0.84070000  0.80550000  1.0 0.0510164342
C  C172  1  0.80350000  0.65930000  0.30550000  1.0 0.0510164342
C  C173  1  0.69650000  0.65930000  0.80550000  1.0 0.0510164342
C  C174  1  0.30350000  0.84070000  0.30550000  1.0 0.0510164342
C  C175  1  0.80350000  0.15930000  0.19450000  1.0 0.0510164342
C  C176  1  0.19650000  0.34070000  0.69450000  1.0 0.0510164342
C  C177  1  0.30380000  0.38420000  0.17840000  1.0 -0.1424841768
C  C178  1  0.69620000  0.11580000  0.67840000  1.0 -0.1424841768
C  C179  1  0.19620000  0.88420000  0.82160000  1.0 -0.1424841768
C  C180  1  0.80380000  0.61580000  0.32160000  1.0 -0.1424841768
C  C181  1  0.69620000  0.61580000  0.82160000  1.0 -0.1424841768
C  C182  1  0.30380000  0.88420000  0.32160000  1.0 -0.1424841768
C  C183  1  0.80380000  0.11580000  0.17840000  1.0 -0.1424841768
C  C184  1  0.19620000  0.38420000  0.67840000  1.0 -0.1424841768
C  C185  1  0.05410000  0.60490000  0.28280000  1.0 -0.1309747546
C  C186  1  0.94590000  0.89510000  0.78280000  1.0 -0.1309747546
C  C187  1  0.44590000  0.10490000  0.71720000  1.0 -0.1309747546
C  C188  1  0.55410000  0.39510000  0.21720000  1.0 -0.1309747546
C  C189  1  0.94590000  0.39510000  0.71720000  1.0 -0.1309747546
C  C190  1  0.05410000  0.10490000  0.21720000  1.0 -0.1309747546
C  C191  1  0.55410000  0.89510000  0.28280000  1.0 -0.1309747546
C  C192  1  0.44590000  0.60490000  0.78280000  1.0 -0.1309747546
C  C193  1  0.28220000  0.42040000  0.20010000  1.0 0.0902566749
C  C194  1  0.71780000  0.07960000  0.70010000  1.0 0.0902566749
C  C195  1  0.21780000  0.92040000  0.79990000  1.0 0.0902566749
C  C196  1  0.78220000  0.57960000  0.29990000  1.0 0.0902566749
C  C197  1  0.71780000  0.57960000  0.79990000  1.0 0.0902566749
C  C198  1  0.28220000  0.92040000  0.29990000  1.0 0.0902566749
C  C199  1  0.78220000  0.07960000  0.20010000  1.0 0.0902566749
C  C200  1  0.21780000  0.42040000  0.70010000  1.0 0.0902566749
C  C201  1  0.03810000  0.76720000  0.27040000  1.0 -0.1424841768
C  C202  1  0.96190000  0.73280000  0.77040000  1.0 -0.1424841768
C  C203  1  0.46190000  0.26720000  0.72960000  1.0 -0.1424841768
C  C204  1  0.53810000  0.23280000  0.22960000  1.0 -0.1424841768
C  C205  1  0.96190000  0.23280000  0.72960000  1.0 -0.1424841768
C  C206  1  0.03810000  0.26720000  0.22960000  1.0 -0.1424841768
C  C207  1  0.53810000  0.73280000  0.27040000  1.0 -0.1424841768
C  C208  1  0.46190000  0.76720000  0.77040000  1.0 -0.1424841768
C  C209  1  0.10760000  0.74600000  0.48370000  1.0 0.0902566749
C  C210  1  0.89240000  0.75400000  0.98370000  1.0 0.0902566749
C  C211  1  0.39240000  0.24600000  0.51630000  1.0 0.0902566749
C  C212  1  0.60760000  0.25400000  0.01630000  1.0 0.0902566749
C  C213  1  0.89240000  0.25400000  0.51630000  1.0 0.0902566749
C  C214  1  0.10760000  0.24600000  0.01630000  1.0 0.0902566749
C  C215  1  0.60760000  0.75400000  0.48370000  1.0 0.0902566749
C  C216  1  0.39240000  0.74600000  0.98370000  1.0 0.0902566749
C  C217  1  0.29110000  0.33680000  0.23200000  1.0 -0.1505329942
C  C218  1  0.70890000  0.16320000  0.73200000  1.0 -0.1505329942
C  C219  1  0.20890000  0.83680000  0.76800000  1.0 -0.1505329942
C  C220  1  0.79110000  0.66320000  0.26800000  1.0 -0.1505329942
C  C221  1  0.70890000  0.66320000  0.76800000  1.0 -0.1505329942
C  C222  1  0.29110000  0.83680000  0.26800000  1.0 -0.1505329942
C  C223  1  0.79110000  0.16320000  0.23200000  1.0 -0.1505329942
C  C224  1  0.20890000  0.33680000  0.73200000  1.0 -0.1505329942
C  C225  1  0.26910000  0.37520000  0.25230000  1.0 0.1037949753
C  C226  1  0.73090000  0.12480000  0.75230000  1.0 0.1037949753
C  C227  1  0.23090000  0.87520000  0.74770000  1.0 0.1037949753
C  C228  1  0.76910000  0.62480000  0.24770000  1.0 0.1037949753
C  C229  1  0.73090000  0.62480000  0.74770000  1.0 0.1037949753
C  C230  1  0.26910000  0.87520000  0.24770000  1.0 0.1037949753
C  C231  1  0.76910000  0.12480000  0.25230000  1.0 0.1037949753
C  C232  1  0.23090000  0.37520000  0.75230000  1.0 0.1037949753
C  C233  1  0.35360000  0.24300000  0.04980000  1.0 -0.155274609
C  C234  1  0.64640000  0.25700000  0.54980000  1.0 -0.155274609
C  C235  1  0.14640000  0.74300000  0.95020000  1.0 -0.155274609
C  C236  1  0.85360000  0.75700000  0.45020000  1.0 -0.155274609
C  C237  1  0.64640000  0.75700000  0.95020000  1.0 -0.155274609
C  C238  1  0.35360000  0.74300000  0.45020000  1.0 -0.155274609
C  C239  1  0.85360000  0.25700000  0.04980000  1.0 -0.155274609
C  C240  1  0.14640000  0.24300000  0.54980000  1.0 -0.155274609
C  C241  1  0.35700000  0.25040000  0.01280000  1.0 0.0696466231
C  C242  1  0.64300000  0.24960000  0.51280000  1.0 0.0696466231
C  C243  1  0.14300000  0.75040000  0.98720000  1.0 0.0696466231
C  C244  1  0.85700000  0.74960000  0.48720000  1.0 0.0696466231
C  C245  1  0.64300000  0.74960000  0.98720000  1.0 0.0696466231
C  C246  1  0.35700000  0.75040000  0.48720000  1.0 0.0696466231
C  C247  1  0.85700000  0.24960000  0.01280000  1.0 0.0696466231
C  C248  1  0.14300000  0.25040000  0.51280000  1.0 0.0696466231
C  C249  1  0.30330000  0.31910000  0.05720000  1.0 -0.1505329942
C  C250  1  0.69670000  0.18090000  0.55720000  1.0 -0.1505329942
C  C251  1  0.19670000  0.81910000  0.94280000  1.0 -0.1505329942
C  C252  1  0.80330000  0.68090000  0.44280000  1.0 -0.1505329942
C  C253  1  0.69670000  0.68090000  0.94280000  1.0 -0.1505329942
C  C254  1  0.30330000  0.81910000  0.44280000  1.0 -0.1505329942
C  C255  1  0.80330000  0.18090000  0.05720000  1.0 -0.1505329942
C  C256  1  0.19670000  0.31910000  0.55720000  1.0 -0.1505329942
C  C257  1  0.30770000  0.32250000  0.01990000  1.0 0.0696466231
C  C258  1  0.69230000  0.17750000  0.51990000  1.0 0.0696466231
C  C259  1  0.19230000  0.82250000  0.98010000  1.0 0.0696466231
C  C260  1  0.80770000  0.67750000  0.48010000  1.0 0.0696466231
C  C261  1  0.69230000  0.67750000  0.98010000  1.0 0.0696466231
C  C262  1  0.30770000  0.82250000  0.48010000  1.0 0.0696466231
C  C263  1  0.80770000  0.17750000  0.01990000  1.0 0.0696466231
C  C264  1  0.19230000  0.32250000  0.51990000  1.0 0.0696466231
C  C265  1  0.09210000  0.66420000  0.45110000  1.0 -0.1113470289
C  C266  1  0.90790000  0.83580000  0.95110000  1.0 -0.1113470289
C  C267  1  0.40790000  0.16420000  0.54890000  1.0 -0.1113470289
C  C268  1  0.59210000  0.33580000  0.04890000  1.0 -0.1113470289
C  C269  1  0.90790000  0.33580000  0.54890000  1.0 -0.1113470289
C  C270  1  0.09210000  0.16420000  0.04890000  1.0 -0.1113470289
C  C271  1  0.59210000  0.83580000  0.45110000  1.0 -0.1113470289
C  C272  1  0.40790000  0.66420000  0.95110000  1.0 -0.1113470289
C  C273  1  0.10660000  0.66980000  0.48930000  1.0 0.1301878758
C  C274  1  0.89340000  0.83020000  0.98930000  1.0 0.1301878758
C  C275  1  0.39340000  0.16980000  0.51070000  1.0 0.1301878758
C  C276  1  0.60660000  0.33020000  0.01070000  1.0 0.1301878758
C  C277  1  0.89340000  0.33020000  0.51070000  1.0 0.1301878758
C  C278  1  0.10660000  0.16980000  0.01070000  1.0 0.1301878758
C  C279  1  0.60660000  0.83020000  0.48930000  1.0 0.1301878758
C  C280  1  0.39340000  0.66980000  0.98930000  1.0 0.1301878758
C  C281  1  0.03500000  0.80560000  0.24960000  1.0 0.0629083024
C  C282  1  0.96500000  0.69440000  0.74960000  1.0 0.0629083024
C  C283  1  0.46500000  0.30560000  0.75040000  1.0 0.0629083024
C  C284  1  0.53500000  0.19440000  0.25040000  1.0 0.0629083024
C  C285  1  0.96500000  0.19440000  0.75040000  1.0 0.0629083024
C  C286  1  0.03500000  0.30560000  0.25040000  1.0 0.0629083024
C  C287  1  0.53500000  0.69440000  0.24960000  1.0 0.0629083024
C  C288  1  0.46500000  0.80560000  0.74960000  1.0 0.0629083024
N  N1  1  0.09740000  0.52480000  0.28600000  1.0 -0.2436687703
N  N2  1  0.90260000  0.97520000  0.78600000  1.0 -0.2436687703
N  N3  1  0.40260000  0.02480000  0.71400000  1.0 -0.2436687703
N  N4  1  0.59740000  0.47520000  0.21400000  1.0 -0.2436687703
N  N5  1  0.90260000  0.47520000  0.71400000  1.0 -0.2436687703
N  N6  1  0.09740000  0.02480000  0.21400000  1.0 -0.2436687703
N  N7  1  0.59740000  0.97520000  0.28600000  1.0 -0.2436687703
N  N8  1  0.40260000  0.52480000  0.78600000  1.0 -0.2436687703
N  N9  1  0.11040000  0.70940000  0.50610000  1.0 -0.2759488019
N  N10  1  0.88960000  0.79060000  0.00610000  1.0 -0.2759488019
N  N11  1  0.38960000  0.20940000  0.49390000  1.0 -0.2759488019
N  N12  1  0.61040000  0.29060000  0.99390000  1.0 -0.2759488019
N  N13  1  0.88960000  0.29060000  0.49390000  1.0 -0.2759488019
N  N14  1  0.11040000  0.20940000  0.99390000  1.0 -0.2759488019
N  N15  1  0.61040000  0.79060000  0.50610000  1.0 -0.2759488019
N  N16  1  0.38960000  0.70940000  0.00610000  1.0 -0.2759488019
N  N17  1  0.06660000  0.73600000  0.36850000  1.0 -0.3787756356
N  N18  1  0.93340000  0.76400000  0.86850000  1.0 -0.3787756356
N  N19  1  0.43340000  0.23600000  0.63150000  1.0 -0.3787756356
N  N20  1  0.56660000  0.26400000  0.13150000  1.0 -0.3787756356
N  N21  1  0.93340000  0.26400000  0.63150000  1.0 -0.3787756356
N  N22  1  0.06660000  0.23600000  0.13150000  1.0 -0.3787756356
N  N23  1  0.56660000  0.76400000  0.36850000  1.0 -0.3787756356
N  N24  1  0.43340000  0.73600000  0.86850000  1.0 -0.3787756356
N  N25  1  0.06650000  0.65590000  0.37510000  1.0 -0.3493348825
N  N26  1  0.93350000  0.84410000  0.87510000  1.0 -0.3493348825
N  N27  1  0.43350000  0.15590000  0.62490000  1.0 -0.3493348825
N  N28  1  0.56650000  0.34410000  0.12490000  1.0 -0.3493348825
N  N29  1  0.93350000  0.34410000  0.62490000  1.0 -0.3493348825
N  N30  1  0.06650000  0.15590000  0.12490000  1.0 -0.3493348825
N  N31  1  0.56650000  0.84410000  0.37510000  1.0 -0.3493348825
N  N32  1  0.43350000  0.65590000  0.87510000  1.0 -0.3493348825
N  N33  1  0.04830000  0.69000000  0.31580000  1.0 -0.3787756356
N  N34  1  0.95170000  0.81000000  0.81580000  1.0 -0.3787756356
N  N35  1  0.45170000  0.19000000  0.68420000  1.0 -0.3787756356
N  N36  1  0.54830000  0.31000000  0.18420000  1.0 -0.3787756356
N  N37  1  0.95170000  0.31000000  0.68420000  1.0 -0.3787756356
N  N38  1  0.04830000  0.19000000  0.18420000  1.0 -0.3787756356
N  N39  1  0.54830000  0.81000000  0.31580000  1.0 -0.3787756356
N  N40  1  0.45170000  0.69000000  0.81580000  1.0 -0.3787756356
N  N41  1  0.31850000  0.30670000  0.13470000  1.0 -0.3632777537
N  N42  1  0.68150000  0.19330000  0.63470000  1.0 -0.3632777537
N  N43  1  0.18150000  0.80670000  0.86530000  1.0 -0.3632777537
N  N44  1  0.81850000  0.69330000  0.36530000  1.0 -0.3632777537
N  N45  1  0.68150000  0.69330000  0.86530000  1.0 -0.3632777537
N  N46  1  0.31850000  0.80670000  0.36530000  1.0 -0.3632777537
N  N47  1  0.81850000  0.19330000  0.13470000  1.0 -0.3632777537
N  N48  1  0.18150000  0.30670000  0.63470000  1.0 -0.3632777537
N  N49  1  0.30590000  0.25890000  0.18650000  1.0 -0.3787756356
N  N50  1  0.69410000  0.24110000  0.68650000  1.0 -0.3787756356
N  N51  1  0.19410000  0.75890000  0.81350000  1.0 -0.3787756356
N  N52  1  0.80590000  0.74110000  0.31350000  1.0 -0.3787756356
N  N53  1  0.69410000  0.74110000  0.81350000  1.0 -0.3787756356
N  N54  1  0.30590000  0.75890000  0.31350000  1.0 -0.3787756356
N  N55  1  0.80590000  0.24110000  0.18650000  1.0 -0.3787756356
N  N56  1  0.19410000  0.25890000  0.68650000  1.0 -0.3787756356
N  N57  1  0.31500000  0.22740000  0.12650000  1.0 -0.3632777537
N  N58  1  0.68500000  0.27260000  0.62650000  1.0 -0.3632777537
N  N59  1  0.18500000  0.72740000  0.87350000  1.0 -0.3632777537
N  N60  1  0.81500000  0.77260000  0.37350000  1.0 -0.3632777537
N  N61  1  0.68500000  0.77260000  0.87350000  1.0 -0.3632777537
N  N62  1  0.31500000  0.72740000  0.37350000  1.0 -0.3632777537
N  N63  1  0.81500000  0.27260000  0.12650000  1.0 -0.3632777537
N  N64  1  0.18500000  0.22740000  0.62650000  1.0 -0.3632777537
N  N65  1  0.31090000  0.09220000  0.21350000  1.0 -0.0309517532
N  N66  1  0.68910000  0.40780000  0.71350000  1.0 -0.0309517532
N  N67  1  0.18910000  0.59220000  0.78650000  1.0 -0.0309517532
N  N68  1  0.81090000  0.90780000  0.28650000  1.0 -0.0309517532
N  N69  1  0.68910000  0.90780000  0.78650000  1.0 -0.0309517532
N  N70  1  0.31090000  0.59220000  0.28650000  1.0 -0.0309517532
N  N71  1  0.81090000  0.40780000  0.21350000  1.0 -0.0309517532
N  N72  1  0.18910000  0.09220000  0.71350000  1.0 -0.0309517532
N  N73  1  0.04290000  0.84850000  0.26350000  1.0 -0.0770335159
N  N74  1  0.95710000  0.65150000  0.76350000  1.0 -0.0770335159
N  N75  1  0.45710000  0.34850000  0.73650000  1.0 -0.0770335159
N  N76  1  0.54290000  0.15150000  0.23650000  1.0 -0.0770335159
N  N77  1  0.95710000  0.15150000  0.73650000  1.0 -0.0770335159
N  N78  1  0.04290000  0.34850000  0.23650000  1.0 -0.0770335159
N  N79  1  0.54290000  0.65150000  0.26350000  1.0 -0.0770335159
N  N80  1  0.45710000  0.84850000  0.76350000  1.0 -0.0770335159
N  N81  1  0.26070000  0.41710000  0.23630000  1.0 -0.2239599562
N  N82  1  0.73930000  0.08290000  0.73630000  1.0 -0.2239599562
N  N83  1  0.23930000  0.91710000  0.76370000  1.0 -0.2239599562
N  N84  1  0.76070000  0.58290000  0.26370000  1.0 -0.2239599562
N  N85  1  0.73930000  0.58290000  0.76370000  1.0 -0.2239599562
N  N86  1  0.26070000  0.91710000  0.26370000  1.0 -0.2239599562
N  N87  1  0.76070000  0.08290000  0.23630000  1.0 -0.2239599562
N  N88  1  0.23930000  0.41710000  0.73630000  1.0 -0.2239599562
N  N89  1  0.33460000  0.28930000  0.99700000  1.0 -0.0179185005
N  N90  1  0.66540000  0.21070000  0.49700000  1.0 -0.0179185005
N  N91  1  0.16540000  0.78930000  0.00300000  1.0 -0.0179185005
N  N92  1  0.83460000  0.71070000  0.50300000  1.0 -0.0179185005
N  N93  1  0.66540000  0.71070000  0.00300000  1.0 -0.0179185005
N  N94  1  0.33460000  0.78930000  0.50300000  1.0 -0.0179185005
N  N95  1  0.83460000  0.21070000  0.99700000  1.0 -0.0179185005
N  N96  1  0.16540000  0.28930000  0.49700000  1.0 -0.0179185005
O  O1  1  0.56920000  0.49460000  0.40530000  1.0 -0.9338017944
O  O2  1  0.43080000  0.00540000  0.90530000  1.0 -0.9338017944
O  O3  1  0.93080000  0.99460000  0.59470000  1.0 -0.9358932841
O  O4  1  0.06920000  0.50540000  0.09470000  1.0 -0.9338017944
O  O5  1  0.43080000  0.50540000  0.59470000  1.0 -0.9358932841
O  O6  1  0.56920000  0.99460000  0.09470000  1.0 -0.9338017944
O  O7  1  0.06920000  0.00540000  0.40530000  1.0 -0.9338017944
O  O8  1  0.93080000  0.49460000  0.90530000  1.0 -0.9338017944
O  O9  1  0.54520000  0.41100000  0.41480000  1.0 -0.9477847013
O  O10  1  0.45480000  0.08900000  0.91480000  1.0 -0.9477847013
O  O11  1  0.95480000  0.91100000  0.58520000  1.0 -0.9477847013
O  O12  1  0.04520000  0.58900000  0.08520000  1.0 -0.9477847013
O  O13  1  0.45480000  0.58900000  0.58520000  1.0 -0.9477847013
O  O14  1  0.54520000  0.91100000  0.08520000  1.0 -0.9477847013
O  O15  1  0.04520000  0.08900000  0.41480000  1.0 -0.9477847013
O  O16  1  0.95480000  0.41100000  0.91480000  1.0 -0.9477847013
O  O17  1  0.51990000  0.46610000  0.46860000  1.0 -0.8328216169
O  O18  1  0.48010000  0.03390000  0.96860000  1.0 -0.8328216169
O  O19  1  0.98010000  0.96610000  0.53140000  1.0 -0.8328216169
O  O20  1  0.01990000  0.53390000  0.03140000  1.0 -0.8328216169
O  O21  1  0.48010000  0.53390000  0.53140000  1.0 -0.8328216169
O  O22  1  0.51990000  0.96610000  0.03140000  1.0 -0.8328216169
O  O23  1  0.01990000  0.03390000  0.46860000  1.0 -0.8328216169
O  O24  1  0.98010000  0.46610000  0.96860000  1.0 -0.8328216169
O  O25  1  0.39790000  0.46340000  0.41440000  1.0 -0.9358932841
O  O26  1  0.60210000  0.03660000  0.91440000  1.0 -0.9358932841
O  O27  1  0.10210000  0.96340000  0.58560000  1.0 -0.9358932841
O  O28  1  0.89790000  0.53660000  0.08560000  1.0 -0.9338017944
O  O29  1  0.60210000  0.53660000  0.58560000  1.0 -0.9358932841
O  O30  1  0.39790000  0.96340000  0.08560000  1.0 -0.9358932841
O  O31  1  0.89790000  0.03660000  0.41440000  1.0 -0.9338017944
O  O32  1  0.10210000  0.46340000  0.91440000  1.0 -0.9358932841
O  O33  1  0.72890000  0.50550000  0.45830000  1.0 -0.7787042799
O  O34  1  0.27110000  0.99450000  0.95830000  1.0 -0.7787042799
O  O35  1  0.77110000  0.00550000  0.54170000  1.0 -0.7787042799
O  O36  1  0.22890000  0.49450000  0.04170000  1.0 -0.7787042799
O  O37  1  0.27110000  0.49450000  0.54170000  1.0 -0.7787042799
O  O38  1  0.72890000  0.00550000  0.04170000  1.0 -0.7787042799
O  O39  1  0.22890000  0.99450000  0.45830000  1.0 -0.7787042799
O  O40  1  0.77110000  0.50550000  0.95830000  1.0 -0.7787042799
O  O41  1  0.68580000  0.56720000  0.40850000  1.0 -0.8705596605
O  O42  1  0.31420000  0.93280000  0.90850000  1.0 -0.8705596605
O  O43  1  0.81420000  0.06720000  0.59150000  1.0 -0.8705596605
O  O44  1  0.18580000  0.43280000  0.09150000  1.0 -0.8705596605
O  O45  1  0.31420000  0.43280000  0.59150000  1.0 -0.8705596605
O  O46  1  0.68580000  0.06720000  0.09150000  1.0 -0.8705596605
O  O47  1  0.18580000  0.93280000  0.40850000  1.0 -0.8705596605
O  O48  1  0.81420000  0.56720000  0.90850000  1.0 -0.8705596605
O  O49  1  0.70800000  0.50700000  0.35590000  1.0 -0.8705596605
O  O50  1  0.29200000  0.99300000  0.85590000  1.0 -0.8705596605
O  O51  1  0.79200000  0.00700000  0.64410000  1.0 -0.8705596605
O  O52  1  0.20800000  0.49300000  0.14410000  1.0 -0.8705596605
O  O53  1  0.29200000  0.49300000  0.64410000  1.0 -0.8705596605
O  O54  1  0.70800000  0.00700000  0.14410000  1.0 -0.8705596605
O  O55  1  0.20800000  0.99300000  0.35590000  1.0 -0.8705596605
O  O56  1  0.79200000  0.50700000  0.85590000  1.0 -0.8705596605
O  O57  1  0.53850000  0.63590000  0.40860000  1.0 -0.6240460071
O  O58  1  0.46150000  0.86410000  0.90860000  1.0 -0.6240460071
O  O59  1  0.96150000  0.13590000  0.59140000  1.0 -0.6240460071
O  O60  1  0.03850000  0.36410000  0.09140000  1.0 -0.6240460071
O  O61  1  0.46150000  0.36410000  0.59140000  1.0 -0.6240460071
O  O62  1  0.53850000  0.13590000  0.09140000  1.0 -0.6240460071
O  O63  1  0.03850000  0.86410000  0.40860000  1.0 -0.6240460071
O  O64  1  0.96150000  0.63590000  0.90860000  1.0 -0.6240460071
O  O65  1  0.87200000  0.52020000  0.40330000  1.0 -0.6018833238
O  O66  1  0.12800000  0.97980000  0.90330000  1.0 -0.6018833238
O  O67  1  0.62800000  0.02020000  0.59670000  1.0 -0.6018833238
O  O68  1  0.37200000  0.47980000  0.09670000  1.0 -0.6018833238
O  O69  1  0.12800000  0.47980000  0.59670000  1.0 -0.6018833238
O  O70  1  0.87200000  0.02020000  0.09670000  1.0 -0.6018833238
O  O71  1  0.37200000  0.97980000  0.40330000  1.0 -0.6018833238
O  O72  1  0.62800000  0.52020000  0.90330000  1.0 -0.6018833238
O  O73  1  0.75340000  0.44060000  0.40590000  1.0 -0.8979290121
O  O74  1  0.24660000  0.05940000  0.90590000  1.0 -0.8979290121
O  O75  1  0.74660000  0.94060000  0.59410000  1.0 -0.8979290121
O  O76  1  0.25340000  0.55940000  0.09410000  1.0 -0.8979290121
O  O77  1  0.24660000  0.55940000  0.59410000  1.0 -0.8979290121
O  O78  1  0.75340000  0.94060000  0.09410000  1.0 -0.8979290121
O  O79  1  0.25340000  0.05940000  0.40590000  1.0 -0.8979290121
O  O80  1  0.74660000  0.44060000  0.90590000  1.0 -0.8979290121
O  O81  1  0.40910000  0.56180000  0.40570000  1.0 -0.8603427412
O  O82  1  0.59090000  0.93820000  0.90570000  1.0 -0.8603427412
O  O83  1  0.09090000  0.06180000  0.59430000  1.0 -0.8603427412
O  O84  1  0.90910000  0.43820000  0.09430000  1.0 -0.8603427412
O  O85  1  0.59090000  0.43820000  0.59430000  1.0 -0.8603427412
O  O86  1  0.40910000  0.06180000  0.09430000  1.0 -0.8603427412
O  O87  1  0.90910000  0.93820000  0.40570000  1.0 -0.8603427412
O  O88  1  0.09090000  0.56180000  0.90570000  1.0 -0.8603427412
O  O89  1  0.69390000  0.40190000  0.46980000  1.0 -0.7616598334
O  O90  1  0.30610000  0.09810000  0.96980000  1.0 -0.7616598334
O  O91  1  0.80610000  0.90190000  0.53020000  1.0 -0.7616598334
O  O92  1  0.19390000  0.59810000  0.03020000  1.0 -0.7616598334
O  O93  1  0.30610000  0.59810000  0.53020000  1.0 -0.7616598334
O  O94  1  0.69390000  0.90190000  0.03020000  1.0 -0.7616598334
O  O95  1  0.19390000  0.09810000  0.46980000  1.0 -0.7616598334
O  O96  1  0.80610000  0.40190000  0.96980000  1.0 -0.7616598334
O  O97  1  0.82390000  0.35120000  0.42550000  1.0 -0.765495697
O  O98  1  0.17610000  0.14880000  0.92550000  1.0 -0.765495697
O  O99  1  0.67610000  0.85120000  0.57450000  1.0 -0.7616598334
O  O100  1  0.32390000  0.64880000  0.07450000  1.0 -0.765495697
O  O101  1  0.17610000  0.64880000  0.57450000  1.0 -0.7616598334
O  O102  1  0.82390000  0.85120000  0.07450000  1.0 -0.765495697
O  O103  1  0.32390000  0.14880000  0.42550000  1.0 -0.765495697
O  O104  1  0.67610000  0.35120000  0.92550000  1.0 -0.765495697
O  O105  1  0.67360000  0.37130000  0.36980000  1.0 -0.8705596605
O  O106  1  0.32640000  0.12870000  0.86980000  1.0 -0.8705596605
O  O107  1  0.82640000  0.87130000  0.63020000  1.0 -0.8705596605
O  O108  1  0.17360000  0.62870000  0.13020000  1.0 -0.8705596605
O  O109  1  0.32640000  0.62870000  0.63020000  1.0 -0.8705596605
O  O110  1  0.67360000  0.87130000  0.13020000  1.0 -0.8705596605
O  O111  1  0.17360000  0.12870000  0.36980000  1.0 -0.8705596605
O  O112  1  0.82640000  0.37130000  0.86980000  1.0 -0.8705596605
O  O113  1  0.46040000  0.43400000  0.53990000  1.0 -0.8979290121
O  O114  1  0.53960000  0.06600000  0.03990000  1.0 -0.8979290121
O  O115  1  0.03960000  0.93400000  0.46010000  1.0 -0.8979290121
O  O116  1  0.96040000  0.56600000  0.96010000  1.0 -0.8979290121
O  O117  1  0.53960000  0.56600000  0.46010000  1.0 -0.8979290121
O  O118  1  0.46040000  0.93400000  0.96010000  1.0 -0.8979290121
O  O119  1  0.96040000  0.06600000  0.53990000  1.0 -0.8979290121
O  O120  1  0.03960000  0.43400000  0.03990000  1.0 -0.8979290121
O  O121  1  0.31440000  0.42810000  0.48140000  1.0 -0.7787042799
O  O122  1  0.68560000  0.07190000  0.98140000  1.0 -0.7787042799
O  O123  1  0.18560000  0.92810000  0.51860000  1.0 -0.7787042799
O  O124  1  0.81440000  0.57190000  0.01860000  1.0 -0.7787042799
O  O125  1  0.68560000  0.57190000  0.51860000  1.0 -0.7787042799
O  O126  1  0.31440000  0.92810000  0.01860000  1.0 -0.7787042799
O  O127  1  0.81440000  0.07190000  0.48140000  1.0 -0.7787042799
O  O128  1  0.18560000  0.42810000  0.98140000  1.0 -0.7787042799
O  O129  1  0.49330000  0.36320000  0.47950000  1.0 -0.7787042799
O  O130  1  0.50670000  0.13680000  0.97950000  1.0 -0.7787042799
O  O131  1  0.00670000  0.86320000  0.52050000  1.0 -0.7787042799
O  O132  1  0.99330000  0.63680000  0.02050000  1.0 -0.7787042799
O  O133  1  0.50670000  0.63680000  0.52050000  1.0 -0.7787042799
O  O134  1  0.49330000  0.86320000  0.02050000  1.0 -0.7787042799
O  O135  1  0.99330000  0.13680000  0.47950000  1.0 -0.7787042799
O  O136  1  0.00670000  0.36320000  0.97950000  1.0 -0.7787042799
O  O137  1  0.15400000  0.38850000  0.44790000  1.0 -0.5602297577
O  O138  1  0.84600000  0.11150000  0.94790000  1.0 -0.5602297577
O  O139  1  0.34600000  0.88850000  0.55210000  1.0 -0.5602297577
O  O140  1  0.65400000  0.61150000  0.05210000  1.0 -0.5602297577
O  O141  1  0.84600000  0.61150000  0.55210000  1.0 -0.5602297577
O  O142  1  0.15400000  0.88850000  0.05210000  1.0 -0.5602297577
O  O143  1  0.65400000  0.11150000  0.44790000  1.0 -0.5602297577
O  O144  1  0.34600000  0.38850000  0.94790000  1.0 -0.5602297577
O  O145  1  0.21600000  0.47880000  0.43560000  1.0 -0.8482728059
O  O146  1  0.78400000  0.02120000  0.93560000  1.0 -0.8482728059
O  O147  1  0.28400000  0.97880000  0.56440000  1.0 -0.8482728059
O  O148  1  0.71600000  0.52120000  0.06440000  1.0 -0.8482728059
O  O149  1  0.78400000  0.52120000  0.56440000  1.0 -0.8482728059
O  O150  1  0.21600000  0.97880000  0.06440000  1.0 -0.8482728059
O  O151  1  0.71600000  0.02120000  0.43560000  1.0 -0.8482728059
O  O152  1  0.28400000  0.47880000  0.93560000  1.0 -0.8482728059
O  O153  1  0.24980000  0.42070000  0.38190000  1.0 -0.8705596605
O  O154  1  0.75020000  0.07930000  0.88190000  1.0 -0.8603427412
O  O155  1  0.25020000  0.92070000  0.61810000  1.0 -0.8603427412
O  O156  1  0.74980000  0.57930000  0.11810000  1.0 -0.8705596605
O  O157  1  0.75020000  0.57930000  0.61810000  1.0 -0.8705596605
O  O158  1  0.24980000  0.92070000  0.11810000  1.0 -0.8705596605
O  O159  1  0.74980000  0.07930000  0.38190000  1.0 -0.8705596605
O  O160  1  0.25020000  0.42070000  0.88190000  1.0 -0.8603427412
O  O161  1  0.35230000  0.36720000  0.42650000  1.0 -0.8834866229
O  O162  1  0.64770000  0.13280000  0.92650000  1.0 -0.8834866229
O  O163  1  0.14770000  0.86720000  0.57350000  1.0 -0.8834866229
O  O164  1  0.85230000  0.63280000  0.07350000  1.0 -0.8834866229
O  O165  1  0.64770000  0.63280000  0.57350000  1.0 -0.8834866229
O  O166  1  0.35230000  0.86720000  0.07350000  1.0 -0.8834866229
O  O167  1  0.85230000  0.13280000  0.42650000  1.0 -0.8834866229
O  O168  1  0.14770000  0.36720000  0.92650000  1.0 -0.8834866229
O  O169  1  0.20990000  0.57340000  0.42740000  1.0 -0.6018833238
O  O170  1  0.79010000  0.92660000  0.92740000  1.0 -0.6018833238
O  O171  1  0.29010000  0.07340000  0.57260000  1.0 -0.6018833238
O  O172  1  0.70990000  0.42660000  0.07260000  1.0 -0.6018833238
O  O173  1  0.79010000  0.42660000  0.57260000  1.0 -0.6018833238
O  O174  1  0.20990000  0.07340000  0.07260000  1.0 -0.6018833238
O  O175  1  0.70990000  0.92660000  0.42740000  1.0 -0.6018833238
O  O176  1  0.29010000  0.57340000  0.92740000  1.0 -0.6018833238
O  O177  1  0.34990000  0.53010000  0.47080000  1.0 -0.8705596605
O  O178  1  0.65010000  0.96990000  0.97080000  1.0 -0.8705596605
O  O179  1  0.15010000  0.03010000  0.52920000  1.0 -0.8705596605
O  O180  1  0.84990000  0.46990000  0.02920000  1.0 -0.8705596605
O  O181  1  0.65010000  0.46990000  0.52920000  1.0 -0.8705596605
O  O182  1  0.34990000  0.03010000  0.02920000  1.0 -0.8705596605
O  O183  1  0.84990000  0.96990000  0.47080000  1.0 -0.8705596605
O  O184  1  0.15010000  0.53010000  0.97080000  1.0 -0.8705596605
O  O185  1  0.27560000  0.50970000  0.37300000  1.0 -0.8603427412
O  O186  1  0.72440000  0.99030000  0.87300000  1.0 -0.8603427412
O  O187  1  0.22440000  0.00970000  0.62700000  1.0 -0.8603427412
O  O188  1  0.77560000  0.49030000  0.12700000  1.0 -0.8603427412
O  O189  1  0.72440000  0.49030000  0.62700000  1.0 -0.8603427412
O  O190  1  0.27560000  0.00970000  0.12700000  1.0 -0.8603427412
O  O191  1  0.77560000  0.99030000  0.37300000  1.0 -0.8603427412
O  O192  1  0.22440000  0.50970000  0.87300000  1.0 -0.8603427412
O  O193  1  0.41630000  0.40710000  0.34500000  1.0 -0.8979290121
O  O194  1  0.58370000  0.09290000  0.84500000  1.0 -0.8979290121
O  O195  1  0.08370000  0.90710000  0.65500000  1.0 -0.8979290121
O  O196  1  0.91630000  0.59290000  0.15500000  1.0 -0.8979290121
O  O197  1  0.58370000  0.59290000  0.65500000  1.0 -0.8979290121
O  O198  1  0.41630000  0.90710000  0.15500000  1.0 -0.8979290121
O  O199  1  0.91630000  0.09290000  0.34500000  1.0 -0.8979290121
O  O200  1  0.08370000  0.40710000  0.84500000  1.0 -0.8979290121
O  O201  1  0.59240000  0.44050000  0.33510000  1.0 -0.8855742085
O  O202  1  0.40760000  0.05950000  0.83510000  1.0 -0.8855742085
O  O203  1  0.90760000  0.94050000  0.66490000  1.0 -0.8855742085
O  O204  1  0.09240000  0.55950000  0.16490000  1.0 -0.8855742085
O  O205  1  0.40760000  0.55950000  0.66490000  1.0 -0.8855742085
O  O206  1  0.59240000  0.94050000  0.16490000  1.0 -0.8855742085
O  O207  1  0.09240000  0.05950000  0.33510000  1.0 -0.8855742085
O  O208  1  0.90760000  0.44050000  0.83510000  1.0 -0.8855742085
O  O209  1  0.49150000  0.33640000  0.37920000  1.0 -0.8603427412
O  O210  1  0.50850000  0.16360000  0.87920000  1.0 -0.8603427412
O  O211  1  0.00850000  0.83640000  0.62080000  1.0 -0.8603427412
O  O212  1  0.99150000  0.66360000  0.12080000  1.0 -0.8603427412
O  O213  1  0.50850000  0.66360000  0.62080000  1.0 -0.8603427412
O  O214  1  0.49150000  0.83640000  0.12080000  1.0 -0.8603427412
O  O215  1  0.99150000  0.16360000  0.37920000  1.0 -0.8603427412
O  O216  1  0.00850000  0.33640000  0.87920000  1.0 -0.8603427412
O  O217  1  0.25500000  0.45580000  0.31050000  1.0 -0.7385786641
O  O218  1  0.74500000  0.04420000  0.81050000  1.0 -0.7385786641
O  O219  1  0.24500000  0.95580000  0.68950000  1.0 -0.7385786641
O  O220  1  0.75500000  0.54420000  0.18950000  1.0 -0.7385786641
O  O221  1  0.74500000  0.54420000  0.68950000  1.0 -0.7385786641
O  O222  1  0.25500000  0.95580000  0.18950000  1.0 -0.7385786641
O  O223  1  0.75500000  0.04420000  0.31050000  1.0 -0.7385786641
O  O224  1  0.24500000  0.45580000  0.81050000  1.0 -0.7385786641
O  O225  1  0.60110000  0.51930000  0.28980000  1.0 -0.7331011537
O  O226  1  0.39890000  0.98070000  0.78980000  1.0 -0.7331011537
O  O227  1  0.89890000  0.01930000  0.71020000  1.0 -0.7331011537
O  O228  1  0.10110000  0.48070000  0.21020000  1.0 -0.7331011537
O  O229  1  0.39890000  0.48070000  0.71020000  1.0 -0.7331011537
O  O230  1  0.60110000  0.01930000  0.21020000  1.0 -0.7331011537
O  O231  1  0.10110000  0.98070000  0.28980000  1.0 -0.7331011537
O  O232  1  0.89890000  0.51930000  0.78980000  1.0 -0.7331011537
O  O233  1  0.55870000  0.35240000  0.30720000  1.0 -0.6826608199
O  O234  1  0.44130000  0.14760000  0.80720000  1.0 -0.6826608199
O  O235  1  0.94130000  0.85240000  0.69280000  1.0 -0.6826608199
O  O236  1  0.05870000  0.64760000  0.19280000  1.0 -0.6826608199
O  O237  1  0.44130000  0.64760000  0.69280000  1.0 -0.6826608199
O  O238  1  0.55870000  0.85240000  0.19280000  1.0 -0.6826608199
O  O239  1  0.05870000  0.14760000  0.30720000  1.0 -0.6826608199
O  O240  1  0.94130000  0.35240000  0.80720000  1.0 -0.6826608199
O  O241  1  0.55180000  0.56280000  0.35750000  1.0 -0.8482728059
O  O242  1  0.44820000  0.93720000  0.85750000  1.0 -0.8482728059
O  O243  1  0.94820000  0.06280000  0.64250000  1.0 -0.8482728059
O  O244  1  0.05180000  0.43720000  0.14250000  1.0 -0.8482728059
O  O245  1  0.44820000  0.43720000  0.64250000  1.0 -0.8482728059
O  O246  1  0.55180000  0.06280000  0.14250000  1.0 -0.8482728059
O  O247  1  0.05180000  0.93720000  0.35750000  1.0 -0.8482728059
O  O248  1  0.94820000  0.56280000  0.85750000  1.0 -0.8482728059
O  O249  1  0.62390000  0.33170000  0.43130000  1.0 -0.8603427412
O  O250  1  0.37610000  0.16830000  0.93130000  1.0 -0.8603427412
O  O251  1  0.87610000  0.83170000  0.56870000  1.0 -0.8603427412
O  O252  1  0.12390000  0.66830000  0.06870000  1.0 -0.8603427412
O  O253  1  0.37610000  0.66830000  0.56870000  1.0 -0.8603427412
O  O254  1  0.62390000  0.83170000  0.06870000  1.0 -0.8603427412
O  O255  1  0.12390000  0.16830000  0.43130000  1.0 -0.8603427412
O  O256  1  0.87610000  0.33170000  0.93130000  1.0 -0.8603427412
O  O257  1  0.44100000  0.49590000  0.33710000  1.0 -0.8603427412
O  O258  1  0.55900000  0.00410000  0.83710000  1.0 -0.8603427412
O  O259  1  0.05900000  0.99590000  0.66290000  1.0 -0.8603427412
O  O260  1  0.94100000  0.50410000  0.16290000  1.0 -0.8603427412
O  O261  1  0.55900000  0.50410000  0.66290000  1.0 -0.8603427412
O  O262  1  0.44100000  0.99590000  0.16290000  1.0 -0.8603427412
O  O263  1  0.94100000  0.00410000  0.33710000  1.0 -0.8603427412
O  O264  1  0.05900000  0.49590000  0.83710000  1.0 -0.8603427412
O  O265  1  0.44510000  0.28230000  0.44210000  1.0 -0.7616598334
O  O266  1  0.55490000  0.21770000  0.94210000  1.0 -0.7616598334
O  O267  1  0.05490000  0.78230000  0.55790000  1.0 -0.7616598334
O  O268  1  0.94510000  0.71770000  0.05790000  1.0 -0.7616598334
O  O269  1  0.55490000  0.71770000  0.55790000  1.0 -0.7616598334
O  O270  1  0.44510000  0.78230000  0.05790000  1.0 -0.7616598334
O  O271  1  0.94510000  0.21770000  0.44210000  1.0 -0.7616598334
O  O272  1  0.05490000  0.28230000  0.94210000  1.0 -0.7616598334
O  O273  1  0.28770000  0.51600000  0.24620000  1.0 -0.4369544628
O  O274  1  0.71230000  0.98400000  0.74620000  1.0 -0.4369544628
O  O275  1  0.21230000  0.01600000  0.75380000  1.0 -0.4369544628
O  O276  1  0.78770000  0.48400000  0.25380000  1.0 -0.4342639837
O  O277  1  0.71230000  0.48400000  0.75380000  1.0 -0.4369544628
O  O278  1  0.28770000  0.01600000  0.25380000  1.0 -0.4342639837
O  O279  1  0.78770000  0.98400000  0.24620000  1.0 -0.4369544628
O  O280  1  0.21230000  0.51600000  0.74620000  1.0 -0.4369544628
O  O281  1  0.24980000  0.74430000  0.56940000  1.0 -0.4082392467
O  O282  1  0.75020000  0.75570000  0.06940000  1.0 -0.4082392467
O  O283  1  0.25020000  0.24430000  0.43060000  1.0 -0.4082392467
O  O284  1  0.74980000  0.25570000  0.93060000  1.0 -0.4082392467
O  O285  1  0.75020000  0.25570000  0.43060000  1.0 -0.4082392467
O  O286  1  0.24980000  0.24430000  0.93060000  1.0 -0.4082392467
O  O287  1  0.74980000  0.75570000  0.56940000  1.0 -0.4082392467
O  O288  1  0.25020000  0.74430000  0.06940000  1.0 -0.4082392467
O  O289  1  0.09540000  0.72180000  0.62260000  1.0 -0.4029600315
O  O290  1  0.90460000  0.77820000  0.12260000  1.0 -0.4029600315
O  O291  1  0.40460000  0.22180000  0.37740000  1.0 -0.4029600315
O  O292  1  0.59540000  0.27820000  0.87740000  1.0 -0.4029600315
O  O293  1  0.90460000  0.27820000  0.37740000  1.0 -0.4029600315
O  O294  1  0.09540000  0.22180000  0.87740000  1.0 -0.4029600315
O  O295  1  0.59540000  0.77820000  0.62260000  1.0 -0.4029600315
O  O296  1  0.40460000  0.72180000  0.12260000  1.0 -0.4029600315
O  O297  1  0.96730000  0.68820000  0.56580000  1.0 -0.3869320284
O  O298  1  0.03270000  0.81180000  0.06580000  1.0 -0.3869320284
O  O299  1  0.53270000  0.18820000  0.43420000  1.0 -0.3869320284
O  O300  1  0.46730000  0.31180000  0.93420000  1.0 -0.3869320284
O  O301  1  0.03270000  0.31180000  0.43420000  1.0 -0.3869320284
O  O302  1  0.96730000  0.18820000  0.93420000  1.0 -0.3869320284
O  O303  1  0.46730000  0.81180000  0.56580000  1.0 -0.3869320284
O  O304  1  0.53270000  0.68820000  0.06580000  1.0 -0.3869320284
O  O305  1  0.63940000  0.36400000  0.54110000  1.0 -0.3106466512
O  O306  1  0.36060000  0.13600000  0.04110000  1.0 -0.3106466512
O  O307  1  0.86060000  0.86400000  0.45890000  1.0 -0.3106466512
O  O308  1  0.13940000  0.63600000  0.95890000  1.0 -0.3106466512
O  O309  1  0.36060000  0.63600000  0.45890000  1.0 -0.3106466512
O  O310  1  0.63940000  0.86400000  0.95890000  1.0 -0.3106466512
O  O311  1  0.13940000  0.13600000  0.54110000  1.0 -0.3106466512
O  O312  1  0.86060000  0.36400000  0.04110000  1.0 -0.3106466512
O  O313  1  0.06460000  0.42470000  0.27810000  1.0 -0.4962779748
O  O314  1  0.93540000  0.07530000  0.77810000  1.0 -0.4962779748
O  O315  1  0.43540000  0.92470000  0.72190000  1.0 -0.4962779748
O  O316  1  0.56460000  0.57530000  0.22190000  1.0 -0.4962779748
O  O317  1  0.93540000  0.57530000  0.72190000  1.0 -0.4962779748
O  O318  1  0.06460000  0.92470000  0.22190000  1.0 -0.4962779748
O  O319  1  0.56460000  0.07530000  0.27810000  1.0 -0.4962779748
O  O320  1  0.43540000  0.42470000  0.77810000  1.0 -0.4962779748
O  O321  1  0.97800000  0.51060000  0.55590000  1.0 -0.3106466512
O  O322  1  0.02200000  0.98940000  0.05590000  1.0 -0.3106466512
O  O323  1  0.52200000  0.01060000  0.44410000  1.0 -0.3106466512
O  O324  1  0.47800000  0.48940000  0.94410000  1.0 -0.3106466512
O  O325  1  0.02200000  0.48940000  0.44410000  1.0 -0.3106466512
O  O326  1  0.97800000  0.01060000  0.94410000  1.0 -0.3106466512
O  O327  1  0.47800000  0.98940000  0.55590000  1.0 -0.3106466512
O  O328  1  0.52200000  0.51060000  0.05590000  1.0 -0.3106466512
O  O329  1  0.87690000  0.45310000  0.49810000  1.0 -0.2632060442
O  O330  1  0.12310000  0.04690000  0.99810000  1.0 -0.2671121824
O  O331  1  0.62310000  0.95310000  0.50190000  1.0 -0.2632060442
O  O332  1  0.37690000  0.54690000  0.00190000  1.0 -0.2671121824
O  O333  1  0.12310000  0.54690000  0.50190000  1.0 -0.2632060442
O  O334  1  0.87690000  0.95310000  0.00190000  1.0 -0.2671121824
O  O335  1  0.37690000  0.04690000  0.49810000  1.0 -0.2632060442
O  O336  1  0.62310000  0.45310000  0.99810000  1.0 -0.2671121824
O  O337  1  0.09460000  0.44500000  0.51240000  1.0 -0.4082392467
O  O338  1  0.90540000  0.05500000  0.01240000  1.0 -0.4082392467
O  O339  1  0.40540000  0.94500000  0.48760000  1.0 -0.4082392467
O  O340  1  0.59460000  0.55500000  0.98760000  1.0 -0.4082392467
O  O341  1  0.90540000  0.55500000  0.48760000  1.0 -0.4082392467
O  O342  1  0.09460000  0.94500000  0.98760000  1.0 -0.4082392467
O  O343  1  0.59460000  0.05500000  0.51240000  1.0 -0.4029600315
O  O344  1  0.40540000  0.44500000  0.01240000  1.0 -0.4082392467
