# DDEC6 charges by PACMAN v1.1 (https://github.com/mtap-research/PACMAN-charge/)
data_DUPPAI_FSR_pacman
_symmetry_space_group_name_H-M   'P 1'
_cell_length_a   9.79600000
_cell_length_b   10.43000000
_cell_length_c   11.32300000
_cell_angle_alpha   100.16000000
_cell_angle_beta   91.66000000
_cell_angle_gamma   95.13000000
_symmetry_Int_Tables_number   1
_chemical_formula_structural   Co3P4H46C36(N2O5)4
_chemical_formula_sum   'Co3 P4 H46 C36 N8 O20'
_cell_volume   1133.01229393
_cell_formula_units_Z   1
loop_
 _symmetry_equiv_pos_site_id
 _symmetry_equiv_pos_as_xyz
  1  'x, y, z'
loop_
 _atom_site_type_symbol
 _atom_site_label
 _atom_site_symmetry_multiplicity
 _atom_site_fract_x
 _atom_site_fract_y
 _atom_site_fract_z
 _atom_site_occupancy
 _atom_site_charge
Co  Co1  1  0.58468000  0.11918000  0.68911000  1.0 0.7889115681
Co  Co2  1  0.41532000  0.88082000  0.31089000  1.0 0.7889115681
Co  Co3  1  0.50000000  0.50000000  0.50000000  1.0 1.14396845
P  P1  1  0.74232000  0.34392000  0.59474000  1.0 1.1850617995
P  P2  1  0.50341000  0.18212000  0.43983000  1.0 1.203451859
P  P3  1  0.25768000  0.65608000  0.40526000  1.0 1.184141623
P  P4  1  0.49659000  0.81788000  0.56017000  1.0 1.203451859
H  H1  1  0.67340000  0.02100000  0.48680000  1.0 0.3278844227
H  H2  1  0.19990000  0.38560000  0.44210000  1.0 0.2995117923
H  H3  1  0.66830000  0.04670000  0.23470000  1.0 0.1294166391
H  H4  1  0.83380000  0.03630000  0.23970000  1.0 0.0811465775
H  H5  1  0.87650000  0.22220000  0.14350000  1.0 0.0697715451
H  H6  1  0.71600000  0.19180000  0.09550000  1.0 0.0811465775
H  H7  1  0.64060000  0.31750000  0.27170000  1.0 0.1294166391
H  H8  1  0.79740000  0.38770000  0.28840000  1.0 0.1011299976
H  H9  1  0.97580000  0.42280000  0.38760000  1.0 0.1108421275
H  H10  1  0.21290000  0.15540000  0.46980000  1.0 0.1294166391
H  H11  1  0.97710000  0.04570000  0.41740000  1.0 0.1194849965
H  H12  1  0.87690000  0.22250000  0.78740000  1.0 0.1108421275
H  H13  1  0.05170000  0.17030000  0.90550000  1.0 0.1011299976
H  H14  1  0.79400000  0.87680000  0.98490000  1.0 0.092924392
H  H15  1  0.62520000  0.93930000  0.86690000  1.0 0.1011299976
H  H16  1  0.35940000  0.40510000  0.67260000  1.0 0.3212792744
H  H17  1  0.49740000  0.40150000  0.68540000  1.0 0.3366412689
H  H18  1  0.47230000  0.24230000  0.87580000  1.0 0.2995117923
H  H19  1  0.37210000  0.21270000  0.78690000  1.0 0.2624795159
H  H20  1  0.86900000  0.26950000  0.84870000  1.0 0.092924392
H  H21  1  0.02430000  0.21670000  0.99150000  1.0 0.092924392
H  H22  1  0.87850000  0.83070000  0.88340000  1.0 0.1011299976
H  H23  1  0.72050000  0.89970000  0.75240000  1.0 0.1194849965
H  H24  1  0.32660000  0.97900000  0.51320000  1.0 0.3278844227
H  H25  1  0.80010000  0.61440000  0.55790000  1.0 0.2995117923
H  H26  1  0.33170000  0.95330000  0.76530000  1.0 0.1294166391
H  H27  1  0.16620000  0.96370000  0.76030000  1.0 0.0811465775
H  H28  1  0.12350000  0.77780000  0.85650000  1.0 0.0697715451
H  H29  1  0.28400000  0.80820000  0.90450000  1.0 0.0811465775
H  H30  1  0.35940000  0.68250000  0.72830000  1.0 0.1294166391
H  H31  1  0.20260000  0.61230000  0.71160000  1.0 0.1011299976
H  H32  1  0.02420000  0.57720000  0.61240000  1.0 0.1108421275
H  H33  1  0.78710000  0.84460000  0.53020000  1.0 0.1294166391
H  H34  1  0.02290000  0.95430000  0.58260000  1.0 0.1194849965
H  H35  1  0.12310000  0.77750000  0.21260000  1.0 0.1108421275
H  H36  1  0.94830000  0.82970000  0.09450000  1.0 0.1011299976
H  H37  1  0.20600000  0.12320000  0.01510000  1.0 0.092924392
H  H38  1  0.37480000  0.06070000  0.13310000  1.0 0.1011299976
H  H39  1  0.64060000  0.59490000  0.32740000  1.0 0.3212792744
H  H40  1  0.50260000  0.59850000  0.31460000  1.0 0.3366412689
H  H41  1  0.52770000  0.75770000  0.12420000  1.0 0.2995117923
H  H42  1  0.62790000  0.78730000  0.21310000  1.0 0.2624795159
H  H43  1  0.13100000  0.73050000  0.15130000  1.0 0.092924392
H  H44  1  0.97570000  0.78330000  0.00850000  1.0 0.092924392
H  H45  1  0.12150000  0.16930000  0.11660000  1.0 0.1011299976
H  H46  1  0.27950000  0.10030000  0.24760000  1.0 0.1194849965
C  C1  1  0.69493000  0.20121000  0.47103000  1.0 -0.2807389627
C  C2  1  0.77730000  0.20773000  0.35745000  1.0 0.2304532175
C  C3  1  0.76030000  0.09610000  0.24547000  1.0 -0.3343598078
C  C4  1  0.78070000  0.20490000  0.16640000  1.0 -0.1834313105
C  C5  1  0.73920000  0.30340000  0.27376000  1.0 -0.2609973679
C  C6  1  0.00540000  0.34206000  0.40120000  1.0 0.1486083885
C  C7  1  0.13530000  0.19490000  0.44620000  1.0 -0.1117596383
C  C8  1  0.00650000  0.13510000  0.41790000  1.0 -0.1505717913
C  C9  1  0.85960000  0.15140000  0.82860000  1.0 0.0500673951
C  C10  1  0.96470000  0.12070000  0.89920000  1.0 -0.0630163009
C  C11  1  0.94330000  0.01680000  0.96140000  1.0 0.0198149552
C  C12  1  0.81390000  0.94940000  0.94590000  1.0 -0.0489759866
C  C13  1  0.71340000  0.98670000  0.87430000  1.0 0.0198149552
C  C14  1  0.86900000  0.18200000  0.86100000  1.0 -0.0489759866
C  C15  1  0.96200000  0.15190000  0.94400000  1.0 -0.0348017755
C  C16  1  0.95700000  0.01960000  0.95210000  1.0 0.0052790382
C  C17  1  0.87400000  0.92060000  0.88010000  1.0 -0.0986822153
C  C18  1  0.78200000  0.96260000  0.80300000  1.0 0.0500673951
C  C19  1  0.30507000  0.79879000  0.52897000  1.0 -0.2807389627
C  C20  1  0.22270000  0.79227000  0.64255000  1.0 0.2304532175
C  C21  1  0.23970000  0.90390000  0.75453000  1.0 -0.3343598078
C  C22  1  0.21930000  0.79510000  0.83360000  1.0 -0.1834313105
C  C23  1  0.26080000  0.69660000  0.72624000  1.0 -0.2609973679
C  C24  1  0.99460000  0.65794000  0.59880000  1.0 0.1486083885
C  C25  1  0.86470000  0.80510000  0.55380000  1.0 -0.1117596383
C  C26  1  0.99350000  0.86490000  0.58210000  1.0 -0.1505717913
C  C27  1  0.14040000  0.84860000  0.17140000  1.0 0.0500673951
C  C28  1  0.03530000  0.87930000  0.10080000  1.0 -0.0630163009
C  C29  1  0.05670000  0.98320000  0.03860000  1.0 0.0198149552
C  C30  1  0.18610000  0.05060000  0.05410000  1.0 -0.0489759866
C  C31  1  0.28660000  0.01330000  0.12570000  1.0 0.0198149552
C  C32  1  0.13100000  0.81800000  0.13900000  1.0 -0.0489759866
C  C33  1  0.03800000  0.84810000  0.05600000  1.0 -0.0348017755
C  C34  1  0.04300000  0.98040000  0.04790000  1.0 0.0052790382
C  C35  1  0.12600000  0.07940000  0.11990000  1.0 -0.0986822153
C  C36  1  0.21800000  0.03740000  0.19700000  1.0 0.0500673951
N  N1  1  0.92630000  0.22939000  0.39004000  1.0 -0.0489759866
N  N2  1  0.13158000  0.32340000  0.43426000  1.0 -0.1604076306
N  N3  1  0.73460000  0.08621000  0.81520000  1.0 -0.1505717913
N  N4  1  0.77900000  0.08920000  0.79800000  1.0 0.0198149552
N  N5  1  0.07370000  0.77061000  0.60996000  1.0 -0.0489759866
N  N6  1  0.86842000  0.67660000  0.56574000  1.0 -0.1604076306
N  N7  1  0.26540000  0.91379000  0.18480000  1.0 -0.1505717913
N  N8  1  0.22100000  0.91080000  0.20200000  1.0 0.0198149552
O  O1  1  0.89314000  0.36132000  0.63138000  1.0 -0.7220576386
O  O2  1  0.69656000  0.46138000  0.54536000  1.0 -0.7664705644
O  O3  1  0.65390000  0.31037000  0.69689000  1.0 -0.776280118
O  O4  1  0.47478000  0.07352000  0.33179000  1.0 -0.7220576386
O  O5  1  0.45472000  0.30918000  0.41472000  1.0 -0.7544236312
O  O6  1  0.44516000  0.14090000  0.55399000  1.0 -0.7619705926
O  O7  1  0.72302000  0.08709000  0.52260000  1.0 -0.4771083723
O  O8  1  0.43579000  0.44713000  0.66832000  1.0 -0.6637117396
O  O9  1  0.43660000  0.18290000  0.82082000  1.0 -0.1236852835
O  O10  1  0.47790000  0.16010000  0.84670000  1.0 -0.1604076306
O  O11  1  0.10686000  0.63868000  0.36862000  1.0 -0.7220576386
O  O12  1  0.30344000  0.53862000  0.45464000  1.0 -0.7664705644
O  O13  1  0.34610000  0.68963000  0.30311000  1.0 -0.776280118
O  O14  1  0.52522000  0.92648000  0.66821000  1.0 -0.7220576386
O  O15  1  0.54528000  0.69082000  0.58528000  1.0 -0.7544236312
O  O16  1  0.55484000  0.85910000  0.44601000  1.0 -0.7619705926
O  O17  1  0.27698000  0.91291000  0.47740000  1.0 -0.4771083723
O  O18  1  0.56421000  0.55287000  0.33168000  1.0 -0.6637117396
O  O19  1  0.56340000  0.81710000  0.17918000  1.0 -0.1236852835
O  O20  1  0.52210000  0.83990000  0.15330000  1.0 -0.1604076306
