# DDEC6 charges by PACMAN v1.1 (https://github.com/mtap-research/PACMAN-charge/)
data_DUQRUD_FSR_pacman
_symmetry_space_group_name_H-M   'P 1'
_cell_length_a   17.56090000
_cell_length_b   17.56090000
_cell_length_c   20.51900000
_cell_angle_alpha   84.30050000
_cell_angle_beta   95.69950000
_cell_angle_gamma   71.58890000
_symmetry_Int_Tables_number   1
_chemical_formula_structural   CdH20C28(N2O)3
_chemical_formula_sum   'Cd8 H160 C224 N48 O24'
_cell_volume   5916.68647504
_cell_formula_units_Z   8
loop_
 _symmetry_equiv_pos_site_id
 _symmetry_equiv_pos_as_xyz
  1  'x, y, z'
loop_
 _atom_site_type_symbol
 _atom_site_label
 _atom_site_symmetry_multiplicity
 _atom_site_fract_x
 _atom_site_fract_y
 _atom_site_fract_z
 _atom_site_occupancy
 _atom_site_charge
Cd  Cd1  1  0.42027000  0.81593000  0.58716000  1.0 0.7862515157
Cd  Cd2  1  0.81593000  0.42027000  0.91284000  1.0 0.7862515157
Cd  Cd3  1  0.57973000  0.18407000  0.41284000  1.0 0.7862515157
Cd  Cd4  1  0.18407000  0.57973000  0.08716000  1.0 0.7862515157
Cd  Cd5  1  0.26578000  0.89882000  0.34390000  1.0 0.7792973226
Cd  Cd6  1  0.89882000  0.26578000  0.15610000  1.0 0.7792973226
Cd  Cd7  1  0.73422000  0.10118000  0.65610000  1.0 0.7792973226
Cd  Cd8  1  0.10118000  0.73422000  0.84390000  1.0 0.7792973226
H  H1  1  0.28980000  0.99100000  0.60580000  1.0 0.1026950102
H  H2  1  0.99100000  0.28980000  0.89420000  1.0 0.1026950102
H  H3  1  0.71020000  0.00900000  0.39420000  1.0 0.1026950102
H  H4  1  0.00900000  0.71020000  0.10580000  1.0 0.1026950102
H  H5  1  0.28240000  0.11080000  0.64560000  1.0 0.1191669386
H  H6  1  0.11080000  0.28240000  0.85440000  1.0 0.1191669386
H  H7  1  0.71760000  0.88920000  0.35440000  1.0 0.1191669386
H  H8  1  0.88920000  0.71760000  0.14560000  1.0 0.1191669386
H  H9  1  0.40300000  0.12720000  0.69300000  1.0 0.1100454949
H  H10  1  0.12720000  0.40300000  0.80700000  1.0 0.1100454949
H  H11  1  0.59700000  0.87280000  0.30700000  1.0 0.1100454949
H  H12  1  0.87280000  0.59700000  0.19300000  1.0 0.1100454949
H  H13  1  0.52150000  0.02210000  0.70540000  1.0 0.1393404087
H  H14  1  0.02210000  0.52150000  0.79460000  1.0 0.1393404087
H  H15  1  0.47850000  0.97790000  0.29460000  1.0 0.1393404087
H  H16  1  0.97790000  0.47850000  0.20540000  1.0 0.1393404087
H  H17  1  0.65040000  0.90060000  0.70880000  1.0 0.1487406001
H  H18  1  0.90060000  0.65040000  0.79120000  1.0 0.1487406001
H  H19  1  0.34960000  0.09940000  0.29120000  1.0 0.1487406001
H  H20  1  0.09940000  0.34960000  0.20880000  1.0 0.1487406001
H  H21  1  0.73040000  0.76360000  0.68530000  1.0 0.1100454949
H  H22  1  0.76360000  0.73040000  0.81470000  1.0 0.1100454949
H  H23  1  0.26960000  0.23640000  0.31470000  1.0 0.1100454949
H  H24  1  0.23640000  0.26960000  0.18530000  1.0 0.1100454949
H  H25  1  0.63190000  0.71350000  0.63150000  1.0 0.2730710661
H  H26  1  0.71350000  0.63190000  0.86850000  1.0 0.2730710661
H  H27  1  0.36810000  0.28650000  0.36850000  1.0 0.2730710661
H  H28  1  0.28650000  0.36810000  0.13150000  1.0 0.2730710661
H  H29  1  0.51960000  0.70560000  0.73240000  1.0 0.1100454949
H  H30  1  0.70560000  0.51960000  0.76760000  1.0 0.1100454949
H  H31  1  0.48040000  0.29440000  0.26760000  1.0 0.1100454949
H  H32  1  0.29440000  0.48040000  0.23240000  1.0 0.1100454949
H  H33  1  0.51010000  0.61630000  0.81730000  1.0 0.1393404087
H  H34  1  0.61630000  0.51010000  0.68270000  1.0 0.1393404087
H  H35  1  0.48990000  0.38370000  0.18270000  1.0 0.1393404087
H  H36  1  0.38370000  0.48990000  0.31730000  1.0 0.1393404087
H  H37  1  0.38660000  0.59900000  0.82520000  1.0 0.1100454949
H  H38  1  0.59900000  0.38660000  0.67480000  1.0 0.1100454949
H  H39  1  0.61340000  0.40100000  0.17480000  1.0 0.1100454949
H  H40  1  0.40100000  0.61340000  0.32520000  1.0 0.1100454949
H  H41  1  0.27970000  0.66190000  0.74220000  1.0 0.1191669386
H  H42  1  0.66190000  0.27970000  0.75780000  1.0 0.1191669386
H  H43  1  0.72030000  0.33810000  0.25780000  1.0 0.1191669386
H  H44  1  0.33810000  0.72030000  0.24220000  1.0 0.1191669386
H  H45  1  0.16980000  0.73620000  0.65010000  1.0 0.1487406001
H  H46  1  0.73620000  0.16980000  0.84990000  1.0 0.1487406001
H  H47  1  0.83020000  0.26380000  0.34990000  1.0 0.1487406001
H  H48  1  0.26380000  0.83020000  0.15010000  1.0 0.1487406001
H  H49  1  0.11020000  0.82780000  0.54690000  1.0 0.1191669386
H  H50  1  0.82780000  0.11020000  0.95310000  1.0 0.1191669386
H  H51  1  0.88980000  0.17220000  0.45310000  1.0 0.1191669386
H  H52  1  0.17220000  0.88980000  0.04690000  1.0 0.1191669386
H  H53  1  0.21060000  0.87520000  0.50850000  1.0 0.2802042036
H  H54  1  0.87520000  0.21060000  0.99150000  1.0 0.2802042036
H  H55  1  0.78940000  0.12480000  0.49150000  1.0 0.2802042036
H  H56  1  0.12480000  0.78940000  0.00850000  1.0 0.2802042036
H  H57  1  0.52720000  0.81360000  0.45070000  1.0 0.1100454949
H  H58  1  0.81360000  0.52720000  0.04930000  1.0 0.1100454949
H  H59  1  0.47280000  0.18640000  0.54930000  1.0 0.1100454949
H  H60  1  0.18640000  0.47280000  0.95070000  1.0 0.1100454949
H  H61  1  0.66400000  0.74460000  0.47250000  1.0 0.1100454949
H  H62  1  0.74460000  0.66400000  0.02750000  1.0 0.1100454949
H  H63  1  0.33600000  0.25540000  0.52750000  1.0 0.1100454949
H  H64  1  0.25540000  0.33600000  0.97250000  1.0 0.1100454949
H  H65  1  0.75130000  0.80330000  0.51880000  1.0 0.1026950102
H  H66  1  0.80330000  0.75130000  0.98120000  1.0 0.1026950102
H  H67  1  0.24870000  0.19670000  0.48120000  1.0 0.1026950102
H  H68  1  0.19670000  0.24870000  0.01880000  1.0 0.1026950102
H  H69  1  0.70520000  0.93200000  0.54450000  1.0 0.1191669386
H  H70  1  0.93200000  0.70520000  0.95550000  1.0 0.1191669386
H  H71  1  0.29480000  0.06800000  0.45550000  1.0 0.1191669386
H  H72  1  0.06800000  0.29480000  0.04450000  1.0 0.1191669386
H  H73  1  0.44890000  0.57750000  0.64230000  1.0 0.1100454949
H  H74  1  0.57750000  0.44890000  0.85770000  1.0 0.1100454949
H  H75  1  0.55110000  0.42250000  0.35770000  1.0 0.1100454949
H  H76  1  0.42250000  0.55110000  0.14230000  1.0 0.1100454949
H  H77  1  0.38280000  0.49940000  0.69190000  1.0 0.1026950102
H  H78  1  0.49940000  0.38280000  0.80810000  1.0 0.1026950102
H  H79  1  0.61720000  0.50060000  0.30810000  1.0 0.1026950102
H  H80  1  0.50060000  0.61720000  0.19190000  1.0 0.1026950102
H  H81  1  0.36700000  0.38980000  0.64350000  1.0 0.1026950102
H  H82  1  0.38980000  0.36700000  0.85650000  1.0 0.1026950102
H  H83  1  0.63300000  0.61020000  0.35650000  1.0 0.1026950102
H  H84  1  0.61020000  0.63300000  0.14350000  1.0 0.1026950102
H  H85  1  0.41340000  0.35980000  0.54740000  1.0 0.1191669386
H  H86  1  0.35980000  0.41340000  0.95260000  1.0 0.1191669386
H  H87  1  0.58660000  0.64020000  0.45260000  1.0 0.1191669386
H  H88  1  0.64020000  0.58660000  0.04740000  1.0 0.1191669386
H  H89  1  0.03910000  0.88870000  0.37290000  1.0 0.1100454949
H  H90  1  0.88870000  0.03910000  0.12710000  1.0 0.1100454949
H  H91  1  0.96090000  0.11130000  0.62710000  1.0 0.1100454949
H  H92  1  0.11130000  0.96090000  0.87290000  1.0 0.1100454949
H  H93  1  0.95380000  0.81440000  0.37050000  1.0 0.1100454949
H  H94  1  0.81440000  0.95380000  0.12950000  1.0 0.1100454949
H  H95  1  0.04620000  0.18560000  0.62950000  1.0 0.1100454949
H  H96  1  0.18560000  0.04620000  0.87050000  1.0 0.1100454949
H  H97  1  0.86020000  0.82920000  0.44450000  1.0 0.1100454949
H  H98  1  0.82920000  0.86020000  0.05550000  1.0 0.1100454949
H  H99  1  0.13980000  0.17080000  0.55550000  1.0 0.1100454949
H  H100  1  0.17080000  0.13980000  0.94450000  1.0 0.1100454949
H  H101  1  0.85910000  0.90670000  0.52580000  1.0 0.1191669386
H  H102  1  0.90670000  0.85910000  0.97420000  1.0 0.1191669386
H  H103  1  0.14090000  0.09330000  0.47420000  1.0 0.1191669386
H  H104  1  0.09330000  0.14090000  0.02580000  1.0 0.1191669386
H  H105  1  0.37190000  0.71950000  0.46520000  1.0 0.2802042036
H  H106  1  0.71950000  0.37190000  0.03480000  1.0 0.2802042036
H  H107  1  0.62810000  0.28050000  0.53480000  1.0 0.2802042036
H  H108  1  0.28050000  0.62810000  0.96520000  1.0 0.2802042036
H  H109  1  0.32810000  0.60890000  0.48760000  1.0 0.1191669386
H  H110  1  0.60890000  0.32810000  0.01240000  1.0 0.1191669386
H  H111  1  0.67190000  0.39110000  0.51240000  1.0 0.1191669386
H  H112  1  0.39110000  0.67190000  0.98760000  1.0 0.1191669386
H  H113  1  0.20830000  0.62810000  0.40710000  1.0 0.1487406001
H  H114  1  0.62810000  0.20830000  0.09290000  1.0 0.1487406001
H  H115  1  0.79170000  0.37190000  0.59290000  1.0 0.1487406001
H  H116  1  0.37190000  0.79170000  0.90710000  1.0 0.1487406001
H  H117  1  0.10740000  0.69700000  0.31020000  1.0 0.1307481952
H  H118  1  0.69700000  0.10740000  0.18980000  1.0 0.1307481952
H  H119  1  0.89260000  0.30300000  0.68980000  1.0 0.1307481952
H  H120  1  0.30300000  0.89260000  0.81020000  1.0 0.1307481952
H  H121  1  0.01000000  0.77180000  0.22370000  1.0 0.1100454949
H  H122  1  0.77180000  0.01000000  0.27630000  1.0 0.1026950102
H  H123  1  0.99000000  0.22820000  0.77630000  1.0 0.1026950102
H  H124  1  0.22820000  0.99000000  0.72370000  1.0 0.1100454949
H  H125  1  0.01740000  0.89540000  0.17340000  1.0 0.1307481952
H  H126  1  0.89540000  0.01740000  0.32660000  1.0 0.1307481952
H  H127  1  0.98260000  0.10460000  0.82660000  1.0 0.1307481952
H  H128  1  0.10460000  0.98260000  0.67340000  1.0 0.1307481952
H  H129  1  0.11480000  0.94300000  0.22050000  1.0 0.1191669386
H  H130  1  0.94300000  0.11480000  0.27950000  1.0 0.1191669386
H  H131  1  0.88520000  0.05700000  0.77950000  1.0 0.1191669386
H  H132  1  0.05700000  0.88520000  0.72050000  1.0 0.1191669386
H  H133  1  0.13720000  0.10100000  0.25250000  1.0 0.1727226978
H  H134  1  0.10100000  0.13720000  0.24750000  1.0 0.1727226978
H  H135  1  0.86280000  0.89900000  0.74750000  1.0 0.1727226978
H  H136  1  0.89900000  0.86280000  0.75250000  1.0 0.1727226978
H  H137  1  0.17030000  0.16410000  0.15280000  1.0 0.1026950102
H  H138  1  0.16410000  0.17030000  0.34720000  1.0 0.1026950102
H  H139  1  0.82970000  0.83590000  0.84720000  1.0 0.1026950102
H  H140  1  0.83590000  0.82970000  0.65280000  1.0 0.1026950102
H  H141  1  0.29690000  0.06730000  0.12680000  1.0 0.1307481952
H  H142  1  0.06730000  0.29690000  0.37320000  1.0 0.1307481952
H  H143  1  0.70310000  0.93270000  0.87320000  1.0 0.1307481952
H  H144  1  0.93270000  0.70310000  0.62680000  1.0 0.1307481952
H  H145  1  0.42280000  0.94780000  0.14690000  1.0 0.1307481952
H  H146  1  0.94780000  0.42280000  0.35310000  1.0 0.1307481952
H  H147  1  0.57720000  0.05220000  0.85310000  1.0 0.1307481952
H  H148  1  0.05220000  0.57720000  0.64690000  1.0 0.1307481952
H  H149  1  0.54020000  0.83680000  0.17520000  1.0 0.1100454949
H  H150  1  0.83680000  0.54020000  0.32480000  1.0 0.1100454949
H  H151  1  0.45980000  0.16320000  0.82480000  1.0 0.1100454949
H  H152  1  0.16320000  0.45980000  0.67520000  1.0 0.1100454949
H  H153  1  0.55010000  0.73950000  0.26380000  1.0 0.1191669386
H  H154  1  0.73950000  0.55010000  0.23620000  1.0 0.1191669386
H  H155  1  0.44990000  0.26050000  0.73620000  1.0 0.1191669386
H  H156  1  0.26050000  0.44990000  0.76380000  1.0 0.1191669386
H  H157  1  0.44260000  0.75320000  0.32400000  1.0 0.1026950102
H  H158  1  0.75320000  0.44260000  0.17600000  1.0 0.1026950102
H  H159  1  0.55740000  0.24680000  0.67600000  1.0 0.1026950102
H  H160  1  0.24680000  0.55740000  0.82400000  1.0 0.1026950102
C  C1  1  0.33700000  0.99760000  0.62540000  1.0 0.0819825499
C  C2  1  0.99760000  0.33700000  0.87460000  1.0 0.0819825499
C  C3  1  0.66300000  0.00240000  0.37460000  1.0 0.0819825499
C  C4  1  0.00240000  0.66300000  0.12540000  1.0 0.0819825499
C  C5  1  0.33190000  0.06950000  0.64890000  1.0 -0.1687141111
C  C6  1  0.06950000  0.33190000  0.85110000  1.0 -0.1687141111
C  C7  1  0.66810000  0.93050000  0.35110000  1.0 -0.1687141111
C  C8  1  0.93050000  0.66810000  0.14890000  1.0 -0.1687141111
C  C9  1  0.40410000  0.07870000  0.67810000  1.0 -0.0329656367
C  C10  1  0.07870000  0.40410000  0.82190000  1.0 -0.0329656367
C  C11  1  0.59590000  0.92130000  0.32190000  1.0 -0.0329656367
C  C12  1  0.92130000  0.59590000  0.17810000  1.0 -0.0329656367
C  C13  1  0.47420000  0.01740000  0.68440000  1.0 -0.1497470679
C  C14  1  0.01740000  0.47420000  0.81560000  1.0 -0.1497470679
C  C15  1  0.52580000  0.98260000  0.31560000  1.0 -0.1497470679
C  C16  1  0.98260000  0.52580000  0.18440000  1.0 -0.1497470679
C  C17  1  0.47550000  0.94630000  0.65900000  1.0 0.1791906493
C  C18  1  0.94630000  0.47550000  0.84100000  1.0 0.1791906493
C  C19  1  0.52450000  0.05370000  0.34100000  1.0 0.1791906493
C  C20  1  0.05370000  0.52450000  0.15900000  1.0 0.1791906493
C  C21  1  0.54970000  0.87770000  0.66190000  1.0 0.1100454949
C  C22  1  0.87770000  0.54970000  0.83810000  1.0 0.1100454949
C  C23  1  0.45030000  0.12230000  0.33810000  1.0 0.1100454949
C  C24  1  0.12230000  0.45030000  0.16190000  1.0 0.1100454949
C  C25  1  0.63060000  0.86500000  0.68750000  1.0 -0.233433032
C  C26  1  0.86500000  0.63060000  0.81250000  1.0 -0.233433032
C  C27  1  0.36940000  0.13500000  0.31250000  1.0 -0.233433032
C  C28  1  0.13500000  0.36940000  0.18750000  1.0 -0.2353429311
C  C29  1  0.67480000  0.78940000  0.67490000  1.0 -0.0329656367
C  C30  1  0.78940000  0.67480000  0.82510000  1.0 -0.0329656367
C  C31  1  0.32520000  0.21060000  0.32510000  1.0 -0.0329656367
C  C32  1  0.21060000  0.32520000  0.17490000  1.0 -0.0329656367
C  C33  1  0.47050000  0.69630000  0.73380000  1.0 0.071038623
C  C34  1  0.69630000  0.47050000  0.76620000  1.0 0.071038623
C  C35  1  0.52950000  0.30370000  0.26620000  1.0 0.071038623
C  C36  1  0.30370000  0.52950000  0.23380000  1.0 0.071038623
C  C37  1  0.46540000  0.64360000  0.78570000  1.0 -0.1422978574
C  C38  1  0.64360000  0.46540000  0.71430000  1.0 -0.1422978574
C  C39  1  0.53460000  0.35640000  0.21430000  1.0 -0.1422978574
C  C40  1  0.35640000  0.53460000  0.28570000  1.0 -0.1422978574
C  C41  1  0.39300000  0.63240000  0.78960000  1.0 -0.0390716152
C  C42  1  0.63240000  0.39300000  0.71040000  1.0 -0.0390716152
C  C43  1  0.60700000  0.36760000  0.21040000  1.0 -0.0390716152
C  C44  1  0.36760000  0.60700000  0.28960000  1.0 -0.0390716152
C  C45  1  0.32920000  0.67060000  0.74090000  1.0 -0.1781632242
C  C46  1  0.67060000  0.32920000  0.75910000  1.0 -0.1781632242
C  C47  1  0.67080000  0.32940000  0.25910000  1.0 -0.1781632242
C  C48  1  0.32940000  0.67080000  0.24090000  1.0 -0.1781632242
C  C49  1  0.33950000  0.72170000  0.69020000  1.0 0.1791906493
C  C50  1  0.72170000  0.33950000  0.80980000  1.0 0.1791906493
C  C51  1  0.66050000  0.27830000  0.30980000  1.0 0.1791906493
C  C52  1  0.27830000  0.66050000  0.19020000  1.0 0.1791906493
C  C53  1  0.27340000  0.76500000  0.63530000  1.0 0.1026950102
C  C54  1  0.76500000  0.27340000  0.86470000  1.0 0.1026950102
C  C55  1  0.72660000  0.23500000  0.36470000  1.0 0.1026950102
C  C56  1  0.23500000  0.72660000  0.13530000  1.0 0.1026950102
C  C57  1  0.19510000  0.76470000  0.62420000  1.0 -0.2480665514
C  C58  1  0.76470000  0.19510000  0.87580000  1.0 -0.2480665514
C  C59  1  0.80490000  0.23530000  0.37580000  1.0 -0.2480665514
C  C60  1  0.23530000  0.80490000  0.12420000  1.0 -0.2480665514
C  C61  1  0.16320000  0.81480000  0.56730000  1.0 0.0008672961
C  C62  1  0.81480000  0.16320000  0.93270000  1.0 0.0008672961
C  C63  1  0.83680000  0.18520000  0.43270000  1.0 0.0008672961
C  C64  1  0.18520000  0.83680000  0.06730000  1.0 0.0008672961
C  C65  1  0.38730000  0.92450000  0.44350000  1.0 0.5662883178
C  C66  1  0.92450000  0.38730000  0.05650000  1.0 0.5662883178
C  C67  1  0.61270000  0.07550000  0.55650000  1.0 0.5662883178
C  C68  1  0.07550000  0.61270000  0.94350000  1.0 0.5662883178
C  C69  1  0.44570000  0.96370000  0.47280000  1.0 -0.1497470679
C  C70  1  0.96370000  0.44570000  0.02720000  1.0 -0.1497470679
C  C71  1  0.55430000  0.03630000  0.52720000  1.0 -0.1497470679
C  C72  1  0.03630000  0.55430000  0.97280000  1.0 -0.1497470679
C  C73  1  0.52920000  0.91900000  0.48470000  1.0 0.0420436977
C  C74  1  0.91900000  0.52920000  0.01530000  1.0 0.0420436977
C  C75  1  0.47080000  0.08100000  0.51530000  1.0 0.0420436977
C  C76  1  0.08100000  0.47080000  0.98470000  1.0 0.0420436977
C  C77  1  0.56190000  0.83850000  0.46960000  1.0 -0.1687141111
C  C78  1  0.83850000  0.56190000  0.03040000  1.0 -0.1687141111
C  C79  1  0.43810000  0.16150000  0.53040000  1.0 -0.1687141111
C  C80  1  0.16150000  0.43810000  0.96960000  1.0 -0.1687141111
C  C81  1  0.64390000  0.79710000  0.48260000  1.0 -0.1023545865
C  C82  1  0.79710000  0.64390000  0.01740000  1.0 -0.1023545865
C  C83  1  0.35610000  0.20290000  0.51740000  1.0 -0.1023545865
C  C84  1  0.20290000  0.35610000  0.98260000  1.0 -0.1023545865
C  C85  1  0.69610000  0.83230000  0.51030000  1.0 -0.1171002283
C  C86  1  0.83230000  0.69610000  0.98970000  1.0 -0.1171002283
C  C87  1  0.30390000  0.16770000  0.48970000  1.0 -0.1171002283
C  C88  1  0.16770000  0.30390000  0.01030000  1.0 -0.1171002283
C  C89  1  0.66830000  0.90950000  0.52560000  1.0 -0.1497470679
C  C90  1  0.90950000  0.66830000  0.97440000  1.0 -0.1497470679
C  C91  1  0.33170000  0.09050000  0.47440000  1.0 -0.1497470679
C  C92  1  0.09050000  0.33170000  0.02560000  1.0 -0.1497470679
C  C93  1  0.41530000  0.04370000  0.48650000  1.0 0.0490299089
C  C94  1  0.04370000  0.41530000  0.01350000  1.0 0.0490299089
C  C95  1  0.58470000  0.95630000  0.51350000  1.0 0.0490299089
C  C96  1  0.95630000  0.58470000  0.98650000  1.0 0.0490299089
C  C97  1  0.52010000  0.63890000  0.55760000  1.0 0.5662883178
C  C98  1  0.63890000  0.52010000  0.94240000  1.0 0.5662883178
C  C99  1  0.47990000  0.36110000  0.44240000  1.0 0.5662883178
C  C100  1  0.36110000  0.47990000  0.05760000  1.0 0.5662883178
C  C101  1  0.51070000  0.56570000  0.52780000  1.0 -0.1272814566
C  C102  1  0.56570000  0.51070000  0.97220000  1.0 -0.1272814566
C  C103  1  0.48930000  0.43430000  0.47220000  1.0 -0.1272814566
C  C104  1  0.43430000  0.48930000  0.02780000  1.0 -0.1272814566
C  C105  1  0.47330000  0.51750000  0.56090000  1.0 0.0420436977
C  C106  1  0.51750000  0.47330000  0.93910000  1.0 0.0420436977
C  C107  1  0.52670000  0.48250000  0.43910000  1.0 0.0420436977
C  C108  1  0.48250000  0.52670000  0.06090000  1.0 0.0420436977
C  C109  1  0.44200000  0.53420000  0.62270000  1.0 -0.1565832192
C  C110  1  0.53420000  0.44200000  0.87730000  1.0 -0.1565832192
C  C111  1  0.55800000  0.46580000  0.37730000  1.0 -0.1565832192
C  C112  1  0.46580000  0.55800000  0.12270000  1.0 -0.1565832192
C  C113  1  0.40290000  0.48770000  0.65250000  1.0 -0.1171002283
C  C114  1  0.48770000  0.40290000  0.84750000  1.0 -0.1171002283
C  C115  1  0.59710000  0.51230000  0.34750000  1.0 -0.1171002283
C  C116  1  0.51230000  0.59710000  0.15250000  1.0 -0.1171002283
C  C117  1  0.39330000  0.42190000  0.62290000  1.0 -0.1115657731
C  C118  1  0.42190000  0.39330000  0.87710000  1.0 -0.1115657731
C  C119  1  0.60670000  0.57810000  0.37710000  1.0 -0.1115657731
C  C120  1  0.57810000  0.60670000  0.12290000  1.0 -0.1115657731
C  C121  1  0.42110000  0.40390000  0.56550000  1.0 -0.1497470679
C  C122  1  0.40390000  0.42110000  0.93450000  1.0 -0.1497470679
C  C123  1  0.57890000  0.59610000  0.43450000  1.0 -0.1497470679
C  C124  1  0.59610000  0.57890000  0.06550000  1.0 -0.1497470679
C  C125  1  0.53880000  0.55000000  0.46750000  1.0 0.0490299089
C  C126  1  0.55000000  0.53880000  0.03250000  1.0 0.0490299089
C  C127  1  0.46120000  0.45000000  0.53250000  1.0 0.0490299089
C  C128  1  0.45000000  0.46120000  0.96750000  1.0 0.0490299089
C  C129  1  0.11330000  0.98810000  0.40340000  1.0 0.5662883178
C  C130  1  0.98810000  0.11330000  0.09660000  1.0 0.5662883178
C  C131  1  0.88670000  0.01190000  0.59660000  1.0 0.5662883178
C  C132  1  0.01190000  0.88670000  0.90340000  1.0 0.5662883178
C  C133  1  0.05510000  0.99550000  0.45360000  1.0 -0.1171002283
C  C134  1  0.99550000  0.05510000  0.04640000  1.0 -0.1171002283
C  C135  1  0.94490000  0.00450000  0.54640000  1.0 -0.1171002283
C  C136  1  0.00450000  0.94490000  0.95360000  1.0 -0.1171002283
C  C137  1  0.00180000  0.94860000  0.45070000  1.0 0.0420436977
C  C138  1  0.94860000  0.00180000  0.04930000  1.0 0.0420436977
C  C139  1  0.99820000  0.05140000  0.54930000  1.0 0.0420436977
C  C140  1  0.05140000  0.99820000  0.95070000  1.0 0.0420436977
C  C141  1  0.00260000  0.89400000  0.40340000  1.0 -0.1687141111
C  C142  1  0.89400000  0.00260000  0.09660000  1.0 -0.1687141111
C  C143  1  0.99740000  0.10600000  0.59660000  1.0 -0.1687141111
C  C144  1  0.10600000  0.99740000  0.90340000  1.0 -0.1687141111
C  C145  1  0.95190000  0.84970000  0.40170000  1.0 -0.1023545865
C  C146  1  0.84970000  0.95190000  0.09830000  1.0 -0.1023545865
C  C147  1  0.04810000  0.15030000  0.59830000  1.0 -0.1023545865
C  C148  1  0.15030000  0.04810000  0.90170000  1.0 -0.1023545865
C  C149  1  0.89670000  0.85770000  0.44720000  1.0 -0.1115657731
C  C150  1  0.85770000  0.89670000  0.05280000  1.0 -0.1115657731
C  C151  1  0.10330000  0.14230000  0.55280000  1.0 -0.1115657731
C  C152  1  0.14230000  0.10330000  0.94720000  1.0 -0.1115657731
C  C153  1  0.89470000  0.90550000  0.49490000  1.0 -0.1497470679
C  C154  1  0.90550000  0.89470000  0.00510000  1.0 -0.1497470679
C  C155  1  0.10530000  0.09450000  0.50510000  1.0 -0.1497470679
C  C156  1  0.09450000  0.10530000  0.99490000  1.0 -0.1497470679
C  C157  1  0.05370000  0.04530000  0.50090000  1.0 0.0490299089
C  C158  1  0.04530000  0.05370000  0.99910000  1.0 0.0420436977
C  C159  1  0.94630000  0.95470000  0.49910000  1.0 0.0490299089
C  C160  1  0.95470000  0.94630000  0.00090000  1.0 0.0490299089
C  C161  1  0.30490000  0.65250000  0.45420000  1.0 0.0067615701
C  C162  1  0.65250000  0.30490000  0.04580000  1.0 0.0067615701
C  C163  1  0.69510000  0.34750000  0.54580000  1.0 0.0067615701
C  C164  1  0.34750000  0.69510000  0.95420000  1.0 0.0067615701
C  C165  1  0.23920000  0.66220000  0.41020000  1.0 -0.2671583587
C  C166  1  0.66220000  0.23920000  0.08980000  1.0 -0.2671583587
C  C167  1  0.76080000  0.33780000  0.58980000  1.0 -0.2671583587
C  C168  1  0.33780000  0.76080000  0.91020000  1.0 -0.2671583587
C  C169  1  0.22810000  0.73430000  0.37070000  1.0 0.1100454949
C  C170  1  0.73430000  0.22810000  0.12930000  1.0 0.1100454949
C  C171  1  0.77190000  0.26570000  0.62930000  1.0 0.1100454949
C  C172  1  0.26570000  0.77190000  0.87070000  1.0 0.1100454949
C  C173  1  0.16560000  0.77940000  0.31320000  1.0 0.1791906493
C  C174  1  0.77940000  0.16560000  0.18680000  1.0 0.1791906493
C  C175  1  0.83440000  0.22060000  0.68680000  1.0 0.1791906493
C  C176  1  0.22060000  0.83440000  0.81320000  1.0 0.1791906493
C  C177  1  0.10770000  0.74710000  0.29090000  1.0 -0.1781632242
C  C178  1  0.74710000  0.10770000  0.20910000  1.0 -0.1781632242
C  C179  1  0.89230000  0.25290000  0.70910000  1.0 -0.1781632242
C  C180  1  0.25290000  0.89230000  0.79090000  1.0 -0.1781632242
C  C181  1  0.05100000  0.79100000  0.23950000  1.0 -0.0578076772
C  C182  1  0.79100000  0.05100000  0.26050000  1.0 -0.0524063291
C  C183  1  0.94900000  0.20900000  0.76050000  1.0 -0.0524063291
C  C184  1  0.20900000  0.94900000  0.73950000  1.0 -0.0578076772
C  C185  1  0.05390000  0.86570000  0.21010000  1.0 -0.1497470679
C  C186  1  0.86570000  0.05390000  0.28990000  1.0 -0.1497470679
C  C187  1  0.94610000  0.13430000  0.78990000  1.0 -0.1422978574
C  C188  1  0.13430000  0.94610000  0.71010000  1.0 -0.1497470679
C  C189  1  0.11320000  0.89280000  0.23800000  1.0 0.0915509133
C  C190  1  0.89280000  0.11320000  0.26200000  1.0 0.0915509133
C  C191  1  0.88680000  0.10720000  0.76200000  1.0 0.0915509133
C  C192  1  0.10720000  0.88680000  0.73800000  1.0 0.0915509133
C  C193  1  0.19910000  0.11370000  0.17680000  1.0 -0.0390716152
C  C194  1  0.11370000  0.19910000  0.32320000  1.0 -0.0390716152
C  C195  1  0.80090000  0.88630000  0.82320000  1.0 -0.0390716152
C  C196  1  0.88630000  0.80090000  0.67680000  1.0 -0.0390716152
C  C197  1  0.26990000  0.05950000  0.16230000  1.0 -0.2809925645
C  C198  1  0.05950000  0.26990000  0.33770000  1.0 -0.2809925645
C  C199  1  0.73010000  0.94050000  0.83770000  1.0 -0.2809925645
C  C200  1  0.94050000  0.73010000  0.66230000  1.0 -0.2809925645
C  C201  1  0.29320000  0.99180000  0.20990000  1.0 0.071038623
C  C202  1  0.99180000  0.29320000  0.29010000  1.0 0.071038623
C  C203  1  0.70680000  0.00820000  0.79010000  1.0 0.071038623
C  C204  1  0.00820000  0.70680000  0.70990000  1.0 0.071038623
C  C205  1  0.36240000  0.91700000  0.21840000  1.0 0.1791906493
C  C206  1  0.91700000  0.36240000  0.28160000  1.0 0.1791906493
C  C207  1  0.63760000  0.08300000  0.78160000  1.0 0.1791906493
C  C208  1  0.08300000  0.63760000  0.71840000  1.0 0.1791906493
C  C209  1  0.42680000  0.90880000  0.18240000  1.0 -0.1924469614
C  C210  1  0.90880000  0.42680000  0.31760000  1.0 -0.1924469614
C  C211  1  0.57320000  0.09120000  0.81760000  1.0 -0.1924469614
C  C212  1  0.09120000  0.57320000  0.68240000  1.0 -0.1924469614
C  C213  1  0.49710000  0.84230000  0.19940000  1.0 -0.0578076772
C  C214  1  0.84230000  0.49710000  0.30060000  1.0 -0.0578076772
C  C215  1  0.50290000  0.15770000  0.80060000  1.0 -0.0578076772
C  C216  1  0.15770000  0.50290000  0.69940000  1.0 -0.0578076772
C  C217  1  0.50300000  0.78400000  0.25240000  1.0 -0.1687141111
C  C218  1  0.78400000  0.50300000  0.24760000  1.0 -0.1687141111
C  C219  1  0.49700000  0.21600000  0.74760000  1.0 -0.1687141111
C  C220  1  0.21600000  0.49700000  0.75240000  1.0 -0.1687141111
C  C221  1  0.43860000  0.79220000  0.28850000  1.0 0.0490299089
C  C222  1  0.79220000  0.43860000  0.21150000  1.0 0.0490299089
C  C223  1  0.56140000  0.20780000  0.71150000  1.0 0.0490299089
C  C224  1  0.20780000  0.56140000  0.78850000  1.0 0.0490299089
N  N1  1  0.40620000  0.93720000  0.62970000  1.0 -0.2809925645
N  N2  1  0.93720000  0.40620000  0.87030000  1.0 -0.2809925645
N  N3  1  0.59380000  0.06280000  0.37030000  1.0 -0.2809925645
N  N4  1  0.06280000  0.59380000  0.12970000  1.0 -0.2809925645
N  N5  1  0.54540000  0.81280000  0.63570000  1.0 -0.2143319988
N  N6  1  0.81280000  0.54540000  0.86430000  1.0 -0.2143319988
N  N7  1  0.45460000  0.18720000  0.36430000  1.0 -0.2143319988
N  N8  1  0.18720000  0.45460000  0.13570000  1.0 -0.2143319988
N  N9  1  0.41070000  0.73490000  0.68560000  1.0 -0.2809925645
N  N10  1  0.73490000  0.41070000  0.81440000  1.0 -0.2809925645
N  N11  1  0.58930000  0.26510000  0.31440000  1.0 -0.2809925645
N  N12  1  0.26510000  0.58930000  0.18560000  1.0 -0.2809925645
N  N13  1  0.28850000  0.81330000  0.58650000  1.0 -0.233433032
N  N14  1  0.81330000  0.28850000  0.91350000  1.0 -0.233433032
N  N15  1  0.71150000  0.18670000  0.41350000  1.0 -0.233433032
N  N16  1  0.18670000  0.71150000  0.08650000  1.0 -0.233433032
N  N17  1  0.28440000  0.76640000  0.39010000  1.0 -0.233433032
N  N18  1  0.76640000  0.28440000  0.10990000  1.0 -0.233433032
N  N19  1  0.71560000  0.23360000  0.60990000  1.0 -0.233433032
N  N20  1  0.23360000  0.71560000  0.89010000  1.0 -0.233433032
N  N21  1  0.16790000  0.85090000  0.28830000  1.0 -0.2579582998
N  N22  1  0.85090000  0.16790000  0.21170000  1.0 -0.2579582998
N  N23  1  0.83210000  0.14910000  0.71170000  1.0 -0.2579582998
N  N24  1  0.14910000  0.83210000  0.78830000  1.0 -0.2579582998
N  N25  1  0.61970000  0.76070000  0.64410000  1.0 -0.0390716152
N  N26  1  0.76070000  0.61970000  0.85590000  1.0 -0.0390716152
N  N27  1  0.38030000  0.23930000  0.35590000  1.0 -0.0390716152
N  N28  1  0.23930000  0.38030000  0.14410000  1.0 -0.0390716152
N  N29  1  0.21830000  0.84290000  0.54470000  1.0 -0.0524063291
N  N30  1  0.84290000  0.21830000  0.95530000  1.0 -0.0524063291
N  N31  1  0.78170000  0.15710000  0.45530000  1.0 -0.0524063291
N  N32  1  0.15710000  0.78170000  0.04470000  1.0 -0.0524063291
N  N33  1  0.33070000  0.71350000  0.44250000  1.0 -0.0390716152
N  N34  1  0.71350000  0.33070000  0.05750000  1.0 -0.0390716152
N  N35  1  0.66930000  0.28650000  0.55750000  1.0 -0.0390716152
N  N36  1  0.28650000  0.66930000  0.94250000  1.0 -0.0390716152
N  N37  1  0.23680000  0.00400000  0.25390000  1.0 -0.2353429311
N  N38  1  0.00400000  0.23680000  0.24610000  1.0 -0.2353429311
N  N39  1  0.76320000  0.99600000  0.74610000  1.0 -0.2353429311
N  N40  1  0.99600000  0.76320000  0.75390000  1.0 -0.2353429311
N  N41  1  0.17860000  0.07940000  0.23340000  1.0 -0.1171002283
N  N42  1  0.07940000  0.17860000  0.26660000  1.0 -0.1115657731
N  N43  1  0.82140000  0.92060000  0.76660000  1.0 -0.1171002283
N  N44  1  0.92060000  0.82140000  0.73340000  1.0 -0.1171002283
N  N45  1  0.36830000  0.85870000  0.27150000  1.0 -0.3329562092
N  N46  1  0.85870000  0.36830000  0.22850000  1.0 -0.3329562092
N  N47  1  0.63170000  0.14130000  0.72850000  1.0 -0.3329562092
N  N48  1  0.14130000  0.63170000  0.77150000  1.0 -0.3329562092
O  O1  1  0.37016000  0.87216000  0.47960000  1.0 -0.5562964672
O  O2  1  0.87216000  0.37016000  0.02040000  1.0 -0.5562964672
O  O3  1  0.62984000  0.12784000  0.52040000  1.0 -0.5562964672
O  O4  1  0.12784000  0.62984000  0.97960000  1.0 -0.5562964672
O  O5  1  0.35760000  0.95000000  0.38470000  1.0 -0.5092648262
O  O6  1  0.95000000  0.35760000  0.11530000  1.0 -0.5092648262
O  O7  1  0.64240000  0.05000000  0.61530000  1.0 -0.5092648262
O  O8  1  0.05000000  0.64240000  0.88470000  1.0 -0.5092648262
O  O9  1  0.46238000  0.70498000  0.53670000  1.0 -0.5562964672
O  O10  1  0.70498000  0.46238000  0.96330000  1.0 -0.5562964672
O  O11  1  0.53762000  0.29502000  0.46330000  1.0 -0.5562964672
O  O12  1  0.29502000  0.53762000  0.03670000  1.0 -0.5562964672
O  O13  1  0.57840000  0.63200000  0.59810000  1.0 -0.5504074091
O  O14  1  0.63200000  0.57840000  0.90190000  1.0 -0.5504074091
O  O15  1  0.42160000  0.36800000  0.40190000  1.0 -0.5504074091
O  O16  1  0.36800000  0.42160000  0.09810000  1.0 -0.5504074091
O  O17  1  0.18441000  0.93841000  0.42210000  1.0 -0.5504074091
O  O18  1  0.93841000  0.18441000  0.07790000  1.0 -0.5504074091
O  O19  1  0.81559000  0.06159000  0.57790000  1.0 -0.5504074091
O  O20  1  0.06159000  0.81559000  0.92210000  1.0 -0.5504074091
O  O21  1  0.08830000  0.02770000  0.34640000  1.0 -0.5562964672
O  O22  1  0.02770000  0.08830000  0.15360000  1.0 -0.5562964672
O  O23  1  0.91170000  0.97230000  0.65360000  1.0 -0.5562964672
O  O24  1  0.97230000  0.91170000  0.84640000  1.0 -0.5562964672
