# DDEC6 charges by PACMAN v1.1 (https://github.com/mtap-research/PACMAN-charge/)
data_DUSHIK_ASR_pacman
_symmetry_space_group_name_H-M   'P 1'
_cell_length_a   29.17380000
_cell_length_b   29.17380000
_cell_length_c   29.17380000
_cell_angle_alpha   60.00000000
_cell_angle_beta   60.00000000
_cell_angle_gamma   60.00000000
_symmetry_Int_Tables_number   1
_chemical_formula_structural   Fe15H96C168(N3O31)4
_chemical_formula_sum   'Fe30 H192 C336 N24 O248'
_cell_volume   17557.55373219
_cell_formula_units_Z   2
loop_
 _symmetry_equiv_pos_site_id
 _symmetry_equiv_pos_as_xyz
  1  'x, y, z'
loop_
 _atom_site_type_symbol
 _atom_site_label
 _atom_site_symmetry_multiplicity
 _atom_site_fract_x
 _atom_site_fract_y
 _atom_site_fract_z
 _atom_site_occupancy
 _atom_site_charge
Fe  Fe1  1  0.31316000  0.94526000  0.42842000  1.0 0.881295649
Fe  Fe2  1  0.94526000  0.31316000  0.31316000  1.0 0.881295649
Fe  Fe3  1  0.42842000  0.31316000  0.31316000  1.0 0.881295649
Fe  Fe4  1  0.31316000  0.42842000  0.94526000  1.0 0.881295649
Fe  Fe5  1  0.42842000  0.31316000  0.94526000  1.0 0.881295649
Fe  Fe6  1  0.31316000  0.94526000  0.31316000  1.0 0.881295649
Fe  Fe7  1  0.31316000  0.42842000  0.31316000  1.0 0.881295649
Fe  Fe8  1  0.94526000  0.31316000  0.42842000  1.0 0.881295649
Fe  Fe9  1  0.94526000  0.42842000  0.31316000  1.0 0.881295649
Fe  Fe10  1  0.31316000  0.31316000  0.94526000  1.0 0.881295649
Fe  Fe11  1  0.31316000  0.31316000  0.42842000  1.0 0.881295649
Fe  Fe12  1  0.42842000  0.94526000  0.31316000  1.0 0.881295649
Fe  Fe13  1  0.68684000  0.05474000  0.68684000  1.0 0.881295649
Fe  Fe14  1  0.05474000  0.68684000  0.57158000  1.0 0.881295649
Fe  Fe15  1  0.57158000  0.68684000  0.05474000  1.0 0.881295649
Fe  Fe16  1  0.68684000  0.57158000  0.68684000  1.0 0.881295649
Fe  Fe17  1  0.57158000  0.68684000  0.68684000  1.0 0.881295649
Fe  Fe18  1  0.68684000  0.05474000  0.57158000  1.0 0.881295649
Fe  Fe19  1  0.68684000  0.57158000  0.05474000  1.0 0.881295649
Fe  Fe20  1  0.05474000  0.68684000  0.68684000  1.0 0.881295649
Fe  Fe21  1  0.05474000  0.57158000  0.68684000  1.0 0.881295649
Fe  Fe22  1  0.68684000  0.68684000  0.57158000  1.0 0.881295649
Fe  Fe23  1  0.68684000  0.68684000  0.05474000  1.0 0.881295649
Fe  Fe24  1  0.57158000  0.05474000  0.68684000  1.0 0.881295649
Fe  Fe25  1  0.22597000  0.77403000  0.77403000  1.0 1.0793078093
Fe  Fe26  1  0.77403000  0.22597000  0.22597000  1.0 1.0793078093
Fe  Fe27  1  0.77403000  0.22597000  0.77403000  1.0 1.0793078093
Fe  Fe28  1  0.22597000  0.77403000  0.22597000  1.0 1.0793078093
Fe  Fe29  1  0.77403000  0.77403000  0.22597000  1.0 1.0793078093
Fe  Fe30  1  0.22597000  0.22597000  0.77403000  1.0 1.0736745028
H  H1  1  0.30980000  0.08160000  0.44680000  1.0 0.1302453207
H  H2  1  0.08160000  0.30980000  0.16180000  1.0 0.1302453207
H  H3  1  0.44680000  0.16180000  0.30980000  1.0 0.1302453207
H  H4  1  0.16180000  0.44680000  0.08160000  1.0 0.1302453207
H  H5  1  0.44680000  0.30980000  0.08160000  1.0 0.1302453207
H  H6  1  0.16180000  0.08160000  0.30980000  1.0 0.1302453207
H  H7  1  0.30980000  0.44680000  0.16180000  1.0 0.1302453207
H  H8  1  0.08160000  0.16180000  0.44680000  1.0 0.1302453207
H  H9  1  0.08160000  0.44680000  0.30980000  1.0 0.1302453207
H  H10  1  0.30980000  0.16180000  0.08160000  1.0 0.1302453207
H  H11  1  0.16180000  0.30980000  0.44680000  1.0 0.1302453207
H  H12  1  0.44680000  0.08160000  0.16180000  1.0 0.1302453207
H  H13  1  0.69020000  0.91840000  0.83820000  1.0 0.1302453207
H  H14  1  0.91840000  0.69020000  0.55320000  1.0 0.1302453207
H  H15  1  0.55320000  0.83820000  0.91840000  1.0 0.1302453207
H  H16  1  0.83820000  0.55320000  0.69020000  1.0 0.1302453207
H  H17  1  0.55320000  0.69020000  0.83820000  1.0 0.1302453207
H  H18  1  0.83820000  0.91840000  0.55320000  1.0 0.1302453207
H  H19  1  0.69020000  0.55320000  0.91840000  1.0 0.1302453207
H  H20  1  0.91840000  0.83820000  0.69020000  1.0 0.1302453207
H  H21  1  0.91840000  0.55320000  0.83820000  1.0 0.1302453207
H  H22  1  0.69020000  0.83820000  0.55320000  1.0 0.1302453207
H  H23  1  0.83820000  0.69020000  0.91840000  1.0 0.1302453207
H  H24  1  0.55320000  0.91840000  0.69020000  1.0 0.1302453207
H  H25  1  0.69020000  0.91840000  0.55320000  1.0 0.1302453207
H  H26  1  0.91840000  0.69020000  0.83820000  1.0 0.1302453207
H  H27  1  0.55320000  0.83820000  0.69020000  1.0 0.1302453207
H  H28  1  0.83820000  0.55320000  0.91840000  1.0 0.1302453207
H  H29  1  0.55320000  0.69020000  0.91840000  1.0 0.1302453207
H  H30  1  0.83820000  0.91840000  0.69020000  1.0 0.1302453207
H  H31  1  0.69020000  0.55320000  0.83820000  1.0 0.1302453207
H  H32  1  0.91840000  0.83820000  0.55320000  1.0 0.1302453207
H  H33  1  0.91840000  0.55320000  0.69020000  1.0 0.1302453207
H  H34  1  0.69020000  0.83820000  0.91840000  1.0 0.1302453207
H  H35  1  0.83820000  0.69020000  0.55320000  1.0 0.1302453207
H  H36  1  0.55320000  0.91840000  0.83820000  1.0 0.1302453207
H  H37  1  0.30980000  0.08160000  0.16180000  1.0 0.1302453207
H  H38  1  0.08160000  0.30980000  0.44680000  1.0 0.1302453207
H  H39  1  0.44680000  0.16180000  0.08160000  1.0 0.1302453207
H  H40  1  0.16180000  0.44680000  0.30980000  1.0 0.1302453207
H  H41  1  0.44680000  0.30980000  0.16180000  1.0 0.1302453207
H  H42  1  0.16180000  0.08160000  0.44680000  1.0 0.1302453207
H  H43  1  0.30980000  0.44680000  0.08160000  1.0 0.1302453207
H  H44  1  0.08160000  0.16180000  0.30980000  1.0 0.1302453207
H  H45  1  0.08160000  0.44680000  0.16180000  1.0 0.1302453207
H  H46  1  0.30980000  0.16180000  0.44680000  1.0 0.1302453207
H  H47  1  0.16180000  0.30980000  0.08160000  1.0 0.1302453207
H  H48  1  0.44680000  0.08160000  0.30980000  1.0 0.1302453207
H  H49  1  0.40280000  0.82360000  0.54060000  1.0 0.1390066821
H  H50  1  0.82360000  0.40280000  0.23300000  1.0 0.1390066821
H  H51  1  0.54060000  0.23300000  0.40280000  1.0 0.1390066821
H  H52  1  0.23300000  0.54060000  0.82360000  1.0 0.1390066821
H  H53  1  0.54060000  0.40280000  0.82360000  1.0 0.1390066821
H  H54  1  0.23300000  0.82360000  0.40280000  1.0 0.1390066821
H  H55  1  0.40280000  0.54060000  0.23300000  1.0 0.1390066821
H  H56  1  0.82360000  0.23300000  0.54060000  1.0 0.1390066821
H  H57  1  0.82360000  0.54060000  0.40280000  1.0 0.1390066821
H  H58  1  0.40280000  0.23300000  0.82360000  1.0 0.1390066821
H  H59  1  0.23300000  0.40280000  0.54060000  1.0 0.1390066821
H  H60  1  0.54060000  0.82360000  0.23300000  1.0 0.1390066821
H  H61  1  0.59720000  0.17640000  0.76700000  1.0 0.1390066821
H  H62  1  0.17640000  0.59720000  0.45940000  1.0 0.1390066821
H  H63  1  0.45940000  0.76700000  0.17640000  1.0 0.1390066821
H  H64  1  0.76700000  0.45940000  0.59720000  1.0 0.1390066821
H  H65  1  0.45940000  0.59720000  0.76700000  1.0 0.1390066821
H  H66  1  0.76700000  0.17640000  0.45940000  1.0 0.1390066821
H  H67  1  0.59720000  0.45940000  0.17640000  1.0 0.1390066821
H  H68  1  0.17640000  0.76700000  0.59720000  1.0 0.1390066821
H  H69  1  0.17640000  0.45940000  0.76700000  1.0 0.1390066821
H  H70  1  0.59720000  0.76700000  0.45940000  1.0 0.1390066821
H  H71  1  0.76700000  0.59720000  0.17640000  1.0 0.1390066821
H  H72  1  0.45940000  0.17640000  0.59720000  1.0 0.1390066821
H  H73  1  0.59720000  0.17640000  0.45940000  1.0 0.1390066821
H  H74  1  0.17640000  0.59720000  0.76700000  1.0 0.1390066821
H  H75  1  0.45940000  0.76700000  0.59720000  1.0 0.1390066821
H  H76  1  0.76700000  0.45940000  0.17640000  1.0 0.1390066821
H  H77  1  0.45940000  0.59720000  0.17640000  1.0 0.1390066821
H  H78  1  0.76700000  0.17640000  0.59720000  1.0 0.1390066821
H  H79  1  0.59720000  0.45940000  0.76700000  1.0 0.1390066821
H  H80  1  0.17640000  0.76700000  0.45940000  1.0 0.1390066821
H  H81  1  0.17640000  0.45940000  0.59720000  1.0 0.1390066821
H  H82  1  0.59720000  0.76700000  0.17640000  1.0 0.1390066821
H  H83  1  0.76700000  0.59720000  0.45940000  1.0 0.1390066821
H  H84  1  0.45940000  0.17640000  0.76700000  1.0 0.1390066821
H  H85  1  0.40280000  0.82360000  0.23300000  1.0 0.1390066821
H  H86  1  0.82360000  0.40280000  0.54060000  1.0 0.1390066821
H  H87  1  0.54060000  0.23300000  0.82360000  1.0 0.1390066821
H  H88  1  0.23300000  0.54060000  0.40280000  1.0 0.1390066821
H  H89  1  0.54060000  0.40280000  0.23300000  1.0 0.1390066821
H  H90  1  0.23300000  0.82360000  0.54060000  1.0 0.1390066821
H  H91  1  0.40280000  0.54060000  0.82360000  1.0 0.1390066821
H  H92  1  0.82360000  0.23300000  0.40280000  1.0 0.1390066821
H  H93  1  0.82360000  0.54060000  0.23300000  1.0 0.1390066821
H  H94  1  0.40280000  0.23300000  0.54060000  1.0 0.1390066821
H  H95  1  0.23300000  0.40280000  0.82360000  1.0 0.1390066821
H  H96  1  0.54060000  0.82360000  0.40280000  1.0 0.1390066821
H  H97  1  0.29600000  0.86090000  0.54710000  1.0 0.1302453207
H  H98  1  0.86090000  0.29600000  0.29600000  1.0 0.1302453207
H  H99  1  0.54710000  0.29600000  0.29600000  1.0 0.1302453207
H  H100  1  0.29600000  0.54710000  0.86090000  1.0 0.1302453207
H  H101  1  0.54710000  0.29600000  0.86090000  1.0 0.1302453207
H  H102  1  0.29600000  0.86090000  0.29600000  1.0 0.1302453207
H  H103  1  0.29600000  0.54710000  0.29600000  1.0 0.1302453207
H  H104  1  0.86090000  0.29600000  0.54710000  1.0 0.1302453207
H  H105  1  0.86090000  0.54710000  0.29600000  1.0 0.1302453207
H  H106  1  0.29600000  0.29600000  0.86090000  1.0 0.1302453207
H  H107  1  0.29600000  0.29600000  0.54710000  1.0 0.1302453207
H  H108  1  0.54710000  0.86090000  0.29600000  1.0 0.1302453207
H  H109  1  0.70400000  0.13910000  0.70400000  1.0 0.1302453207
H  H110  1  0.13910000  0.70400000  0.45290000  1.0 0.1302453207
H  H111  1  0.45290000  0.70400000  0.13910000  1.0 0.1302453207
H  H112  1  0.70400000  0.45290000  0.70400000  1.0 0.1302453207
H  H113  1  0.45290000  0.70400000  0.70400000  1.0 0.1302453207
H  H114  1  0.70400000  0.13910000  0.45290000  1.0 0.1302453207
H  H115  1  0.70400000  0.45290000  0.13910000  1.0 0.1302453207
H  H116  1  0.13910000  0.70400000  0.70400000  1.0 0.1302453207
H  H117  1  0.13910000  0.45290000  0.70400000  1.0 0.1302453207
H  H118  1  0.70400000  0.70400000  0.45290000  1.0 0.1302453207
H  H119  1  0.70400000  0.70400000  0.13910000  1.0 0.1302453207
H  H120  1  0.45290000  0.13910000  0.70400000  1.0 0.1302453207
H  H121  1  0.23730000  0.03090000  0.49450000  1.0 0.0843295434
H  H122  1  0.03090000  0.23730000  0.23730000  1.0 0.0843295434
H  H123  1  0.49450000  0.23730000  0.23730000  1.0 0.0843295434
H  H124  1  0.23730000  0.49450000  0.03090000  1.0 0.0843295434
H  H125  1  0.49450000  0.23730000  0.03090000  1.0 0.0843295434
H  H126  1  0.23730000  0.03090000  0.23730000  1.0 0.0843295434
H  H127  1  0.23730000  0.49450000  0.23730000  1.0 0.0843295434
H  H128  1  0.03090000  0.23730000  0.49450000  1.0 0.0843295434
H  H129  1  0.03090000  0.49450000  0.23730000  1.0 0.0843295434
H  H130  1  0.23730000  0.23730000  0.03090000  1.0 0.0843295434
H  H131  1  0.23730000  0.23730000  0.49450000  1.0 0.0843295434
H  H132  1  0.49450000  0.03090000  0.23730000  1.0 0.0843295434
H  H133  1  0.76270000  0.96910000  0.76270000  1.0 0.0843295434
H  H134  1  0.96910000  0.76270000  0.50550000  1.0 0.0843295434
H  H135  1  0.50550000  0.76270000  0.96910000  1.0 0.0843295434
H  H136  1  0.76270000  0.50550000  0.76270000  1.0 0.0843295434
H  H137  1  0.50550000  0.76270000  0.76270000  1.0 0.0843295434
H  H138  1  0.76270000  0.96910000  0.50550000  1.0 0.0843295434
H  H139  1  0.76270000  0.50550000  0.96910000  1.0 0.0843295434
H  H140  1  0.96910000  0.76270000  0.76270000  1.0 0.0843295434
H  H141  1  0.96910000  0.50550000  0.76270000  1.0 0.0843295434
H  H142  1  0.76270000  0.76270000  0.50550000  1.0 0.0843295434
H  H143  1  0.76270000  0.76270000  0.96910000  1.0 0.0843295434
H  H144  1  0.50550000  0.96910000  0.76270000  1.0 0.0843295434
H  H145  1  0.19180000  0.02840000  0.58800000  1.0 0.1231018799
H  H146  1  0.02840000  0.19180000  0.19180000  1.0 0.1231018799
H  H147  1  0.58800000  0.19180000  0.19180000  1.0 0.1231018799
H  H148  1  0.19180000  0.58800000  0.02840000  1.0 0.1231018799
H  H149  1  0.58800000  0.19180000  0.02840000  1.0 0.1231018799
H  H150  1  0.19180000  0.02840000  0.19180000  1.0 0.1231018799
H  H151  1  0.19180000  0.58800000  0.19180000  1.0 0.1231018799
H  H152  1  0.02840000  0.19180000  0.58800000  1.0 0.1231018799
H  H153  1  0.02840000  0.58800000  0.19180000  1.0 0.1231018799
H  H154  1  0.19180000  0.19180000  0.02840000  1.0 0.1231018799
H  H155  1  0.19180000  0.19180000  0.58800000  1.0 0.1231018799
H  H156  1  0.58800000  0.02840000  0.19180000  1.0 0.1231018799
H  H157  1  0.80820000  0.97160000  0.80820000  1.0 0.1231018799
H  H158  1  0.97160000  0.80820000  0.41200000  1.0 0.1231018799
H  H159  1  0.41200000  0.80820000  0.97160000  1.0 0.1231018799
H  H160  1  0.80820000  0.41200000  0.80820000  1.0 0.1231018799
H  H161  1  0.41200000  0.80820000  0.80820000  1.0 0.1231018799
H  H162  1  0.80820000  0.97160000  0.41200000  1.0 0.1231018799
H  H163  1  0.80820000  0.41200000  0.97160000  1.0 0.1231018799
H  H164  1  0.97160000  0.80820000  0.80820000  1.0 0.1231018799
H  H165  1  0.97160000  0.41200000  0.80820000  1.0 0.1231018799
H  H166  1  0.80820000  0.80820000  0.41200000  1.0 0.1231018799
H  H167  1  0.80820000  0.80820000  0.97160000  1.0 0.1231018799
H  H168  1  0.41200000  0.97160000  0.80820000  1.0 0.1231018799
H  H169  1  0.19850000  0.94210000  0.66090000  1.0 0.1302453207
H  H170  1  0.94210000  0.19850000  0.19850000  1.0 0.1302453207
H  H171  1  0.66090000  0.19850000  0.19850000  1.0 0.1302453207
H  H172  1  0.19850000  0.66090000  0.94210000  1.0 0.1302453207
H  H173  1  0.66090000  0.19850000  0.94210000  1.0 0.1302453207
H  H174  1  0.19850000  0.94210000  0.19850000  1.0 0.1302453207
H  H175  1  0.19850000  0.66090000  0.19850000  1.0 0.1302453207
H  H176  1  0.94210000  0.19850000  0.66090000  1.0 0.1302453207
H  H177  1  0.94210000  0.66090000  0.19850000  1.0 0.1302453207
H  H178  1  0.19850000  0.19850000  0.94210000  1.0 0.1302453207
H  H179  1  0.19850000  0.19850000  0.66090000  1.0 0.1302453207
H  H180  1  0.66090000  0.94210000  0.19850000  1.0 0.1302453207
H  H181  1  0.80150000  0.05790000  0.80150000  1.0 0.1302453207
H  H182  1  0.05790000  0.80150000  0.33910000  1.0 0.1302453207
H  H183  1  0.33910000  0.80150000  0.05790000  1.0 0.1302453207
H  H184  1  0.80150000  0.33910000  0.80150000  1.0 0.1302453207
H  H185  1  0.33910000  0.80150000  0.80150000  1.0 0.1302453207
H  H186  1  0.80150000  0.05790000  0.33910000  1.0 0.1302453207
H  H187  1  0.80150000  0.33910000  0.05790000  1.0 0.1302453207
H  H188  1  0.05790000  0.80150000  0.80150000  1.0 0.1302453207
H  H189  1  0.05790000  0.33910000  0.80150000  1.0 0.1302453207
H  H190  1  0.80150000  0.80150000  0.33910000  1.0 0.1302453207
H  H191  1  0.80150000  0.80150000  0.05790000  1.0 0.1302453207
H  H192  1  0.33910000  0.05790000  0.80150000  1.0 0.1302453207
C  C1  1  0.37662000  0.02504000  0.37662000  1.0 0.407588671
C  C2  1  0.02504000  0.37662000  0.22172000  1.0 0.407588671
C  C3  1  0.37662000  0.22172000  0.37662000  1.0 0.407588671
C  C4  1  0.22172000  0.37662000  0.02504000  1.0 0.407588671
C  C5  1  0.37662000  0.37662000  0.02504000  1.0 0.407588671
C  C6  1  0.22172000  0.02504000  0.37662000  1.0 0.407588671
C  C7  1  0.37662000  0.37662000  0.22172000  1.0 0.407588671
C  C8  1  0.02504000  0.22172000  0.37662000  1.0 0.407588671
C  C9  1  0.02504000  0.37662000  0.37662000  1.0 0.407588671
C  C10  1  0.37662000  0.22172000  0.02504000  1.0 0.407588671
C  C11  1  0.22172000  0.37662000  0.37662000  1.0 0.407588671
C  C12  1  0.37662000  0.02504000  0.22172000  1.0 0.407588671
C  C13  1  0.62338000  0.97496000  0.77828000  1.0 0.407588671
C  C14  1  0.97496000  0.62338000  0.62338000  1.0 0.407588671
C  C15  1  0.62338000  0.77828000  0.97496000  1.0 0.407588671
C  C16  1  0.77828000  0.62338000  0.62338000  1.0 0.407588671
C  C17  1  0.62338000  0.62338000  0.77828000  1.0 0.407588671
C  C18  1  0.77828000  0.97496000  0.62338000  1.0 0.407588671
C  C19  1  0.62338000  0.62338000  0.97496000  1.0 0.407588671
C  C20  1  0.97496000  0.77828000  0.62338000  1.0 0.407588671
C  C21  1  0.97496000  0.62338000  0.77828000  1.0 0.407588671
C  C22  1  0.62338000  0.77828000  0.62338000  1.0 0.407588671
C  C23  1  0.77828000  0.62338000  0.97496000  1.0 0.407588671
C  C24  1  0.62338000  0.97496000  0.62338000  1.0 0.407588671
C  C25  1  0.37600000  0.07692000  0.37600000  1.0 -0.0504047695
C  C26  1  0.07692000  0.37600000  0.17108000  1.0 -0.0504047695
C  C27  1  0.37600000  0.17108000  0.37600000  1.0 -0.0550384009
C  C28  1  0.17108000  0.37600000  0.07692000  1.0 -0.0504047695
C  C29  1  0.37600000  0.37600000  0.07692000  1.0 -0.0504047695
C  C30  1  0.17108000  0.07692000  0.37600000  1.0 -0.0504047695
C  C31  1  0.37600000  0.37600000  0.17108000  1.0 -0.0550384009
C  C32  1  0.07692000  0.17108000  0.37600000  1.0 -0.0504047695
C  C33  1  0.07692000  0.37600000  0.37600000  1.0 -0.0504047695
C  C34  1  0.37600000  0.17108000  0.07692000  1.0 -0.0504047695
C  C35  1  0.17108000  0.37600000  0.37600000  1.0 -0.0504047695
C  C36  1  0.37600000  0.07692000  0.17108000  1.0 -0.0550384009
C  C37  1  0.62400000  0.92308000  0.82892000  1.0 -0.0504047695
C  C38  1  0.92308000  0.62400000  0.62400000  1.0 -0.0504047695
C  C39  1  0.62400000  0.82892000  0.92308000  1.0 -0.0550384009
C  C40  1  0.82892000  0.62400000  0.62400000  1.0 -0.0504047695
C  C41  1  0.62400000  0.62400000  0.82892000  1.0 -0.0550384009
C  C42  1  0.82892000  0.92308000  0.62400000  1.0 -0.0504047695
C  C43  1  0.62400000  0.62400000  0.92308000  1.0 -0.0550384009
C  C44  1  0.92308000  0.82892000  0.62400000  1.0 -0.0550384009
C  C45  1  0.92308000  0.62400000  0.82892000  1.0 -0.0550384009
C  C46  1  0.62400000  0.82892000  0.62400000  1.0 -0.0504047695
C  C47  1  0.82892000  0.62400000  0.92308000  1.0 -0.0550384009
C  C48  1  0.62400000  0.92308000  0.62400000  1.0 -0.0504047695
C  C49  1  0.33691000  0.09885000  0.41777000  1.0 -0.110059315
C  C50  1  0.09885000  0.33691000  0.14647000  1.0 -0.110059315
C  C51  1  0.41777000  0.14647000  0.33691000  1.0 -0.110059315
C  C52  1  0.14647000  0.41777000  0.09885000  1.0 -0.110059315
C  C53  1  0.41777000  0.33691000  0.09885000  1.0 -0.110059315
C  C54  1  0.14647000  0.09885000  0.33691000  1.0 -0.110059315
C  C55  1  0.33691000  0.41777000  0.14647000  1.0 -0.110059315
C  C56  1  0.09885000  0.14647000  0.41777000  1.0 -0.110059315
C  C57  1  0.09885000  0.41777000  0.33691000  1.0 -0.110059315
C  C58  1  0.33691000  0.14647000  0.09885000  1.0 -0.110059315
C  C59  1  0.14647000  0.33691000  0.41777000  1.0 -0.110059315
C  C60  1  0.41777000  0.09885000  0.14647000  1.0 -0.110059315
C  C61  1  0.66309000  0.90115000  0.85353000  1.0 -0.110059315
C  C62  1  0.90115000  0.66309000  0.58223000  1.0 -0.110059315
C  C63  1  0.58223000  0.85353000  0.90115000  1.0 -0.110059315
C  C64  1  0.85353000  0.58223000  0.66309000  1.0 -0.110059315
C  C65  1  0.58223000  0.66309000  0.85353000  1.0 -0.110059315
C  C66  1  0.85353000  0.90115000  0.58223000  1.0 -0.110059315
C  C67  1  0.66309000  0.58223000  0.90115000  1.0 -0.110059315
C  C68  1  0.90115000  0.85353000  0.66309000  1.0 -0.110059315
C  C69  1  0.90115000  0.58223000  0.85353000  1.0 -0.110059315
C  C70  1  0.66309000  0.85353000  0.58223000  1.0 -0.110059315
C  C71  1  0.85353000  0.66309000  0.90115000  1.0 -0.110059315
C  C72  1  0.58223000  0.90115000  0.66309000  1.0 -0.110059315
C  C73  1  0.66309000  0.90115000  0.58223000  1.0 -0.110059315
C  C74  1  0.90115000  0.66309000  0.85353000  1.0 -0.110059315
C  C75  1  0.58223000  0.85353000  0.66309000  1.0 -0.110059315
C  C76  1  0.85353000  0.58223000  0.90115000  1.0 -0.110059315
C  C77  1  0.58223000  0.66309000  0.90115000  1.0 -0.110059315
C  C78  1  0.85353000  0.90115000  0.66309000  1.0 -0.110059315
C  C79  1  0.66309000  0.58223000  0.85353000  1.0 -0.110059315
C  C80  1  0.90115000  0.85353000  0.58223000  1.0 -0.110059315
C  C81  1  0.90115000  0.58223000  0.66309000  1.0 -0.110059315
C  C82  1  0.66309000  0.85353000  0.90115000  1.0 -0.110059315
C  C83  1  0.85353000  0.66309000  0.58223000  1.0 -0.110059315
C  C84  1  0.58223000  0.90115000  0.85353000  1.0 -0.110059315
C  C85  1  0.33691000  0.09885000  0.14647000  1.0 -0.110059315
C  C86  1  0.09885000  0.33691000  0.41777000  1.0 -0.110059315
C  C87  1  0.41777000  0.14647000  0.09885000  1.0 -0.110059315
C  C88  1  0.14647000  0.41777000  0.33691000  1.0 -0.110059315
C  C89  1  0.41777000  0.33691000  0.14647000  1.0 -0.110059315
C  C90  1  0.14647000  0.09885000  0.41777000  1.0 -0.110059315
C  C91  1  0.33691000  0.41777000  0.09885000  1.0 -0.110059315
C  C92  1  0.09885000  0.14647000  0.33691000  1.0 -0.110059315
C  C93  1  0.09885000  0.41777000  0.14647000  1.0 -0.110059315
C  C94  1  0.33691000  0.14647000  0.41777000  1.0 -0.110059315
C  C95  1  0.14647000  0.33691000  0.09885000  1.0 -0.110059315
C  C96  1  0.41777000  0.09885000  0.33691000  1.0 -0.110059315
C  C97  1  0.43030000  0.86980000  0.43030000  1.0 0.5467578871
C  C98  1  0.86980000  0.43030000  0.26960000  1.0 0.5467578871
C  C99  1  0.43030000  0.26960000  0.43030000  1.0 0.5467578871
C  C100  1  0.26960000  0.43030000  0.86980000  1.0 0.5467578871
C  C101  1  0.43030000  0.43030000  0.86980000  1.0 0.5467578871
C  C102  1  0.26960000  0.86980000  0.43030000  1.0 0.5467578871
C  C103  1  0.43030000  0.43030000  0.26960000  1.0 0.5467578871
C  C104  1  0.86980000  0.26960000  0.43030000  1.0 0.5467578871
C  C105  1  0.86980000  0.43030000  0.43030000  1.0 0.5467578871
C  C106  1  0.43030000  0.26960000  0.86980000  1.0 0.5467578871
C  C107  1  0.26960000  0.43030000  0.43030000  1.0 0.5467578871
C  C108  1  0.43030000  0.86980000  0.26960000  1.0 0.5467578871
C  C109  1  0.56970000  0.13020000  0.73040000  1.0 0.5467578871
C  C110  1  0.13020000  0.56970000  0.56970000  1.0 0.5467578871
C  C111  1  0.56970000  0.73040000  0.13020000  1.0 0.5467578871
C  C112  1  0.73040000  0.56970000  0.56970000  1.0 0.5467578871
C  C113  1  0.56970000  0.56970000  0.73040000  1.0 0.5467578871
C  C114  1  0.73040000  0.13020000  0.56970000  1.0 0.5467578871
C  C115  1  0.56970000  0.56970000  0.13020000  1.0 0.5467578871
C  C116  1  0.13020000  0.73040000  0.56970000  1.0 0.5467578871
C  C117  1  0.13020000  0.56970000  0.73040000  1.0 0.5467578871
C  C118  1  0.56970000  0.73040000  0.56970000  1.0 0.5467578871
C  C119  1  0.73040000  0.56970000  0.13020000  1.0 0.5467578871
C  C120  1  0.56970000  0.13020000  0.56970000  1.0 0.5467578871
C  C121  1  0.46631000  0.83047000  0.46631000  1.0 0.037612225
C  C122  1  0.83047000  0.46631000  0.23691000  1.0 0.037612225
C  C123  1  0.46631000  0.23691000  0.46631000  1.0 0.037612225
C  C124  1  0.23691000  0.46631000  0.83047000  1.0 0.037612225
C  C125  1  0.46631000  0.46631000  0.83047000  1.0 0.037612225
C  C126  1  0.23691000  0.83047000  0.46631000  1.0 0.037612225
C  C127  1  0.46631000  0.46631000  0.23691000  1.0 0.037612225
C  C128  1  0.83047000  0.23691000  0.46631000  1.0 0.037612225
C  C129  1  0.83047000  0.46631000  0.46631000  1.0 0.037612225
C  C130  1  0.46631000  0.23691000  0.83047000  1.0 0.037612225
C  C131  1  0.23691000  0.46631000  0.46631000  1.0 0.037612225
C  C132  1  0.46631000  0.83047000  0.23691000  1.0 0.037612225
C  C133  1  0.53369000  0.16953000  0.76309000  1.0 0.037612225
C  C134  1  0.16953000  0.53369000  0.53369000  1.0 0.037612225
C  C135  1  0.53369000  0.76309000  0.16953000  1.0 0.037612225
C  C136  1  0.76309000  0.53369000  0.53369000  1.0 0.037612225
C  C137  1  0.53369000  0.53369000  0.76309000  1.0 0.037612225
C  C138  1  0.76309000  0.16953000  0.53369000  1.0 0.037612225
C  C139  1  0.53369000  0.53369000  0.16953000  1.0 0.037612225
C  C140  1  0.16953000  0.76309000  0.53369000  1.0 0.037612225
C  C141  1  0.16953000  0.53369000  0.76309000  1.0 0.037612225
C  C142  1  0.53369000  0.76309000  0.53369000  1.0 0.037612225
C  C143  1  0.76309000  0.53369000  0.16953000  1.0 0.037612225
C  C144  1  0.53369000  0.16953000  0.53369000  1.0 0.037612225
C  C145  1  0.44247000  0.81273000  0.52391000  1.0 -0.0878311103
C  C146  1  0.81273000  0.44247000  0.22089000  1.0 -0.0878311103
C  C147  1  0.52391000  0.22089000  0.44247000  1.0 -0.0878311103
C  C148  1  0.22089000  0.52391000  0.81273000  1.0 -0.0878311103
C  C149  1  0.52391000  0.44247000  0.81273000  1.0 -0.0878311103
C  C150  1  0.22089000  0.81273000  0.44247000  1.0 -0.0878311103
C  C151  1  0.44247000  0.52391000  0.22089000  1.0 -0.0878311103
C  C152  1  0.81273000  0.22089000  0.52391000  1.0 -0.0878311103
C  C153  1  0.81273000  0.52391000  0.44247000  1.0 -0.0878311103
C  C154  1  0.44247000  0.22089000  0.81273000  1.0 -0.0878311103
C  C155  1  0.22089000  0.44247000  0.52391000  1.0 -0.0878311103
C  C156  1  0.52391000  0.81273000  0.22089000  1.0 -0.0878311103
C  C157  1  0.55753000  0.18727000  0.77911000  1.0 -0.0878311103
C  C158  1  0.18727000  0.55753000  0.47609000  1.0 -0.0878311103
C  C159  1  0.47609000  0.77911000  0.18727000  1.0 -0.0878311103
C  C160  1  0.77911000  0.47609000  0.55753000  1.0 -0.0878311103
C  C161  1  0.47609000  0.55753000  0.77911000  1.0 -0.0878311103
C  C162  1  0.77911000  0.18727000  0.47609000  1.0 -0.0878311103
C  C163  1  0.55753000  0.47609000  0.18727000  1.0 -0.0878311103
C  C164  1  0.18727000  0.77911000  0.55753000  1.0 -0.0878311103
C  C165  1  0.18727000  0.47609000  0.77911000  1.0 -0.0878311103
C  C166  1  0.55753000  0.77911000  0.47609000  1.0 -0.0878311103
C  C167  1  0.77911000  0.55753000  0.18727000  1.0 -0.0878311103
C  C168  1  0.47609000  0.18727000  0.55753000  1.0 -0.0878311103
C  C169  1  0.55753000  0.18727000  0.47609000  1.0 -0.0878311103
C  C170  1  0.18727000  0.55753000  0.77911000  1.0 -0.0878311103
C  C171  1  0.47609000  0.77911000  0.55753000  1.0 -0.0878311103
C  C172  1  0.77911000  0.47609000  0.18727000  1.0 -0.0878311103
C  C173  1  0.47609000  0.55753000  0.18727000  1.0 -0.0878311103
C  C174  1  0.77911000  0.18727000  0.55753000  1.0 -0.0878311103
C  C175  1  0.55753000  0.47609000  0.77911000  1.0 -0.0878311103
C  C176  1  0.18727000  0.77911000  0.47609000  1.0 -0.0878311103
C  C177  1  0.18727000  0.47609000  0.55753000  1.0 -0.0878311103
C  C178  1  0.55753000  0.77911000  0.18727000  1.0 -0.0878311103
C  C179  1  0.77911000  0.55753000  0.47609000  1.0 -0.0878311103
C  C180  1  0.47609000  0.18727000  0.77911000  1.0 -0.0878311103
C  C181  1  0.44247000  0.81273000  0.22089000  1.0 -0.0878311103
C  C182  1  0.81273000  0.44247000  0.52391000  1.0 -0.0878311103
C  C183  1  0.52391000  0.22089000  0.81273000  1.0 -0.0878311103
C  C184  1  0.22089000  0.52391000  0.44247000  1.0 -0.0878311103
C  C185  1  0.52391000  0.44247000  0.22089000  1.0 -0.0878311103
C  C186  1  0.22089000  0.81273000  0.52391000  1.0 -0.0878311103
C  C187  1  0.44247000  0.52391000  0.81273000  1.0 -0.0878311103
C  C188  1  0.81273000  0.22089000  0.44247000  1.0 -0.0878311103
C  C189  1  0.81273000  0.52391000  0.22089000  1.0 -0.0878311103
C  C190  1  0.44247000  0.22089000  0.52391000  1.0 -0.0878311103
C  C191  1  0.22089000  0.44247000  0.81273000  1.0 -0.0878311103
C  C192  1  0.52391000  0.81273000  0.44247000  1.0 -0.0878311103
C  C193  1  0.24790000  0.89332000  0.61088000  1.0 -0.0504047695
C  C194  1  0.89332000  0.24790000  0.24790000  1.0 -0.0504047695
C  C195  1  0.61088000  0.24790000  0.24790000  1.0 -0.0504047695
C  C196  1  0.24790000  0.61088000  0.89332000  1.0 -0.0504047695
C  C197  1  0.61088000  0.24790000  0.89332000  1.0 -0.0504047695
C  C198  1  0.24790000  0.89332000  0.24790000  1.0 -0.0504047695
C  C199  1  0.24790000  0.61088000  0.24790000  1.0 -0.0504047695
C  C200  1  0.89332000  0.24790000  0.61088000  1.0 -0.0504047695
C  C201  1  0.89332000  0.61088000  0.24790000  1.0 -0.0504047695
C  C202  1  0.24790000  0.24790000  0.89332000  1.0 -0.0504047695
C  C203  1  0.24790000  0.24790000  0.61088000  1.0 -0.0504047695
C  C204  1  0.61088000  0.89332000  0.24790000  1.0 -0.0504047695
C  C205  1  0.75210000  0.10668000  0.75210000  1.0 -0.0504047695
C  C206  1  0.10668000  0.75210000  0.38912000  1.0 -0.0504047695
C  C207  1  0.38912000  0.75210000  0.10668000  1.0 -0.0504047695
C  C208  1  0.75210000  0.38912000  0.75210000  1.0 -0.0504047695
C  C209  1  0.38912000  0.75210000  0.75210000  1.0 -0.0504047695
C  C210  1  0.75210000  0.10668000  0.38912000  1.0 -0.0504047695
C  C211  1  0.75210000  0.38912000  0.10668000  1.0 -0.0504047695
C  C212  1  0.10668000  0.75210000  0.75210000  1.0 -0.0504047695
C  C213  1  0.10668000  0.38912000  0.75210000  1.0 -0.0504047695
C  C214  1  0.75210000  0.75210000  0.38912000  1.0 -0.0504047695
C  C215  1  0.75210000  0.75210000  0.10668000  1.0 -0.0504047695
C  C216  1  0.38912000  0.10668000  0.75210000  1.0 -0.0504047695
C  C217  1  0.27486000  0.89491000  0.55537000  1.0 0.0843295434
C  C218  1  0.89491000  0.27486000  0.27486000  1.0 0.0843295434
C  C219  1  0.55537000  0.27486000  0.27486000  1.0 0.0843295434
C  C220  1  0.27486000  0.55537000  0.89491000  1.0 0.0843295434
C  C221  1  0.55537000  0.27486000  0.89491000  1.0 0.0843295434
C  C222  1  0.27486000  0.89491000  0.27486000  1.0 0.0843295434
C  C223  1  0.27486000  0.55537000  0.27486000  1.0 0.0843295434
C  C224  1  0.89491000  0.27486000  0.55537000  1.0 0.0843295434
C  C225  1  0.89491000  0.55537000  0.27486000  1.0 0.0843295434
C  C226  1  0.27486000  0.27486000  0.89491000  1.0 0.0843295434
C  C227  1  0.27486000  0.27486000  0.55537000  1.0 0.0843295434
C  C228  1  0.55537000  0.89491000  0.27486000  1.0 0.0843295434
C  C229  1  0.72514000  0.10509000  0.72514000  1.0 0.0843295434
C  C230  1  0.10509000  0.72514000  0.44463000  1.0 0.0843295434
C  C231  1  0.44463000  0.72514000  0.10509000  1.0 0.0843295434
C  C232  1  0.72514000  0.44463000  0.72514000  1.0 0.0843295434
C  C233  1  0.44463000  0.72514000  0.72514000  1.0 0.0843295434
C  C234  1  0.72514000  0.10509000  0.44463000  1.0 0.0843295434
C  C235  1  0.72514000  0.44463000  0.10509000  1.0 0.0843295434
C  C236  1  0.10509000  0.72514000  0.72514000  1.0 0.0843295434
C  C237  1  0.10509000  0.44463000  0.72514000  1.0 0.0843295434
C  C238  1  0.72514000  0.72514000  0.44463000  1.0 0.0843295434
C  C239  1  0.72514000  0.72514000  0.10509000  1.0 0.0843295434
C  C240  1  0.44463000  0.10509000  0.72514000  1.0 0.0843295434
C  C241  1  0.23995000  0.99597000  0.52413000  1.0 0.037612225
C  C242  1  0.99597000  0.23995000  0.23995000  1.0 0.037612225
C  C243  1  0.52413000  0.23995000  0.23995000  1.0 0.037612225
C  C244  1  0.23995000  0.52413000  0.99597000  1.0 0.037612225
C  C245  1  0.52413000  0.23995000  0.99597000  1.0 0.037612225
C  C246  1  0.23995000  0.99597000  0.23995000  1.0 0.037612225
C  C247  1  0.23995000  0.52413000  0.23995000  1.0 0.037612225
C  C248  1  0.99597000  0.23995000  0.52413000  1.0 0.037612225
C  C249  1  0.99597000  0.52413000  0.23995000  1.0 0.037612225
C  C250  1  0.23995000  0.23995000  0.99597000  1.0 0.037612225
C  C251  1  0.23995000  0.23995000  0.52413000  1.0 0.037612225
C  C252  1  0.52413000  0.99597000  0.23995000  1.0 0.037612225
C  C253  1  0.76005000  0.00403000  0.76005000  1.0 0.037612225
C  C254  1  0.00403000  0.76005000  0.47587000  1.0 0.037612225
C  C255  1  0.47587000  0.76005000  0.00403000  1.0 0.037612225
C  C256  1  0.76005000  0.47587000  0.76005000  1.0 0.037612225
C  C257  1  0.47587000  0.76005000  0.76005000  1.0 0.037612225
C  C258  1  0.76005000  0.00403000  0.47587000  1.0 0.037612225
C  C259  1  0.76005000  0.47587000  0.00403000  1.0 0.037612225
C  C260  1  0.00403000  0.76005000  0.76005000  1.0 0.037612225
C  C261  1  0.00403000  0.47587000  0.76005000  1.0 0.037612225
C  C262  1  0.76005000  0.76005000  0.47587000  1.0 0.037612225
C  C263  1  0.76005000  0.76005000  0.00403000  1.0 0.037612225
C  C264  1  0.47587000  0.00403000  0.76005000  1.0 0.037612225
C  C265  1  0.21296000  0.99446000  0.57962000  1.0 -0.1512778216
C  C266  1  0.99446000  0.21296000  0.21296000  1.0 -0.1512778216
C  C267  1  0.57962000  0.21296000  0.21296000  1.0 -0.1512778216
C  C268  1  0.21296000  0.57962000  0.99446000  1.0 -0.1512778216
C  C269  1  0.57962000  0.21296000  0.99446000  1.0 -0.1512778216
C  C270  1  0.21296000  0.99446000  0.21296000  1.0 -0.1512778216
C  C271  1  0.21296000  0.57962000  0.21296000  1.0 -0.1512778216
C  C272  1  0.99446000  0.21296000  0.57962000  1.0 -0.1512778216
C  C273  1  0.99446000  0.57962000  0.21296000  1.0 -0.1512778216
C  C274  1  0.21296000  0.21296000  0.99446000  1.0 -0.1512778216
C  C275  1  0.21296000  0.21296000  0.57962000  1.0 -0.1512778216
C  C276  1  0.57962000  0.99446000  0.21296000  1.0 -0.1512778216
C  C277  1  0.78704000  0.00554000  0.78704000  1.0 -0.1512778216
C  C278  1  0.00554000  0.78704000  0.42038000  1.0 -0.1512778216
C  C279  1  0.42038000  0.78704000  0.00554000  1.0 -0.1512778216
C  C280  1  0.78704000  0.42038000  0.78704000  1.0 -0.1512778216
C  C281  1  0.42038000  0.78704000  0.78704000  1.0 -0.1512778216
C  C282  1  0.78704000  0.00554000  0.42038000  1.0 -0.1512778216
C  C283  1  0.78704000  0.42038000  0.00554000  1.0 -0.1512778216
C  C284  1  0.00554000  0.78704000  0.78704000  1.0 -0.1512778216
C  C285  1  0.00554000  0.42038000  0.78704000  1.0 -0.1512778216
C  C286  1  0.78704000  0.78704000  0.42038000  1.0 -0.1512778216
C  C287  1  0.78704000  0.78704000  0.00554000  1.0 -0.1512778216
C  C288  1  0.42038000  0.00554000  0.78704000  1.0 -0.1512778216
C  C289  1  0.21691000  0.94318000  0.62300000  1.0 -0.0440891163
C  C290  1  0.94318000  0.21691000  0.21691000  1.0 -0.0440891163
C  C291  1  0.62300000  0.21691000  0.21691000  1.0 -0.0440891163
C  C292  1  0.21691000  0.62300000  0.94318000  1.0 -0.0440891163
C  C293  1  0.62300000  0.21691000  0.94318000  1.0 -0.0440891163
C  C294  1  0.21691000  0.94318000  0.21691000  1.0 -0.0440891163
C  C295  1  0.21691000  0.62300000  0.21691000  1.0 -0.0440891163
C  C296  1  0.94318000  0.21691000  0.62300000  1.0 -0.0440891163
C  C297  1  0.94318000  0.62300000  0.21691000  1.0 -0.0440891163
C  C298  1  0.21691000  0.21691000  0.94318000  1.0 -0.0440891163
C  C299  1  0.21691000  0.21691000  0.62300000  1.0 -0.0440891163
C  C300  1  0.62300000  0.94318000  0.21691000  1.0 -0.0440891163
C  C301  1  0.78309000  0.05682000  0.78309000  1.0 -0.0440891163
C  C302  1  0.05682000  0.78309000  0.37700000  1.0 -0.0440891163
C  C303  1  0.37700000  0.78309000  0.05682000  1.0 -0.0440891163
C  C304  1  0.78309000  0.37700000  0.78309000  1.0 -0.0440891163
C  C305  1  0.37700000  0.78309000  0.78309000  1.0 -0.0440891163
C  C306  1  0.78309000  0.05682000  0.37700000  1.0 -0.0440891163
C  C307  1  0.78309000  0.37700000  0.05682000  1.0 -0.0440891163
C  C308  1  0.05682000  0.78309000  0.78309000  1.0 -0.0440891163
C  C309  1  0.05682000  0.37700000  0.78309000  1.0 -0.0440891163
C  C310  1  0.78309000  0.78309000  0.37700000  1.0 -0.0440891163
C  C311  1  0.78309000  0.78309000  0.05682000  1.0 -0.0440891163
C  C312  1  0.37700000  0.05682000  0.78309000  1.0 -0.0440891163
C  C313  1  0.25310000  0.83630000  0.65750000  1.0 0.5565830149
C  C314  1  0.83630000  0.25310000  0.25310000  1.0 0.5565830149
C  C315  1  0.65750000  0.25310000  0.25310000  1.0 0.5565830149
C  C316  1  0.25310000  0.65750000  0.83630000  1.0 0.5565830149
C  C317  1  0.65750000  0.25310000  0.83630000  1.0 0.5565830149
C  C318  1  0.25310000  0.83630000  0.25310000  1.0 0.5565830149
C  C319  1  0.25310000  0.65750000  0.25310000  1.0 0.5565830149
C  C320  1  0.83630000  0.25310000  0.65750000  1.0 0.5565830149
C  C321  1  0.83630000  0.65750000  0.25310000  1.0 0.5565830149
C  C322  1  0.25310000  0.25310000  0.83630000  1.0 0.5565830149
C  C323  1  0.25310000  0.25310000  0.65750000  1.0 0.5565830149
C  C324  1  0.65750000  0.83630000  0.25310000  1.0 0.5565830149
C  C325  1  0.74690000  0.16370000  0.74690000  1.0 0.5565830149
C  C326  1  0.16370000  0.74690000  0.34250000  1.0 0.5565830149
C  C327  1  0.34250000  0.74690000  0.16370000  1.0 0.5565830149
C  C328  1  0.74690000  0.34250000  0.74690000  1.0 0.5565830149
C  C329  1  0.34250000  0.74690000  0.74690000  1.0 0.5565830149
C  C330  1  0.74690000  0.16370000  0.34250000  1.0 0.5565830149
C  C331  1  0.74690000  0.34250000  0.16370000  1.0 0.5565830149
C  C332  1  0.16370000  0.74690000  0.74690000  1.0 0.5565830149
C  C333  1  0.16370000  0.34250000  0.74690000  1.0 0.5565830149
C  C334  1  0.74690000  0.74690000  0.34250000  1.0 0.5565830149
C  C335  1  0.74690000  0.74690000  0.16370000  1.0 0.5565830149
C  C336  1  0.34250000  0.16370000  0.74690000  1.0 0.5565830149
N  N1  1  0.27091000  0.94619000  0.51199000  1.0 -0.3254917155
N  N2  1  0.94619000  0.27091000  0.27091000  1.0 -0.3235424431
N  N3  1  0.51199000  0.27091000  0.27091000  1.0 -0.3254917155
N  N4  1  0.27091000  0.51199000  0.94619000  1.0 -0.3254917155
N  N5  1  0.51199000  0.27091000  0.94619000  1.0 -0.3235424431
N  N6  1  0.27091000  0.94619000  0.27091000  1.0 -0.3254917155
N  N7  1  0.27091000  0.51199000  0.27091000  1.0 -0.3254917155
N  N8  1  0.94619000  0.27091000  0.51199000  1.0 -0.3235424431
N  N9  1  0.94619000  0.51199000  0.27091000  1.0 -0.3235424431
N  N10  1  0.27091000  0.27091000  0.94619000  1.0 -0.3254917155
N  N11  1  0.27091000  0.27091000  0.51199000  1.0 -0.3254917155
N  N12  1  0.51199000  0.94619000  0.27091000  1.0 -0.3254917155
N  N13  1  0.72909000  0.05381000  0.72909000  1.0 -0.3235424431
N  N14  1  0.05381000  0.72909000  0.48801000  1.0 -0.3235424431
N  N15  1  0.48801000  0.72909000  0.05381000  1.0 -0.3235424431
N  N16  1  0.72909000  0.48801000  0.72909000  1.0 -0.3235424431
N  N17  1  0.48801000  0.72909000  0.72909000  1.0 -0.3235424431
N  N18  1  0.72909000  0.05381000  0.48801000  1.0 -0.3235424431
N  N19  1  0.72909000  0.48801000  0.05381000  1.0 -0.3254917155
N  N20  1  0.05381000  0.72909000  0.72909000  1.0 -0.3254917155
N  N21  1  0.05381000  0.48801000  0.72909000  1.0 -0.3254917155
N  N22  1  0.72909000  0.72909000  0.48801000  1.0 -0.3235424431
N  N23  1  0.72909000  0.72909000  0.05381000  1.0 -0.3235424431
N  N24  1  0.48801000  0.05381000  0.72909000  1.0 -0.3235424431
O  O1  1  0.35136000  0.94592000  0.35136000  1.0 -0.5713021032
O  O2  1  0.94592000  0.35136000  0.35136000  1.0 -0.5713021032
O  O3  1  0.35136000  0.35136000  0.35136000  1.0 -0.5713021032
O  O4  1  0.35136000  0.35136000  0.94592000  1.0 -0.5713021032
O  O5  1  0.64864000  0.05408000  0.64864000  1.0 -0.5713021032
O  O6  1  0.05408000  0.64864000  0.64864000  1.0 -0.5761944624
O  O7  1  0.64864000  0.64864000  0.05408000  1.0 -0.5713021032
O  O8  1  0.64864000  0.64864000  0.64864000  1.0 -0.5761944624
O  O9  1  0.32890000  0.01190000  0.41370000  1.0 -0.1512778216
O  O10  1  0.01190000  0.32890000  0.24550000  1.0 -0.1512778216
O  O11  1  0.41370000  0.24550000  0.32890000  1.0 -0.1512778216
O  O12  1  0.24550000  0.41370000  0.01190000  1.0 -0.1512778216
O  O13  1  0.41370000  0.32890000  0.01190000  1.0 -0.1512778216
O  O14  1  0.24550000  0.01190000  0.32890000  1.0 -0.1512778216
O  O15  1  0.32890000  0.41370000  0.24550000  1.0 -0.1512778216
O  O16  1  0.01190000  0.24550000  0.41370000  1.0 -0.1512778216
O  O17  1  0.01190000  0.41370000  0.32890000  1.0 -0.1512778216
O  O18  1  0.32890000  0.24550000  0.01190000  1.0 -0.1512778216
O  O19  1  0.24550000  0.32890000  0.41370000  1.0 -0.1512778216
O  O20  1  0.41370000  0.01190000  0.24550000  1.0 -0.1512778216
O  O21  1  0.67110000  0.98810000  0.75450000  1.0 -0.1512778216
O  O22  1  0.98810000  0.67110000  0.58630000  1.0 -0.1512778216
O  O23  1  0.58630000  0.75450000  0.98810000  1.0 -0.1512778216
O  O24  1  0.75450000  0.58630000  0.67110000  1.0 -0.1512778216
O  O25  1  0.58630000  0.67110000  0.75450000  1.0 -0.1512778216
O  O26  1  0.75450000  0.98810000  0.58630000  1.0 -0.1512778216
O  O27  1  0.67110000  0.58630000  0.98810000  1.0 -0.1512778216
O  O28  1  0.98810000  0.75450000  0.67110000  1.0 -0.1512778216
O  O29  1  0.98810000  0.58630000  0.75450000  1.0 -0.1512778216
O  O30  1  0.67110000  0.75450000  0.58630000  1.0 -0.1512778216
O  O31  1  0.75450000  0.67110000  0.98810000  1.0 -0.1512778216
O  O32  1  0.58630000  0.98810000  0.67110000  1.0 -0.1512778216
O  O33  1  0.67110000  0.98810000  0.58630000  1.0 -0.1512778216
O  O34  1  0.98810000  0.67110000  0.75450000  1.0 -0.1512778216
O  O35  1  0.58630000  0.75450000  0.67110000  1.0 -0.1512778216
O  O36  1  0.75450000  0.58630000  0.98810000  1.0 -0.1512778216
O  O37  1  0.58630000  0.67110000  0.98810000  1.0 -0.1512778216
O  O38  1  0.75450000  0.98810000  0.67110000  1.0 -0.1512778216
O  O39  1  0.67110000  0.58630000  0.75450000  1.0 -0.1512778216
O  O40  1  0.98810000  0.75450000  0.58630000  1.0 -0.1512778216
O  O41  1  0.98810000  0.58630000  0.67110000  1.0 -0.1512778216
O  O42  1  0.67110000  0.75450000  0.98810000  1.0 -0.1512778216
O  O43  1  0.75450000  0.67110000  0.58630000  1.0 -0.1512778216
O  O44  1  0.58630000  0.98810000  0.75450000  1.0 -0.1512778216
O  O45  1  0.32890000  0.01190000  0.24550000  1.0 -0.1512778216
O  O46  1  0.01190000  0.32890000  0.41370000  1.0 -0.1512778216
O  O47  1  0.41370000  0.24550000  0.01190000  1.0 -0.1512778216
O  O48  1  0.24550000  0.41370000  0.32890000  1.0 -0.1512778216
O  O49  1  0.41370000  0.32890000  0.24550000  1.0 -0.1512778216
O  O50  1  0.24550000  0.01190000  0.41370000  1.0 -0.1512778216
O  O51  1  0.32890000  0.41370000  0.01190000  1.0 -0.1512778216
O  O52  1  0.01190000  0.24550000  0.32890000  1.0 -0.1512778216
O  O53  1  0.01190000  0.41370000  0.24550000  1.0 -0.1512778216
O  O54  1  0.32890000  0.24550000  0.41370000  1.0 -0.1512778216
O  O55  1  0.24550000  0.32890000  0.01190000  1.0 -0.1512778216
O  O56  1  0.41370000  0.01190000  0.32890000  1.0 -0.1512778216
O  O57  1  0.37930000  0.87830000  0.45330000  1.0 -0.346910865
O  O58  1  0.87830000  0.37930000  0.28910000  1.0 -0.346910865
O  O59  1  0.45330000  0.28910000  0.37930000  1.0 -0.346910865
O  O60  1  0.28910000  0.45330000  0.87830000  1.0 -0.346910865
O  O61  1  0.45330000  0.37930000  0.87830000  1.0 -0.346910865
O  O62  1  0.28910000  0.87830000  0.37930000  1.0 -0.346910865
O  O63  1  0.37930000  0.45330000  0.28910000  1.0 -0.346910865
O  O64  1  0.87830000  0.28910000  0.45330000  1.0 -0.346910865
O  O65  1  0.87830000  0.45330000  0.37930000  1.0 -0.346910865
O  O66  1  0.37930000  0.28910000  0.87830000  1.0 -0.346910865
O  O67  1  0.28910000  0.37930000  0.45330000  1.0 -0.346910865
O  O68  1  0.45330000  0.87830000  0.28910000  1.0 -0.346910865
O  O69  1  0.62070000  0.12170000  0.71090000  1.0 -0.346910865
O  O70  1  0.12170000  0.62070000  0.54670000  1.0 -0.346910865
O  O71  1  0.54670000  0.71090000  0.12170000  1.0 -0.346910865
O  O72  1  0.71090000  0.54670000  0.62070000  1.0 -0.346910865
O  O73  1  0.54670000  0.62070000  0.71090000  1.0 -0.346910865
O  O74  1  0.71090000  0.12170000  0.54670000  1.0 -0.346910865
O  O75  1  0.62070000  0.54670000  0.12170000  1.0 -0.346910865
O  O76  1  0.12170000  0.71090000  0.62070000  1.0 -0.346910865
O  O77  1  0.12170000  0.54670000  0.71090000  1.0 -0.346910865
O  O78  1  0.62070000  0.71090000  0.54670000  1.0 -0.346910865
O  O79  1  0.71090000  0.62070000  0.12170000  1.0 -0.346910865
O  O80  1  0.54670000  0.12170000  0.62070000  1.0 -0.346910865
O  O81  1  0.62070000  0.12170000  0.54670000  1.0 -0.346910865
O  O82  1  0.12170000  0.62070000  0.71090000  1.0 -0.346910865
O  O83  1  0.54670000  0.71090000  0.62070000  1.0 -0.346910865
O  O84  1  0.71090000  0.54670000  0.12170000  1.0 -0.346910865
O  O85  1  0.54670000  0.62070000  0.12170000  1.0 -0.346910865
O  O86  1  0.71090000  0.12170000  0.62070000  1.0 -0.346910865
O  O87  1  0.62070000  0.54670000  0.71090000  1.0 -0.346910865
O  O88  1  0.12170000  0.71090000  0.54670000  1.0 -0.346910865
O  O89  1  0.12170000  0.54670000  0.62070000  1.0 -0.346910865
O  O90  1  0.62070000  0.71090000  0.12170000  1.0 -0.346910865
O  O91  1  0.71090000  0.62070000  0.54670000  1.0 -0.346910865
O  O92  1  0.54670000  0.12170000  0.71090000  1.0 -0.346910865
O  O93  1  0.37930000  0.87830000  0.28910000  1.0 -0.346910865
O  O94  1  0.87830000  0.37930000  0.45330000  1.0 -0.346910865
O  O95  1  0.45330000  0.28910000  0.87830000  1.0 -0.346910865
O  O96  1  0.28910000  0.45330000  0.37930000  1.0 -0.346910865
O  O97  1  0.45330000  0.37930000  0.28910000  1.0 -0.346910865
O  O98  1  0.28910000  0.87830000  0.45330000  1.0 -0.346910865
O  O99  1  0.37930000  0.45330000  0.87830000  1.0 -0.346910865
O  O100  1  0.87830000  0.28910000  0.37930000  1.0 -0.346910865
O  O101  1  0.87830000  0.45330000  0.28910000  1.0 -0.346910865
O  O102  1  0.37930000  0.28910000  0.45330000  1.0 -0.346910865
O  O103  1  0.28910000  0.37930000  0.87830000  1.0 -0.346910865
O  O104  1  0.45330000  0.87830000  0.37930000  1.0 -0.346910865
O  O105  1  0.22900000  0.83760000  0.70440000  1.0 -0.4962478103
O  O106  1  0.83760000  0.22900000  0.22900000  1.0 -0.4940106326
O  O107  1  0.70440000  0.22900000  0.22900000  1.0 -0.4940106326
O  O108  1  0.22900000  0.70440000  0.83760000  1.0 -0.4940106326
O  O109  1  0.70440000  0.22900000  0.83760000  1.0 -0.4940106326
O  O110  1  0.22900000  0.83760000  0.22900000  1.0 -0.4940106326
O  O111  1  0.22900000  0.70440000  0.22900000  1.0 -0.4962478103
O  O112  1  0.83760000  0.22900000  0.70440000  1.0 -0.4940106326
O  O113  1  0.83760000  0.70440000  0.22900000  1.0 -0.4940106326
O  O114  1  0.22900000  0.22900000  0.83760000  1.0 -0.4940106326
O  O115  1  0.22900000  0.22900000  0.70440000  1.0 -0.4940106326
O  O116  1  0.70440000  0.83760000  0.22900000  1.0 -0.4940106326
O  O117  1  0.77100000  0.16240000  0.77100000  1.0 -0.4940106326
O  O118  1  0.16240000  0.77100000  0.29560000  1.0 -0.4940106326
O  O119  1  0.29560000  0.77100000  0.16240000  1.0 -0.4940106326
O  O120  1  0.77100000  0.29560000  0.77100000  1.0 -0.4940106326
O  O121  1  0.29560000  0.77100000  0.77100000  1.0 -0.4940106326
O  O122  1  0.77100000  0.16240000  0.29560000  1.0 -0.4940106326
O  O123  1  0.77100000  0.29560000  0.16240000  1.0 -0.4940106326
O  O124  1  0.16240000  0.77100000  0.77100000  1.0 -0.4940106326
O  O125  1  0.16240000  0.29560000  0.77100000  1.0 -0.4940106326
O  O126  1  0.77100000  0.77100000  0.29560000  1.0 -0.4940106326
O  O127  1  0.77100000  0.77100000  0.16240000  1.0 -0.4940106326
O  O128  1  0.29560000  0.16240000  0.77100000  1.0 -0.4940106326
O  O129  1  0.28060000  0.79860000  0.64020000  1.0 -0.4312723164
O  O130  1  0.79860000  0.28060000  0.28060000  1.0 -0.4312723164
O  O131  1  0.64020000  0.28060000  0.28060000  1.0 -0.4312723164
O  O132  1  0.28060000  0.64020000  0.79860000  1.0 -0.4312723164
O  O133  1  0.64020000  0.28060000  0.79860000  1.0 -0.4312723164
O  O134  1  0.28060000  0.79860000  0.28060000  1.0 -0.4312723164
O  O135  1  0.28060000  0.64020000  0.28060000  1.0 -0.4312723164
O  O136  1  0.79860000  0.28060000  0.64020000  1.0 -0.4312723164
O  O137  1  0.79860000  0.64020000  0.28060000  1.0 -0.4312723164
O  O138  1  0.28060000  0.28060000  0.79860000  1.0 -0.4312723164
O  O139  1  0.28060000  0.28060000  0.64020000  1.0 -0.4312723164
O  O140  1  0.64020000  0.79860000  0.28060000  1.0 -0.4312723164
O  O141  1  0.71940000  0.20140000  0.71940000  1.0 -0.4312723164
O  O142  1  0.20140000  0.71940000  0.35980000  1.0 -0.4312723164
O  O143  1  0.35980000  0.71940000  0.20140000  1.0 -0.4312723164
O  O144  1  0.71940000  0.35980000  0.71940000  1.0 -0.4312723164
O  O145  1  0.35980000  0.71940000  0.71940000  1.0 -0.4312723164
O  O146  1  0.71940000  0.20140000  0.35980000  1.0 -0.4312723164
O  O147  1  0.71940000  0.35980000  0.20140000  1.0 -0.4312723164
O  O148  1  0.20140000  0.71940000  0.71940000  1.0 -0.4312723164
O  O149  1  0.20140000  0.35980000  0.71940000  1.0 -0.4312723164
O  O150  1  0.71940000  0.71940000  0.35980000  1.0 -0.4312723164
O  O151  1  0.71940000  0.71940000  0.20140000  1.0 -0.4312723164
O  O152  1  0.35980000  0.20140000  0.71940000  1.0 -0.4312723164
O  O153  1  0.35020000  0.99880000  0.41340000  1.0 0.013344998
O  O154  1  0.99880000  0.35020000  0.23760000  1.0 0.013344998
O  O155  1  0.41340000  0.23760000  0.35020000  1.0 0.0197725215
O  O156  1  0.23760000  0.41340000  0.99880000  1.0 0.013344998
O  O157  1  0.41340000  0.35020000  0.99880000  1.0 0.013344998
O  O158  1  0.23760000  0.99880000  0.35020000  1.0 0.013344998
O  O159  1  0.35020000  0.41340000  0.23760000  1.0 0.013344998
O  O160  1  0.99880000  0.23760000  0.41340000  1.0 0.013344998
O  O161  1  0.99880000  0.41340000  0.35020000  1.0 0.013344998
O  O162  1  0.35020000  0.23760000  0.99880000  1.0 0.013344998
O  O163  1  0.23760000  0.35020000  0.41340000  1.0 0.013344998
O  O164  1  0.41340000  0.99880000  0.23760000  1.0 0.0197725215
O  O165  1  0.64980000  0.00120000  0.76240000  1.0 0.013344998
O  O166  1  0.00120000  0.64980000  0.58660000  1.0 0.013344998
O  O167  1  0.58660000  0.76240000  0.00120000  1.0 0.013344998
O  O168  1  0.76240000  0.58660000  0.64980000  1.0 0.013344998
O  O169  1  0.58660000  0.64980000  0.76240000  1.0 0.013344998
O  O170  1  0.76240000  0.00120000  0.58660000  1.0 0.013344998
O  O171  1  0.64980000  0.58660000  0.00120000  1.0 0.013344998
O  O172  1  0.00120000  0.76240000  0.64980000  1.0 0.0197725215
O  O173  1  0.00120000  0.58660000  0.76240000  1.0 0.013344998
O  O174  1  0.64980000  0.76240000  0.58660000  1.0 0.013344998
O  O175  1  0.76240000  0.64980000  0.00120000  1.0 0.013344998
O  O176  1  0.58660000  0.00120000  0.64980000  1.0 0.013344998
O  O177  1  0.64980000  0.00120000  0.58660000  1.0 0.013344998
O  O178  1  0.00120000  0.64980000  0.76240000  1.0 0.013344998
O  O179  1  0.58660000  0.76240000  0.64980000  1.0 0.0197725215
O  O180  1  0.76240000  0.58660000  0.00120000  1.0 0.013344998
O  O181  1  0.58660000  0.64980000  0.00120000  1.0 0.013344998
O  O182  1  0.76240000  0.00120000  0.64980000  1.0 0.013344998
O  O183  1  0.64980000  0.58660000  0.76240000  1.0 0.013344998
O  O184  1  0.00120000  0.76240000  0.58660000  1.0 0.013344998
O  O185  1  0.00120000  0.58660000  0.64980000  1.0 0.013344998
O  O186  1  0.64980000  0.76240000  0.00120000  1.0 0.013344998
O  O187  1  0.76240000  0.64980000  0.58660000  1.0 0.013344998
O  O188  1  0.58660000  0.00120000  0.76240000  1.0 0.013344998
O  O189  1  0.35020000  0.99880000  0.23760000  1.0 0.013344998
O  O190  1  0.99880000  0.35020000  0.41340000  1.0 0.013344998
O  O191  1  0.41340000  0.23760000  0.99880000  1.0 0.013344998
O  O192  1  0.23760000  0.41340000  0.35020000  1.0 0.013344998
O  O193  1  0.41340000  0.35020000  0.23760000  1.0 0.013344998
O  O194  1  0.23760000  0.99880000  0.41340000  1.0 0.013344998
O  O195  1  0.35020000  0.41340000  0.99880000  1.0 0.013344998
O  O196  1  0.99880000  0.23760000  0.35020000  1.0 0.013344998
O  O197  1  0.99880000  0.41340000  0.23760000  1.0 0.013344998
O  O198  1  0.35020000  0.23760000  0.41340000  1.0 0.0197725215
O  O199  1  0.23760000  0.35020000  0.99880000  1.0 0.0197725215
O  O200  1  0.41340000  0.99880000  0.35020000  1.0 0.0197725215
O  O201  1  0.37840000  0.89100000  0.45540000  1.0 -0.3627714617
O  O202  1  0.89100000  0.37840000  0.27520000  1.0 -0.3627714617
O  O203  1  0.45540000  0.27520000  0.37840000  1.0 -0.3627714617
O  O204  1  0.27520000  0.45540000  0.89100000  1.0 -0.3627714617
O  O205  1  0.45540000  0.37840000  0.89100000  1.0 -0.3627714617
O  O206  1  0.27520000  0.89100000  0.37840000  1.0 -0.3627714617
O  O207  1  0.37840000  0.45540000  0.27520000  1.0 -0.3627714617
O  O208  1  0.89100000  0.27520000  0.45540000  1.0 -0.3627714617
O  O209  1  0.89100000  0.45540000  0.37840000  1.0 -0.3627714617
O  O210  1  0.37840000  0.27520000  0.89100000  1.0 -0.3627714617
O  O211  1  0.27520000  0.37840000  0.45540000  1.0 -0.3627714617
O  O212  1  0.45540000  0.89100000  0.27520000  1.0 -0.3627714617
O  O213  1  0.62160000  0.10900000  0.72480000  1.0 -0.3627714617
O  O214  1  0.10900000  0.62160000  0.54460000  1.0 -0.3627714617
O  O215  1  0.54460000  0.72480000  0.10900000  1.0 -0.3627714617
O  O216  1  0.72480000  0.54460000  0.62160000  1.0 -0.3627714617
O  O217  1  0.54460000  0.62160000  0.72480000  1.0 -0.3627714617
O  O218  1  0.72480000  0.10900000  0.54460000  1.0 -0.3627714617
O  O219  1  0.62160000  0.54460000  0.10900000  1.0 -0.3627714617
O  O220  1  0.10900000  0.72480000  0.62160000  1.0 -0.3627714617
O  O221  1  0.10900000  0.54460000  0.72480000  1.0 -0.3627714617
O  O222  1  0.62160000  0.72480000  0.54460000  1.0 -0.3627714617
O  O223  1  0.72480000  0.62160000  0.10900000  1.0 -0.3627714617
O  O224  1  0.54460000  0.10900000  0.62160000  1.0 -0.3627714617
O  O225  1  0.62160000  0.10900000  0.54460000  1.0 -0.3627714617
O  O226  1  0.10900000  0.62160000  0.72480000  1.0 -0.3627714617
O  O227  1  0.54460000  0.72480000  0.62160000  1.0 -0.3627714617
O  O228  1  0.72480000  0.54460000  0.10900000  1.0 -0.3627714617
O  O229  1  0.54460000  0.62160000  0.10900000  1.0 -0.3627714617
O  O230  1  0.72480000  0.10900000  0.62160000  1.0 -0.3627714617
O  O231  1  0.62160000  0.54460000  0.72480000  1.0 -0.3627714617
O  O232  1  0.10900000  0.72480000  0.54460000  1.0 -0.3627714617
O  O233  1  0.10900000  0.54460000  0.62160000  1.0 -0.3627714617
O  O234  1  0.62160000  0.72480000  0.10900000  1.0 -0.3627714617
O  O235  1  0.72480000  0.62160000  0.54460000  1.0 -0.3627714617
O  O236  1  0.54460000  0.10900000  0.72480000  1.0 -0.3627714617
O  O237  1  0.37840000  0.89100000  0.27520000  1.0 -0.3627714617
O  O238  1  0.89100000  0.37840000  0.45540000  1.0 -0.3627714617
O  O239  1  0.45540000  0.27520000  0.89100000  1.0 -0.3627714617
O  O240  1  0.27520000  0.45540000  0.37840000  1.0 -0.3627714617
O  O241  1  0.45540000  0.37840000  0.27520000  1.0 -0.3627714617
O  O242  1  0.27520000  0.89100000  0.45540000  1.0 -0.3627714617
O  O243  1  0.37840000  0.45540000  0.89100000  1.0 -0.3627714617
O  O244  1  0.89100000  0.27520000  0.37840000  1.0 -0.3627714617
O  O245  1  0.89100000  0.45540000  0.27520000  1.0 -0.3627714617
O  O246  1  0.37840000  0.27520000  0.45540000  1.0 -0.3627714617
O  O247  1  0.27520000  0.37840000  0.89100000  1.0 -0.3627714617
O  O248  1  0.45540000  0.89100000  0.37840000  1.0 -0.3627714617
