# DDEC6 charges by PACMAN v1.1 (https://github.com/mtap-research/PACMAN-charge/)
data_DUSHIL_ASR_pacman
_symmetry_space_group_name_H-M   'P 1'
_cell_length_a   25.07040000
_cell_length_b   25.07040000
_cell_length_c   25.07040000
_cell_angle_alpha   60.00000000
_cell_angle_beta   60.00000000
_cell_angle_gamma   60.00000000
_symmetry_Int_Tables_number   1
_chemical_formula_structural   Zr3(C3O4)4
_chemical_formula_sum   'Zr24 C96 O128'
_cell_volume   11142.14463795
_cell_formula_units_Z   8
loop_
 _symmetry_equiv_pos_site_id
 _symmetry_equiv_pos_as_xyz
  1  'x, y, z'
loop_
 _atom_site_type_symbol
 _atom_site_label
 _atom_site_symmetry_multiplicity
 _atom_site_fract_x
 _atom_site_fract_y
 _atom_site_fract_z
 _atom_site_occupancy
 _atom_site_charge
Zr  Zr1  1  0.64770000  0.19530000  0.50930000  1.0 2.260397418
Zr  Zr2  1  0.50930000  0.64770000  0.64770000  1.0 2.260397418
Zr  Zr3  1  0.19530000  0.64770000  0.64770000  1.0 2.260397418
Zr  Zr4  1  0.64770000  0.50930000  0.19530000  1.0 2.260397418
Zr  Zr5  1  0.19530000  0.50930000  0.64770000  1.0 2.260397418
Zr  Zr6  1  0.64770000  0.64770000  0.50930000  1.0 2.260397418
Zr  Zr7  1  0.64770000  0.64770000  0.19530000  1.0 2.260397418
Zr  Zr8  1  0.50930000  0.19530000  0.64770000  1.0 2.260397418
Zr  Zr9  1  0.50930000  0.64770000  0.19530000  1.0 2.260397418
Zr  Zr10  1  0.64770000  0.50930000  0.64770000  1.0 2.260397418
Zr  Zr11  1  0.64770000  0.19530000  0.64770000  1.0 2.260397418
Zr  Zr12  1  0.19530000  0.64770000  0.50930000  1.0 2.260397418
Zr  Zr13  1  0.60230000  0.60230000  0.74070000  1.0 2.260397418
Zr  Zr14  1  0.74070000  0.05470000  0.60230000  1.0 2.260397418
Zr  Zr15  1  0.05470000  0.74070000  0.60230000  1.0 2.260397418
Zr  Zr16  1  0.60230000  0.60230000  0.05470000  1.0 2.260397418
Zr  Zr17  1  0.05470000  0.60230000  0.60230000  1.0 2.260397418
Zr  Zr18  1  0.60230000  0.05470000  0.74070000  1.0 2.260397418
Zr  Zr19  1  0.60230000  0.74070000  0.05470000  1.0 2.260397418
Zr  Zr20  1  0.74070000  0.60230000  0.60230000  1.0 2.260397418
Zr  Zr21  1  0.74070000  0.60230000  0.05470000  1.0 2.260397418
Zr  Zr22  1  0.60230000  0.05470000  0.60230000  1.0 2.260397418
Zr  Zr23  1  0.60230000  0.74070000  0.60230000  1.0 2.260397418
Zr  Zr24  1  0.05470000  0.60230000  0.74070000  1.0 2.260397418
C  C1  1  0.50200000  0.31800000  0.50200000  1.0 0.5924544023
C  C2  1  0.46710000  0.37410000  0.46710000  1.0 -0.1896679986
C  C3  1  0.50200000  0.67800000  0.50200000  1.0 0.5924544023
C  C4  1  0.46710000  0.69170000  0.46710000  1.0 -0.1896679986
C  C5  1  0.31800000  0.50200000  0.67800000  1.0 0.5924544023
C  C6  1  0.37410000  0.46710000  0.69170000  1.0 -0.1896679986
C  C7  1  0.67800000  0.50200000  0.31800000  1.0 0.5924544023
C  C8  1  0.69170000  0.46710000  0.37410000  1.0 -0.1896679986
C  C9  1  0.31800000  0.50200000  0.50200000  1.0 0.5924544023
C  C10  1  0.37410000  0.46710000  0.46710000  1.0 -0.1896679986
C  C11  1  0.67800000  0.50200000  0.50200000  1.0 0.5924544023
C  C12  1  0.69170000  0.46710000  0.46710000  1.0 -0.1896679986
C  C13  1  0.50200000  0.67800000  0.31800000  1.0 0.5924544023
C  C14  1  0.46710000  0.69170000  0.37410000  1.0 -0.1896679986
C  C15  1  0.50200000  0.31800000  0.67800000  1.0 0.5924544023
C  C16  1  0.46710000  0.37410000  0.69170000  1.0 -0.1896679986
C  C17  1  0.50200000  0.50200000  0.31800000  1.0 0.5924544023
C  C18  1  0.46710000  0.46710000  0.37410000  1.0 -0.1896679986
C  C19  1  0.50200000  0.50200000  0.67800000  1.0 0.5924544023
C  C20  1  0.46710000  0.46710000  0.69170000  1.0 -0.1896679986
C  C21  1  0.67800000  0.31800000  0.50200000  1.0 0.5924544023
C  C22  1  0.69170000  0.37410000  0.46710000  1.0 -0.1896679986
C  C23  1  0.31800000  0.67800000  0.50200000  1.0 0.5924544023
C  C24  1  0.37410000  0.69170000  0.46710000  1.0 -0.1896679986
C  C25  1  0.74800000  0.57200000  0.74800000  1.0 0.5924544023
C  C26  1  0.78290000  0.55830000  0.78290000  1.0 -0.1896679986
C  C27  1  0.74800000  0.93200000  0.74800000  1.0 0.5924544023
C  C28  1  0.78290000  0.87590000  0.78290000  1.0 -0.1896679986
C  C29  1  0.93200000  0.74800000  0.57200000  1.0 0.5924544023
C  C30  1  0.87590000  0.78290000  0.55830000  1.0 -0.1896679986
C  C31  1  0.57200000  0.74800000  0.93200000  1.0 0.5924544023
C  C32  1  0.55830000  0.78290000  0.87590000  1.0 -0.1896679986
C  C33  1  0.93200000  0.57200000  0.74800000  1.0 0.5924544023
C  C34  1  0.87590000  0.55830000  0.78290000  1.0 -0.1896679986
C  C35  1  0.57200000  0.93200000  0.74800000  1.0 0.5924544023
C  C36  1  0.55830000  0.87590000  0.78290000  1.0 -0.1896679986
C  C37  1  0.74800000  0.74800000  0.93200000  1.0 0.5924544023
C  C38  1  0.78290000  0.78290000  0.87590000  1.0 -0.1896679986
C  C39  1  0.74800000  0.74800000  0.57200000  1.0 0.5924544023
C  C40  1  0.78290000  0.78290000  0.55830000  1.0 -0.1896679986
C  C41  1  0.74800000  0.57200000  0.93200000  1.0 0.5924544023
C  C42  1  0.78290000  0.55830000  0.87590000  1.0 -0.1896679986
C  C43  1  0.74800000  0.93200000  0.57200000  1.0 0.5924544023
C  C44  1  0.78290000  0.87590000  0.55830000  1.0 -0.1896679986
C  C45  1  0.57200000  0.74800000  0.74800000  1.0 0.5924544023
C  C46  1  0.55830000  0.78290000  0.78290000  1.0 -0.1896679986
C  C47  1  0.93200000  0.74800000  0.74800000  1.0 0.5924544023
C  C48  1  0.87590000  0.78290000  0.78290000  1.0 -0.1896679986
C  C49  1  0.50690000  0.40670000  0.40670000  1.0 0.1040028112
C  C50  1  0.40670000  0.67970000  0.50690000  1.0 0.1077332243
C  C51  1  0.40670000  0.50690000  0.67970000  1.0 0.1077332243
C  C52  1  0.67970000  0.40670000  0.40670000  1.0 0.1077332243
C  C53  1  0.40670000  0.40670000  0.50690000  1.0 0.1040028112
C  C54  1  0.67970000  0.50690000  0.40670000  1.0 0.1077332243
C  C55  1  0.50690000  0.67970000  0.40670000  1.0 0.1077332243
C  C56  1  0.40670000  0.40670000  0.67970000  1.0 0.1077332243
C  C57  1  0.40670000  0.50690000  0.40670000  1.0 0.1077332243
C  C58  1  0.50690000  0.40670000  0.67970000  1.0 0.1077332243
C  C59  1  0.67970000  0.40670000  0.50690000  1.0 0.1040028112
C  C60  1  0.40670000  0.67970000  0.40670000  1.0 0.1077332243
C  C61  1  0.74310000  0.57030000  0.84330000  1.0 0.1040028112
C  C62  1  0.84330000  0.84330000  0.74310000  1.0 0.1077332243
C  C63  1  0.84330000  0.84330000  0.57030000  1.0 0.1040028112
C  C64  1  0.57030000  0.74310000  0.84330000  1.0 0.1077332243
C  C65  1  0.84330000  0.57030000  0.74310000  1.0 0.1077332243
C  C66  1  0.57030000  0.84330000  0.84330000  1.0 0.1077332243
C  C67  1  0.74310000  0.84330000  0.84330000  1.0 0.1077332243
C  C68  1  0.84330000  0.74310000  0.57030000  1.0 0.1040028112
C  C69  1  0.84330000  0.57030000  0.84330000  1.0 0.1040028112
C  C70  1  0.74310000  0.84330000  0.57030000  1.0 0.1040028112
C  C71  1  0.57030000  0.84330000  0.74310000  1.0 0.1077332243
C  C72  1  0.84330000  0.74310000  0.84330000  1.0 0.1077332243
C  C73  1  0.69920000  0.20120000  0.40040000  1.0 0.6375603236
C  C74  1  0.40040000  0.69920000  0.69920000  1.0 0.6375603236
C  C75  1  0.20120000  0.69920000  0.69920000  1.0 0.6327890062
C  C76  1  0.69920000  0.40040000  0.20120000  1.0 0.6375603236
C  C77  1  0.20120000  0.40040000  0.69920000  1.0 0.6375603236
C  C78  1  0.69920000  0.69920000  0.40040000  1.0 0.6375603236
C  C79  1  0.69920000  0.69920000  0.20120000  1.0 0.6327890062
C  C80  1  0.40040000  0.20120000  0.69920000  1.0 0.6375603236
C  C81  1  0.40040000  0.69920000  0.20120000  1.0 0.6327890062
C  C82  1  0.69920000  0.40040000  0.69920000  1.0 0.6375603236
C  C83  1  0.69920000  0.20120000  0.69920000  1.0 0.6375603236
C  C84  1  0.20120000  0.69920000  0.40040000  1.0 0.6375603236
C  C85  1  0.55080000  0.55080000  0.84960000  1.0 0.6375603236
C  C86  1  0.84960000  0.04880000  0.55080000  1.0 0.6375603236
C  C87  1  0.04880000  0.84960000  0.55080000  1.0 0.6327890062
C  C88  1  0.55080000  0.55080000  0.04880000  1.0 0.6327890062
C  C89  1  0.04880000  0.55080000  0.55080000  1.0 0.6327890062
C  C90  1  0.55080000  0.04880000  0.84960000  1.0 0.6327890062
C  C91  1  0.55080000  0.84960000  0.04880000  1.0 0.6375603236
C  C92  1  0.84960000  0.55080000  0.55080000  1.0 0.6375603236
C  C93  1  0.84960000  0.55080000  0.04880000  1.0 0.6327890062
C  C94  1  0.55080000  0.04880000  0.55080000  1.0 0.6327890062
C  C95  1  0.55080000  0.84960000  0.55080000  1.0 0.6375603236
C  C96  1  0.04880000  0.55080000  0.84960000  1.0 0.6375603236
O  O1  1  0.55830000  0.28070000  0.48050000  1.0 -0.4000273578
O  O2  1  0.73930000  0.18590000  0.42870000  1.0 -0.5866049591
O  O3  1  0.48050000  0.68050000  0.55830000  1.0 -0.4000273578
O  O4  1  0.42870000  0.64610000  0.73930000  1.0 -0.5866049591
O  O5  1  0.28070000  0.55830000  0.68050000  1.0 -0.4000273578
O  O6  1  0.18590000  0.73930000  0.64610000  1.0 -0.5866049591
O  O7  1  0.68050000  0.48050000  0.28070000  1.0 -0.4000273578
O  O8  1  0.64610000  0.42870000  0.18590000  1.0 -0.5866049591
O  O9  1  0.28070000  0.48050000  0.55830000  1.0 -0.4000273578
O  O10  1  0.18590000  0.42870000  0.73930000  1.0 -0.5866049591
O  O11  1  0.68050000  0.55830000  0.48050000  1.0 -0.4000273578
O  O12  1  0.64610000  0.73930000  0.42870000  1.0 -0.5866049591
O  O13  1  0.55830000  0.68050000  0.28070000  1.0 -0.4000273578
O  O14  1  0.73930000  0.64610000  0.18590000  1.0 -0.5866049591
O  O15  1  0.48050000  0.28070000  0.68050000  1.0 -0.4000273578
O  O16  1  0.42870000  0.18590000  0.64610000  1.0 -0.5866049591
O  O17  1  0.48050000  0.55830000  0.28070000  1.0 -0.4000273578
O  O18  1  0.42870000  0.73930000  0.18590000  1.0 -0.5866049591
O  O19  1  0.55830000  0.48050000  0.68050000  1.0 -0.4000273578
O  O20  1  0.73930000  0.42870000  0.64610000  1.0 -0.5866049591
O  O21  1  0.68050000  0.28070000  0.55830000  1.0 -0.4000273578
O  O22  1  0.64610000  0.18590000  0.73930000  1.0 -0.5866049591
O  O23  1  0.28070000  0.68050000  0.48050000  1.0 -0.4000273578
O  O24  1  0.18590000  0.64610000  0.42870000  1.0 -0.5866049591
O  O25  1  0.69170000  0.56950000  0.76950000  1.0 -0.4000273578
O  O26  1  0.51070000  0.60390000  0.82130000  1.0 -0.5866049591
O  O27  1  0.76950000  0.96930000  0.69170000  1.0 -0.4000273578
O  O28  1  0.82130000  0.06410000  0.51070000  1.0 -0.5866049591
O  O29  1  0.96930000  0.76950000  0.56950000  1.0 -0.4000273578
O  O30  1  0.06410000  0.82130000  0.60390000  1.0 -0.5866049591
O  O31  1  0.56950000  0.69170000  0.96930000  1.0 -0.4000273578
O  O32  1  0.60390000  0.51070000  0.06410000  1.0 -0.5847902659
O  O33  1  0.96930000  0.56950000  0.69170000  1.0 -0.4000273578
O  O34  1  0.06410000  0.60390000  0.51070000  1.0 -0.5866049591
O  O35  1  0.56950000  0.96930000  0.76950000  1.0 -0.4000273578
O  O36  1  0.60390000  0.06410000  0.82130000  1.0 -0.5847902659
O  O37  1  0.69170000  0.76950000  0.96930000  1.0 -0.4000273578
O  O38  1  0.51070000  0.82130000  0.06410000  1.0 -0.5866049591
O  O39  1  0.76950000  0.69170000  0.56950000  1.0 -0.4000273578
O  O40  1  0.82130000  0.51070000  0.60390000  1.0 -0.5866049591
O  O41  1  0.76950000  0.56950000  0.96930000  1.0 -0.4000273578
O  O42  1  0.82130000  0.60390000  0.06410000  1.0 -0.5866049591
O  O43  1  0.69170000  0.96930000  0.56950000  1.0 -0.4000273578
O  O44  1  0.51070000  0.06410000  0.60390000  1.0 -0.5847902659
O  O45  1  0.56950000  0.76950000  0.69170000  1.0 -0.4000273578
O  O46  1  0.60390000  0.82130000  0.51070000  1.0 -0.5866049591
O  O47  1  0.96930000  0.69170000  0.76950000  1.0 -0.4000273578
O  O48  1  0.06410000  0.51070000  0.82130000  1.0 -0.5866049591
O  O49  1  0.69170000  0.96930000  0.76950000  1.0 -0.4000273578
O  O50  1  0.51070000  0.06410000  0.82130000  1.0 -0.5847902659
O  O51  1  0.76950000  0.56950000  0.69170000  1.0 -0.4000273578
O  O52  1  0.82130000  0.60390000  0.51070000  1.0 -0.5866049591
O  O53  1  0.96930000  0.69170000  0.56950000  1.0 -0.4000273578
O  O54  1  0.06410000  0.51070000  0.60390000  1.0 -0.5866049591
O  O55  1  0.56950000  0.76950000  0.96930000  1.0 -0.4000273578
O  O56  1  0.60390000  0.82130000  0.06410000  1.0 -0.5866049591
O  O57  1  0.96930000  0.76950000  0.69170000  1.0 -0.4000273578
O  O58  1  0.06410000  0.82130000  0.51070000  1.0 -0.5866049591
O  O59  1  0.56950000  0.69170000  0.76950000  1.0 -0.4000273578
O  O60  1  0.60390000  0.51070000  0.82130000  1.0 -0.5847902659
O  O61  1  0.69170000  0.56950000  0.96930000  1.0 -0.4000273578
O  O62  1  0.51070000  0.60390000  0.06410000  1.0 -0.5866049591
O  O63  1  0.76950000  0.96930000  0.56950000  1.0 -0.4000273578
O  O64  1  0.82130000  0.06410000  0.60390000  1.0 -0.5866049591
O  O65  1  0.76950000  0.69170000  0.96930000  1.0 -0.4000273578
O  O66  1  0.82130000  0.51070000  0.06410000  1.0 -0.5847902659
O  O67  1  0.69170000  0.76950000  0.56950000  1.0 -0.4000273578
O  O68  1  0.51070000  0.82130000  0.60390000  1.0 -0.5866049591
O  O69  1  0.56950000  0.96930000  0.69170000  1.0 -0.4000273578
O  O70  1  0.60390000  0.06410000  0.51070000  1.0 -0.5847902659
O  O71  1  0.96930000  0.56950000  0.76950000  1.0 -0.4000273578
O  O72  1  0.06410000  0.60390000  0.82130000  1.0 -0.5866049591
O  O73  1  0.55830000  0.68050000  0.48050000  1.0 -0.4000273578
O  O74  1  0.73930000  0.64610000  0.42870000  1.0 -0.5866049591
O  O75  1  0.48050000  0.28070000  0.55830000  1.0 -0.4000273578
O  O76  1  0.42870000  0.18590000  0.73930000  1.0 -0.5866049591
O  O77  1  0.28070000  0.48050000  0.68050000  1.0 -0.4000273578
O  O78  1  0.18590000  0.42870000  0.64610000  1.0 -0.5866049591
O  O79  1  0.68050000  0.55830000  0.28070000  1.0 -0.4000273578
O  O80  1  0.64610000  0.73930000  0.18590000  1.0 -0.5866049591
O  O81  1  0.28070000  0.68050000  0.55830000  1.0 -0.4000273578
O  O82  1  0.18590000  0.64610000  0.73930000  1.0 -0.5866049591
O  O83  1  0.68050000  0.28070000  0.48050000  1.0 -0.4000273578
O  O84  1  0.64610000  0.18590000  0.42870000  1.0 -0.5866049591
O  O85  1  0.55830000  0.48050000  0.28070000  1.0 -0.4000273578
O  O86  1  0.73930000  0.42870000  0.18590000  1.0 -0.5866049591
O  O87  1  0.48050000  0.55830000  0.68050000  1.0 -0.4000273578
O  O88  1  0.42870000  0.73930000  0.64610000  1.0 -0.5866049591
O  O89  1  0.48050000  0.68050000  0.28070000  1.0 -0.4000273578
O  O90  1  0.42870000  0.64610000  0.18590000  1.0 -0.5866049591
O  O91  1  0.55830000  0.28070000  0.68050000  1.0 -0.4000273578
O  O92  1  0.73930000  0.18590000  0.64610000  1.0 -0.5866049591
O  O93  1  0.68050000  0.48050000  0.55830000  1.0 -0.4000273578
O  O94  1  0.64610000  0.42870000  0.73930000  1.0 -0.5847902659
O  O95  1  0.28070000  0.55830000  0.48050000  1.0 -0.4000273578
O  O96  1  0.18590000  0.73930000  0.42870000  1.0 -0.5866049591
O  O97  1  0.68550000  0.09970000  0.52930000  1.0 -1.048401377
O  O98  1  0.52930000  0.68550000  0.68550000  1.0 -1.048401377
O  O99  1  0.09970000  0.68550000  0.68550000  1.0 -1.048401377
O  O100  1  0.68550000  0.52930000  0.09970000  1.0 -1.048401377
O  O101  1  0.09970000  0.52930000  0.68550000  1.0 -1.048401377
O  O102  1  0.68550000  0.68550000  0.52930000  1.0 -1.048401377
O  O103  1  0.68550000  0.68550000  0.09970000  1.0 -1.048401377
O  O104  1  0.52930000  0.09970000  0.68550000  1.0 -1.048401377
O  O105  1  0.52930000  0.68550000  0.09970000  1.0 -1.048401377
O  O106  1  0.68550000  0.52930000  0.68550000  1.0 -1.048401377
O  O107  1  0.68550000  0.09970000  0.68550000  1.0 -1.048401377
O  O108  1  0.09970000  0.68550000  0.52930000  1.0 -1.048401377
O  O109  1  0.56450000  0.56450000  0.72070000  1.0 -1.048401377
O  O110  1  0.72070000  0.15030000  0.56450000  1.0 -1.048401377
O  O111  1  0.15030000  0.72070000  0.56450000  1.0 -1.048401377
O  O112  1  0.56450000  0.56450000  0.15030000  1.0 -1.048401377
O  O113  1  0.15030000  0.56450000  0.56450000  1.0 -1.048401377
O  O114  1  0.56450000  0.15030000  0.72070000  1.0 -1.048401377
O  O115  1  0.56450000  0.72070000  0.15030000  1.0 -1.048401377
O  O116  1  0.72070000  0.56450000  0.56450000  1.0 -1.048401377
O  O117  1  0.72070000  0.56450000  0.15030000  1.0 -1.048401377
O  O118  1  0.56450000  0.15030000  0.56450000  1.0 -1.048401377
O  O119  1  0.56450000  0.72070000  0.56450000  1.0 -1.048401377
O  O120  1  0.15030000  0.56450000  0.72070000  1.0 -1.048401377
O  O121  1  0.59000000  0.23000000  0.59000000  1.0 -1.156695402
O  O122  1  0.59000000  0.59000000  0.59000000  1.0 -1.1519690318
O  O123  1  0.23000000  0.59000000  0.59000000  1.0 -1.156695402
O  O124  1  0.59000000  0.59000000  0.23000000  1.0 -1.1519690318
O  O125  1  0.66000000  0.66000000  0.66000000  1.0 -1.1519690318
O  O126  1  0.66000000  0.02000000  0.66000000  1.0 -1.1519690318
O  O127  1  0.02000000  0.66000000  0.66000000  1.0 -1.1519690318
O  O128  1  0.66000000  0.66000000  0.02000000  1.0 -1.1519690318
