# DDEC6 charges by PACMAN v1.1 (https://github.com/mtap-research/PACMAN-charge/)
data_DUSHEG_ASR_pacman
_symmetry_space_group_name_H-M   'P 1'
_cell_length_a   29.19360000
_cell_length_b   29.19360000
_cell_length_c   29.19360000
_cell_angle_alpha   60.00000000
_cell_angle_beta   60.00000000
_cell_angle_gamma   60.00000000
_symmetry_Int_Tables_number   1
_chemical_formula_structural   Ni9H50C84(N3O31)2
_chemical_formula_sum   'Ni36 H200 C336 N24 O248'
_cell_volume   17593.32646908
_cell_formula_units_Z   4
loop_
 _symmetry_equiv_pos_site_id
 _symmetry_equiv_pos_as_xyz
  1  'x, y, z'
loop_
 _atom_site_type_symbol
 _atom_site_label
 _atom_site_symmetry_multiplicity
 _atom_site_fract_x
 _atom_site_fract_y
 _atom_site_fract_z
 _atom_site_occupancy
 _atom_site_charge
Ni  Ni1  1  0.31261000  0.94385000  0.43093000  1.0 0.708540811
Ni  Ni2  1  0.68739000  0.56907000  0.68739000  1.0 0.708540811
Ni  Ni3  1  0.94385000  0.31261000  0.31261000  1.0 0.708540811
Ni  Ni4  1  0.56907000  0.68739000  0.05615000  1.0 0.708540811
Ni  Ni5  1  0.05615000  0.68739000  0.68739000  1.0 0.708540811
Ni  Ni6  1  0.31261000  0.43093000  0.94385000  1.0 0.708540811
Ni  Ni7  1  0.56907000  0.68739000  0.68739000  1.0 0.708540811
Ni  Ni8  1  0.05615000  0.56907000  0.68739000  1.0 0.708540811
Ni  Ni9  1  0.43093000  0.31261000  0.31261000  1.0 0.708540811
Ni  Ni10  1  0.68739000  0.68739000  0.05615000  1.0 0.708540811
Ni  Ni11  1  0.43093000  0.31261000  0.94385000  1.0 0.708540811
Ni  Ni12  1  0.94385000  0.43093000  0.31261000  1.0 0.708540811
Ni  Ni13  1  0.43093000  0.94385000  0.31261000  1.0 0.708540811
Ni  Ni14  1  0.31261000  0.94385000  0.31261000  1.0 0.708540811
Ni  Ni15  1  0.31261000  0.31261000  0.94385000  1.0 0.708540811
Ni  Ni16  1  0.31261000  0.43093000  0.31261000  1.0 0.708540811
Ni  Ni17  1  0.94385000  0.31261000  0.43093000  1.0 0.708540811
Ni  Ni18  1  0.31261000  0.31261000  0.43093000  1.0 0.708540811
Ni  Ni19  1  0.68739000  0.05615000  0.68739000  1.0 0.708540811
Ni  Ni20  1  0.05615000  0.68739000  0.56907000  1.0 0.708540811
Ni  Ni21  1  0.68739000  0.05615000  0.56907000  1.0 0.708540811
Ni  Ni22  1  0.68739000  0.56907000  0.05615000  1.0 0.708540811
Ni  Ni23  1  0.68739000  0.68739000  0.56907000  1.0 0.708540811
Ni  Ni24  1  0.56907000  0.05615000  0.68739000  1.0 0.708540811
Ni  Ni25  1  0.21566000  0.78434000  0.78434000  1.0 0.8418380384
Ni  Ni26  1  0.78434000  0.21566000  0.78434000  1.0 0.8418380384
Ni  Ni27  1  0.78434000  0.21566000  0.21566000  1.0 0.8418380384
Ni  Ni28  1  0.21566000  0.78434000  0.21566000  1.0 0.8418380384
Ni  Ni29  1  0.21566000  0.21566000  0.78434000  1.0 0.8418380384
Ni  Ni30  1  0.78434000  0.78434000  0.21566000  1.0 0.8418380384
Ni  Ni31  1  0.27982000  0.72018000  0.72018000  1.0 0.8188841605
Ni  Ni32  1  0.72018000  0.27982000  0.72018000  1.0 0.8188841605
Ni  Ni33  1  0.72018000  0.27982000  0.27982000  1.0 0.8188841605
Ni  Ni34  1  0.27982000  0.72018000  0.27982000  1.0 0.8188841605
Ni  Ni35  1  0.27982000  0.27982000  0.72018000  1.0 0.8188841605
Ni  Ni36  1  0.72018000  0.72018000  0.27982000  1.0 0.8188841605
H  H1  1  0.31000000  0.08180000  0.44740000  1.0 0.1296187333
H  H2  1  0.83920000  0.55260000  0.69000000  1.0 0.1296187333
H  H3  1  0.08180000  0.31000000  0.16080000  1.0 0.1296187333
H  H4  1  0.55260000  0.83920000  0.91820000  1.0 0.1296187333
H  H5  1  0.91820000  0.83920000  0.69000000  1.0 0.1296187333
H  H6  1  0.16080000  0.44740000  0.08180000  1.0 0.1296187333
H  H7  1  0.55260000  0.69000000  0.83920000  1.0 0.1296187333
H  H8  1  0.91820000  0.55260000  0.83920000  1.0 0.1296187333
H  H9  1  0.44740000  0.16080000  0.31000000  1.0 0.1296187333
H  H10  1  0.83920000  0.69000000  0.91820000  1.0 0.1296187333
H  H11  1  0.44740000  0.31000000  0.08180000  1.0 0.1296187333
H  H12  1  0.08180000  0.44740000  0.31000000  1.0 0.1296187333
H  H13  1  0.44740000  0.08180000  0.16080000  1.0 0.1296187333
H  H14  1  0.16080000  0.08180000  0.31000000  1.0 0.1296187333
H  H15  1  0.31000000  0.16080000  0.08180000  1.0 0.1296187333
H  H16  1  0.31000000  0.44740000  0.16080000  1.0 0.1296187333
H  H17  1  0.08180000  0.16080000  0.44740000  1.0 0.1296187333
H  H18  1  0.16080000  0.31000000  0.44740000  1.0 0.1296187333
H  H19  1  0.69000000  0.91820000  0.83920000  1.0 0.1296187333
H  H20  1  0.91820000  0.69000000  0.55260000  1.0 0.1296187333
H  H21  1  0.83920000  0.91820000  0.55260000  1.0 0.1296187333
H  H22  1  0.69000000  0.55260000  0.91820000  1.0 0.1296187333
H  H23  1  0.69000000  0.83920000  0.55260000  1.0 0.1296187333
H  H24  1  0.55260000  0.91820000  0.69000000  1.0 0.1296187333
H  H25  1  0.69000000  0.91820000  0.55260000  1.0 0.1296187333
H  H26  1  0.16080000  0.44740000  0.31000000  1.0 0.1296187333
H  H27  1  0.91820000  0.69000000  0.83920000  1.0 0.1296187333
H  H28  1  0.44740000  0.16080000  0.08180000  1.0 0.1296187333
H  H29  1  0.08180000  0.16080000  0.31000000  1.0 0.1296187333
H  H30  1  0.83920000  0.55260000  0.91820000  1.0 0.1296187333
H  H31  1  0.44740000  0.31000000  0.16080000  1.0 0.1296187333
H  H32  1  0.08180000  0.44740000  0.16080000  1.0 0.1296187333
H  H33  1  0.55260000  0.83920000  0.69000000  1.0 0.1296187333
H  H34  1  0.16080000  0.31000000  0.08180000  1.0 0.1296187333
H  H35  1  0.55260000  0.69000000  0.91820000  1.0 0.1296187333
H  H36  1  0.91820000  0.55260000  0.69000000  1.0 0.1296187333
H  H37  1  0.55260000  0.91820000  0.83920000  1.0 0.1296187333
H  H38  1  0.83920000  0.91820000  0.69000000  1.0 0.1296187333
H  H39  1  0.69000000  0.83920000  0.91820000  1.0 0.1296187333
H  H40  1  0.69000000  0.55260000  0.83920000  1.0 0.1296187333
H  H41  1  0.91820000  0.83920000  0.55260000  1.0 0.1296187333
H  H42  1  0.83920000  0.69000000  0.55260000  1.0 0.1296187333
H  H43  1  0.31000000  0.08180000  0.16080000  1.0 0.1296187333
H  H44  1  0.08180000  0.31000000  0.44740000  1.0 0.1296187333
H  H45  1  0.16080000  0.08180000  0.44740000  1.0 0.1296187333
H  H46  1  0.31000000  0.44740000  0.08180000  1.0 0.1296187333
H  H47  1  0.31000000  0.16080000  0.44740000  1.0 0.1296187333
H  H48  1  0.44740000  0.08180000  0.31000000  1.0 0.1296187333
H  H49  1  0.40310000  0.81910000  0.54090000  1.0 0.1365572073
H  H50  1  0.76310000  0.45910000  0.59690000  1.0 0.1365572073
H  H51  1  0.81910000  0.40310000  0.23690000  1.0 0.1365572073
H  H52  1  0.45910000  0.76310000  0.18090000  1.0 0.1365572073
H  H53  1  0.18090000  0.76310000  0.59690000  1.0 0.1365572073
H  H54  1  0.23690000  0.54090000  0.81910000  1.0 0.1365572073
H  H55  1  0.45910000  0.59690000  0.76310000  1.0 0.1365572073
H  H56  1  0.18090000  0.45910000  0.76310000  1.0 0.1365572073
H  H57  1  0.54090000  0.23690000  0.40310000  1.0 0.1365572073
H  H58  1  0.76310000  0.59690000  0.18090000  1.0 0.1365572073
H  H59  1  0.54090000  0.40310000  0.81910000  1.0 0.1365572073
H  H60  1  0.81910000  0.54090000  0.40310000  1.0 0.1365572073
H  H61  1  0.54090000  0.81910000  0.23690000  1.0 0.1365572073
H  H62  1  0.23690000  0.81910000  0.40310000  1.0 0.1365572073
H  H63  1  0.40310000  0.23690000  0.81910000  1.0 0.1365572073
H  H64  1  0.40310000  0.54090000  0.23690000  1.0 0.1365572073
H  H65  1  0.81910000  0.23690000  0.54090000  1.0 0.1365572073
H  H66  1  0.23690000  0.40310000  0.54090000  1.0 0.1365572073
H  H67  1  0.59690000  0.18090000  0.76310000  1.0 0.1365572073
H  H68  1  0.18090000  0.59690000  0.45910000  1.0 0.1365572073
H  H69  1  0.76310000  0.18090000  0.45910000  1.0 0.1365572073
H  H70  1  0.59690000  0.45910000  0.18090000  1.0 0.1365572073
H  H71  1  0.59690000  0.76310000  0.45910000  1.0 0.1365572073
H  H72  1  0.45910000  0.18090000  0.59690000  1.0 0.1365572073
H  H73  1  0.59690000  0.18090000  0.45910000  1.0 0.1365572073
H  H74  1  0.23690000  0.54090000  0.40310000  1.0 0.1365572073
H  H75  1  0.18090000  0.59690000  0.76310000  1.0 0.1365572073
H  H76  1  0.54090000  0.23690000  0.81910000  1.0 0.1365572073
H  H77  1  0.81910000  0.23690000  0.40310000  1.0 0.1365572073
H  H78  1  0.76310000  0.45910000  0.18090000  1.0 0.1365572073
H  H79  1  0.54090000  0.40310000  0.23690000  1.0 0.1365572073
H  H80  1  0.81910000  0.54090000  0.23690000  1.0 0.1365572073
H  H81  1  0.45910000  0.76310000  0.59690000  1.0 0.1365572073
H  H82  1  0.23690000  0.40310000  0.81910000  1.0 0.1365572073
H  H83  1  0.45910000  0.59690000  0.18090000  1.0 0.1365572073
H  H84  1  0.18090000  0.45910000  0.59690000  1.0 0.1365572073
H  H85  1  0.45910000  0.18090000  0.76310000  1.0 0.1365572073
H  H86  1  0.76310000  0.18090000  0.59690000  1.0 0.1365572073
H  H87  1  0.59690000  0.76310000  0.18090000  1.0 0.1365572073
H  H88  1  0.59690000  0.45910000  0.76310000  1.0 0.1365572073
H  H89  1  0.18090000  0.76310000  0.45910000  1.0 0.1365572073
H  H90  1  0.76310000  0.59690000  0.45910000  1.0 0.1365572073
H  H91  1  0.40310000  0.81910000  0.23690000  1.0 0.1365572073
H  H92  1  0.81910000  0.40310000  0.54090000  1.0 0.1365572073
H  H93  1  0.23690000  0.81910000  0.54090000  1.0 0.1365572073
H  H94  1  0.40310000  0.54090000  0.81910000  1.0 0.1365572073
H  H95  1  0.40310000  0.23690000  0.54090000  1.0 0.1365572073
H  H96  1  0.54090000  0.81910000  0.40310000  1.0 0.1365572073
H  H97  1  0.24030000  0.02530000  0.49410000  1.0 0.0925584452
H  H98  1  0.75970000  0.50590000  0.75970000  1.0 0.0925584452
H  H99  1  0.02530000  0.24030000  0.24030000  1.0 0.0925584452
H  H100  1  0.50590000  0.75970000  0.97470000  1.0 0.0925584452
H  H101  1  0.97470000  0.75970000  0.75970000  1.0 0.0925584452
H  H102  1  0.24030000  0.49410000  0.02530000  1.0 0.0925584452
H  H103  1  0.50590000  0.75970000  0.75970000  1.0 0.0925584452
H  H104  1  0.97470000  0.50590000  0.75970000  1.0 0.0925584452
H  H105  1  0.49410000  0.24030000  0.24030000  1.0 0.0925584452
H  H106  1  0.75970000  0.75970000  0.97470000  1.0 0.0925584452
H  H107  1  0.49410000  0.24030000  0.02530000  1.0 0.0925584452
H  H108  1  0.02530000  0.49410000  0.24030000  1.0 0.0925584452
H  H109  1  0.49410000  0.02530000  0.24030000  1.0 0.0925584452
H  H110  1  0.24030000  0.02530000  0.24030000  1.0 0.0925584452
H  H111  1  0.24030000  0.24030000  0.02530000  1.0 0.0925584452
H  H112  1  0.24030000  0.49410000  0.24030000  1.0 0.0925584452
H  H113  1  0.02530000  0.24030000  0.49410000  1.0 0.0925584452
H  H114  1  0.24030000  0.24030000  0.49410000  1.0 0.0925584452
H  H115  1  0.75970000  0.97470000  0.75970000  1.0 0.0925584452
H  H116  1  0.97470000  0.75970000  0.50590000  1.0 0.0925584452
H  H117  1  0.75970000  0.97470000  0.50590000  1.0 0.0925584452
H  H118  1  0.75970000  0.50590000  0.97470000  1.0 0.0925584452
H  H119  1  0.75970000  0.75970000  0.50590000  1.0 0.0925584452
H  H120  1  0.50590000  0.97470000  0.75970000  1.0 0.0925584452
H  H121  1  0.19300000  0.03000000  0.58400000  1.0 0.1296187333
H  H122  1  0.80700000  0.41600000  0.80700000  1.0 0.1296187333
H  H123  1  0.03000000  0.19300000  0.19300000  1.0 0.1296187333
H  H124  1  0.41600000  0.80700000  0.97000000  1.0 0.1296187333
H  H125  1  0.97000000  0.80700000  0.80700000  1.0 0.1296187333
H  H126  1  0.19300000  0.58400000  0.03000000  1.0 0.1296187333
H  H127  1  0.41600000  0.80700000  0.80700000  1.0 0.1296187333
H  H128  1  0.97000000  0.41600000  0.80700000  1.0 0.1296187333
H  H129  1  0.58400000  0.19300000  0.19300000  1.0 0.1296187333
H  H130  1  0.80700000  0.80700000  0.97000000  1.0 0.1296187333
H  H131  1  0.58400000  0.19300000  0.03000000  1.0 0.1296187333
H  H132  1  0.03000000  0.58400000  0.19300000  1.0 0.1296187333
H  H133  1  0.58400000  0.03000000  0.19300000  1.0 0.1296187333
H  H134  1  0.19300000  0.03000000  0.19300000  1.0 0.1296187333
H  H135  1  0.19300000  0.19300000  0.03000000  1.0 0.1296187333
H  H136  1  0.19300000  0.58400000  0.19300000  1.0 0.1296187333
H  H137  1  0.03000000  0.19300000  0.58400000  1.0 0.1296187333
H  H138  1  0.19300000  0.19300000  0.58400000  1.0 0.1296187333
H  H139  1  0.80700000  0.97000000  0.80700000  1.0 0.1296187333
H  H140  1  0.97000000  0.80700000  0.41600000  1.0 0.1296187333
H  H141  1  0.80700000  0.97000000  0.41600000  1.0 0.1296187333
H  H142  1  0.80700000  0.41600000  0.97000000  1.0 0.1296187333
H  H143  1  0.80700000  0.80700000  0.41600000  1.0 0.1296187333
H  H144  1  0.41600000  0.97000000  0.80700000  1.0 0.1296187333
H  H145  1  0.19660000  0.94660000  0.66020000  1.0 0.1296187333
H  H146  1  0.80340000  0.33980000  0.80340000  1.0 0.1296187333
H  H147  1  0.94660000  0.19660000  0.19660000  1.0 0.1296187333
H  H148  1  0.33980000  0.80340000  0.05340000  1.0 0.1296187333
H  H149  1  0.05340000  0.80340000  0.80340000  1.0 0.1296187333
H  H150  1  0.19660000  0.66020000  0.94660000  1.0 0.1296187333
H  H151  1  0.33980000  0.80340000  0.80340000  1.0 0.1296187333
H  H152  1  0.05340000  0.33980000  0.80340000  1.0 0.1296187333
H  H153  1  0.66020000  0.19660000  0.19660000  1.0 0.1296187333
H  H154  1  0.80340000  0.80340000  0.05340000  1.0 0.1296187333
H  H155  1  0.66020000  0.19660000  0.94660000  1.0 0.1296187333
H  H156  1  0.94660000  0.66020000  0.19660000  1.0 0.1296187333
H  H157  1  0.66020000  0.94660000  0.19660000  1.0 0.1296187333
H  H158  1  0.19660000  0.94660000  0.19660000  1.0 0.1296187333
H  H159  1  0.19660000  0.19660000  0.94660000  1.0 0.1296187333
H  H160  1  0.19660000  0.66020000  0.19660000  1.0 0.1296187333
H  H161  1  0.94660000  0.19660000  0.66020000  1.0 0.1296187333
H  H162  1  0.19660000  0.19660000  0.66020000  1.0 0.1296187333
H  H163  1  0.80340000  0.05340000  0.80340000  1.0 0.1296187333
H  H164  1  0.05340000  0.80340000  0.33980000  1.0 0.1296187333
H  H165  1  0.80340000  0.05340000  0.33980000  1.0 0.1296187333
H  H166  1  0.80340000  0.33980000  0.05340000  1.0 0.1296187333
H  H167  1  0.80340000  0.80340000  0.33980000  1.0 0.1296187333
H  H168  1  0.33980000  0.05340000  0.80340000  1.0 0.1296187333
H  H169  1  0.29320000  0.86060000  0.55300000  1.0 0.1138035346
H  H170  1  0.70680000  0.44700000  0.70680000  1.0 0.1138035346
H  H171  1  0.86060000  0.29320000  0.29320000  1.0 0.1138035346
H  H172  1  0.44700000  0.70680000  0.13940000  1.0 0.1138035346
H  H173  1  0.13940000  0.70680000  0.70680000  1.0 0.1138035346
H  H174  1  0.29320000  0.55300000  0.86060000  1.0 0.1138035346
H  H175  1  0.44700000  0.70680000  0.70680000  1.0 0.1138035346
H  H176  1  0.13940000  0.44700000  0.70680000  1.0 0.1138035346
H  H177  1  0.55300000  0.29320000  0.29320000  1.0 0.1138035346
H  H178  1  0.70680000  0.70680000  0.13940000  1.0 0.1138035346
H  H179  1  0.55300000  0.29320000  0.86060000  1.0 0.1138035346
H  H180  1  0.86060000  0.55300000  0.29320000  1.0 0.1138035346
H  H181  1  0.55300000  0.86060000  0.29320000  1.0 0.1138035346
H  H182  1  0.29320000  0.86060000  0.29320000  1.0 0.1138035346
H  H183  1  0.29320000  0.29320000  0.86060000  1.0 0.1138035346
H  H184  1  0.29320000  0.55300000  0.29320000  1.0 0.1138035346
H  H185  1  0.86060000  0.29320000  0.55300000  1.0 0.1138035346
H  H186  1  0.29320000  0.29320000  0.55300000  1.0 0.1138035346
H  H187  1  0.70680000  0.13940000  0.70680000  1.0 0.1138035346
H  H188  1  0.13940000  0.70680000  0.44700000  1.0 0.1138035346
H  H189  1  0.70680000  0.13940000  0.44700000  1.0 0.1138035346
H  H190  1  0.70680000  0.44700000  0.13940000  1.0 0.1138035346
H  H191  1  0.70680000  0.70680000  0.44700000  1.0 0.1138035346
H  H192  1  0.44700000  0.13940000  0.70680000  1.0 0.1138035346
H  H193  1  0.33760000  0.98720000  0.33760000  1.0 0.3016735453
H  H194  1  0.66240000  0.66240000  0.66240000  1.0 0.3016735453
H  H195  1  0.98720000  0.33760000  0.33760000  1.0 0.3016735453
H  H196  1  0.66240000  0.66240000  0.01280000  1.0 0.3016735453
H  H197  1  0.01280000  0.66240000  0.66240000  1.0 0.3016735453
H  H198  1  0.33760000  0.33760000  0.98720000  1.0 0.3016735453
H  H199  1  0.33760000  0.33760000  0.33760000  1.0 0.3016735453
H  H200  1  0.66240000  0.01280000  0.66240000  1.0 0.3016735453
C  C1  1  0.37718000  0.02314000  0.37718000  1.0 0.4207932267
C  C2  1  0.77750000  0.62282000  0.62282000  1.0 0.4207932267
C  C3  1  0.02314000  0.37718000  0.22250000  1.0 0.4207932267
C  C4  1  0.62282000  0.77750000  0.97686000  1.0 0.4207932267
C  C5  1  0.97686000  0.77750000  0.62282000  1.0 0.4207932267
C  C6  1  0.22250000  0.37718000  0.02314000  1.0 0.4207932267
C  C7  1  0.62282000  0.62282000  0.77750000  1.0 0.4207932267
C  C8  1  0.97686000  0.62282000  0.77750000  1.0 0.4207932267
C  C9  1  0.37718000  0.22250000  0.37718000  1.0 0.4207932267
C  C10  1  0.77750000  0.62282000  0.97686000  1.0 0.4207932267
C  C11  1  0.37718000  0.37718000  0.02314000  1.0 0.4207932267
C  C12  1  0.02314000  0.37718000  0.37718000  1.0 0.4207932267
C  C13  1  0.37718000  0.02314000  0.22250000  1.0 0.4207932267
C  C14  1  0.22250000  0.02314000  0.37718000  1.0 0.4207932267
C  C15  1  0.37718000  0.22250000  0.02314000  1.0 0.4207932267
C  C16  1  0.37718000  0.37718000  0.22250000  1.0 0.4207932267
C  C17  1  0.02314000  0.22250000  0.37718000  1.0 0.4207932267
C  C18  1  0.22250000  0.37718000  0.37718000  1.0 0.4207932267
C  C19  1  0.62282000  0.97686000  0.77750000  1.0 0.4207932267
C  C20  1  0.97686000  0.62282000  0.62282000  1.0 0.4207932267
C  C21  1  0.77750000  0.97686000  0.62282000  1.0 0.4207932267
C  C22  1  0.62282000  0.62282000  0.97686000  1.0 0.4207932267
C  C23  1  0.62282000  0.77750000  0.62282000  1.0 0.4207932267
C  C24  1  0.62282000  0.97686000  0.62282000  1.0 0.4207932267
C  C25  1  0.37849000  0.07381000  0.37849000  1.0 -0.0602344751
C  C26  1  0.83079000  0.62151000  0.62151000  1.0 -0.0602344751
C  C27  1  0.07381000  0.37849000  0.16921000  1.0 -0.0602344751
C  C28  1  0.62151000  0.83079000  0.92619000  1.0 -0.0602344751
C  C29  1  0.92619000  0.83079000  0.62151000  1.0 -0.0602344751
C  C30  1  0.16921000  0.37849000  0.07381000  1.0 -0.0602344751
C  C31  1  0.62151000  0.62151000  0.83079000  1.0 -0.0602344751
C  C32  1  0.92619000  0.62151000  0.83079000  1.0 -0.0602344751
C  C33  1  0.37849000  0.16921000  0.37849000  1.0 -0.0602344751
C  C34  1  0.83079000  0.62151000  0.92619000  1.0 -0.0602344751
C  C35  1  0.37849000  0.37849000  0.07381000  1.0 -0.0602344751
C  C36  1  0.07381000  0.37849000  0.37849000  1.0 -0.0602344751
C  C37  1  0.37849000  0.07381000  0.16921000  1.0 -0.0602344751
C  C38  1  0.16921000  0.07381000  0.37849000  1.0 -0.0602344751
C  C39  1  0.37849000  0.16921000  0.07381000  1.0 -0.0538503594
C  C40  1  0.37849000  0.37849000  0.16921000  1.0 -0.0602344751
C  C41  1  0.07381000  0.16921000  0.37849000  1.0 -0.0538503594
C  C42  1  0.16921000  0.37849000  0.37849000  1.0 -0.0602344751
C  C43  1  0.62151000  0.92619000  0.83079000  1.0 -0.0602344751
C  C44  1  0.92619000  0.62151000  0.62151000  1.0 -0.0602344751
C  C45  1  0.83079000  0.92619000  0.62151000  1.0 -0.0602344751
C  C46  1  0.62151000  0.62151000  0.92619000  1.0 -0.0602344751
C  C47  1  0.62151000  0.83079000  0.62151000  1.0 -0.0602344751
C  C48  1  0.62151000  0.92619000  0.62151000  1.0 -0.0602344751
C  C49  1  0.33783000  0.09783000  0.41941000  1.0 -0.0982149058
C  C50  1  0.85507000  0.58059000  0.66217000  1.0 -0.0982149058
C  C51  1  0.09783000  0.33783000  0.14493000  1.0 -0.0982149058
C  C52  1  0.58059000  0.85507000  0.90217000  1.0 -0.0982149058
C  C53  1  0.90217000  0.85507000  0.66217000  1.0 -0.0982149058
C  C54  1  0.14493000  0.41941000  0.09783000  1.0 -0.0982149058
C  C55  1  0.58059000  0.66217000  0.85507000  1.0 -0.0982149058
C  C56  1  0.90217000  0.58059000  0.85507000  1.0 -0.0982149058
C  C57  1  0.41941000  0.14493000  0.33783000  1.0 -0.0982149058
C  C58  1  0.85507000  0.66217000  0.90217000  1.0 -0.0982149058
C  C59  1  0.41941000  0.33783000  0.09783000  1.0 -0.0982149058
C  C60  1  0.09783000  0.41941000  0.33783000  1.0 -0.0982149058
C  C61  1  0.41941000  0.09783000  0.14493000  1.0 -0.0982149058
C  C62  1  0.14493000  0.09783000  0.33783000  1.0 -0.0982149058
C  C63  1  0.33783000  0.14493000  0.09783000  1.0 -0.0982149058
C  C64  1  0.33783000  0.41941000  0.14493000  1.0 -0.0982149058
C  C65  1  0.09783000  0.14493000  0.41941000  1.0 -0.0982149058
C  C66  1  0.14493000  0.33783000  0.41941000  1.0 -0.0982149058
C  C67  1  0.66217000  0.90217000  0.85507000  1.0 -0.0982149058
C  C68  1  0.90217000  0.66217000  0.58059000  1.0 -0.0982149058
C  C69  1  0.85507000  0.90217000  0.58059000  1.0 -0.0982149058
C  C70  1  0.66217000  0.58059000  0.90217000  1.0 -0.0982149058
C  C71  1  0.66217000  0.85507000  0.58059000  1.0 -0.0982149058
C  C72  1  0.58059000  0.90217000  0.66217000  1.0 -0.0982149058
C  C73  1  0.66217000  0.90217000  0.58059000  1.0 -0.0982149058
C  C74  1  0.14493000  0.41941000  0.33783000  1.0 -0.0982149058
C  C75  1  0.90217000  0.66217000  0.85507000  1.0 -0.0982149058
C  C76  1  0.41941000  0.14493000  0.09783000  1.0 -0.0982149058
C  C77  1  0.09783000  0.14493000  0.33783000  1.0 -0.0982149058
C  C78  1  0.85507000  0.58059000  0.90217000  1.0 -0.0982149058
C  C79  1  0.41941000  0.33783000  0.14493000  1.0 -0.0982149058
C  C80  1  0.09783000  0.41941000  0.14493000  1.0 -0.0982149058
C  C81  1  0.58059000  0.85507000  0.66217000  1.0 -0.0982149058
C  C82  1  0.14493000  0.33783000  0.09783000  1.0 -0.0982149058
C  C83  1  0.58059000  0.66217000  0.90217000  1.0 -0.0982149058
C  C84  1  0.90217000  0.58059000  0.66217000  1.0 -0.0982149058
C  C85  1  0.58059000  0.90217000  0.85507000  1.0 -0.0982149058
C  C86  1  0.85507000  0.90217000  0.66217000  1.0 -0.0982149058
C  C87  1  0.66217000  0.85507000  0.90217000  1.0 -0.0982149058
C  C88  1  0.66217000  0.58059000  0.85507000  1.0 -0.0982149058
C  C89  1  0.90217000  0.85507000  0.58059000  1.0 -0.0982149058
C  C90  1  0.85507000  0.66217000  0.58059000  1.0 -0.0982149058
C  C91  1  0.33783000  0.09783000  0.14493000  1.0 -0.0982149058
C  C92  1  0.09783000  0.33783000  0.41941000  1.0 -0.0982149058
C  C93  1  0.14493000  0.09783000  0.41941000  1.0 -0.0982149058
C  C94  1  0.33783000  0.41941000  0.09783000  1.0 -0.0982149058
C  C95  1  0.33783000  0.14493000  0.41941000  1.0 -0.0982149058
C  C96  1  0.41941000  0.09783000  0.33783000  1.0 -0.0982149058
C  C97  1  0.42999000  0.86783000  0.42999000  1.0 0.4703308929
C  C98  1  0.72781000  0.57001000  0.57001000  1.0 0.4703308929
C  C99  1  0.86783000  0.42999000  0.27219000  1.0 0.4703308929
C  C100  1  0.57001000  0.72781000  0.13217000  1.0 0.4703308929
C  C101  1  0.13217000  0.72781000  0.57001000  1.0 0.4703308929
C  C102  1  0.27219000  0.42999000  0.86783000  1.0 0.4703308929
C  C103  1  0.57001000  0.57001000  0.72781000  1.0 0.4703308929
C  C104  1  0.13217000  0.57001000  0.72781000  1.0 0.4703308929
C  C105  1  0.42999000  0.27219000  0.42999000  1.0 0.4703308929
C  C106  1  0.72781000  0.57001000  0.13217000  1.0 0.4703308929
C  C107  1  0.42999000  0.42999000  0.86783000  1.0 0.4703308929
C  C108  1  0.86783000  0.42999000  0.42999000  1.0 0.4703308929
C  C109  1  0.42999000  0.86783000  0.27219000  1.0 0.4703308929
C  C110  1  0.27219000  0.86783000  0.42999000  1.0 0.4703308929
C  C111  1  0.42999000  0.27219000  0.86783000  1.0 0.4703308929
C  C112  1  0.42999000  0.42999000  0.27219000  1.0 0.4703308929
C  C113  1  0.86783000  0.27219000  0.42999000  1.0 0.4703308929
C  C114  1  0.27219000  0.42999000  0.42999000  1.0 0.4703308929
C  C115  1  0.57001000  0.13217000  0.72781000  1.0 0.4703308929
C  C116  1  0.13217000  0.57001000  0.57001000  1.0 0.4703308929
C  C117  1  0.72781000  0.13217000  0.57001000  1.0 0.4703308929
C  C118  1  0.57001000  0.57001000  0.13217000  1.0 0.4703308929
C  C119  1  0.57001000  0.72781000  0.57001000  1.0 0.4703308929
C  C120  1  0.57001000  0.13217000  0.57001000  1.0 0.4703308929
C  C121  1  0.46627000  0.82743000  0.46627000  1.0 -0.0175284177
C  C122  1  0.75997000  0.53373000  0.53373000  1.0 -0.0175284177
C  C123  1  0.82743000  0.46627000  0.24003000  1.0 -0.0175284177
C  C124  1  0.53373000  0.75997000  0.17257000  1.0 -0.0175284177
C  C125  1  0.17257000  0.75997000  0.53373000  1.0 -0.0175284177
C  C126  1  0.24003000  0.46627000  0.82743000  1.0 -0.0175284177
C  C127  1  0.53373000  0.53373000  0.75997000  1.0 -0.0175284177
C  C128  1  0.17257000  0.53373000  0.75997000  1.0 -0.0175284177
C  C129  1  0.46627000  0.24003000  0.46627000  1.0 -0.0175284177
C  C130  1  0.75997000  0.53373000  0.17257000  1.0 -0.0175284177
C  C131  1  0.46627000  0.46627000  0.82743000  1.0 -0.0175284177
C  C132  1  0.82743000  0.46627000  0.46627000  1.0 -0.0175284177
C  C133  1  0.46627000  0.82743000  0.24003000  1.0 -0.0175284177
C  C134  1  0.24003000  0.82743000  0.46627000  1.0 -0.0175284177
C  C135  1  0.46627000  0.24003000  0.82743000  1.0 -0.0175284177
C  C136  1  0.46627000  0.46627000  0.24003000  1.0 -0.0175284177
C  C137  1  0.82743000  0.24003000  0.46627000  1.0 -0.0175284177
C  C138  1  0.24003000  0.46627000  0.46627000  1.0 -0.0175284177
C  C139  1  0.53373000  0.17257000  0.75997000  1.0 -0.0175284177
C  C140  1  0.17257000  0.53373000  0.53373000  1.0 -0.0175284177
C  C141  1  0.75997000  0.17257000  0.53373000  1.0 -0.0175284177
C  C142  1  0.53373000  0.53373000  0.17257000  1.0 -0.0175284177
C  C143  1  0.53373000  0.75997000  0.53373000  1.0 -0.0175284177
C  C144  1  0.53373000  0.17257000  0.53373000  1.0 -0.0175284177
C  C145  1  0.44240000  0.80880000  0.52426000  1.0 -0.0817339607
C  C146  1  0.77546000  0.47574000  0.55760000  1.0 -0.0817339607
C  C147  1  0.80880000  0.44240000  0.22454000  1.0 -0.0817339607
C  C148  1  0.47574000  0.77546000  0.19120000  1.0 -0.0817339607
C  C149  1  0.19120000  0.77546000  0.55760000  1.0 -0.0817339607
C  C150  1  0.22454000  0.52426000  0.80880000  1.0 -0.0817339607
C  C151  1  0.47574000  0.55760000  0.77546000  1.0 -0.0817339607
C  C152  1  0.19120000  0.47574000  0.77546000  1.0 -0.0817339607
C  C153  1  0.52426000  0.22454000  0.44240000  1.0 -0.0817339607
C  C154  1  0.77546000  0.55760000  0.19120000  1.0 -0.0817339607
C  C155  1  0.52426000  0.44240000  0.80880000  1.0 -0.0817339607
C  C156  1  0.80880000  0.52426000  0.44240000  1.0 -0.0817339607
C  C157  1  0.52426000  0.80880000  0.22454000  1.0 -0.0817339607
C  C158  1  0.22454000  0.80880000  0.44240000  1.0 -0.0817339607
C  C159  1  0.44240000  0.22454000  0.80880000  1.0 -0.0817339607
C  C160  1  0.44240000  0.52426000  0.22454000  1.0 -0.0817339607
C  C161  1  0.80880000  0.22454000  0.52426000  1.0 -0.0817339607
C  C162  1  0.22454000  0.44240000  0.52426000  1.0 -0.0817339607
C  C163  1  0.55760000  0.19120000  0.77546000  1.0 -0.0817339607
C  C164  1  0.19120000  0.55760000  0.47574000  1.0 -0.0817339607
C  C165  1  0.77546000  0.19120000  0.47574000  1.0 -0.0817339607
C  C166  1  0.55760000  0.47574000  0.19120000  1.0 -0.0817339607
C  C167  1  0.55760000  0.77546000  0.47574000  1.0 -0.0817339607
C  C168  1  0.47574000  0.19120000  0.55760000  1.0 -0.0817339607
C  C169  1  0.55760000  0.19120000  0.47574000  1.0 -0.0817339607
C  C170  1  0.22454000  0.52426000  0.44240000  1.0 -0.0817339607
C  C171  1  0.19120000  0.55760000  0.77546000  1.0 -0.0817339607
C  C172  1  0.52426000  0.22454000  0.80880000  1.0 -0.0817339607
C  C173  1  0.80880000  0.22454000  0.44240000  1.0 -0.0817339607
C  C174  1  0.77546000  0.47574000  0.19120000  1.0 -0.0817339607
C  C175  1  0.52426000  0.44240000  0.22454000  1.0 -0.0817339607
C  C176  1  0.80880000  0.52426000  0.22454000  1.0 -0.0817339607
C  C177  1  0.47574000  0.77546000  0.55760000  1.0 -0.0817339607
C  C178  1  0.22454000  0.44240000  0.80880000  1.0 -0.0817339607
C  C179  1  0.47574000  0.55760000  0.19120000  1.0 -0.0817339607
C  C180  1  0.19120000  0.47574000  0.55760000  1.0 -0.0817339607
C  C181  1  0.47574000  0.19120000  0.77546000  1.0 -0.0817339607
C  C182  1  0.77546000  0.19120000  0.55760000  1.0 -0.0817339607
C  C183  1  0.55760000  0.77546000  0.19120000  1.0 -0.0817339607
C  C184  1  0.55760000  0.47574000  0.77546000  1.0 -0.0817339607
C  C185  1  0.19120000  0.77546000  0.47574000  1.0 -0.0817339607
C  C186  1  0.77546000  0.55760000  0.47574000  1.0 -0.0817339607
C  C187  1  0.44240000  0.80880000  0.22454000  1.0 -0.0817339607
C  C188  1  0.80880000  0.44240000  0.52426000  1.0 -0.0817339607
C  C189  1  0.22454000  0.80880000  0.52426000  1.0 -0.0817339607
C  C190  1  0.44240000  0.52426000  0.80880000  1.0 -0.0817339607
C  C191  1  0.44240000  0.22454000  0.52426000  1.0 -0.0817339607
C  C192  1  0.52426000  0.80880000  0.44240000  1.0 -0.0817339607
C  C193  1  0.24169000  0.99185000  0.52477000  1.0 0.0812434171
C  C194  1  0.75831000  0.47523000  0.75831000  1.0 0.0812434171
C  C195  1  0.99185000  0.24169000  0.24169000  1.0 0.0812434171
C  C196  1  0.47523000  0.75831000  0.00815000  1.0 0.0812434171
C  C197  1  0.00815000  0.75831000  0.75831000  1.0 0.0812434171
C  C198  1  0.24169000  0.52477000  0.99185000  1.0 0.0812434171
C  C199  1  0.47523000  0.75831000  0.75831000  1.0 0.0812434171
C  C200  1  0.00815000  0.47523000  0.75831000  1.0 0.0812434171
C  C201  1  0.52477000  0.24169000  0.24169000  1.0 0.0812434171
C  C202  1  0.75831000  0.75831000  0.00815000  1.0 0.0812434171
C  C203  1  0.52477000  0.24169000  0.99185000  1.0 0.0812434171
C  C204  1  0.99185000  0.52477000  0.24169000  1.0 0.0812434171
C  C205  1  0.52477000  0.99185000  0.24169000  1.0 0.0812434171
C  C206  1  0.24169000  0.99185000  0.24169000  1.0 0.0812434171
C  C207  1  0.24169000  0.24169000  0.99185000  1.0 0.0812434171
C  C208  1  0.24169000  0.52477000  0.24169000  1.0 0.0812434171
C  C209  1  0.99185000  0.24169000  0.52477000  1.0 0.0812434171
C  C210  1  0.24169000  0.24169000  0.52477000  1.0 0.0812434171
C  C211  1  0.75831000  0.00815000  0.75831000  1.0 0.0812434171
C  C212  1  0.00815000  0.75831000  0.47523000  1.0 0.0812434171
C  C213  1  0.75831000  0.00815000  0.47523000  1.0 0.0812434171
C  C214  1  0.75831000  0.47523000  0.00815000  1.0 0.0812434171
C  C215  1  0.75831000  0.75831000  0.47523000  1.0 0.0812434171
C  C216  1  0.47523000  0.00815000  0.75831000  1.0 0.0812434171
C  C217  1  0.21327000  0.99515000  0.57831000  1.0 -0.1502657625
C  C218  1  0.78673000  0.42169000  0.78673000  1.0 -0.1502657625
C  C219  1  0.99515000  0.21327000  0.21327000  1.0 -0.1502657625
C  C220  1  0.42169000  0.78673000  0.00485000  1.0 -0.1502657625
C  C221  1  0.00485000  0.78673000  0.78673000  1.0 -0.1502657625
C  C222  1  0.21327000  0.57831000  0.99515000  1.0 -0.1502657625
C  C223  1  0.42169000  0.78673000  0.78673000  1.0 -0.1502657625
C  C224  1  0.00485000  0.42169000  0.78673000  1.0 -0.1502657625
C  C225  1  0.57831000  0.21327000  0.21327000  1.0 -0.1502657625
C  C226  1  0.78673000  0.78673000  0.00485000  1.0 -0.1502657625
C  C227  1  0.57831000  0.21327000  0.99515000  1.0 -0.1502657625
C  C228  1  0.99515000  0.57831000  0.21327000  1.0 -0.1502657625
C  C229  1  0.57831000  0.99515000  0.21327000  1.0 -0.1502657625
C  C230  1  0.21327000  0.99515000  0.21327000  1.0 -0.1502657625
C  C231  1  0.21327000  0.21327000  0.99515000  1.0 -0.1502657625
C  C232  1  0.21327000  0.57831000  0.21327000  1.0 -0.1502657625
C  C233  1  0.99515000  0.21327000  0.57831000  1.0 -0.1502657625
C  C234  1  0.21327000  0.21327000  0.57831000  1.0 -0.1502657625
C  C235  1  0.78673000  0.00485000  0.78673000  1.0 -0.1502657625
C  C236  1  0.00485000  0.78673000  0.42169000  1.0 -0.1502657625
C  C237  1  0.78673000  0.00485000  0.42169000  1.0 -0.1502657625
C  C238  1  0.78673000  0.42169000  0.00485000  1.0 -0.1502657625
C  C239  1  0.78673000  0.78673000  0.42169000  1.0 -0.1502657625
C  C240  1  0.42169000  0.00485000  0.78673000  1.0 -0.1502657625
C  C241  1  0.21551000  0.94551000  0.62347000  1.0 -0.0318681545
C  C242  1  0.78449000  0.37653000  0.78449000  1.0 -0.0318681545
C  C243  1  0.94551000  0.21551000  0.21551000  1.0 -0.0318681545
C  C244  1  0.37653000  0.78449000  0.05449000  1.0 -0.0318681545
C  C245  1  0.05449000  0.78449000  0.78449000  1.0 -0.0318681545
C  C246  1  0.21551000  0.62347000  0.94551000  1.0 -0.0318681545
C  C247  1  0.37653000  0.78449000  0.78449000  1.0 -0.0318681545
C  C248  1  0.05449000  0.37653000  0.78449000  1.0 -0.0318681545
C  C249  1  0.62347000  0.21551000  0.21551000  1.0 -0.0318681545
C  C250  1  0.78449000  0.78449000  0.05449000  1.0 -0.0318681545
C  C251  1  0.62347000  0.21551000  0.94551000  1.0 -0.0318681545
C  C252  1  0.94551000  0.62347000  0.21551000  1.0 -0.0318681545
C  C253  1  0.62347000  0.94551000  0.21551000  1.0 -0.0318681545
C  C254  1  0.21551000  0.94551000  0.21551000  1.0 -0.0318681545
C  C255  1  0.21551000  0.21551000  0.94551000  1.0 -0.0318681545
C  C256  1  0.21551000  0.62347000  0.21551000  1.0 -0.0318681545
C  C257  1  0.94551000  0.21551000  0.62347000  1.0 -0.0318681545
C  C258  1  0.21551000  0.21551000  0.62347000  1.0 -0.0318681545
C  C259  1  0.78449000  0.05449000  0.78449000  1.0 -0.0318681545
C  C260  1  0.05449000  0.78449000  0.37653000  1.0 -0.0318681545
C  C261  1  0.78449000  0.05449000  0.37653000  1.0 -0.0318681545
C  C262  1  0.78449000  0.37653000  0.05449000  1.0 -0.0318681545
C  C263  1  0.78449000  0.78449000  0.37653000  1.0 -0.0318681545
C  C264  1  0.37653000  0.05449000  0.78449000  1.0 -0.0318681545
C  C265  1  0.24544000  0.89448000  0.61464000  1.0 -0.0602344751
C  C266  1  0.75456000  0.38536000  0.75456000  1.0 -0.0602344751
C  C267  1  0.89448000  0.24544000  0.24544000  1.0 -0.0602344751
C  C268  1  0.38536000  0.75456000  0.10552000  1.0 -0.0602344751
C  C269  1  0.10552000  0.75456000  0.75456000  1.0 -0.0602344751
C  C270  1  0.24544000  0.61464000  0.89448000  1.0 -0.0602344751
C  C271  1  0.38536000  0.75456000  0.75456000  1.0 -0.0602344751
C  C272  1  0.10552000  0.38536000  0.75456000  1.0 -0.0602344751
C  C273  1  0.61464000  0.24544000  0.24544000  1.0 -0.0602344751
C  C274  1  0.75456000  0.75456000  0.10552000  1.0 -0.0602344751
C  C275  1  0.61464000  0.24544000  0.89448000  1.0 -0.0602344751
C  C276  1  0.89448000  0.61464000  0.24544000  1.0 -0.0602344751
C  C277  1  0.61464000  0.89448000  0.24544000  1.0 -0.0602344751
C  C278  1  0.24544000  0.89448000  0.24544000  1.0 -0.0602344751
C  C279  1  0.24544000  0.24544000  0.89448000  1.0 -0.0602344751
C  C280  1  0.24544000  0.61464000  0.24544000  1.0 -0.0602344751
C  C281  1  0.89448000  0.24544000  0.61464000  1.0 -0.0602344751
C  C282  1  0.24544000  0.24544000  0.61464000  1.0 -0.0602344751
C  C283  1  0.75456000  0.10552000  0.75456000  1.0 -0.0602344751
C  C284  1  0.10552000  0.75456000  0.38536000  1.0 -0.0602344751
C  C285  1  0.75456000  0.10552000  0.38536000  1.0 -0.0602344751
C  C286  1  0.75456000  0.38536000  0.10552000  1.0 -0.0602344751
C  C287  1  0.75456000  0.75456000  0.38536000  1.0 -0.0602344751
C  C288  1  0.38536000  0.10552000  0.75456000  1.0 -0.0602344751
C  C289  1  0.27268000  0.89508000  0.55956000  1.0 0.0925584452
C  C290  1  0.72732000  0.44044000  0.72732000  1.0 0.0925584452
C  C291  1  0.89508000  0.27268000  0.27268000  1.0 0.0925584452
C  C292  1  0.44044000  0.72732000  0.10492000  1.0 0.0925584452
C  C293  1  0.10492000  0.72732000  0.72732000  1.0 0.0925584452
C  C294  1  0.27268000  0.55956000  0.89508000  1.0 0.0925584452
C  C295  1  0.44044000  0.72732000  0.72732000  1.0 0.0925584452
C  C296  1  0.10492000  0.44044000  0.72732000  1.0 0.0925584452
C  C297  1  0.55956000  0.27268000  0.27268000  1.0 0.0925584452
C  C298  1  0.72732000  0.72732000  0.10492000  1.0 0.0925584452
C  C299  1  0.55956000  0.27268000  0.89508000  1.0 0.0925584452
C  C300  1  0.89508000  0.55956000  0.27268000  1.0 0.0925584452
C  C301  1  0.55956000  0.89508000  0.27268000  1.0 0.0925584452
C  C302  1  0.27268000  0.89508000  0.27268000  1.0 0.0925584452
C  C303  1  0.27268000  0.27268000  0.89508000  1.0 0.0925584452
C  C304  1  0.27268000  0.55956000  0.27268000  1.0 0.0925584452
C  C305  1  0.89508000  0.27268000  0.55956000  1.0 0.0925584452
C  C306  1  0.27268000  0.27268000  0.55956000  1.0 0.0925584452
C  C307  1  0.72732000  0.10492000  0.72732000  1.0 0.0925584452
C  C308  1  0.10492000  0.72732000  0.44044000  1.0 0.0925584452
C  C309  1  0.72732000  0.10492000  0.44044000  1.0 0.0925584452
C  C310  1  0.72732000  0.44044000  0.10492000  1.0 0.0925584452
C  C311  1  0.72732000  0.72732000  0.44044000  1.0 0.0925584452
C  C312  1  0.44044000  0.10492000  0.72732000  1.0 0.0925584452
C  C313  1  0.24753000  0.84103000  0.66391000  1.0 0.5815627912
C  C314  1  0.75247000  0.33609000  0.75247000  1.0 0.5815627912
C  C315  1  0.84103000  0.24753000  0.24753000  1.0 0.5815627912
C  C316  1  0.33609000  0.75247000  0.15897000  1.0 0.5815627912
C  C317  1  0.15897000  0.75247000  0.75247000  1.0 0.5815627912
C  C318  1  0.24753000  0.66391000  0.84103000  1.0 0.5815627912
C  C319  1  0.33609000  0.75247000  0.75247000  1.0 0.5815627912
C  C320  1  0.15897000  0.33609000  0.75247000  1.0 0.5815627912
C  C321  1  0.66391000  0.24753000  0.24753000  1.0 0.5815627912
C  C322  1  0.75247000  0.75247000  0.15897000  1.0 0.5815627912
C  C323  1  0.66391000  0.24753000  0.84103000  1.0 0.5815627912
C  C324  1  0.84103000  0.66391000  0.24753000  1.0 0.5815627912
C  C325  1  0.66391000  0.84103000  0.24753000  1.0 0.5815627912
C  C326  1  0.24753000  0.84103000  0.24753000  1.0 0.5815627912
C  C327  1  0.24753000  0.24753000  0.84103000  1.0 0.5815627912
C  C328  1  0.24753000  0.66391000  0.24753000  1.0 0.5815627912
C  C329  1  0.84103000  0.24753000  0.66391000  1.0 0.5815627912
C  C330  1  0.24753000  0.24753000  0.66391000  1.0 0.5815627912
C  C331  1  0.75247000  0.15897000  0.75247000  1.0 0.5815627912
C  C332  1  0.15897000  0.75247000  0.33609000  1.0 0.5815627912
C  C333  1  0.75247000  0.15897000  0.33609000  1.0 0.5815627912
C  C334  1  0.75247000  0.33609000  0.15897000  1.0 0.5815627912
C  C335  1  0.75247000  0.75247000  0.33609000  1.0 0.5815627912
C  C336  1  0.33609000  0.15897000  0.75247000  1.0 0.5815627912
N  N1  1  0.27103000  0.94293000  0.51501000  1.0 -0.3296467847
N  N2  1  0.72897000  0.48499000  0.72897000  1.0 -0.3296467847
N  N3  1  0.94293000  0.27103000  0.27103000  1.0 -0.3296467847
N  N4  1  0.48499000  0.72897000  0.05707000  1.0 -0.3296467847
N  N5  1  0.05707000  0.72897000  0.72897000  1.0 -0.3296467847
N  N6  1  0.27103000  0.51501000  0.94293000  1.0 -0.3296467847
N  N7  1  0.48499000  0.72897000  0.72897000  1.0 -0.3296467847
N  N8  1  0.05707000  0.48499000  0.72897000  1.0 -0.3296467847
N  N9  1  0.51501000  0.27103000  0.27103000  1.0 -0.3296467847
N  N10  1  0.72897000  0.72897000  0.05707000  1.0 -0.3296467847
N  N11  1  0.51501000  0.27103000  0.94293000  1.0 -0.3296467847
N  N12  1  0.94293000  0.51501000  0.27103000  1.0 -0.3296467847
N  N13  1  0.51501000  0.94293000  0.27103000  1.0 -0.3296467847
N  N14  1  0.27103000  0.94293000  0.27103000  1.0 -0.3296467847
N  N15  1  0.27103000  0.27103000  0.94293000  1.0 -0.3296467847
N  N16  1  0.27103000  0.51501000  0.27103000  1.0 -0.3296467847
N  N17  1  0.94293000  0.27103000  0.51501000  1.0 -0.3296467847
N  N18  1  0.27103000  0.27103000  0.51501000  1.0 -0.3296467847
N  N19  1  0.72897000  0.05707000  0.72897000  1.0 -0.3296467847
N  N20  1  0.05707000  0.72897000  0.48499000  1.0 -0.3296467847
N  N21  1  0.72897000  0.05707000  0.48499000  1.0 -0.3296467847
N  N22  1  0.72897000  0.48499000  0.05707000  1.0 -0.3296467847
N  N23  1  0.72897000  0.72897000  0.48499000  1.0 -0.3296467847
N  N24  1  0.48499000  0.05707000  0.72897000  1.0 -0.3296467847
O  O1  1  0.35141000  0.94577000  0.35141000  1.0 -0.650828221
O  O2  1  0.64859000  0.64859000  0.64859000  1.0 -0.650828221
O  O3  1  0.94577000  0.35141000  0.35141000  1.0 -0.650828221
O  O4  1  0.64859000  0.64859000  0.05423000  1.0 -0.650828221
O  O5  1  0.05423000  0.64859000  0.64859000  1.0 -0.650828221
O  O6  1  0.35141000  0.35141000  0.94577000  1.0 -0.650828221
O  O7  1  0.35141000  0.35141000  0.35141000  1.0 -0.650828221
O  O8  1  0.64859000  0.05423000  0.64859000  1.0 -0.650828221
O  O9  1  0.32957000  0.01203000  0.41197000  1.0 -0.2072891559
O  O10  1  0.75357000  0.58803000  0.67043000  1.0 -0.2043831824
O  O11  1  0.01203000  0.32957000  0.24643000  1.0 -0.2072891559
O  O12  1  0.58803000  0.75357000  0.98797000  1.0 -0.2043831824
O  O13  1  0.98797000  0.75357000  0.67043000  1.0 -0.2072891559
O  O14  1  0.24643000  0.41197000  0.01203000  1.0 -0.2072891559
O  O15  1  0.58803000  0.67043000  0.75357000  1.0 -0.2072891559
O  O16  1  0.98797000  0.58803000  0.75357000  1.0 -0.2043831824
O  O17  1  0.41197000  0.24643000  0.32957000  1.0 -0.2043831824
O  O18  1  0.75357000  0.67043000  0.98797000  1.0 -0.2072891559
O  O19  1  0.41197000  0.32957000  0.01203000  1.0 -0.2043831824
O  O20  1  0.01203000  0.41197000  0.32957000  1.0 -0.2072891559
O  O21  1  0.41197000  0.01203000  0.24643000  1.0 -0.2043831824
O  O22  1  0.24643000  0.01203000  0.32957000  1.0 -0.2072891559
O  O23  1  0.32957000  0.24643000  0.01203000  1.0 -0.2072891559
O  O24  1  0.32957000  0.41197000  0.24643000  1.0 -0.2072891559
O  O25  1  0.01203000  0.24643000  0.41197000  1.0 -0.2072891559
O  O26  1  0.24643000  0.32957000  0.41197000  1.0 -0.2072891559
O  O27  1  0.67043000  0.98797000  0.75357000  1.0 -0.2072891559
O  O28  1  0.98797000  0.67043000  0.58803000  1.0 -0.2043831824
O  O29  1  0.75357000  0.98797000  0.58803000  1.0 -0.2072891559
O  O30  1  0.67043000  0.58803000  0.98797000  1.0 -0.2043831824
O  O31  1  0.67043000  0.75357000  0.58803000  1.0 -0.2072891559
O  O32  1  0.58803000  0.98797000  0.67043000  1.0 -0.2043831824
O  O33  1  0.67043000  0.98797000  0.58803000  1.0 -0.2072891559
O  O34  1  0.24643000  0.41197000  0.32957000  1.0 -0.2072891559
O  O35  1  0.98797000  0.67043000  0.75357000  1.0 -0.2072891559
O  O36  1  0.41197000  0.24643000  0.01203000  1.0 -0.2072891559
O  O37  1  0.01203000  0.24643000  0.32957000  1.0 -0.2072891559
O  O38  1  0.75357000  0.58803000  0.98797000  1.0 -0.2072891559
O  O39  1  0.41197000  0.32957000  0.24643000  1.0 -0.2072891559
O  O40  1  0.01203000  0.41197000  0.24643000  1.0 -0.2072891559
O  O41  1  0.58803000  0.75357000  0.67043000  1.0 -0.2043831824
O  O42  1  0.24643000  0.32957000  0.01203000  1.0 -0.2072891559
O  O43  1  0.58803000  0.67043000  0.98797000  1.0 -0.2072891559
O  O44  1  0.98797000  0.58803000  0.67043000  1.0 -0.2072891559
O  O45  1  0.58803000  0.98797000  0.75357000  1.0 -0.2072891559
O  O46  1  0.75357000  0.98797000  0.67043000  1.0 -0.2043831824
O  O47  1  0.67043000  0.75357000  0.98797000  1.0 -0.2043831824
O  O48  1  0.67043000  0.58803000  0.75357000  1.0 -0.2072891559
O  O49  1  0.98797000  0.75357000  0.58803000  1.0 -0.2072891559
O  O50  1  0.75357000  0.67043000  0.58803000  1.0 -0.2072891559
O  O51  1  0.32957000  0.01203000  0.24643000  1.0 -0.2072891559
O  O52  1  0.01203000  0.32957000  0.41197000  1.0 -0.2072891559
O  O53  1  0.24643000  0.01203000  0.41197000  1.0 -0.2072891559
O  O54  1  0.32957000  0.41197000  0.01203000  1.0 -0.2072891559
O  O55  1  0.32957000  0.24643000  0.41197000  1.0 -0.2043831824
O  O56  1  0.41197000  0.01203000  0.32957000  1.0 -0.2072891559
O  O57  1  0.37820000  0.87660000  0.45540000  1.0 -0.2631271871
O  O58  1  0.71020000  0.54460000  0.62180000  1.0 -0.2631271871
O  O59  1  0.87660000  0.37820000  0.28980000  1.0 -0.2631271871
O  O60  1  0.54460000  0.71020000  0.12340000  1.0 -0.2631271871
O  O61  1  0.12340000  0.71020000  0.62180000  1.0 -0.2631271871
O  O62  1  0.28980000  0.45540000  0.87660000  1.0 -0.2631271871
O  O63  1  0.54460000  0.62180000  0.71020000  1.0 -0.2631271871
O  O64  1  0.12340000  0.54460000  0.71020000  1.0 -0.2631271871
O  O65  1  0.45540000  0.28980000  0.37820000  1.0 -0.2631271871
O  O66  1  0.71020000  0.62180000  0.12340000  1.0 -0.2631271871
O  O67  1  0.45540000  0.37820000  0.87660000  1.0 -0.2631271871
O  O68  1  0.87660000  0.45540000  0.37820000  1.0 -0.2631271871
O  O69  1  0.45540000  0.87660000  0.28980000  1.0 -0.2631271871
O  O70  1  0.28980000  0.87660000  0.37820000  1.0 -0.2631271871
O  O71  1  0.37820000  0.28980000  0.87660000  1.0 -0.2631271871
O  O72  1  0.37820000  0.45540000  0.28980000  1.0 -0.2631271871
O  O73  1  0.87660000  0.28980000  0.45540000  1.0 -0.2631271871
O  O74  1  0.28980000  0.37820000  0.45540000  1.0 -0.2631271871
O  O75  1  0.62180000  0.12340000  0.71020000  1.0 -0.2631271871
O  O76  1  0.12340000  0.62180000  0.54460000  1.0 -0.2631271871
O  O77  1  0.71020000  0.12340000  0.54460000  1.0 -0.2631271871
O  O78  1  0.62180000  0.54460000  0.12340000  1.0 -0.2631271871
O  O79  1  0.62180000  0.71020000  0.54460000  1.0 -0.2631271871
O  O80  1  0.54460000  0.12340000  0.62180000  1.0 -0.2631271871
O  O81  1  0.62180000  0.12340000  0.54460000  1.0 -0.2631271871
O  O82  1  0.28980000  0.45540000  0.37820000  1.0 -0.2631271871
O  O83  1  0.12340000  0.62180000  0.71020000  1.0 -0.2631271871
O  O84  1  0.45540000  0.28980000  0.87660000  1.0 -0.2631271871
O  O85  1  0.87660000  0.28980000  0.37820000  1.0 -0.2631271871
O  O86  1  0.71020000  0.54460000  0.12340000  1.0 -0.2631271871
O  O87  1  0.45540000  0.37820000  0.28980000  1.0 -0.2631271871
O  O88  1  0.87660000  0.45540000  0.28980000  1.0 -0.2631271871
O  O89  1  0.54460000  0.71020000  0.62180000  1.0 -0.2631271871
O  O90  1  0.28980000  0.37820000  0.87660000  1.0 -0.2631271871
O  O91  1  0.54460000  0.62180000  0.12340000  1.0 -0.2631271871
O  O92  1  0.12340000  0.54460000  0.62180000  1.0 -0.2631271871
O  O93  1  0.54460000  0.12340000  0.71020000  1.0 -0.2631271871
O  O94  1  0.71020000  0.12340000  0.62180000  1.0 -0.2631271871
O  O95  1  0.62180000  0.71020000  0.12340000  1.0 -0.2631271871
O  O96  1  0.62180000  0.54460000  0.71020000  1.0 -0.2631271871
O  O97  1  0.12340000  0.71020000  0.54460000  1.0 -0.2631271871
O  O98  1  0.71020000  0.62180000  0.54460000  1.0 -0.2631271871
O  O99  1  0.37820000  0.87660000  0.28980000  1.0 -0.2631271871
O  O100  1  0.87660000  0.37820000  0.45540000  1.0 -0.2631271871
O  O101  1  0.28980000  0.87660000  0.45540000  1.0 -0.2631271871
O  O102  1  0.37820000  0.45540000  0.87660000  1.0 -0.2631271871
O  O103  1  0.37820000  0.28980000  0.45540000  1.0 -0.2631271871
O  O104  1  0.45540000  0.87660000  0.37820000  1.0 -0.2631271871
O  O105  1  0.27468000  0.79498000  0.65566000  1.0 -0.5130218725
O  O106  1  0.72532000  0.34434000  0.72532000  1.0 -0.5130218725
O  O107  1  0.79498000  0.27468000  0.27468000  1.0 -0.5130218725
O  O108  1  0.34434000  0.72532000  0.20502000  1.0 -0.5130218725
O  O109  1  0.20502000  0.72532000  0.72532000  1.0 -0.5130218725
O  O110  1  0.27468000  0.65566000  0.79498000  1.0 -0.5130218725
O  O111  1  0.34434000  0.72532000  0.72532000  1.0 -0.5130218725
O  O112  1  0.20502000  0.34434000  0.72532000  1.0 -0.5130218725
O  O113  1  0.65566000  0.27468000  0.27468000  1.0 -0.5130218725
O  O114  1  0.72532000  0.72532000  0.20502000  1.0 -0.5130218725
O  O115  1  0.65566000  0.27468000  0.79498000  1.0 -0.5130218725
O  O116  1  0.79498000  0.65566000  0.27468000  1.0 -0.5130218725
O  O117  1  0.65566000  0.79498000  0.27468000  1.0 -0.5130218725
O  O118  1  0.27468000  0.79498000  0.27468000  1.0 -0.5130218725
O  O119  1  0.27468000  0.27468000  0.79498000  1.0 -0.5130218725
O  O120  1  0.27468000  0.65566000  0.27468000  1.0 -0.5130218725
O  O121  1  0.79498000  0.27468000  0.65566000  1.0 -0.5130218725
O  O122  1  0.27468000  0.27468000  0.65566000  1.0 -0.5130218725
O  O123  1  0.72532000  0.20502000  0.72532000  1.0 -0.5130218725
O  O124  1  0.20502000  0.72532000  0.34434000  1.0 -0.5130218725
O  O125  1  0.72532000  0.20502000  0.34434000  1.0 -0.5130218725
O  O126  1  0.72532000  0.34434000  0.20502000  1.0 -0.5130218725
O  O127  1  0.72532000  0.72532000  0.34434000  1.0 -0.5130218725
O  O128  1  0.34434000  0.20502000  0.72532000  1.0 -0.5130218725
O  O129  1  0.22077000  0.84715000  0.71131000  1.0 -0.5242330269
O  O130  1  0.77923000  0.28869000  0.77923000  1.0 -0.5242330269
O  O131  1  0.84715000  0.22077000  0.22077000  1.0 -0.5242330269
O  O132  1  0.28869000  0.77923000  0.15285000  1.0 -0.5242330269
O  O133  1  0.15285000  0.77923000  0.77923000  1.0 -0.5242330269
O  O134  1  0.22077000  0.71131000  0.84715000  1.0 -0.5242330269
O  O135  1  0.28869000  0.77923000  0.77923000  1.0 -0.5242330269
O  O136  1  0.15285000  0.28869000  0.77923000  1.0 -0.5242330269
O  O137  1  0.71131000  0.22077000  0.22077000  1.0 -0.5242330269
O  O138  1  0.77923000  0.77923000  0.15285000  1.0 -0.5242330269
O  O139  1  0.71131000  0.22077000  0.84715000  1.0 -0.5242330269
O  O140  1  0.84715000  0.71131000  0.22077000  1.0 -0.5242330269
O  O141  1  0.71131000  0.84715000  0.22077000  1.0 -0.5242330269
O  O142  1  0.22077000  0.84715000  0.22077000  1.0 -0.5242330269
O  O143  1  0.22077000  0.22077000  0.84715000  1.0 -0.5242330269
O  O144  1  0.22077000  0.71131000  0.22077000  1.0 -0.5242330269
O  O145  1  0.84715000  0.22077000  0.71131000  1.0 -0.5242330269
O  O146  1  0.22077000  0.22077000  0.71131000  1.0 -0.5242330269
O  O147  1  0.77923000  0.15285000  0.77923000  1.0 -0.5242330269
O  O148  1  0.15285000  0.77923000  0.28869000  1.0 -0.5242330269
O  O149  1  0.77923000  0.15285000  0.28869000  1.0 -0.5242330269
O  O150  1  0.77923000  0.28869000  0.15285000  1.0 -0.5242330269
O  O151  1  0.77923000  0.77923000  0.28869000  1.0 -0.5242330269
O  O152  1  0.28869000  0.15285000  0.77923000  1.0 -0.5242330269
O  O153  1  0.34811000  0.99809000  0.41651000  1.0 -0.0817339607
O  O154  1  0.76271000  0.58349000  0.65189000  1.0 -0.0817339607
O  O155  1  0.99809000  0.34811000  0.23729000  1.0 -0.0817339607
O  O156  1  0.58349000  0.76271000  0.00191000  1.0 -0.0817339607
O  O157  1  0.00191000  0.76271000  0.65189000  1.0 -0.0817339607
O  O158  1  0.23729000  0.41651000  0.99809000  1.0 -0.0742973398
O  O159  1  0.58349000  0.65189000  0.76271000  1.0 -0.0817339607
O  O160  1  0.00191000  0.58349000  0.76271000  1.0 -0.0817339607
O  O161  1  0.41651000  0.23729000  0.34811000  1.0 -0.0817339607
O  O162  1  0.76271000  0.65189000  0.00191000  1.0 -0.0817339607
O  O163  1  0.41651000  0.34811000  0.99809000  1.0 -0.0817339607
O  O164  1  0.99809000  0.41651000  0.34811000  1.0 -0.0817339607
O  O165  1  0.41651000  0.99809000  0.23729000  1.0 -0.0817339607
O  O166  1  0.23729000  0.99809000  0.34811000  1.0 -0.0817339607
O  O167  1  0.34811000  0.23729000  0.99809000  1.0 -0.0817339607
O  O168  1  0.34811000  0.41651000  0.23729000  1.0 -0.0817339607
O  O169  1  0.99809000  0.23729000  0.41651000  1.0 -0.0817339607
O  O170  1  0.23729000  0.34811000  0.41651000  1.0 -0.0817339607
O  O171  1  0.65189000  0.00191000  0.76271000  1.0 -0.0817339607
O  O172  1  0.00191000  0.65189000  0.58349000  1.0 -0.0817339607
O  O173  1  0.76271000  0.00191000  0.58349000  1.0 -0.0817339607
O  O174  1  0.65189000  0.58349000  0.00191000  1.0 -0.0817339607
O  O175  1  0.65189000  0.76271000  0.58349000  1.0 -0.0817339607
O  O176  1  0.58349000  0.00191000  0.65189000  1.0 -0.0742973398
O  O177  1  0.65189000  0.00191000  0.58349000  1.0 -0.0817339607
O  O178  1  0.23729000  0.41651000  0.34811000  1.0 -0.0817339607
O  O179  1  0.00191000  0.65189000  0.76271000  1.0 -0.0817339607
O  O180  1  0.41651000  0.23729000  0.99809000  1.0 -0.0817339607
O  O181  1  0.99809000  0.23729000  0.34811000  1.0 -0.0817339607
O  O182  1  0.76271000  0.58349000  0.00191000  1.0 -0.0817339607
O  O183  1  0.41651000  0.34811000  0.23729000  1.0 -0.0817339607
O  O184  1  0.99809000  0.41651000  0.23729000  1.0 -0.0817339607
O  O185  1  0.58349000  0.76271000  0.65189000  1.0 -0.0817339607
O  O186  1  0.23729000  0.34811000  0.99809000  1.0 -0.0817339607
O  O187  1  0.58349000  0.65189000  0.00191000  1.0 -0.0817339607
O  O188  1  0.00191000  0.58349000  0.65189000  1.0 -0.0817339607
O  O189  1  0.58349000  0.00191000  0.76271000  1.0 -0.0817339607
O  O190  1  0.76271000  0.00191000  0.65189000  1.0 -0.0742973398
O  O191  1  0.65189000  0.76271000  0.00191000  1.0 -0.0817339607
O  O192  1  0.65189000  0.58349000  0.76271000  1.0 -0.0817339607
O  O193  1  0.00191000  0.76271000  0.58349000  1.0 -0.0817339607
O  O194  1  0.76271000  0.65189000  0.58349000  1.0 -0.0817339607
O  O195  1  0.34811000  0.99809000  0.23729000  1.0 -0.0817339607
O  O196  1  0.99809000  0.34811000  0.41651000  1.0 -0.0817339607
O  O197  1  0.23729000  0.99809000  0.41651000  1.0 -0.0817339607
O  O198  1  0.34811000  0.41651000  0.99809000  1.0 -0.0817339607
O  O199  1  0.34811000  0.23729000  0.41651000  1.0 -0.0817339607
O  O200  1  0.41651000  0.99809000  0.34811000  1.0 -0.0817339607
O  O201  1  0.38040000  0.89180000  0.45360000  1.0 -0.2517904582
O  O202  1  0.72580000  0.54640000  0.61960000  1.0 -0.2517904582
O  O203  1  0.89180000  0.38040000  0.27420000  1.0 -0.2517904582
O  O204  1  0.54640000  0.72580000  0.10820000  1.0 -0.2517904582
O  O205  1  0.10820000  0.72580000  0.61960000  1.0 -0.2517904582
O  O206  1  0.27420000  0.45360000  0.89180000  1.0 -0.2517904582
O  O207  1  0.54640000  0.61960000  0.72580000  1.0 -0.2517904582
O  O208  1  0.10820000  0.54640000  0.72580000  1.0 -0.2517904582
O  O209  1  0.45360000  0.27420000  0.38040000  1.0 -0.2517904582
O  O210  1  0.72580000  0.61960000  0.10820000  1.0 -0.2517904582
O  O211  1  0.45360000  0.38040000  0.89180000  1.0 -0.2517904582
O  O212  1  0.89180000  0.45360000  0.38040000  1.0 -0.2517904582
O  O213  1  0.45360000  0.89180000  0.27420000  1.0 -0.2517904582
O  O214  1  0.27420000  0.89180000  0.38040000  1.0 -0.2517904582
O  O215  1  0.38040000  0.27420000  0.89180000  1.0 -0.2517904582
O  O216  1  0.38040000  0.45360000  0.27420000  1.0 -0.2517904582
O  O217  1  0.89180000  0.27420000  0.45360000  1.0 -0.2517904582
O  O218  1  0.27420000  0.38040000  0.45360000  1.0 -0.2517904582
O  O219  1  0.61960000  0.10820000  0.72580000  1.0 -0.2517904582
O  O220  1  0.10820000  0.61960000  0.54640000  1.0 -0.2517904582
O  O221  1  0.72580000  0.10820000  0.54640000  1.0 -0.2517904582
O  O222  1  0.61960000  0.54640000  0.10820000  1.0 -0.2517904582
O  O223  1  0.61960000  0.72580000  0.54640000  1.0 -0.2517904582
O  O224  1  0.54640000  0.10820000  0.61960000  1.0 -0.2517904582
O  O225  1  0.61960000  0.10820000  0.54640000  1.0 -0.2517904582
O  O226  1  0.27420000  0.45360000  0.38040000  1.0 -0.2517904582
O  O227  1  0.10820000  0.61960000  0.72580000  1.0 -0.2517904582
O  O228  1  0.45360000  0.27420000  0.89180000  1.0 -0.2517904582
O  O229  1  0.89180000  0.27420000  0.38040000  1.0 -0.2517904582
O  O230  1  0.72580000  0.54640000  0.10820000  1.0 -0.2517904582
O  O231  1  0.45360000  0.38040000  0.27420000  1.0 -0.2517904582
O  O232  1  0.89180000  0.45360000  0.27420000  1.0 -0.2517904582
O  O233  1  0.54640000  0.72580000  0.61960000  1.0 -0.2517904582
O  O234  1  0.27420000  0.38040000  0.89180000  1.0 -0.2517904582
O  O235  1  0.54640000  0.61960000  0.10820000  1.0 -0.2517904582
O  O236  1  0.10820000  0.54640000  0.61960000  1.0 -0.2517904582
O  O237  1  0.54640000  0.10820000  0.72580000  1.0 -0.2517904582
O  O238  1  0.72580000  0.10820000  0.61960000  1.0 -0.2517904582
O  O239  1  0.61960000  0.72580000  0.10820000  1.0 -0.2517904582
O  O240  1  0.61960000  0.54640000  0.72580000  1.0 -0.2517904582
O  O241  1  0.10820000  0.72580000  0.54640000  1.0 -0.2517904582
O  O242  1  0.72580000  0.61960000  0.54640000  1.0 -0.2517904582
O  O243  1  0.38040000  0.89180000  0.27420000  1.0 -0.2517904582
O  O244  1  0.89180000  0.38040000  0.45360000  1.0 -0.2517904582
O  O245  1  0.27420000  0.89180000  0.45360000  1.0 -0.2517904582
O  O246  1  0.38040000  0.45360000  0.89180000  1.0 -0.2517904582
O  O247  1  0.38040000  0.27420000  0.45360000  1.0 -0.2517904582
O  O248  1  0.45360000  0.89180000  0.38040000  1.0 -0.2517904582
