# DDEC6 charges by PACMAN v1.1 (https://github.com/mtap-research/PACMAN-charge/)
data_DUVNIS_FSR_pacman
_symmetry_space_group_name_H-M   'P 1'
_cell_length_a   24.58000000
_cell_length_b   24.58000000
_cell_length_c   39.38600000
_cell_angle_alpha   90.00000000
_cell_angle_beta   90.00000000
_cell_angle_gamma   137.59400000
_symmetry_Int_Tables_number   1
_chemical_formula_structural   Co5H19C43(NO14)2
_chemical_formula_sum   'Co40 H152 C344 N16 O224'
_cell_volume   16047.60152631
_cell_formula_units_Z   8
loop_
 _symmetry_equiv_pos_site_id
 _symmetry_equiv_pos_as_xyz
  1  'x, y, z'
loop_
 _atom_site_type_symbol
 _atom_site_label
 _atom_site_symmetry_multiplicity
 _atom_site_fract_x
 _atom_site_fract_y
 _atom_site_fract_z
 _atom_site_occupancy
 _atom_site_charge
Co  Co1  1  0.51281000  0.77183000  0.81153000  1.0 0.9733149682
Co  Co2  1  0.48719000  0.22817000  0.81153000  1.0 0.9733149682
Co  Co3  1  0.22817000  0.48719000  0.18847000  1.0 0.9733149682
Co  Co4  1  0.77183000  0.51281000  0.18847000  1.0 0.9733149682
Co  Co5  1  0.98719000  0.72817000  0.68847000  1.0 0.9733149682
Co  Co6  1  0.01281000  0.27183000  0.68847000  1.0 0.9733149682
Co  Co7  1  0.27183000  0.01281000  0.31153000  1.0 0.9733149682
Co  Co8  1  0.72817000  0.98719000  0.31153000  1.0 0.9733149682
Co  Co9  1  0.63420000  0.97332000  0.82218000  1.0 1.0482814883
Co  Co10  1  0.36580000  0.02668000  0.82218000  1.0 1.0482814883
Co  Co11  1  0.02668000  0.36580000  0.17782000  1.0 1.0482814883
Co  Co12  1  0.97332000  0.63420000  0.17782000  1.0 1.0482814883
Co  Co13  1  0.86580000  0.52668000  0.67782000  1.0 1.0482814883
Co  Co14  1  0.13420000  0.47332000  0.67782000  1.0 1.0482814883
Co  Co15  1  0.47332000  0.13420000  0.32218000  1.0 1.0482814883
Co  Co16  1  0.52668000  0.86580000  0.32218000  1.0 1.0482814883
Co  Co17  1  0.30976000  0.69024000  0.00000000  1.0 1.0264684384
Co  Co18  1  0.69024000  0.30976000  0.00000000  1.0 1.0264684384
Co  Co19  1  0.19024000  0.80976000  0.50000000  1.0 1.0264684384
Co  Co20  1  0.80976000  0.19024000  0.50000000  1.0 1.0264684384
Co  Co21  1  0.09431000  0.19509000  0.87992000  1.0 1.0707136815
Co  Co22  1  0.90569000  0.80491000  0.87992000  1.0 1.0707136815
Co  Co23  1  0.80491000  0.90569000  0.12008000  1.0 1.0707136815
Co  Co24  1  0.19509000  0.09431000  0.12008000  1.0 1.0707136815
Co  Co25  1  0.40569000  0.30491000  0.62008000  1.0 1.0707136815
Co  Co26  1  0.59431000  0.69509000  0.62008000  1.0 1.0707136815
Co  Co27  1  0.69509000  0.59431000  0.37992000  1.0 1.0707136815
Co  Co28  1  0.30491000  0.40569000  0.37992000  1.0 1.0707136815
Co  Co29  1  0.22150000  0.77850000  0.00000000  1.0 1.0811509316
Co  Co30  1  0.77850000  0.22150000  0.00000000  1.0 1.0811509316
Co  Co31  1  0.27850000  0.72150000  0.50000000  1.0 1.0811509316
Co  Co32  1  0.72150000  0.27850000  0.50000000  1.0 1.0811509316
Co  Co33  1  0.28137000  0.35973000  0.90626000  1.0 1.1108034378
Co  Co34  1  0.71863000  0.64027000  0.90626000  1.0 1.1108034378
Co  Co35  1  0.64027000  0.71863000  0.09374000  1.0 1.1108034378
Co  Co36  1  0.35973000  0.28137000  0.09374000  1.0 1.1108034378
Co  Co37  1  0.21863000  0.14027000  0.59374000  1.0 1.1108034378
Co  Co38  1  0.78137000  0.85973000  0.59374000  1.0 1.1108034378
Co  Co39  1  0.85973000  0.78137000  0.40626000  1.0 1.1108034378
Co  Co40  1  0.14027000  0.21863000  0.40626000  1.0 1.1108034378
H  H1  1  0.38130000  0.75790000  0.90720000  1.0 0.140394145
H  H2  1  0.61870000  0.24210000  0.90720000  1.0 0.140394145
H  H3  1  0.24210000  0.61870000  0.09280000  1.0 0.140394145
H  H4  1  0.75790000  0.38130000  0.09280000  1.0 0.140394145
H  H5  1  0.11870000  0.74210000  0.59280000  1.0 0.140394145
H  H6  1  0.88130000  0.25790000  0.59280000  1.0 0.140394145
H  H7  1  0.25790000  0.88130000  0.40720000  1.0 0.140394145
H  H8  1  0.74210000  0.11870000  0.40720000  1.0 0.140394145
H  H9  1  0.44840000  0.90340000  0.82960000  1.0 0.140394145
H  H10  1  0.55160000  0.09660000  0.82960000  1.0 0.140394145
H  H11  1  0.09660000  0.55160000  0.17040000  1.0 0.140394145
H  H12  1  0.90340000  0.44840000  0.17040000  1.0 0.140394145
H  H13  1  0.05160000  0.59660000  0.67040000  1.0 0.140394145
H  H14  1  0.94840000  0.40340000  0.67040000  1.0 0.140394145
H  H15  1  0.40340000  0.94840000  0.32960000  1.0 0.140394145
H  H16  1  0.59660000  0.05160000  0.32960000  1.0 0.140394145
H  H17  1  0.81840000  0.01400000  0.86600000  1.0 0.127644424
H  H18  1  0.18160000  0.98600000  0.86600000  1.0 0.127644424
H  H19  1  0.98600000  0.18160000  0.13400000  1.0 0.127644424
H  H20  1  0.01400000  0.81840000  0.13400000  1.0 0.127644424
H  H21  1  0.68160000  0.48600000  0.63400000  1.0 0.127644424
H  H22  1  0.31840000  0.51400000  0.63400000  1.0 0.127644424
H  H23  1  0.51400000  0.31840000  0.36600000  1.0 0.127644424
H  H24  1  0.48600000  0.68160000  0.36600000  1.0 0.127644424
H  H25  1  0.26470000  0.54510000  0.75440000  1.0 0.140394145
H  H26  1  0.73530000  0.45490000  0.75440000  1.0 0.140394145
H  H27  1  0.45490000  0.73530000  0.24560000  1.0 0.140394145
H  H28  1  0.54510000  0.26470000  0.24560000  1.0 0.140394145
H  H29  1  0.23530000  0.95490000  0.74560000  1.0 0.140394145
H  H30  1  0.76470000  0.04510000  0.74560000  1.0 0.140394145
H  H31  1  0.04510000  0.76470000  0.25440000  1.0 0.140394145
H  H32  1  0.95490000  0.23530000  0.25440000  1.0 0.140394145
H  H33  1  0.32870000  0.87830000  0.90910000  1.0 0.140394145
H  H34  1  0.67130000  0.12170000  0.90910000  1.0 0.140394145
H  H35  1  0.12170000  0.67130000  0.09090000  1.0 0.140394145
H  H36  1  0.87830000  0.32870000  0.09090000  1.0 0.140394145
H  H37  1  0.17130000  0.62170000  0.59090000  1.0 0.140394145
H  H38  1  0.82870000  0.37830000  0.59090000  1.0 0.140394145
H  H39  1  0.37830000  0.82870000  0.40910000  1.0 0.140394145
H  H40  1  0.62170000  0.17130000  0.40910000  1.0 0.140394145
H  H41  1  0.12730000  0.32130000  0.79030000  1.0 0.140394145
H  H42  1  0.87270000  0.67870000  0.79030000  1.0 0.140394145
H  H43  1  0.67870000  0.87270000  0.20970000  1.0 0.140394145
H  H44  1  0.32130000  0.12730000  0.20970000  1.0 0.140394145
H  H45  1  0.37270000  0.17870000  0.70970000  1.0 0.140394145
H  H46  1  0.62730000  0.82130000  0.70970000  1.0 0.140394145
H  H47  1  0.82130000  0.62730000  0.29030000  1.0 0.140394145
H  H48  1  0.17870000  0.37270000  0.29030000  1.0 0.140394145
H  H49  1  0.78290000  0.10450000  0.85940000  1.0 0.1236902013
H  H50  1  0.21710000  0.89550000  0.85940000  1.0 0.1236902013
H  H51  1  0.89550000  0.21710000  0.14060000  1.0 0.1236902013
H  H52  1  0.10450000  0.78290000  0.14060000  1.0 0.1236902013
H  H53  1  0.71710000  0.39550000  0.64060000  1.0 0.1236902013
H  H54  1  0.28290000  0.60450000  0.64060000  1.0 0.1236902013
H  H55  1  0.60450000  0.28290000  0.35940000  1.0 0.1236902013
H  H56  1  0.39550000  0.71710000  0.35940000  1.0 0.1236902013
H  H57  1  0.88970000  0.91970000  0.89970000  1.0 0.146625823
H  H58  1  0.11030000  0.08030000  0.89970000  1.0 0.146625823
H  H59  1  0.08030000  0.11030000  0.10030000  1.0 0.146625823
H  H60  1  0.91970000  0.88970000  0.10030000  1.0 0.146625823
H  H61  1  0.61030000  0.58030000  0.60030000  1.0 0.146625823
H  H62  1  0.38970000  0.41970000  0.60030000  1.0 0.146625823
H  H63  1  0.41970000  0.38970000  0.39970000  1.0 0.146625823
H  H64  1  0.58030000  0.61030000  0.39970000  1.0 0.146625823
H  H65  1  0.99060000  0.24520000  0.94040000  1.0 0.127644424
H  H66  1  0.00940000  0.75480000  0.94040000  1.0 0.127644424
H  H67  1  0.75480000  0.00940000  0.05960000  1.0 0.127644424
H  H68  1  0.24520000  0.99060000  0.05960000  1.0 0.127644424
H  H69  1  0.50940000  0.25480000  0.55960000  1.0 0.127644424
H  H70  1  0.49060000  0.74520000  0.55960000  1.0 0.127644424
H  H71  1  0.74520000  0.49060000  0.44040000  1.0 0.127644424
H  H72  1  0.25480000  0.50940000  0.44040000  1.0 0.127644424
H  H73  1  0.34470000  0.50910000  0.83070000  1.0 0.140394145
H  H74  1  0.65530000  0.49090000  0.83070000  1.0 0.140394145
H  H75  1  0.49090000  0.65530000  0.16930000  1.0 0.140394145
H  H76  1  0.50910000  0.34470000  0.16930000  1.0 0.140394145
H  H77  1  0.15530000  0.99090000  0.66930000  1.0 0.140394145
H  H78  1  0.84470000  0.00910000  0.66930000  1.0 0.140394145
H  H79  1  0.00910000  0.84470000  0.33070000  1.0 0.140394145
H  H80  1  0.99090000  0.15530000  0.33070000  1.0 0.140394145
H  H81  1  0.03830000  0.41770000  0.99180000  1.0 0.146625823
H  H82  1  0.96170000  0.58230000  0.99180000  1.0 0.146625823
H  H83  1  0.58230000  0.96170000  0.00820000  1.0 0.146625823
H  H84  1  0.41770000  0.03830000  0.00820000  1.0 0.146625823
H  H85  1  0.46170000  0.08230000  0.50820000  1.0 0.146625823
H  H86  1  0.53830000  0.91770000  0.50820000  1.0 0.146625823
H  H87  1  0.91770000  0.53830000  0.49180000  1.0 0.146625823
H  H88  1  0.08230000  0.46170000  0.49180000  1.0 0.146625823
H  H89  1  0.66010000  0.77430000  0.87060000  1.0 0.140394145
H  H90  1  0.33990000  0.22570000  0.87060000  1.0 0.140394145
H  H91  1  0.22570000  0.33990000  0.12940000  1.0 0.140394145
H  H92  1  0.77430000  0.66010000  0.12940000  1.0 0.140394145
H  H93  1  0.83990000  0.72570000  0.62940000  1.0 0.140394145
H  H94  1  0.16010000  0.27430000  0.62940000  1.0 0.140394145
H  H95  1  0.27430000  0.16010000  0.37060000  1.0 0.140394145
H  H96  1  0.72570000  0.83990000  0.37060000  1.0 0.140394145
H  H97  1  0.22100000  0.46120000  0.95660000  1.0 0.127644424
H  H98  1  0.77900000  0.53880000  0.95660000  1.0 0.127644424
H  H99  1  0.53880000  0.77900000  0.04340000  1.0 0.127644424
H  H100  1  0.46120000  0.22100000  0.04340000  1.0 0.127644424
H  H101  1  0.27900000  0.03880000  0.54340000  1.0 0.127644424
H  H102  1  0.72100000  0.96120000  0.54340000  1.0 0.127644424
H  H103  1  0.96120000  0.72100000  0.45660000  1.0 0.127644424
H  H104  1  0.03880000  0.27900000  0.45660000  1.0 0.127644424
H  H105  1  0.97510000  0.22530000  0.86510000  1.0 0.1584380961
H  H106  1  0.02490000  0.77470000  0.86510000  1.0 0.1584380961
H  H107  1  0.77470000  0.02490000  0.13490000  1.0 0.1584380961
H  H108  1  0.22530000  0.97510000  0.13490000  1.0 0.1584380961
H  H109  1  0.52490000  0.27470000  0.63490000  1.0 0.1584380961
H  H110  1  0.47510000  0.72530000  0.63490000  1.0 0.1584380961
H  H111  1  0.72530000  0.47510000  0.36510000  1.0 0.1584380961
H  H112  1  0.27470000  0.52490000  0.36510000  1.0 0.1584380961
H  H113  1  0.95880000  0.27580000  0.86910000  1.0 0.146625823
H  H114  1  0.04120000  0.72420000  0.86910000  1.0 0.146625823
H  H115  1  0.72420000  0.04120000  0.13090000  1.0 0.146625823
H  H116  1  0.27580000  0.95880000  0.13090000  1.0 0.146625823
H  H117  1  0.54120000  0.22420000  0.63090000  1.0 0.146625823
H  H118  1  0.45880000  0.77580000  0.63090000  1.0 0.146625823
H  H119  1  0.77580000  0.45880000  0.36910000  1.0 0.146625823
H  H120  1  0.22420000  0.54120000  0.36910000  1.0 0.146625823
H  H121  1  0.90040000  0.19060000  0.88600000  1.0 0.146625823
H  H122  1  0.09960000  0.80940000  0.88600000  1.0 0.146625823
H  H123  1  0.80940000  0.09960000  0.11400000  1.0 0.146625823
H  H124  1  0.19060000  0.90040000  0.11400000  1.0 0.146625823
H  H125  1  0.59960000  0.30940000  0.61400000  1.0 0.146625823
H  H126  1  0.40040000  0.69060000  0.61400000  1.0 0.146625823
H  H127  1  0.69060000  0.40040000  0.38600000  1.0 0.146625823
H  H128  1  0.30940000  0.59960000  0.38600000  1.0 0.146625823
H  H129  1  0.93890000  0.26970000  0.80010000  1.0 0.146625823
H  H130  1  0.06110000  0.73030000  0.80010000  1.0 0.146625823
H  H131  1  0.73030000  0.06110000  0.19990000  1.0 0.146625823
H  H132  1  0.26970000  0.93890000  0.19990000  1.0 0.146625823
H  H133  1  0.56110000  0.23030000  0.69990000  1.0 0.146625823
H  H134  1  0.43890000  0.76970000  0.69990000  1.0 0.146625823
H  H135  1  0.76970000  0.43890000  0.30010000  1.0 0.146625823
H  H136  1  0.23030000  0.56110000  0.30010000  1.0 0.146625823
H  H137  1  0.96920000  0.23160000  0.80120000  1.0 0.146625823
H  H138  1  0.03080000  0.76840000  0.80120000  1.0 0.146625823
H  H139  1  0.76840000  0.03080000  0.19880000  1.0 0.146625823
H  H140  1  0.23160000  0.96920000  0.19880000  1.0 0.146625823
H  H141  1  0.53080000  0.26840000  0.69880000  1.0 0.146625823
H  H142  1  0.46920000  0.73160000  0.69880000  1.0 0.146625823
H  H143  1  0.73160000  0.46920000  0.30120000  1.0 0.146625823
H  H144  1  0.26840000  0.53080000  0.30120000  1.0 0.146625823
H  H145  1  0.88520000  0.18340000  0.78500000  1.0 0.1584380961
H  H146  1  0.11480000  0.81660000  0.78500000  1.0 0.1584380961
H  H147  1  0.81660000  0.11480000  0.21500000  1.0 0.1584380961
H  H148  1  0.18340000  0.88520000  0.21500000  1.0 0.1584380961
H  H149  1  0.61480000  0.31660000  0.71500000  1.0 0.1584380961
H  H150  1  0.38520000  0.68340000  0.71500000  1.0 0.1584380961
H  H151  1  0.68340000  0.38520000  0.28500000  1.0 0.1584380961
H  H152  1  0.31660000  0.61480000  0.28500000  1.0 0.1584380961
C  C1  1  0.39268000  0.63032000  0.79550000  1.0 0.5398572062
C  C2  1  0.60732000  0.36968000  0.79550000  1.0 0.5398572062
C  C3  1  0.36968000  0.60732000  0.20450000  1.0 0.5398572062
C  C4  1  0.63032000  0.39268000  0.20450000  1.0 0.5398572062
C  C5  1  0.10732000  0.86968000  0.70450000  1.0 0.5398572062
C  C6  1  0.89268000  0.13032000  0.70450000  1.0 0.5398572062
C  C7  1  0.13032000  0.89268000  0.29550000  1.0 0.5398572062
C  C8  1  0.86968000  0.10732000  0.29550000  1.0 0.5398572062
C  C9  1  0.46020000  0.80880000  0.84864000  1.0 0.569651184
C  C10  1  0.53980000  0.19120000  0.84864000  1.0 0.569651184
C  C11  1  0.19120000  0.53980000  0.15136000  1.0 0.569651184
C  C12  1  0.80880000  0.46020000  0.15136000  1.0 0.569651184
C  C13  1  0.03980000  0.69120000  0.65136000  1.0 0.569651184
C  C14  1  0.96020000  0.30880000  0.65136000  1.0 0.569651184
C  C15  1  0.30880000  0.96020000  0.34864000  1.0 0.569651184
C  C16  1  0.69120000  0.03980000  0.34864000  1.0 0.569651184
C  C17  1  0.38415000  0.79425000  0.89726000  1.0 -0.0848669137
C  C18  1  0.61585000  0.20575000  0.89726000  1.0 -0.0848669137
C  C19  1  0.20575000  0.61585000  0.10274000  1.0 -0.0848669137
C  C20  1  0.79425000  0.38415000  0.10274000  1.0 -0.0848669137
C  C21  1  0.11585000  0.70575000  0.60274000  1.0 -0.0848669137
C  C22  1  0.88415000  0.29425000  0.60274000  1.0 -0.0848669137
C  C23  1  0.29425000  0.88415000  0.39726000  1.0 -0.0848669137
C  C24  1  0.70575000  0.11585000  0.39726000  1.0 -0.0848669137
C  C25  1  0.42391000  0.88109000  0.85072000  1.0 -0.0979918895
C  C26  1  0.57609000  0.11891000  0.85072000  1.0 -0.0979918895
C  C27  1  0.11891000  0.57609000  0.14928000  1.0 -0.0979918895
C  C28  1  0.88109000  0.42391000  0.14928000  1.0 -0.0979918895
C  C29  1  0.07609000  0.61891000  0.64928000  1.0 -0.0979918895
C  C30  1  0.92391000  0.38109000  0.64928000  1.0 -0.0979918895
C  C31  1  0.38109000  0.92391000  0.35072000  1.0 -0.0979918895
C  C32  1  0.61891000  0.07609000  0.35072000  1.0 -0.0979918895
C  C33  1  0.18617000  0.42743000  0.76768000  1.0 -0.0179211187
C  C34  1  0.81383000  0.57257000  0.76768000  1.0 -0.0179211187
C  C35  1  0.57257000  0.81383000  0.23232000  1.0 -0.0179211187
C  C36  1  0.42743000  0.18617000  0.23232000  1.0 -0.0179211187
C  C37  1  0.31383000  0.07257000  0.73232000  1.0 -0.0179211187
C  C38  1  0.68617000  0.92743000  0.73232000  1.0 -0.0179211187
C  C39  1  0.92743000  0.68617000  0.26768000  1.0 -0.0179211187
C  C40  1  0.07257000  0.31383000  0.26768000  1.0 -0.0179211187
C  C41  1  0.38555000  0.95145000  0.84943000  1.0 0.5398572062
C  C42  1  0.61445000  0.04855000  0.84943000  1.0 0.5398572062
C  C43  1  0.04855000  0.61445000  0.15057000  1.0 0.5398572062
C  C44  1  0.95145000  0.38555000  0.15057000  1.0 0.5398572062
C  C45  1  0.11445000  0.54855000  0.65057000  1.0 0.5398572062
C  C46  1  0.88555000  0.45145000  0.65057000  1.0 0.5398572062
C  C47  1  0.45145000  0.88555000  0.34943000  1.0 0.5398572062
C  C48  1  0.54855000  0.11445000  0.34943000  1.0 0.5398572062
C  C49  1  0.77100000  0.83500000  0.88642000  1.0 -0.0179211187
C  C50  1  0.22900000  0.16500000  0.88642000  1.0 -0.0179211187
C  C51  1  0.16500000  0.22900000  0.11358000  1.0 -0.0179211187
C  C52  1  0.83500000  0.77100000  0.11358000  1.0 -0.0179211187
C  C53  1  0.72900000  0.66500000  0.61358000  1.0 -0.0179211187
C  C54  1  0.27100000  0.33500000  0.61358000  1.0 -0.0179211187
C  C55  1  0.33500000  0.27100000  0.38642000  1.0 -0.0179211187
C  C56  1  0.66500000  0.72900000  0.38642000  1.0 -0.0179211187
C  C57  1  0.80669000  0.96931000  0.87108000  1.0 -0.0979918895
C  C58  1  0.19331000  0.03069000  0.87108000  1.0 -0.0979918895
C  C59  1  0.03069000  0.19331000  0.12892000  1.0 -0.0878116838
C  C60  1  0.96931000  0.80669000  0.12892000  1.0 -0.0878116838
C  C61  1  0.69331000  0.53069000  0.62892000  1.0 -0.0979918895
C  C62  1  0.30669000  0.46931000  0.62892000  1.0 -0.0979918895
C  C63  1  0.46931000  0.30669000  0.37108000  1.0 -0.0979918895
C  C64  1  0.53069000  0.69331000  0.37108000  1.0 -0.0979918895
C  C65  1  0.72869000  0.89191000  0.86614000  1.0 -0.028825903
C  C66  1  0.27131000  0.10809000  0.86614000  1.0 -0.028825903
C  C67  1  0.10809000  0.27131000  0.13386000  1.0 -0.028825903
C  C68  1  0.89191000  0.72869000  0.13386000  1.0 -0.028825903
C  C69  1  0.77131000  0.60809000  0.63386000  1.0 -0.028825903
C  C70  1  0.22869000  0.39191000  0.63386000  1.0 -0.028825903
C  C71  1  0.39191000  0.22869000  0.36614000  1.0 -0.028825903
C  C72  1  0.60809000  0.77131000  0.36614000  1.0 -0.028825903
C  C73  1  0.95122000  0.06218000  0.88540000  1.0 0.5313538437
C  C74  1  0.04878000  0.93782000  0.88540000  1.0 0.5313538437
C  C75  1  0.93782000  0.04878000  0.11460000  1.0 0.5313538437
C  C76  1  0.06218000  0.95122000  0.11460000  1.0 0.5313538437
C  C77  1  0.54878000  0.43782000  0.61460000  1.0 0.5313538437
C  C78  1  0.45122000  0.56218000  0.61460000  1.0 0.5313538437
C  C79  1  0.56218000  0.45122000  0.38540000  1.0 0.5313538437
C  C80  1  0.43782000  0.54878000  0.38540000  1.0 0.5313538437
C  C81  1  0.25724000  0.51056000  0.76919000  1.0 -0.0979918895
C  C82  1  0.74276000  0.48944000  0.76919000  1.0 -0.0979918895
C  C83  1  0.48944000  0.74276000  0.23081000  1.0 -0.0979918895
C  C84  1  0.51056000  0.25724000  0.23081000  1.0 -0.0979918895
C  C85  1  0.24276000  0.98944000  0.73081000  1.0 -0.0979918895
C  C86  1  0.75724000  0.01056000  0.73081000  1.0 -0.0979918895
C  C87  1  0.01056000  0.75724000  0.26919000  1.0 -0.0979918895
C  C88  1  0.98944000  0.24276000  0.26919000  1.0 -0.0979918895
C  C89  1  0.19858000  0.54042000  0.98692000  1.0 0.5398572062
C  C90  1  0.80142000  0.45958000  0.98692000  1.0 0.5398572062
C  C91  1  0.45958000  0.80142000  0.01308000  1.0 0.5398572062
C  C92  1  0.54042000  0.19858000  0.01308000  1.0 0.5398572062
C  C93  1  0.30142000  0.95958000  0.51308000  1.0 0.5398572062
C  C94  1  0.69858000  0.04042000  0.51308000  1.0 0.5398572062
C  C95  1  0.04042000  0.69858000  0.48692000  1.0 0.5398572062
C  C96  1  0.95958000  0.30142000  0.48692000  1.0 0.5398572062
C  C97  1  0.75016000  0.76184000  0.89312000  1.0 0.5877482121
C  C98  1  0.24984000  0.23816000  0.89312000  1.0 0.5877482121
C  C99  1  0.23816000  0.24984000  0.10688000  1.0 0.5877482121
C  C100  1  0.76184000  0.75016000  0.10688000  1.0 0.5877482121
C  C101  1  0.74984000  0.73816000  0.60688000  1.0 0.5877482121
C  C102  1  0.25016000  0.26184000  0.60688000  1.0 0.5877482121
C  C103  1  0.26184000  0.25016000  0.39312000  1.0 0.5877482121
C  C104  1  0.73816000  0.74984000  0.39312000  1.0 0.5877482121
C  C105  1  0.35148000  0.86532000  0.89822000  1.0 -0.0979918895
C  C106  1  0.64852000  0.13468000  0.89822000  1.0 -0.0979918895
C  C107  1  0.13468000  0.64852000  0.10178000  1.0 -0.0979918895
C  C108  1  0.86532000  0.35148000  0.10178000  1.0 -0.0979918895
C  C109  1  0.14852000  0.63468000  0.60178000  1.0 -0.0979918895
C  C110  1  0.85148000  0.36532000  0.60178000  1.0 -0.0979918895
C  C111  1  0.36532000  0.85148000  0.39822000  1.0 -0.0979918895
C  C112  1  0.63468000  0.14852000  0.39822000  1.0 -0.0979918895
C  C113  1  0.17446000  0.37654000  0.79100000  1.0 -0.0979918895
C  C114  1  0.82554000  0.62346000  0.79100000  1.0 -0.0979918895
C  C115  1  0.62346000  0.82554000  0.20900000  1.0 -0.0979918895
C  C116  1  0.37654000  0.17446000  0.20900000  1.0 -0.0979918895
C  C117  1  0.32554000  0.12346000  0.70900000  1.0 -0.0979918895
C  C118  1  0.67446000  0.87654000  0.70900000  1.0 -0.0979918895
C  C119  1  0.87654000  0.67446000  0.29100000  1.0 -0.0979918895
C  C120  1  0.12346000  0.32554000  0.29100000  1.0 -0.0979918895
C  C121  1  0.42311000  0.82949000  0.86660000  1.0 0.0025673134
C  C122  1  0.57689000  0.17051000  0.86660000  1.0 0.0025673134
C  C123  1  0.17051000  0.57689000  0.13340000  1.0 0.0025673134
C  C124  1  0.82949000  0.42311000  0.13340000  1.0 0.0025673134
C  C125  1  0.07689000  0.67051000  0.63340000  1.0 0.0025673134
C  C126  1  0.92311000  0.32949000  0.63340000  1.0 0.0025673134
C  C127  1  0.32949000  0.92311000  0.36660000  1.0 0.0025673134
C  C128  1  0.67051000  0.07689000  0.36660000  1.0 0.0025673134
C  C129  1  0.80492000  0.12308000  0.83776000  1.0 0.3102803653
C  C130  1  0.19508000  0.87692000  0.83776000  1.0 0.3102803653
C  C131  1  0.87692000  0.19508000  0.16224000  1.0 0.3102803653
C  C132  1  0.12308000  0.80492000  0.16224000  1.0 0.3102803653
C  C133  1  0.69508000  0.37692000  0.66224000  1.0 0.3102803653
C  C134  1  0.30492000  0.62308000  0.66224000  1.0 0.3102803653
C  C135  1  0.62308000  0.30492000  0.33776000  1.0 0.3102803653
C  C136  1  0.37692000  0.69508000  0.33776000  1.0 0.3102803653
C  C137  1  0.30680000  0.77480000  0.94732000  1.0 0.6075036352
C  C138  1  0.69320000  0.22520000  0.94732000  1.0 0.6075036352
C  C139  1  0.22520000  0.69320000  0.05268000  1.0 0.6075036352
C  C140  1  0.77480000  0.30680000  0.05268000  1.0 0.6075036352
C  C141  1  0.19320000  0.72520000  0.55268000  1.0 0.6075036352
C  C142  1  0.80680000  0.27480000  0.55268000  1.0 0.6075036352
C  C143  1  0.27480000  0.80680000  0.44732000  1.0 0.6075036352
C  C144  1  0.72520000  0.19320000  0.44732000  1.0 0.6075036352
C  C145  1  0.31711000  0.54189000  0.79287000  1.0 -0.0099164411
C  C146  1  0.68289000  0.45811000  0.79287000  1.0 -0.0099164411
C  C147  1  0.45811000  0.68289000  0.20713000  1.0 -0.0099164411
C  C148  1  0.54189000  0.31711000  0.20713000  1.0 -0.0099164411
C  C149  1  0.18289000  0.95811000  0.70713000  1.0 -0.0099164411
C  C150  1  0.81711000  0.04189000  0.70713000  1.0 -0.0099164411
C  C151  1  0.04189000  0.81711000  0.29287000  1.0 -0.0099164411
C  C152  1  0.95811000  0.18289000  0.29287000  1.0 -0.0099164411
C  C153  1  0.34933000  0.81287000  0.91347000  1.0 0.0025673134
C  C154  1  0.65067000  0.18713000  0.91347000  1.0 0.0025673134
C  C155  1  0.18713000  0.65067000  0.08653000  1.0 0.0025673134
C  C156  1  0.81287000  0.34933000  0.08653000  1.0 0.0025673134
C  C157  1  0.15067000  0.68713000  0.58653000  1.0 0.0025673134
C  C158  1  0.84933000  0.31287000  0.58653000  1.0 0.0025673134
C  C159  1  0.31287000  0.84933000  0.41347000  1.0 0.0025673134
C  C160  1  0.68713000  0.15067000  0.41347000  1.0 0.0025673134
C  C161  1  0.38799000  0.89861000  0.86660000  1.0 -0.0030987157
C  C162  1  0.61201000  0.10139000  0.86660000  1.0 -0.0030987157
C  C163  1  0.10139000  0.61201000  0.13340000  1.0 -0.0030987157
C  C164  1  0.89861000  0.38799000  0.13340000  1.0 -0.0030987157
C  C165  1  0.11201000  0.60139000  0.63340000  1.0 -0.0030987157
C  C166  1  0.88799000  0.39861000  0.63340000  1.0 -0.0030987157
C  C167  1  0.39861000  0.88799000  0.36660000  1.0 -0.0030987157
C  C168  1  0.60139000  0.11201000  0.36660000  1.0 -0.0030987157
C  C169  1  0.84969000  0.91291000  0.89136000  1.0 -0.0878116838
C  C170  1  0.15031000  0.08709000  0.89136000  1.0 -0.0878116838
C  C171  1  0.08709000  0.15031000  0.10864000  1.0 -0.0878116838
C  C172  1  0.91291000  0.84969000  0.10864000  1.0 -0.0878116838
C  C173  1  0.65031000  0.58709000  0.60864000  1.0 -0.0878116838
C  C174  1  0.34969000  0.41291000  0.60864000  1.0 -0.0878116838
C  C175  1  0.41291000  0.34969000  0.39136000  1.0 -0.0878116838
C  C176  1  0.58709000  0.65031000  0.39136000  1.0 -0.0878116838
C  C177  1  0.02780000  0.29720000  0.94927000  1.0 -0.1078924549
C  C178  1  0.97220000  0.70280000  0.94927000  1.0 -0.1078924549
C  C179  1  0.70280000  0.97220000  0.05073000  1.0 -0.1078924549
C  C180  1  0.29720000  0.02780000  0.05073000  1.0 -0.1078924549
C  C181  1  0.47220000  0.20280000  0.55073000  1.0 -0.1078924549
C  C182  1  0.52780000  0.79720000  0.55073000  1.0 -0.1078924549
C  C183  1  0.79720000  0.52780000  0.44927000  1.0 -0.1078924549
C  C184  1  0.20280000  0.47220000  0.44927000  1.0 -0.1078924549
C  C185  1  0.23281000  0.40819000  0.81518000  1.0 -0.0179211187
C  C186  1  0.76719000  0.59181000  0.81518000  1.0 -0.0179211187
C  C187  1  0.59181000  0.76719000  0.18482000  1.0 -0.0179211187
C  C188  1  0.40819000  0.23281000  0.18482000  1.0 -0.0179211187
C  C189  1  0.26719000  0.09181000  0.68482000  1.0 -0.0179211187
C  C190  1  0.73281000  0.90819000  0.68482000  1.0 -0.0179211187
C  C191  1  0.90819000  0.73281000  0.31518000  1.0 -0.0179211187
C  C192  1  0.09181000  0.26719000  0.31518000  1.0 -0.0179211187
C  C193  1  0.30435000  0.48905000  0.81547000  1.0 -0.0878116838
C  C194  1  0.69565000  0.51095000  0.81547000  1.0 -0.0878116838
C  C195  1  0.51095000  0.69565000  0.18453000  1.0 -0.0878116838
C  C196  1  0.48905000  0.30435000  0.18453000  1.0 -0.0878116838
C  C197  1  0.19565000  0.01095000  0.68453000  1.0 -0.0878116838
C  C198  1  0.80435000  0.98905000  0.68453000  1.0 -0.0878116838
C  C199  1  0.98905000  0.80435000  0.31547000  1.0 -0.0878116838
C  C200  1  0.01095000  0.19565000  0.31547000  1.0 -0.0878116838
C  C201  1  0.21883000  0.35477000  0.84198000  1.0 0.6075036352
C  C202  1  0.78117000  0.64523000  0.84198000  1.0 0.6075036352
C  C203  1  0.64523000  0.78117000  0.15802000  1.0 0.6075036352
C  C204  1  0.35477000  0.21883000  0.15802000  1.0 0.6075036352
C  C205  1  0.28117000  0.14523000  0.65802000  1.0 0.6075036352
C  C206  1  0.71883000  0.85477000  0.65802000  1.0 0.6075036352
C  C207  1  0.85477000  0.71883000  0.34198000  1.0 0.6075036352
C  C208  1  0.14523000  0.28117000  0.34198000  1.0 0.6075036352
C  C209  1  0.12709000  0.39551000  0.73982000  1.0 0.5877482121
C  C210  1  0.87291000  0.60449000  0.73982000  1.0 0.5877482121
C  C211  1  0.60449000  0.87291000  0.26018000  1.0 0.5877482121
C  C212  1  0.39551000  0.12709000  0.26018000  1.0 0.5877482121
C  C213  1  0.37291000  0.10449000  0.76018000  1.0 0.5877482121
C  C214  1  0.62709000  0.89551000  0.76018000  1.0 0.5877482121
C  C215  1  0.89551000  0.62709000  0.23982000  1.0 0.5877482121
C  C216  1  0.10449000  0.37291000  0.23982000  1.0 0.5877482121
C  C217  1  0.05624000  0.40076000  0.97965000  1.0 -0.0878116838
C  C218  1  0.94376000  0.59924000  0.97965000  1.0 -0.0878116838
C  C219  1  0.59924000  0.94376000  0.02035000  1.0 -0.0878116838
C  C220  1  0.40076000  0.05624000  0.02035000  1.0 -0.0878116838
C  C221  1  0.44376000  0.09924000  0.52035000  1.0 -0.0878116838
C  C222  1  0.55624000  0.90076000  0.52035000  1.0 -0.0878116838
C  C223  1  0.90076000  0.55624000  0.47965000  1.0 -0.0878116838
C  C224  1  0.09924000  0.44376000  0.47965000  1.0 -0.0878116838
C  C225  1  0.86732000  0.98028000  0.88359000  1.0 -0.0179211187
C  C226  1  0.13268000  0.01972000  0.88359000  1.0 -0.0179211187
C  C227  1  0.01972000  0.13268000  0.11641000  1.0 -0.0179211187
C  C228  1  0.98028000  0.86732000  0.11641000  1.0 -0.0179211187
C  C229  1  0.63268000  0.51972000  0.61641000  1.0 -0.0179211187
C  C230  1  0.36732000  0.48028000  0.61641000  1.0 -0.0179211187
C  C231  1  0.48028000  0.36732000  0.38359000  1.0 -0.0179211187
C  C232  1  0.51972000  0.63268000  0.38359000  1.0 -0.0179211187
C  C233  1  0.71207000  0.82593000  0.87390000  1.0 -0.0878116838
C  C234  1  0.28793000  0.17407000  0.87390000  1.0 -0.0878116838
C  C235  1  0.17407000  0.28793000  0.12610000  1.0 -0.0878116838
C  C236  1  0.82593000  0.71207000  0.12610000  1.0 -0.0878116838
C  C237  1  0.78793000  0.67407000  0.62610000  1.0 -0.0878116838
C  C238  1  0.21207000  0.32593000  0.62610000  1.0 -0.0878116838
C  C239  1  0.32593000  0.21207000  0.37390000  1.0 -0.0878116838
C  C240  1  0.67407000  0.78793000  0.37390000  1.0 -0.0878116838
C  C241  1  0.66624000  0.88156000  0.85045000  1.0 0.6003239391
C  C242  1  0.33376000  0.11844000  0.85045000  1.0 0.6003239391
C  C243  1  0.11844000  0.33376000  0.14955000  1.0 0.6003239391
C  C244  1  0.88156000  0.66624000  0.14955000  1.0 0.6003239391
C  C245  1  0.83376000  0.61844000  0.64955000  1.0 0.6003239391
C  C246  1  0.16624000  0.38156000  0.64955000  1.0 0.6003239391
C  C247  1  0.38156000  0.16624000  0.35045000  1.0 0.6003239391
C  C248  1  0.61844000  0.83376000  0.35045000  1.0 0.6003239391
C  C249  1  0.16592000  0.42708000  0.95870000  1.0 -0.1078924549
C  C250  1  0.83408000  0.57292000  0.95870000  1.0 -0.1078924549
C  C251  1  0.57292000  0.83408000  0.04130000  1.0 -0.1078924549
C  C252  1  0.42708000  0.16592000  0.04130000  1.0 -0.1078924549
C  C253  1  0.33408000  0.07292000  0.54130000  1.0 -0.1078924549
C  C254  1  0.66592000  0.92708000  0.54130000  1.0 -0.1078924549
C  C255  1  0.92708000  0.66592000  0.45870000  1.0 -0.1078924549
C  C256  1  0.07292000  0.33408000  0.45870000  1.0 -0.1078924549
C  C257  1  0.14043000  0.32117000  0.92692000  1.0 0.6003239391
C  C258  1  0.85957000  0.67883000  0.92692000  1.0 0.6003239391
C  C259  1  0.67883000  0.85957000  0.07308000  1.0 0.6003239391
C  C260  1  0.32117000  0.14043000  0.07308000  1.0 0.6003239391
C  C261  1  0.35957000  0.17883000  0.57308000  1.0 0.6003239391
C  C262  1  0.64043000  0.82117000  0.57308000  1.0 0.6003239391
C  C263  1  0.82117000  0.64043000  0.42692000  1.0 0.6003239391
C  C264  1  0.17883000  0.35957000  0.42692000  1.0 0.6003239391
C  C265  1  0.10976000  0.34804000  0.94526000  1.0 -0.028825903
C  C266  1  0.89024000  0.65196000  0.94526000  1.0 -0.028825903
C  C267  1  0.65196000  0.89024000  0.05474000  1.0 -0.028825903
C  C268  1  0.34804000  0.10976000  0.05474000  1.0 -0.028825903
C  C269  1  0.39024000  0.15196000  0.55474000  1.0 -0.028825903
C  C270  1  0.60976000  0.84804000  0.55474000  1.0 -0.028825903
C  C271  1  0.84804000  0.60976000  0.44526000  1.0 -0.028825903
C  C272  1  0.15196000  0.39024000  0.44526000  1.0 -0.028825903
C  C273  1  0.00017000  0.32323000  0.96646000  1.0 0.0025673134
C  C274  1  0.99983000  0.67677000  0.96646000  1.0 0.0025673134
C  C275  1  0.67677000  0.99983000  0.03354000  1.0 0.0025673134
C  C276  1  0.32323000  0.00017000  0.03354000  1.0 0.0025673134
C  C277  1  0.49983000  0.17677000  0.53354000  1.0 0.0025673134
C  C278  1  0.50017000  0.82323000  0.53354000  1.0 0.0025673134
C  C279  1  0.82323000  0.50017000  0.46646000  1.0 0.0025673134
C  C280  1  0.17677000  0.49983000  0.46646000  1.0 0.0025673134
C  C281  1  0.91105000  0.26775000  0.97016000  1.0 0.5468434443
C  C282  1  0.08895000  0.73225000  0.97016000  1.0 0.5468434443
C  C283  1  0.73225000  0.08895000  0.02984000  1.0 0.5468434443
C  C284  1  0.26775000  0.91105000  0.02984000  1.0 0.5468434443
C  C285  1  0.58895000  0.23225000  0.52984000  1.0 0.5468434443
C  C286  1  0.41105000  0.76775000  0.52984000  1.0 0.5468434443
C  C287  1  0.76775000  0.41105000  0.47016000  1.0 0.5468434443
C  C288  1  0.23225000  0.58895000  0.47016000  1.0 0.5468434443
C  C289  1  0.13869000  0.45371000  0.97508000  1.0 -0.0030987157
C  C290  1  0.86131000  0.54629000  0.97508000  1.0 -0.0030987157
C  C291  1  0.54629000  0.86131000  0.02492000  1.0 -0.0030987157
C  C292  1  0.45371000  0.13869000  0.02492000  1.0 -0.0030987157
C  C293  1  0.36131000  0.04629000  0.52492000  1.0 -0.0030987157
C  C294  1  0.63869000  0.95371000  0.52492000  1.0 -0.0030987157
C  C295  1  0.95371000  0.63869000  0.47508000  1.0 -0.0030987157
C  C296  1  0.04629000  0.36131000  0.47508000  1.0 -0.0030987157
C  C297  1  0.93398000  0.22242000  0.86670000  1.0 -0.3341818626
C  C298  1  0.06602000  0.77758000  0.86670000  1.0 -0.3341818626
C  C299  1  0.77758000  0.06602000  0.13330000  1.0 -0.3341818626
C  C300  1  0.22242000  0.93398000  0.13330000  1.0 -0.3341818626
C  C301  1  0.56602000  0.27758000  0.63330000  1.0 -0.3341818626
C  C302  1  0.43398000  0.72242000  0.63330000  1.0 -0.3341818626
C  C303  1  0.72242000  0.43398000  0.36670000  1.0 -0.3341818626
C  C304  1  0.27758000  0.56602000  0.36670000  1.0 -0.3341818626
C  C305  1  0.92260000  0.22040000  0.80270000  1.0 -0.3077562252
C  C306  1  0.07740000  0.77960000  0.80270000  1.0 -0.3077562252
C  C307  1  0.77960000  0.07740000  0.19730000  1.0 -0.3077562252
C  C308  1  0.22040000  0.92260000  0.19730000  1.0 -0.3077562252
C  C309  1  0.57740000  0.27960000  0.69730000  1.0 -0.3077562252
C  C310  1  0.42260000  0.72040000  0.69730000  1.0 -0.3077562252
C  C311  1  0.72040000  0.42260000  0.30270000  1.0 -0.3077562252
C  C312  1  0.27960000  0.57740000  0.30270000  1.0 -0.3077562252
C  C313  1  0.49300000  0.65440000  0.90310000  1.0 0.0839115208
C  C314  1  0.50700000  0.34560000  0.90310000  1.0 0.0839115208
C  C315  1  0.34560000  0.50700000  0.09690000  1.0 0.0839115208
C  C316  1  0.65440000  0.49300000  0.09690000  1.0 0.0839115208
C  C317  1  0.00700000  0.84560000  0.59690000  1.0 0.0839115208
C  C318  1  0.99300000  0.15440000  0.59690000  1.0 0.0857163792
C  C319  1  0.15440000  0.99300000  0.40310000  1.0 0.0839115208
C  C320  1  0.84560000  0.00700000  0.40310000  1.0 0.0857163792
C  C321  1  0.39520000  0.52420000  0.93040000  1.0 0.4211811361
C  C322  1  0.60480000  0.47580000  0.93040000  1.0 0.4211811361
C  C323  1  0.47580000  0.60480000  0.06960000  1.0 0.4211811361
C  C324  1  0.52420000  0.39520000  0.06960000  1.0 0.4211811361
C  C325  1  0.10480000  0.97580000  0.56960000  1.0 0.4211811361
C  C326  1  0.89520000  0.02420000  0.56960000  1.0 0.4211811361
C  C327  1  0.02420000  0.89520000  0.43040000  1.0 0.4211811361
C  C328  1  0.97580000  0.10480000  0.43040000  1.0 0.4211811361
C  C329  1  0.43460000  0.64840000  0.95230000  1.0 0.0964008023
C  C330  1  0.56540000  0.35160000  0.95230000  1.0 0.0964008023
C  C331  1  0.35160000  0.56540000  0.04770000  1.0 0.0964008023
C  C332  1  0.64840000  0.43460000  0.04770000  1.0 0.0964008023
C  C333  1  0.06540000  0.85160000  0.54770000  1.0 0.0964008023
C  C334  1  0.93460000  0.14840000  0.54770000  1.0 0.0964008023
C  C335  1  0.14840000  0.93460000  0.45230000  1.0 0.0964008023
C  C336  1  0.85160000  0.06540000  0.45230000  1.0 0.0964008023
C  C337  1  0.03440000  0.05620000  0.82610000  1.0 0.2194062707
C  C338  1  0.96560000  0.94380000  0.82610000  1.0 0.2194062707
C  C339  1  0.94380000  0.96560000  0.17390000  1.0 0.2194062707
C  C340  1  0.05620000  0.03440000  0.17390000  1.0 0.2194062707
C  C341  1  0.46560000  0.44380000  0.67390000  1.0 0.2194062707
C  C342  1  0.53440000  0.55620000  0.67390000  1.0 0.2194062707
C  C343  1  0.55620000  0.53440000  0.32610000  1.0 0.2194062707
C  C344  1  0.44380000  0.46560000  0.32610000  1.0 0.2194062707
N  N1  1  0.88430000  0.18490000  0.83548000  1.0 0.0467498687
N  N2  1  0.11570000  0.81510000  0.83548000  1.0 0.0467498687
N  N3  1  0.81510000  0.11570000  0.16452000  1.0 0.0467498687
N  N4  1  0.18490000  0.88430000  0.16452000  1.0 0.0467498687
N  N5  1  0.61570000  0.31510000  0.66452000  1.0 0.0467498687
N  N6  1  0.38430000  0.68490000  0.66452000  1.0 0.0467498687
N  N7  1  0.68490000  0.38430000  0.33548000  1.0 0.0467498687
N  N8  1  0.31510000  0.61570000  0.33548000  1.0 0.0467498687
N  N9  1  0.45260000  0.61040000  0.93460000  1.0 -0.0979918895
N  N10  1  0.54740000  0.38960000  0.93460000  1.0 -0.0979918895
N  N11  1  0.38960000  0.54740000  0.06540000  1.0 -0.0979918895
N  N12  1  0.61040000  0.45260000  0.06540000  1.0 -0.0979918895
N  N13  1  0.04740000  0.88960000  0.56540000  1.0 -0.0979918895
N  N14  1  0.95260000  0.11040000  0.56540000  1.0 -0.1078924549
N  N15  1  0.11040000  0.95260000  0.43460000  1.0 -0.0979918895
N  N16  1  0.88960000  0.04740000  0.43460000  1.0 -0.1078924549
O  O1  1  0.68294000  0.94320000  0.84532000  1.0 -0.5722467477
O  O2  1  0.31706000  0.05680000  0.84532000  1.0 -0.5722467477
O  O3  1  0.05680000  0.31706000  0.15468000  1.0 -0.5722467477
O  O4  1  0.94320000  0.68294000  0.15468000  1.0 -0.5722467477
O  O5  1  0.81706000  0.55680000  0.65468000  1.0 -0.5722467477
O  O6  1  0.18294000  0.44320000  0.65468000  1.0 -0.5722467477
O  O7  1  0.44320000  0.18294000  0.34532000  1.0 -0.5722467477
O  O8  1  0.55680000  0.81706000  0.34532000  1.0 -0.5722467477
O  O9  1  0.39490000  0.47650000  0.91900000  1.0 -0.5406203444
O  O10  1  0.60510000  0.52350000  0.91900000  1.0 -0.5406203444
O  O11  1  0.52350000  0.60510000  0.08100000  1.0 -0.5406203444
O  O12  1  0.47650000  0.39490000  0.08100000  1.0 -0.5406203444
O  O13  1  0.10510000  0.02350000  0.58100000  1.0 -0.5406203444
O  O14  1  0.89490000  0.97650000  0.58100000  1.0 -0.5406203444
O  O15  1  0.97650000  0.89490000  0.41900000  1.0 -0.5406203444
O  O16  1  0.02350000  0.10510000  0.41900000  1.0 -0.5406203444
O  O17  1  0.60119000  0.81107000  0.84257000  1.0 -0.5123308251
O  O18  1  0.39881000  0.18893000  0.84257000  1.0 -0.5123308251
O  O19  1  0.18893000  0.39881000  0.15743000  1.0 -0.5123308251
O  O20  1  0.81107000  0.60119000  0.15743000  1.0 -0.5123308251
O  O21  1  0.89881000  0.68893000  0.65743000  1.0 -0.5123308251
O  O22  1  0.10119000  0.31107000  0.65743000  1.0 -0.5123308251
O  O23  1  0.31107000  0.10119000  0.34257000  1.0 -0.5123308251
O  O24  1  0.68893000  0.89881000  0.34257000  1.0 -0.5123308251
O  O25  1  0.67889000  0.69311000  0.89145000  1.0 -0.5030941442
O  O26  1  0.32111000  0.30689000  0.89145000  1.0 -0.5030941442
O  O27  1  0.30689000  0.32111000  0.10855000  1.0 -0.5030941442
O  O28  1  0.69311000  0.67889000  0.10855000  1.0 -0.5030941442
O  O29  1  0.82111000  0.80689000  0.60855000  1.0 -0.5030941442
O  O30  1  0.17889000  0.19311000  0.60855000  1.0 -0.5030941442
O  O31  1  0.19311000  0.17889000  0.39145000  1.0 -0.5030941442
O  O32  1  0.80689000  0.82111000  0.39145000  1.0 -0.5030941442
O  O33  1  0.80542000  0.76818000  0.90154000  1.0 -0.6056714306
O  O34  1  0.19458000  0.23182000  0.90154000  1.0 -0.6056714306
O  O35  1  0.23182000  0.19458000  0.09846000  1.0 -0.6056714306
O  O36  1  0.76818000  0.80542000  0.09846000  1.0 -0.6056714306
O  O37  1  0.69458000  0.73182000  0.59846000  1.0 -0.6056714306
O  O38  1  0.30542000  0.26818000  0.59846000  1.0 -0.6056714306
O  O39  1  0.26818000  0.30542000  0.40154000  1.0 -0.6056714306
O  O40  1  0.73182000  0.69458000  0.40154000  1.0 -0.6056714306
O  O41  1  0.97100000  0.11810000  0.86792000  1.0 -0.5451365883
O  O42  1  0.02900000  0.88190000  0.86792000  1.0 -0.5451365883
O  O43  1  0.88190000  0.02900000  0.13208000  1.0 -0.5451365883
O  O44  1  0.11810000  0.97100000  0.13208000  1.0 -0.5451365883
O  O45  1  0.52900000  0.38190000  0.63208000  1.0 -0.5451365883
O  O46  1  0.47100000  0.61810000  0.63208000  1.0 -0.5451365883
O  O47  1  0.61810000  0.47100000  0.36792000  1.0 -0.5451365883
O  O48  1  0.38190000  0.52900000  0.36792000  1.0 -0.5451365883
O  O49  1  0.00388000  0.07612000  0.90303000  1.0 -0.5291648979
O  O50  1  0.99612000  0.92388000  0.90303000  1.0 -0.5291648979
O  O51  1  0.92388000  0.99612000  0.09697000  1.0 -0.5291648979
O  O52  1  0.07612000  0.00388000  0.09697000  1.0 -0.5291648979
O  O53  1  0.49612000  0.42388000  0.59697000  1.0 -0.5291648979
O  O54  1  0.50388000  0.57612000  0.59697000  1.0 -0.5291648979
O  O55  1  0.57612000  0.50388000  0.40303000  1.0 -0.5291648979
O  O56  1  0.42388000  0.49612000  0.40303000  1.0 -0.5291648979
O  O57  1  0.43897000  0.74643000  0.85627000  1.0 -0.4704400987
O  O58  1  0.56103000  0.25357000  0.85627000  1.0 -0.4704400987
O  O59  1  0.25357000  0.56103000  0.14373000  1.0 -0.4704400987
O  O60  1  0.74643000  0.43897000  0.14373000  1.0 -0.4704400987
O  O61  1  0.06103000  0.75357000  0.64373000  1.0 -0.4704400987
O  O62  1  0.93897000  0.24643000  0.64373000  1.0 -0.4704400987
O  O63  1  0.24643000  0.93897000  0.35627000  1.0 -0.4704400987
O  O64  1  0.75357000  0.06103000  0.35627000  1.0 -0.4704400987
O  O65  1  0.51104000  0.85470000  0.82465000  1.0 -0.5901511485
O  O66  1  0.48896000  0.14530000  0.82465000  1.0 -0.5901511485
O  O67  1  0.14530000  0.48896000  0.17535000  1.0 -0.5901511485
O  O68  1  0.85470000  0.51104000  0.17535000  1.0 -0.5901511485
O  O69  1  0.98896000  0.64530000  0.67535000  1.0 -0.5901511485
O  O70  1  0.01104000  0.35470000  0.67535000  1.0 -0.5901511485
O  O71  1  0.35470000  0.01104000  0.32465000  1.0 -0.5901511485
O  O72  1  0.64530000  0.98896000  0.32465000  1.0 -0.5901511485
O  O73  1  0.39999000  0.96607000  0.81775000  1.0 -0.5030941442
O  O74  1  0.60001000  0.03393000  0.81775000  1.0 -0.5030941442
O  O75  1  0.03393000  0.60001000  0.18225000  1.0 -0.5030941442
O  O76  1  0.96607000  0.39999000  0.18225000  1.0 -0.5030941442
O  O77  1  0.10001000  0.53393000  0.68225000  1.0 -0.5030941442
O  O78  1  0.89999000  0.46607000  0.68225000  1.0 -0.5030941442
O  O79  1  0.46607000  0.89999000  0.31775000  1.0 -0.5030941442
O  O80  1  0.53393000  0.10001000  0.31775000  1.0 -0.5030941442
O  O81  1  0.36666000  0.97902000  0.86645000  1.0 -0.5291648979
O  O82  1  0.63334000  0.02098000  0.86645000  1.0 -0.5291648979
O  O83  1  0.02098000  0.63334000  0.13355000  1.0 -0.5291648979
O  O84  1  0.97902000  0.36666000  0.13355000  1.0 -0.5291648979
O  O85  1  0.13334000  0.52098000  0.63355000  1.0 -0.5291648979
O  O86  1  0.86666000  0.47902000  0.63355000  1.0 -0.5291648979
O  O87  1  0.47902000  0.86666000  0.36645000  1.0 -0.5291648979
O  O88  1  0.52098000  0.13334000  0.36645000  1.0 -0.5291648979
O  O89  1  0.29314000  0.80726000  0.96344000  1.0 -0.5030941442
O  O90  1  0.70686000  0.19274000  0.96344000  1.0 -0.5030941442
O  O91  1  0.19274000  0.70686000  0.03656000  1.0 -0.5030941442
O  O92  1  0.80726000  0.29314000  0.03656000  1.0 -0.5030941442
O  O93  1  0.20686000  0.69274000  0.53656000  1.0 -0.5030941442
O  O94  1  0.79314000  0.30726000  0.53656000  1.0 -0.5030941442
O  O95  1  0.30726000  0.79314000  0.46344000  1.0 -0.5030941442
O  O96  1  0.69274000  0.20686000  0.46344000  1.0 -0.5030941442
O  O97  1  0.28926000  0.71434000  0.95639000  1.0 -0.5291648979
O  O98  1  0.71074000  0.28566000  0.95639000  1.0 -0.5291648979
O  O99  1  0.28566000  0.71074000  0.04361000  1.0 -0.5291648979
O  O100  1  0.71434000  0.28926000  0.04361000  1.0 -0.5291648979
O  O101  1  0.21074000  0.78566000  0.54361000  1.0 -0.5291648979
O  O102  1  0.78926000  0.21434000  0.54361000  1.0 -0.5291648979
O  O103  1  0.21434000  0.78926000  0.45639000  1.0 -0.5291648979
O  O104  1  0.78566000  0.21074000  0.45639000  1.0 -0.5291648979
O  O105  1  0.27082000  0.58678000  0.98194000  1.0 -0.4704400987
O  O106  1  0.72918000  0.41322000  0.98194000  1.0 -0.4704400987
O  O107  1  0.41322000  0.72918000  0.01806000  1.0 -0.4704400987
O  O108  1  0.58678000  0.27082000  0.01806000  1.0 -0.4704400987
O  O109  1  0.22918000  0.91322000  0.51806000  1.0 -0.4704400987
O  O110  1  0.77082000  0.08678000  0.51806000  1.0 -0.4704400987
O  O111  1  0.08678000  0.77082000  0.48194000  1.0 -0.4704400987
O  O112  1  0.91322000  0.22918000  0.48194000  1.0 -0.4704400987
O  O113  1  0.89107000  0.29653000  0.98550000  1.0 -0.4704400987
O  O114  1  0.10893000  0.70347000  0.98550000  1.0 -0.4704400987
O  O115  1  0.70347000  0.10893000  0.01450000  1.0 -0.4704400987
O  O116  1  0.29653000  0.89107000  0.01450000  1.0 -0.4704400987
O  O117  1  0.60893000  0.20347000  0.51450000  1.0 -0.4704400987
O  O118  1  0.39107000  0.79653000  0.51450000  1.0 -0.4704400987
O  O119  1  0.79653000  0.39107000  0.48550000  1.0 -0.4704400987
O  O120  1  0.20347000  0.60893000  0.48550000  1.0 -0.4704400987
O  O121  1  0.86263000  0.19977000  0.95808000  1.0 -0.4567135002
O  O122  1  0.13737000  0.80023000  0.95808000  1.0 -0.4567135002
O  O123  1  0.80023000  0.13737000  0.04192000  1.0 -0.4567135002
O  O124  1  0.19977000  0.86263000  0.04192000  1.0 -0.4567135002
O  O125  1  0.63737000  0.30023000  0.54192000  1.0 -0.4567135002
O  O126  1  0.36263000  0.69977000  0.54192000  1.0 -0.4567135002
O  O127  1  0.69977000  0.36263000  0.45808000  1.0 -0.4567135002
O  O128  1  0.30023000  0.63737000  0.45808000  1.0 -0.4567135002
O  O129  1  0.08891000  0.24797000  0.91892000  1.0 -0.520678319
O  O130  1  0.91109000  0.75203000  0.91892000  1.0 -0.520678319
O  O131  1  0.75203000  0.91109000  0.08108000  1.0 -0.520678319
O  O132  1  0.24797000  0.08891000  0.08108000  1.0 -0.520678319
O  O133  1  0.41109000  0.25203000  0.58108000  1.0 -0.520678319
O  O134  1  0.58891000  0.74797000  0.58108000  1.0 -0.520678319
O  O135  1  0.74797000  0.58891000  0.41892000  1.0 -0.520678319
O  O136  1  0.25203000  0.41109000  0.41892000  1.0 -0.520678319
O  O137  1  0.21458000  0.37442000  0.92060000  1.0 -0.5782949428
O  O138  1  0.78542000  0.62558000  0.92060000  1.0 -0.5782949428
O  O139  1  0.62558000  0.78542000  0.07940000  1.0 -0.5782949428
O  O140  1  0.37442000  0.21458000  0.07940000  1.0 -0.5782949428
O  O141  1  0.28542000  0.12558000  0.57940000  1.0 -0.5782949428
O  O142  1  0.71458000  0.87442000  0.57940000  1.0 -0.5782949428
O  O143  1  0.87442000  0.71458000  0.42060000  1.0 -0.5782949428
O  O144  1  0.12558000  0.28542000  0.42060000  1.0 -0.5782949428
O  O145  1  0.45221000  0.65447000  0.81075000  1.0 -0.4896273786
O  O146  1  0.54779000  0.34553000  0.81075000  1.0 -0.4896273786
O  O147  1  0.34553000  0.54779000  0.18925000  1.0 -0.4896273786
O  O148  1  0.65447000  0.45221000  0.18925000  1.0 -0.4896273786
O  O149  1  0.04779000  0.84553000  0.68925000  1.0 -0.4896273786
O  O150  1  0.95221000  0.15447000  0.68925000  1.0 -0.4896273786
O  O151  1  0.15447000  0.95221000  0.31075000  1.0 -0.4896273786
O  O152  1  0.84553000  0.04779000  0.31075000  1.0 -0.4896273786
O  O153  1  0.39487000  0.67941000  0.78331000  1.0 -0.520678319
O  O154  1  0.60513000  0.32059000  0.78331000  1.0 -0.520678319
O  O155  1  0.32059000  0.60513000  0.21669000  1.0 -0.520678319
O  O156  1  0.67941000  0.39487000  0.21669000  1.0 -0.520678319
O  O157  1  0.10513000  0.82059000  0.71669000  1.0 -0.520678319
O  O158  1  0.89487000  0.17941000  0.71669000  1.0 -0.520678319
O  O159  1  0.17941000  0.89487000  0.28331000  1.0 -0.520678319
O  O160  1  0.82059000  0.10513000  0.28331000  1.0 -0.520678319
O  O161  1  0.13201000  0.44571000  0.72619000  1.0 -0.5406203444
O  O162  1  0.86799000  0.55429000  0.72619000  1.0 -0.5406203444
O  O163  1  0.55429000  0.86799000  0.27381000  1.0 -0.5406203444
O  O164  1  0.44571000  0.13201000  0.27381000  1.0 -0.5406203444
O  O165  1  0.36799000  0.05429000  0.77381000  1.0 -0.5406203444
O  O166  1  0.63201000  0.94571000  0.77381000  1.0 -0.5406203444
O  O167  1  0.94571000  0.63201000  0.22619000  1.0 -0.5406203444
O  O168  1  0.05429000  0.36799000  0.22619000  1.0 -0.5406203444
O  O169  1  0.07878000  0.32312000  0.73197000  1.0 -0.520678319
O  O170  1  0.92122000  0.67688000  0.73197000  1.0 -0.520678319
O  O171  1  0.67688000  0.92122000  0.26803000  1.0 -0.520678319
O  O172  1  0.32312000  0.07878000  0.26803000  1.0 -0.520678319
O  O173  1  0.42122000  0.17688000  0.76803000  1.0 -0.520678319
O  O174  1  0.57878000  0.82312000  0.76803000  1.0 -0.520678319
O  O175  1  0.82312000  0.57878000  0.23197000  1.0 -0.520678319
O  O176  1  0.17688000  0.42122000  0.23197000  1.0 -0.520678319
O  O177  1  0.14692000  0.28888000  0.84780000  1.0 -0.5291648979
O  O178  1  0.85308000  0.71112000  0.84780000  1.0 -0.5291648979
O  O179  1  0.71112000  0.85308000  0.15220000  1.0 -0.5291648979
O  O180  1  0.28888000  0.14692000  0.15220000  1.0 -0.5291648979
O  O181  1  0.35308000  0.21112000  0.65220000  1.0 -0.5291648979
O  O182  1  0.64692000  0.78888000  0.65220000  1.0 -0.5291648979
O  O183  1  0.78888000  0.64692000  0.34780000  1.0 -0.5291648979
O  O184  1  0.21112000  0.35308000  0.34780000  1.0 -0.5291648979
O  O185  1  0.28059000  0.38185000  0.85652000  1.0 -0.5588213751
O  O186  1  0.71941000  0.61815000  0.85652000  1.0 -0.5588213751
O  O187  1  0.61815000  0.71941000  0.14348000  1.0 -0.5588213751
O  O188  1  0.38185000  0.28059000  0.14348000  1.0 -0.5588213751
O  O189  1  0.21941000  0.11815000  0.64348000  1.0 -0.5588213751
O  O190  1  0.78059000  0.88185000  0.64348000  1.0 -0.5588213751
O  O191  1  0.88185000  0.78059000  0.35652000  1.0 -0.5588213751
O  O192  1  0.11815000  0.21941000  0.35652000  1.0 -0.5588213751
O  O193  1  0.75692000  0.08756000  0.81335000  1.0 -0.4353177982
O  O194  1  0.24308000  0.91244000  0.81335000  1.0 -0.4353177982
O  O195  1  0.91244000  0.24308000  0.18665000  1.0 -0.4353177982
O  O196  1  0.08756000  0.75692000  0.18665000  1.0 -0.4353177982
O  O197  1  0.74308000  0.41244000  0.68665000  1.0 -0.4353177982
O  O198  1  0.25692000  0.58756000  0.68665000  1.0 -0.4353177982
O  O199  1  0.58756000  0.25692000  0.31335000  1.0 -0.4353177982
O  O200  1  0.41244000  0.74308000  0.31335000  1.0 -0.4353177982
O  O201  1  0.10016000  0.14604000  0.83695000  1.0 -0.4206746543
O  O202  1  0.89984000  0.85396000  0.83695000  1.0 -0.4206746543
O  O203  1  0.85396000  0.89984000  0.16305000  1.0 -0.4206746543
O  O204  1  0.14604000  0.10016000  0.16305000  1.0 -0.4206746543
O  O205  1  0.39984000  0.35396000  0.66305000  1.0 -0.4206746543
O  O206  1  0.60016000  0.64604000  0.66305000  1.0 -0.4206746543
O  O207  1  0.64604000  0.60016000  0.33695000  1.0 -0.4206746543
O  O208  1  0.35396000  0.39984000  0.33695000  1.0 -0.4206746543
O  O209  1  0.30570000  0.35890000  0.95579000  1.0 -0.0476713243
O  O210  1  0.69430000  0.64110000  0.95579000  1.0 -0.0476713243
O  O211  1  0.64110000  0.69430000  0.04421000  1.0 -0.0433881997
O  O212  1  0.35890000  0.30570000  0.04421000  1.0 -0.0433881997
O  O213  1  0.19430000  0.14110000  0.54421000  1.0 -0.0433881997
O  O214  1  0.80570000  0.85890000  0.54421000  1.0 -0.0433881997
O  O215  1  0.85890000  0.80570000  0.45579000  1.0 -0.0433881997
O  O216  1  0.14110000  0.19430000  0.45579000  1.0 -0.0433881997
O  O217  1  0.17240000  0.56300000  0.00123000  1.0 -0.4704400987
O  O218  1  0.82760000  0.43700000  0.00123000  1.0 -0.4704400987
O  O219  1  0.43700000  0.82760000  0.99877000  1.0 -0.4704400987
O  O220  1  0.56300000  0.17240000  0.99877000  1.0 -0.4704400987
O  O221  1  0.32760000  0.93700000  0.49877000  1.0 -0.4704400987
O  O222  1  0.67240000  0.06300000  0.49877000  1.0 -0.4704400987
O  O223  1  0.06300000  0.67240000  0.50123000  1.0 -0.4704400987
O  O224  1  0.93700000  0.32760000  0.50123000  1.0 -0.4704400987
