# DDEC6 charges by PACMAN v1.1 (https://github.com/mtap-research/PACMAN-charge/)
data_DUVNIS01_FSR_pacman
_symmetry_space_group_name_H-M   'P 1'
_cell_length_a   24.58000000
_cell_length_b   24.58000000
_cell_length_c   39.38600000
_cell_angle_alpha   90.00000000
_cell_angle_beta   90.00000000
_cell_angle_gamma   137.59400000
_symmetry_Int_Tables_number   1
_chemical_formula_structural   Co5H34C44(NO14)2
_chemical_formula_sum   'Co40 H272 C352 N16 O224'
_cell_volume   16047.60152631
_cell_formula_units_Z   8
loop_
 _symmetry_equiv_pos_site_id
 _symmetry_equiv_pos_as_xyz
  1  'x, y, z'
loop_
 _atom_site_type_symbol
 _atom_site_label
 _atom_site_symmetry_multiplicity
 _atom_site_fract_x
 _atom_site_fract_y
 _atom_site_fract_z
 _atom_site_occupancy
 _atom_site_charge
Co  Co1  1  0.01279000  0.27183000  0.68846000  1.0 0.9701451932
Co  Co2  1  0.98721000  0.72817000  0.68846000  1.0 0.9701451932
Co  Co3  1  0.72817000  0.98721000  0.31154000  1.0 0.9701451932
Co  Co4  1  0.27183000  0.01279000  0.31154000  1.0 0.9701451932
Co  Co5  1  0.48721000  0.22817000  0.81154000  1.0 0.9701451932
Co  Co6  1  0.51279000  0.77183000  0.81154000  1.0 0.9701451932
Co  Co7  1  0.77183000  0.51279000  0.18846000  1.0 0.9701451932
Co  Co8  1  0.22817000  0.48721000  0.18846000  1.0 0.9701451932
Co  Co9  1  0.80976000  0.19024000  0.50000000  1.0 0.9944922601
Co  Co10  1  0.19024000  0.80976000  0.50000000  1.0 0.9944922601
Co  Co11  1  0.69024000  0.30976000  0.00000000  1.0 0.9944922601
Co  Co12  1  0.30976000  0.69024000  0.00000000  1.0 0.9944922601
Co  Co13  1  0.30490000  0.40572000  0.37991000  1.0 1.002011982
Co  Co14  1  0.69510000  0.59428000  0.37991000  1.0 1.002011982
Co  Co15  1  0.59428000  0.69510000  0.62009000  1.0 1.002011982
Co  Co16  1  0.40572000  0.30490000  0.62009000  1.0 1.002011982
Co  Co17  1  0.19510000  0.09428000  0.12009000  1.0 1.002011982
Co  Co18  1  0.80490000  0.90572000  0.12009000  1.0 1.002011982
Co  Co19  1  0.90572000  0.80490000  0.87991000  1.0 1.002011982
Co  Co20  1  0.09428000  0.19510000  0.87991000  1.0 1.002011982
Co  Co21  1  0.14017000  0.21855000  0.40627000  1.0 0.9466479991
Co  Co22  1  0.85983000  0.78145000  0.40627000  1.0 0.9466479991
Co  Co23  1  0.78145000  0.85983000  0.59373000  1.0 0.9466479991
Co  Co24  1  0.21855000  0.14017000  0.59373000  1.0 0.9466479991
Co  Co25  1  0.35983000  0.28145000  0.09373000  1.0 0.9466479991
Co  Co26  1  0.64017000  0.71855000  0.09373000  1.0 0.9466479991
Co  Co27  1  0.71855000  0.64017000  0.90627000  1.0 0.9466479991
Co  Co28  1  0.28145000  0.35983000  0.90627000  1.0 0.9466479991
Co  Co29  1  0.72148000  0.27852000  0.50000000  1.0 1.0707127724
Co  Co30  1  0.27852000  0.72148000  0.50000000  1.0 1.0707127724
Co  Co31  1  0.77852000  0.22148000  0.00000000  1.0 1.0707127724
Co  Co32  1  0.22148000  0.77852000  0.00000000  1.0 1.0707127724
Co  Co33  1  0.13415000  0.47327000  0.67785000  1.0 1.047772256
Co  Co34  1  0.86585000  0.52673000  0.67785000  1.0 1.047772256
Co  Co35  1  0.52673000  0.86585000  0.32215000  1.0 1.047772256
Co  Co36  1  0.47327000  0.13415000  0.32215000  1.0 1.047772256
Co  Co37  1  0.36585000  0.02673000  0.82215000  1.0 1.047772256
Co  Co38  1  0.63415000  0.97327000  0.82215000  1.0 1.047772256
Co  Co39  1  0.97327000  0.63415000  0.17785000  1.0 1.047772256
Co  Co40  1  0.02673000  0.36585000  0.17785000  1.0 1.047772256
H  H1  1  0.88140000  0.25780000  0.59260000  1.0 0.1401499324
H  H2  1  0.11860000  0.74220000  0.59260000  1.0 0.1401499324
H  H3  1  0.74220000  0.11860000  0.40740000  1.0 0.1401499324
H  H4  1  0.25780000  0.88140000  0.40740000  1.0 0.1401499324
H  H5  1  0.61860000  0.24220000  0.90740000  1.0 0.1401499324
H  H6  1  0.38140000  0.75780000  0.90740000  1.0 0.1401499324
H  H7  1  0.75780000  0.38140000  0.09260000  1.0 0.1401499324
H  H8  1  0.24220000  0.61860000  0.09260000  1.0 0.1401499324
H  H9  1  0.82810000  0.37830000  0.59110000  1.0 0.1401499324
H  H10  1  0.17190000  0.62170000  0.59110000  1.0 0.1401499324
H  H11  1  0.62170000  0.17190000  0.40890000  1.0 0.1401499324
H  H12  1  0.37830000  0.82810000  0.40890000  1.0 0.1401499324
H  H13  1  0.67190000  0.12170000  0.90890000  1.0 0.1401499324
H  H14  1  0.32810000  0.87830000  0.90890000  1.0 0.1401499324
H  H15  1  0.87830000  0.32810000  0.09110000  1.0 0.1401499324
H  H16  1  0.12170000  0.67190000  0.09110000  1.0 0.1401499324
H  H17  1  0.94840000  0.40300000  0.67040000  1.0 0.1401499324
H  H18  1  0.05160000  0.59700000  0.67040000  1.0 0.1401499324
H  H19  1  0.59700000  0.05160000  0.32960000  1.0 0.1401499324
H  H20  1  0.40300000  0.94840000  0.32960000  1.0 0.1401499324
H  H21  1  0.55160000  0.09700000  0.82960000  1.0 0.1401499324
H  H22  1  0.44840000  0.90300000  0.82960000  1.0 0.1401499324
H  H23  1  0.90300000  0.44840000  0.17040000  1.0 0.1401499324
H  H24  1  0.09700000  0.55160000  0.17040000  1.0 0.1401499324
H  H25  1  0.03940000  0.27980000  0.45620000  1.0 0.1240059559
H  H26  1  0.96060000  0.72020000  0.45620000  1.0 0.1240059559
H  H27  1  0.72020000  0.96060000  0.54380000  1.0 0.1240059559
H  H28  1  0.27980000  0.03940000  0.54380000  1.0 0.1240059559
H  H29  1  0.46060000  0.22020000  0.04380000  1.0 0.1240059559
H  H30  1  0.53940000  0.77980000  0.04380000  1.0 0.1240059559
H  H31  1  0.77980000  0.53940000  0.95620000  1.0 0.1240059559
H  H32  1  0.22020000  0.46060000  0.95620000  1.0 0.1240059559
H  H33  1  0.25480000  0.50940000  0.44050000  1.0 0.1401499324
H  H34  1  0.74520000  0.49060000  0.44050000  1.0 0.1401499324
H  H35  1  0.49060000  0.74520000  0.55950000  1.0 0.1401499324
H  H36  1  0.50940000  0.25480000  0.55950000  1.0 0.1401499324
H  H37  1  0.24520000  0.99060000  0.05950000  1.0 0.1401499324
H  H38  1  0.75480000  0.00940000  0.05950000  1.0 0.1401499324
H  H39  1  0.00940000  0.75480000  0.94050000  1.0 0.1401499324
H  H40  1  0.99060000  0.24520000  0.94050000  1.0 0.1401499324
H  H41  1  0.08270000  0.46190000  0.49190000  1.0 0.1482809965
H  H42  1  0.91730000  0.53810000  0.49190000  1.0 0.1482809965
H  H43  1  0.53810000  0.91730000  0.50810000  1.0 0.1482809965
H  H44  1  0.46190000  0.08270000  0.50810000  1.0 0.1482809965
H  H45  1  0.41730000  0.03810000  0.00810000  1.0 0.1482809965
H  H46  1  0.58270000  0.96190000  0.00810000  1.0 0.1482809965
H  H47  1  0.96190000  0.58270000  0.99190000  1.0 0.1482809965
H  H48  1  0.03810000  0.41730000  0.99190000  1.0 0.1482809965
H  H49  1  0.84530000  0.00950000  0.66960000  1.0 0.1311081
H  H50  1  0.15470000  0.99050000  0.66960000  1.0 0.1311081
H  H51  1  0.99050000  0.15470000  0.33040000  1.0 0.1311081
H  H52  1  0.00950000  0.84530000  0.33040000  1.0 0.1311081
H  H53  1  0.65470000  0.49050000  0.83040000  1.0 0.1311081
H  H54  1  0.34530000  0.50950000  0.83040000  1.0 0.1311081
H  H55  1  0.50950000  0.34530000  0.16960000  1.0 0.1311081
H  H56  1  0.49050000  0.65470000  0.16960000  1.0 0.1311081
H  H57  1  0.76540000  0.04600000  0.74510000  1.0 0.1401499324
H  H58  1  0.23460000  0.95400000  0.74510000  1.0 0.1401499324
H  H59  1  0.95400000  0.23460000  0.25490000  1.0 0.1401499324
H  H60  1  0.04600000  0.76540000  0.25490000  1.0 0.1401499324
H  H61  1  0.73460000  0.45400000  0.75490000  1.0 0.1401499324
H  H62  1  0.26540000  0.54600000  0.75490000  1.0 0.1401499324
H  H63  1  0.54600000  0.26540000  0.24510000  1.0 0.1401499324
H  H64  1  0.45400000  0.73460000  0.24510000  1.0 0.1401499324
H  H65  1  0.62700000  0.82100000  0.70940000  1.0 0.1311081
H  H66  1  0.37300000  0.17900000  0.70940000  1.0 0.1311081
H  H67  1  0.17900000  0.37300000  0.29060000  1.0 0.1311081
H  H68  1  0.82100000  0.62700000  0.29060000  1.0 0.1311081
H  H69  1  0.87300000  0.67900000  0.79060000  1.0 0.1311081
H  H70  1  0.12700000  0.32100000  0.79060000  1.0 0.1311081
H  H71  1  0.32100000  0.12700000  0.20940000  1.0 0.1311081
H  H72  1  0.67900000  0.87300000  0.20940000  1.0 0.1311081
H  H73  1  0.15990000  0.27410000  0.62900000  1.0 0.1311081
H  H74  1  0.84010000  0.72590000  0.62900000  1.0 0.1311081
H  H75  1  0.72590000  0.84010000  0.37100000  1.0 0.1311081
H  H76  1  0.27410000  0.15990000  0.37100000  1.0 0.1311081
H  H77  1  0.34010000  0.22590000  0.87100000  1.0 0.1311081
H  H78  1  0.65990000  0.77410000  0.87100000  1.0 0.1311081
H  H79  1  0.77410000  0.65990000  0.12900000  1.0 0.1311081
H  H80  1  0.22590000  0.34010000  0.12900000  1.0 0.1311081
H  H81  1  0.38960000  0.42000000  0.60010000  1.0 0.1401499324
H  H82  1  0.61040000  0.58000000  0.60010000  1.0 0.1401499324
H  H83  1  0.58000000  0.61040000  0.39990000  1.0 0.1401499324
H  H84  1  0.42000000  0.38960000  0.39990000  1.0 0.1401499324
H  H85  1  0.11040000  0.08000000  0.89990000  1.0 0.1401499324
H  H86  1  0.88960000  0.92000000  0.89990000  1.0 0.1401499324
H  H87  1  0.92000000  0.88960000  0.10010000  1.0 0.1401499324
H  H88  1  0.08000000  0.11040000  0.10010000  1.0 0.1401499324
H  H89  1  0.31950000  0.51430000  0.63420000  1.0 0.1311081
H  H90  1  0.68050000  0.48570000  0.63420000  1.0 0.1311081
H  H91  1  0.48570000  0.68050000  0.36580000  1.0 0.1311081
H  H92  1  0.51430000  0.31950000  0.36580000  1.0 0.1311081
H  H93  1  0.18050000  0.98570000  0.86580000  1.0 0.1311081
H  H94  1  0.81950000  0.01430000  0.86580000  1.0 0.1311081
H  H95  1  0.01430000  0.81950000  0.13420000  1.0 0.1311081
H  H96  1  0.98570000  0.18050000  0.13420000  1.0 0.1311081
H  H97  1  0.40350000  0.43530000  0.33880000  1.0 0.3402990301
H  H98  1  0.59650000  0.56470000  0.33880000  1.0 0.3402990301
H  H99  1  0.56470000  0.59650000  0.66120000  1.0 0.3402990301
H  H100  1  0.43530000  0.40350000  0.66120000  1.0 0.3402990301
H  H101  1  0.09650000  0.06470000  0.16120000  1.0 0.3402990301
H  H102  1  0.90350000  0.93530000  0.16120000  1.0 0.3402990301
H  H103  1  0.93530000  0.90350000  0.83880000  1.0 0.3402990301
H  H104  1  0.06470000  0.09650000  0.83880000  1.0 0.3402990301
H  H105  1  0.34010000  0.40670000  0.31980000  1.0 0.3572328028
H  H106  1  0.65990000  0.59330000  0.31980000  1.0 0.3572328028
H  H107  1  0.59330000  0.65990000  0.68020000  1.0 0.3572328028
H  H108  1  0.40670000  0.34010000  0.68020000  1.0 0.3572328028
H  H109  1  0.15990000  0.09330000  0.18020000  1.0 0.3572328028
H  H110  1  0.84010000  0.90670000  0.18020000  1.0 0.3572328028
H  H111  1  0.90670000  0.84010000  0.81980000  1.0 0.3572328028
H  H112  1  0.09330000  0.15990000  0.81980000  1.0 0.3572328028
H  H113  1  0.99940000  0.14180000  0.44920000  1.0 0.1101022058
H  H114  1  0.00060000  0.85820000  0.44920000  1.0 0.1101022058
H  H115  1  0.85820000  0.00060000  0.55080000  1.0 0.1101022058
H  H116  1  0.14180000  0.99940000  0.55080000  1.0 0.1101022058
H  H117  1  0.50060000  0.35820000  0.05080000  1.0 0.1101022058
H  H118  1  0.49940000  0.64180000  0.05080000  1.0 0.1101022058
H  H119  1  0.64180000  0.49940000  0.94920000  1.0 0.1101022058
H  H120  1  0.35820000  0.50060000  0.94920000  1.0 0.1101022058
H  H121  1  0.83810000  0.08850000  0.44050000  1.0 0.1582001863
H  H122  1  0.16190000  0.91150000  0.44050000  1.0 0.1582001863
H  H123  1  0.91150000  0.16190000  0.55950000  1.0 0.1582001863
H  H124  1  0.08850000  0.83810000  0.55950000  1.0 0.1582001863
H  H125  1  0.66190000  0.41150000  0.05950000  1.0 0.1582001863
H  H126  1  0.33810000  0.58850000  0.05950000  1.0 0.1582001863
H  H127  1  0.58850000  0.33810000  0.94050000  1.0 0.1582001863
H  H128  1  0.41150000  0.66190000  0.94050000  1.0 0.1582001863
H  H129  1  0.80850000  0.01730000  0.46260000  1.0 0.1401499324
H  H130  1  0.19150000  0.98270000  0.46260000  1.0 0.1401499324
H  H131  1  0.98270000  0.19150000  0.53740000  1.0 0.1401499324
H  H132  1  0.01730000  0.80850000  0.53740000  1.0 0.1401499324
H  H133  1  0.69150000  0.48270000  0.03740000  1.0 0.1401499324
H  H134  1  0.30850000  0.51730000  0.03740000  1.0 0.1401499324
H  H135  1  0.51730000  0.30850000  0.96260000  1.0 0.1401499324
H  H136  1  0.48270000  0.69150000  0.96260000  1.0 0.1401499324
H  H137  1  0.89100000  0.10660000  0.47080000  1.0 0.1311081
H  H138  1  0.10900000  0.89340000  0.47080000  1.0 0.1311081
H  H139  1  0.89340000  0.10900000  0.52920000  1.0 0.1311081
H  H140  1  0.10660000  0.89100000  0.52920000  1.0 0.1311081
H  H141  1  0.60900000  0.39340000  0.02920000  1.0 0.1311081
H  H142  1  0.39100000  0.60660000  0.02920000  1.0 0.1311081
H  H143  1  0.60660000  0.39100000  0.97080000  1.0 0.1311081
H  H144  1  0.39340000  0.60900000  0.97080000  1.0 0.1311081
H  H145  1  0.82640000  0.95280000  0.41150000  1.0 0.1401499324
H  H146  1  0.17360000  0.04720000  0.41150000  1.0 0.1401499324
H  H147  1  0.04720000  0.17360000  0.58850000  1.0 0.1401499324
H  H148  1  0.95280000  0.82640000  0.58850000  1.0 0.1401499324
H  H149  1  0.67360000  0.54720000  0.08850000  1.0 0.1401499324
H  H150  1  0.32640000  0.45280000  0.08850000  1.0 0.1401499324
H  H151  1  0.45280000  0.32640000  0.91150000  1.0 0.1401499324
H  H152  1  0.54720000  0.67360000  0.91150000  1.0 0.1401499324
H  H153  1  0.80540000  0.99540000  0.39750000  1.0 0.1482809965
H  H154  1  0.19460000  0.00460000  0.39750000  1.0 0.1482809965
H  H155  1  0.00460000  0.19460000  0.60250000  1.0 0.1482809965
H  H156  1  0.99540000  0.80540000  0.60250000  1.0 0.1482809965
H  H157  1  0.69460000  0.50460000  0.10250000  1.0 0.1482809965
H  H158  1  0.30540000  0.49540000  0.10250000  1.0 0.1482809965
H  H159  1  0.49540000  0.30540000  0.89750000  1.0 0.1482809965
H  H160  1  0.50460000  0.69460000  0.89750000  1.0 0.1482809965
H  H161  1  0.88220000  0.02140000  0.38430000  1.0 0.1582001863
H  H162  1  0.11780000  0.97860000  0.38430000  1.0 0.1582001863
H  H163  1  0.97860000  0.11780000  0.61570000  1.0 0.1582001863
H  H164  1  0.02140000  0.88220000  0.61570000  1.0 0.1582001863
H  H165  1  0.61780000  0.47860000  0.11570000  1.0 0.1582001863
H  H166  1  0.38220000  0.52140000  0.11570000  1.0 0.1582001863
H  H167  1  0.52140000  0.38220000  0.88430000  1.0 0.1582001863
H  H168  1  0.47860000  0.61780000  0.88430000  1.0 0.1582001863
H  H169  1  0.28250000  0.60410000  0.64070000  1.0 0.1240059559
H  H170  1  0.71750000  0.39590000  0.64070000  1.0 0.1240059559
H  H171  1  0.39590000  0.71750000  0.35930000  1.0 0.1240059559
H  H172  1  0.60410000  0.28250000  0.35930000  1.0 0.1240059559
H  H173  1  0.21750000  0.89590000  0.85930000  1.0 0.1240059559
H  H174  1  0.78250000  0.10410000  0.85930000  1.0 0.1240059559
H  H175  1  0.10410000  0.78250000  0.14070000  1.0 0.1240059559
H  H176  1  0.89590000  0.21750000  0.14070000  1.0 0.1240059559
H  H177  1  0.38590000  0.68090000  0.71460000  1.0 0.1582001863
H  H178  1  0.61410000  0.31910000  0.71460000  1.0 0.1582001863
H  H179  1  0.31910000  0.61410000  0.28540000  1.0 0.1582001863
H  H180  1  0.68090000  0.38590000  0.28540000  1.0 0.1582001863
H  H181  1  0.11410000  0.81910000  0.78540000  1.0 0.1582001863
H  H182  1  0.88590000  0.18090000  0.78540000  1.0 0.1582001863
H  H183  1  0.18090000  0.88590000  0.21460000  1.0 0.1582001863
H  H184  1  0.81910000  0.11410000  0.21460000  1.0 0.1582001863
H  H185  1  0.43600000  0.76680000  0.70030000  1.0 0.1482809965
H  H186  1  0.56400000  0.23320000  0.70030000  1.0 0.1482809965
H  H187  1  0.23320000  0.56400000  0.29970000  1.0 0.1482809965
H  H188  1  0.76680000  0.43600000  0.29970000  1.0 0.1482809965
H  H189  1  0.06400000  0.73320000  0.79970000  1.0 0.1482809965
H  H190  1  0.93600000  0.26680000  0.79970000  1.0 0.1482809965
H  H191  1  0.26680000  0.93600000  0.20030000  1.0 0.1482809965
H  H192  1  0.73320000  0.06400000  0.20030000  1.0 0.1482809965
H  H193  1  0.47010000  0.73270000  0.69770000  1.0 0.1401499324
H  H194  1  0.52990000  0.26730000  0.69770000  1.0 0.1401499324
H  H195  1  0.26730000  0.52990000  0.30230000  1.0 0.1401499324
H  H196  1  0.73270000  0.47010000  0.30230000  1.0 0.1401499324
H  H197  1  0.02990000  0.76730000  0.80230000  1.0 0.1401499324
H  H198  1  0.97010000  0.23270000  0.80230000  1.0 0.1401499324
H  H199  1  0.23270000  0.97010000  0.19770000  1.0 0.1401499324
H  H200  1  0.76730000  0.02990000  0.19770000  1.0 0.1401499324
H  H201  1  0.48330000  0.74030000  0.63790000  1.0 0.1482809965
H  H202  1  0.51670000  0.25970000  0.63790000  1.0 0.1482809965
H  H203  1  0.25970000  0.51670000  0.36210000  1.0 0.1482809965
H  H204  1  0.74030000  0.48330000  0.36210000  1.0 0.1482809965
H  H205  1  0.01670000  0.75970000  0.86210000  1.0 0.1482809965
H  H206  1  0.98330000  0.24030000  0.86210000  1.0 0.1482809965
H  H207  1  0.24030000  0.98330000  0.13790000  1.0 0.1482809965
H  H208  1  0.75970000  0.01670000  0.13790000  1.0 0.1482809965
H  H209  1  0.44380000  0.76660000  0.62730000  1.0 0.1482809965
H  H210  1  0.55620000  0.23340000  0.62730000  1.0 0.1401499324
H  H211  1  0.23340000  0.55620000  0.37270000  1.0 0.1401499324
H  H212  1  0.76660000  0.44380000  0.37270000  1.0 0.1401499324
H  H213  1  0.05620000  0.73340000  0.87270000  1.0 0.1482809965
H  H214  1  0.94380000  0.26660000  0.87270000  1.0 0.1401499324
H  H215  1  0.26660000  0.94380000  0.12730000  1.0 0.1482809965
H  H216  1  0.73340000  0.05620000  0.12730000  1.0 0.1401499324
H  H217  1  0.40470000  0.68270000  0.61570000  1.0 0.1482809965
H  H218  1  0.59530000  0.31730000  0.61570000  1.0 0.1482809965
H  H219  1  0.31730000  0.59530000  0.38430000  1.0 0.1482809965
H  H220  1  0.68270000  0.40470000  0.38430000  1.0 0.1482809965
H  H221  1  0.09530000  0.81730000  0.88430000  1.0 0.1482809965
H  H222  1  0.90470000  0.18270000  0.88430000  1.0 0.1482809965
H  H223  1  0.18270000  0.90470000  0.11570000  1.0 0.1482809965
H  H224  1  0.81730000  0.09530000  0.11570000  1.0 0.1482809965
H  H225  1  0.20530000  0.25030000  0.53860000  1.0 0.1311081
H  H226  1  0.79470000  0.74970000  0.53860000  1.0 0.1311081
H  H227  1  0.74970000  0.79470000  0.46140000  1.0 0.1311081
H  H228  1  0.25030000  0.20530000  0.46140000  1.0 0.1311081
H  H229  1  0.29470000  0.24970000  0.96140000  1.0 0.1311081
H  H230  1  0.70530000  0.75030000  0.96140000  1.0 0.1311081
H  H231  1  0.75030000  0.70530000  0.03860000  1.0 0.1311081
H  H232  1  0.24970000  0.29470000  0.03860000  1.0 0.1311081
H  H233  1  0.26530000  0.27830000  0.50960000  1.0 0.0839441459
H  H234  1  0.73470000  0.72170000  0.50960000  1.0 0.0839441459
H  H235  1  0.72170000  0.73470000  0.49040000  1.0 0.0839441459
H  H236  1  0.27830000  0.26530000  0.49040000  1.0 0.0839441459
H  H237  1  0.23470000  0.22170000  0.99040000  1.0 0.0839441459
H  H238  1  0.76530000  0.77830000  0.99040000  1.0 0.0839441459
H  H239  1  0.77830000  0.76530000  0.00960000  1.0 0.0839441459
H  H240  1  0.22170000  0.23470000  0.00960000  1.0 0.0839441459
H  H241  1  0.23500000  0.31620000  0.51260000  1.0 0.1311081
H  H242  1  0.76500000  0.68380000  0.51260000  1.0 0.1311081
H  H243  1  0.68380000  0.76500000  0.48740000  1.0 0.1311081
H  H244  1  0.31620000  0.23500000  0.48740000  1.0 0.1311081
H  H245  1  0.26500000  0.18380000  0.98740000  1.0 0.1311081
H  H246  1  0.73500000  0.81620000  0.98740000  1.0 0.1311081
H  H247  1  0.81620000  0.73500000  0.01260000  1.0 0.1311081
H  H248  1  0.18380000  0.26500000  0.01260000  1.0 0.1311081
H  H249  1  0.10730000  0.19610000  0.49940000  1.0 0.0884462346
H  H250  1  0.89270000  0.80390000  0.49940000  1.0 0.0884462346
H  H251  1  0.80390000  0.89270000  0.50060000  1.0 0.0884462346
H  H252  1  0.19610000  0.10730000  0.50060000  1.0 0.0884462346
H  H253  1  0.39270000  0.30390000  0.00060000  1.0 0.0884462346
H  H254  1  0.60730000  0.69610000  0.00060000  1.0 0.0884462346
H  H255  1  0.69610000  0.60730000  0.99940000  1.0 0.0884462346
H  H256  1  0.30390000  0.39270000  0.99940000  1.0 0.0884462346
H  H257  1  0.13140000  0.15320000  0.49980000  1.0 0.0475443614
H  H258  1  0.86860000  0.84680000  0.49980000  1.0 0.0475443614
H  H259  1  0.84680000  0.86860000  0.50020000  1.0 0.0475443614
H  H260  1  0.15320000  0.13140000  0.50020000  1.0 0.0475443614
H  H261  1  0.36860000  0.34680000  0.00020000  1.0 0.0475443614
H  H262  1  0.63140000  0.65320000  0.00020000  1.0 0.0475443614
H  H263  1  0.65320000  0.63140000  0.99980000  1.0 0.0475443614
H  H264  1  0.34680000  0.36860000  0.99980000  1.0 0.0475443614
H  H265  1  0.09090000  0.14790000  0.45060000  1.0 0.3343403016
H  H266  1  0.90910000  0.85210000  0.45060000  1.0 0.3343403016
H  H267  1  0.85210000  0.90910000  0.54940000  1.0 0.3343403016
H  H268  1  0.14790000  0.09090000  0.54940000  1.0 0.3343403016
H  H269  1  0.40910000  0.35210000  0.04940000  1.0 0.3343403016
H  H270  1  0.59090000  0.64790000  0.04940000  1.0 0.3343403016
H  H271  1  0.64790000  0.59090000  0.95060000  1.0 0.3343403016
H  H272  1  0.35210000  0.40910000  0.95060000  1.0 0.3343403016
C  C1  1  0.92368000  0.32972000  0.63355000  1.0 -0.0021528
C  C2  1  0.07632000  0.67028000  0.63355000  1.0 -0.0021528
C  C3  1  0.67028000  0.07632000  0.36645000  1.0 -0.0021528
C  C4  1  0.32972000  0.92368000  0.36645000  1.0 -0.0021528
C  C5  1  0.57632000  0.17028000  0.86645000  1.0 -0.0021528
C  C6  1  0.42368000  0.82972000  0.86645000  1.0 -0.0021528
C  C7  1  0.82972000  0.42368000  0.13355000  1.0 -0.0021528
C  C8  1  0.17028000  0.57632000  0.13355000  1.0 -0.0021528
C  C9  1  0.88437000  0.29423000  0.60262000  1.0 -0.090868257
C  C10  1  0.11563000  0.70577000  0.60262000  1.0 -0.090868257
C  C11  1  0.70577000  0.11563000  0.39738000  1.0 -0.090868257
C  C12  1  0.29423000  0.88437000  0.39738000  1.0 -0.090868257
C  C13  1  0.61563000  0.20577000  0.89738000  1.0 -0.090868257
C  C14  1  0.38437000  0.79423000  0.89738000  1.0 -0.090868257
C  C15  1  0.79423000  0.38437000  0.10262000  1.0 -0.090868257
C  C16  1  0.20577000  0.61563000  0.10262000  1.0 -0.090868257
C  C17  1  0.84969000  0.31311000  0.58665000  1.0 -0.0021528
C  C18  1  0.15031000  0.68689000  0.58665000  1.0 -0.0021528
C  C19  1  0.68689000  0.15031000  0.41335000  1.0 -0.0021528
C  C20  1  0.31311000  0.84969000  0.41335000  1.0 -0.0021528
C  C21  1  0.65031000  0.18689000  0.91335000  1.0 -0.0021528
C  C22  1  0.34969000  0.81311000  0.91335000  1.0 -0.0021528
C  C23  1  0.81311000  0.34969000  0.08665000  1.0 -0.0021528
C  C24  1  0.18689000  0.65031000  0.08665000  1.0 -0.0021528
C  C25  1  0.85137000  0.36563000  0.60190000  1.0 -0.100489939
C  C26  1  0.14863000  0.63437000  0.60190000  1.0 -0.100489939
C  C27  1  0.63437000  0.14863000  0.39810000  1.0 -0.100489939
C  C28  1  0.36563000  0.85137000  0.39810000  1.0 -0.100489939
C  C29  1  0.64863000  0.13437000  0.89810000  1.0 -0.100489939
C  C30  1  0.35137000  0.86563000  0.89810000  1.0 -0.100489939
C  C31  1  0.86563000  0.35137000  0.10190000  1.0 -0.100489939
C  C32  1  0.13437000  0.64863000  0.10190000  1.0 -0.100489939
C  C33  1  0.88809000  0.39871000  0.63339000  1.0 -0.0021528
C  C34  1  0.11191000  0.60129000  0.63339000  1.0 -0.0021528
C  C35  1  0.60129000  0.11191000  0.36661000  1.0 -0.0021528
C  C36  1  0.39871000  0.88809000  0.36661000  1.0 -0.0021528
C  C37  1  0.61191000  0.10129000  0.86661000  1.0 -0.0021528
C  C38  1  0.38809000  0.89871000  0.86661000  1.0 -0.0021528
C  C39  1  0.89871000  0.38809000  0.13339000  1.0 -0.0128719452
C  C40  1  0.10129000  0.61191000  0.13339000  1.0 -0.0021528
C  C41  1  0.92412000  0.38088000  0.64931000  1.0 -0.100489939
C  C42  1  0.07588000  0.61912000  0.64931000  1.0 -0.100489939
C  C43  1  0.61912000  0.07588000  0.35069000  1.0 -0.100489939
C  C44  1  0.38088000  0.92412000  0.35069000  1.0 -0.100489939
C  C45  1  0.57588000  0.11912000  0.85069000  1.0 -0.100489939
C  C46  1  0.42412000  0.88088000  0.85069000  1.0 -0.100489939
C  C47  1  0.88088000  0.42412000  0.14931000  1.0 -0.100489939
C  C48  1  0.11912000  0.57588000  0.14931000  1.0 -0.100489939
C  C49  1  0.95980000  0.30860000  0.65134000  1.0 0.5606129144
C  C50  1  0.04020000  0.69140000  0.65134000  1.0 0.5606129144
C  C51  1  0.69140000  0.04020000  0.34866000  1.0 0.5606129144
C  C52  1  0.30860000  0.95980000  0.34866000  1.0 0.5606129144
C  C53  1  0.54020000  0.19140000  0.84866000  1.0 0.5606129144
C  C54  1  0.45980000  0.80860000  0.84866000  1.0 0.5606129144
C  C55  1  0.80860000  0.45980000  0.15134000  1.0 0.5606129144
C  C56  1  0.19140000  0.54020000  0.15134000  1.0 0.5606129144
C  C57  1  0.80700000  0.27540000  0.55270000  1.0 0.6065919672
C  C58  1  0.19300000  0.72460000  0.55270000  1.0 0.6065919672
C  C59  1  0.72460000  0.19300000  0.44730000  1.0 0.6065919672
C  C60  1  0.27540000  0.80700000  0.44730000  1.0 0.6065919672
C  C61  1  0.69300000  0.22460000  0.94730000  1.0 0.6065919672
C  C62  1  0.30700000  0.77540000  0.94730000  1.0 0.6065919672
C  C63  1  0.77540000  0.30700000  0.05270000  1.0 0.6065919672
C  C64  1  0.22460000  0.69300000  0.05270000  1.0 0.6065919672
C  C65  1  0.88522000  0.45098000  0.65069000  1.0 0.5336356273
C  C66  1  0.11478000  0.54902000  0.65069000  1.0 0.5336356273
C  C67  1  0.54902000  0.11478000  0.34931000  1.0 0.5417911563
C  C68  1  0.45098000  0.88522000  0.34931000  1.0 0.5336356273
C  C69  1  0.61478000  0.04902000  0.84931000  1.0 0.5417911563
C  C70  1  0.38522000  0.95098000  0.84931000  1.0 0.5336356273
C  C71  1  0.95098000  0.38522000  0.15069000  1.0 0.5336356273
C  C72  1  0.04902000  0.61478000  0.15069000  1.0 0.5336356273
C  C73  1  0.04626000  0.36154000  0.47500000  1.0 -0.0021528
C  C74  1  0.95374000  0.63846000  0.47500000  1.0 -0.0021528
C  C75  1  0.63846000  0.95374000  0.52500000  1.0 -0.0021528
C  C76  1  0.36154000  0.04626000  0.52500000  1.0 -0.0021528
C  C77  1  0.45374000  0.13846000  0.02500000  1.0 -0.0021528
C  C78  1  0.54626000  0.86154000  0.02500000  1.0 -0.0021528
C  C79  1  0.86154000  0.54626000  0.97500000  1.0 -0.0021528
C  C80  1  0.13846000  0.45374000  0.97500000  1.0 -0.0021528
C  C81  1  0.07359000  0.33481000  0.45850000  1.0 -0.1229965563
C  C82  1  0.92641000  0.66519000  0.45850000  1.0 -0.1229965563
C  C83  1  0.66519000  0.92641000  0.54150000  1.0 -0.1229965563
C  C84  1  0.33481000  0.07359000  0.54150000  1.0 -0.1229965563
C  C85  1  0.42641000  0.16519000  0.04150000  1.0 -0.1229965563
C  C86  1  0.57359000  0.83481000  0.04150000  1.0 -0.1229965563
C  C87  1  0.83481000  0.57359000  0.95850000  1.0 -0.1229965563
C  C88  1  0.16519000  0.42641000  0.95850000  1.0 -0.1229965563
C  C89  1  0.15172000  0.39028000  0.44550000  1.0 -0.02103976
C  C90  1  0.84828000  0.60972000  0.44550000  1.0 -0.02103976
C  C91  1  0.60972000  0.84828000  0.55450000  1.0 -0.02103976
C  C92  1  0.39028000  0.15172000  0.55450000  1.0 -0.02103976
C  C93  1  0.34828000  0.10972000  0.05450000  1.0 -0.02103976
C  C94  1  0.65172000  0.89028000  0.05450000  1.0 -0.02103976
C  C95  1  0.89028000  0.65172000  0.94550000  1.0 -0.02103976
C  C96  1  0.10972000  0.34828000  0.94550000  1.0 -0.02103976
C  C97  1  0.20283000  0.47237000  0.44930000  1.0 -0.100489939
C  C98  1  0.79717000  0.52763000  0.44930000  1.0 -0.100489939
C  C99  1  0.52763000  0.79717000  0.55070000  1.0 -0.100489939
C  C100  1  0.47237000  0.20283000  0.55070000  1.0 -0.100489939
C  C101  1  0.29717000  0.02763000  0.05070000  1.0 -0.100489939
C  C102  1  0.70283000  0.97237000  0.05070000  1.0 -0.100489939
C  C103  1  0.97237000  0.70283000  0.94930000  1.0 -0.100489939
C  C104  1  0.02763000  0.29717000  0.94930000  1.0 -0.100489939
C  C105  1  0.17680000  0.49980000  0.46630000  1.0 0.0042199288
C  C106  1  0.82320000  0.50020000  0.46630000  1.0 0.0042199288
C  C107  1  0.50020000  0.82320000  0.53370000  1.0 0.0042199288
C  C108  1  0.49980000  0.17680000  0.53370000  1.0 0.0042199288
C  C109  1  0.32320000  0.00020000  0.03370000  1.0 0.0042199288
C  C110  1  0.67680000  0.99980000  0.03370000  1.0 0.0042199288
C  C111  1  0.99980000  0.67680000  0.96630000  1.0 0.0042199288
C  C112  1  0.00020000  0.32320000  0.96630000  1.0 0.0042199288
C  C113  1  0.09947000  0.44393000  0.47960000  1.0 -0.090868257
C  C114  1  0.90053000  0.55607000  0.47960000  1.0 -0.090868257
C  C115  1  0.55607000  0.90053000  0.52040000  1.0 -0.090868257
C  C116  1  0.44393000  0.09947000  0.52040000  1.0 -0.0846638705
C  C117  1  0.40053000  0.05607000  0.02040000  1.0 -0.0846638705
C  C118  1  0.59947000  0.94393000  0.02040000  1.0 -0.090868257
C  C119  1  0.94393000  0.59947000  0.97960000  1.0 -0.090868257
C  C120  1  0.05607000  0.40053000  0.97960000  1.0 -0.090868257
C  C121  1  0.96020000  0.30240000  0.48680000  1.0 0.520374683
C  C122  1  0.03980000  0.69760000  0.48680000  1.0 0.520374683
C  C123  1  0.69760000  0.03980000  0.51320000  1.0 0.520374683
C  C124  1  0.30240000  0.96020000  0.51320000  1.0 0.520374683
C  C125  1  0.53980000  0.19760000  0.01320000  1.0 0.520374683
C  C126  1  0.46020000  0.80240000  0.01320000  1.0 0.520374683
C  C127  1  0.80240000  0.46020000  0.98680000  1.0 0.520374683
C  C128  1  0.19760000  0.53980000  0.98680000  1.0 0.520374683
C  C129  1  0.17934000  0.36026000  0.42710000  1.0 0.5888618305
C  C130  1  0.82066000  0.63974000  0.42710000  1.0 0.5888618305
C  C131  1  0.63974000  0.82066000  0.57290000  1.0 0.5888618305
C  C132  1  0.36026000  0.17934000  0.57290000  1.0 0.5888618305
C  C133  1  0.32066000  0.13974000  0.07290000  1.0 0.5888618305
C  C134  1  0.67934000  0.86026000  0.07290000  1.0 0.5888618305
C  C135  1  0.86026000  0.67934000  0.92710000  1.0 0.5888618305
C  C136  1  0.13974000  0.32066000  0.92710000  1.0 0.5888618305
C  C137  1  0.23390000  0.59010000  0.47020000  1.0 0.5417911563
C  C138  1  0.76610000  0.40990000  0.47020000  1.0 0.5417911563
C  C139  1  0.40990000  0.76610000  0.52980000  1.0 0.5417911563
C  C140  1  0.59010000  0.23390000  0.52980000  1.0 0.5417911563
C  C141  1  0.26610000  0.90990000  0.02980000  1.0 0.5417911563
C  C142  1  0.73390000  0.09010000  0.02980000  1.0 0.5417911563
C  C143  1  0.09010000  0.73390000  0.97020000  1.0 0.5417911563
C  C144  1  0.90990000  0.26610000  0.97020000  1.0 0.5417911563
C  C145  1  0.73297000  0.90843000  0.68490000  1.0 -0.0258936469
C  C146  1  0.26703000  0.09157000  0.68490000  1.0 -0.0258936469
C  C147  1  0.09157000  0.26703000  0.31510000  1.0 -0.0258936469
C  C148  1  0.90843000  0.73297000  0.31510000  1.0 -0.0258936469
C  C149  1  0.76703000  0.59157000  0.81510000  1.0 -0.0258936469
C  C150  1  0.23297000  0.40843000  0.81510000  1.0 -0.0258936469
C  C151  1  0.40843000  0.23297000  0.18490000  1.0 -0.0258936469
C  C152  1  0.59157000  0.76703000  0.18490000  1.0 -0.0258936469
C  C153  1  0.80473000  0.98947000  0.68468000  1.0 -0.090868257
C  C154  1  0.19527000  0.01053000  0.68468000  1.0 -0.090868257
C  C155  1  0.01053000  0.19527000  0.31532000  1.0 -0.090868257
C  C156  1  0.98947000  0.80473000  0.31532000  1.0 -0.090868257
C  C157  1  0.69527000  0.51053000  0.81532000  1.0 -0.090868257
C  C158  1  0.30473000  0.48947000  0.81532000  1.0 -0.090868257
C  C159  1  0.48947000  0.30473000  0.18468000  1.0 -0.090868257
C  C160  1  0.51053000  0.69527000  0.18468000  1.0 -0.090868257
C  C161  1  0.81697000  0.04203000  0.70704000  1.0 -0.0128719452
C  C162  1  0.18303000  0.95797000  0.70704000  1.0 -0.02103976
C  C163  1  0.95797000  0.18303000  0.29296000  1.0 -0.0128719452
C  C164  1  0.04203000  0.81697000  0.29296000  1.0 -0.02103976
C  C165  1  0.68303000  0.45797000  0.79296000  1.0 -0.02103976
C  C166  1  0.31697000  0.54203000  0.79296000  1.0 -0.0128719452
C  C167  1  0.54203000  0.31697000  0.20704000  1.0 -0.0128719452
C  C168  1  0.45797000  0.68303000  0.20704000  1.0 -0.02103976
C  C169  1  0.75786000  0.01114000  0.73050000  1.0 -0.090868257
C  C170  1  0.24214000  0.98886000  0.73050000  1.0 -0.090868257
C  C171  1  0.98886000  0.24214000  0.26950000  1.0 -0.090868257
C  C172  1  0.01114000  0.75786000  0.26950000  1.0 -0.090868257
C  C173  1  0.74214000  0.48886000  0.76950000  1.0 -0.090868257
C  C174  1  0.25786000  0.51114000  0.76950000  1.0 -0.090868257
C  C175  1  0.51114000  0.25786000  0.23050000  1.0 -0.090868257
C  C176  1  0.48886000  0.74214000  0.23050000  1.0 -0.090868257
C  C177  1  0.68589000  0.92691000  0.73263000  1.0 -0.0387276325
C  C178  1  0.31411000  0.07309000  0.73263000  1.0 -0.0387276325
C  C179  1  0.07309000  0.31411000  0.26737000  1.0 -0.0387276325
C  C180  1  0.92691000  0.68589000  0.26737000  1.0 -0.0387276325
C  C181  1  0.81411000  0.57309000  0.76737000  1.0 -0.0387276325
C  C182  1  0.18589000  0.42691000  0.76737000  1.0 -0.0387276325
C  C183  1  0.42691000  0.18589000  0.23263000  1.0 -0.0387276325
C  C184  1  0.57309000  0.81411000  0.23263000  1.0 -0.0387276325
C  C185  1  0.67418000  0.87622000  0.70892000  1.0 -0.100489939
C  C186  1  0.32582000  0.12378000  0.70892000  1.0 -0.100489939
C  C187  1  0.12378000  0.32582000  0.29108000  1.0 -0.100489939
C  C188  1  0.87622000  0.67418000  0.29108000  1.0 -0.100489939
C  C189  1  0.82582000  0.62378000  0.79108000  1.0 -0.100489939
C  C190  1  0.17418000  0.37622000  0.79108000  1.0 -0.100489939
C  C191  1  0.37622000  0.17418000  0.20892000  1.0 -0.100489939
C  C192  1  0.62378000  0.82582000  0.20892000  1.0 -0.100489939
C  C193  1  0.71826000  0.85434000  0.65830000  1.0 0.5997143661
C  C194  1  0.28174000  0.14566000  0.65830000  1.0 0.5997143661
C  C195  1  0.14566000  0.28174000  0.34170000  1.0 0.5997143661
C  C196  1  0.85434000  0.71826000  0.34170000  1.0 0.5997143661
C  C197  1  0.78174000  0.64566000  0.84170000  1.0 0.5997143661
C  C198  1  0.21826000  0.35434000  0.84170000  1.0 0.5997143661
C  C199  1  0.35434000  0.21826000  0.15830000  1.0 0.5997143661
C  C200  1  0.64566000  0.78174000  0.15830000  1.0 0.5997143661
C  C201  1  0.89280000  0.13040000  0.70460000  1.0 0.5336356273
C  C202  1  0.10720000  0.86960000  0.70460000  1.0 0.5336356273
C  C203  1  0.86960000  0.10720000  0.29540000  1.0 0.5336356273
C  C204  1  0.13040000  0.89280000  0.29540000  1.0 0.5336356273
C  C205  1  0.60720000  0.36960000  0.79540000  1.0 0.5336356273
C  C206  1  0.39280000  0.63040000  0.79540000  1.0 0.5336356273
C  C207  1  0.63040000  0.39280000  0.20460000  1.0 0.5336356273
C  C208  1  0.36960000  0.60720000  0.20460000  1.0 0.5336356273
C  C209  1  0.62810000  0.89610000  0.76002000  1.0 0.5888618305
C  C210  1  0.37190000  0.10390000  0.76002000  1.0 0.5888618305
C  C211  1  0.10390000  0.37190000  0.23998000  1.0 0.5888618305
C  C212  1  0.89610000  0.62810000  0.23998000  1.0 0.5888618305
C  C213  1  0.87190000  0.60390000  0.73998000  1.0 0.5888618305
C  C214  1  0.12810000  0.39610000  0.73998000  1.0 0.5888618305
C  C215  1  0.39610000  0.12810000  0.26002000  1.0 0.5888618305
C  C216  1  0.60390000  0.87190000  0.26002000  1.0 0.5888618305
C  C217  1  0.22887000  0.39213000  0.63388000  1.0 -0.02103976
C  C218  1  0.77113000  0.60787000  0.63388000  1.0 -0.02103976
C  C219  1  0.60787000  0.77113000  0.36612000  1.0 -0.02103976
C  C220  1  0.39213000  0.22887000  0.36612000  1.0 -0.02103976
C  C221  1  0.27113000  0.10787000  0.86612000  1.0 -0.02103976
C  C222  1  0.72887000  0.89213000  0.86612000  1.0 -0.02103976
C  C223  1  0.89213000  0.72887000  0.13388000  1.0 -0.02103976
C  C224  1  0.10787000  0.27113000  0.13388000  1.0 -0.02103976
C  C225  1  0.21185000  0.32575000  0.62593000  1.0 -0.100489939
C  C226  1  0.78815000  0.67425000  0.62593000  1.0 -0.100489939
C  C227  1  0.67425000  0.78815000  0.37407000  1.0 -0.100489939
C  C228  1  0.32575000  0.21185000  0.37407000  1.0 -0.100489939
C  C229  1  0.28815000  0.17425000  0.87407000  1.0 -0.100489939
C  C230  1  0.71185000  0.82575000  0.87407000  1.0 -0.100489939
C  C231  1  0.82575000  0.71185000  0.12593000  1.0 -0.100489939
C  C232  1  0.17425000  0.28815000  0.12593000  1.0 -0.100489939
C  C233  1  0.27115000  0.33545000  0.61355000  1.0 -0.02103976
C  C234  1  0.72885000  0.66455000  0.61355000  1.0 -0.02103976
C  C235  1  0.66455000  0.72885000  0.38645000  1.0 -0.02103976
C  C236  1  0.33545000  0.27115000  0.38645000  1.0 -0.02103976
C  C237  1  0.22885000  0.16455000  0.88645000  1.0 -0.02103976
C  C238  1  0.77115000  0.83545000  0.88645000  1.0 -0.02103976
C  C239  1  0.83545000  0.77115000  0.11355000  1.0 -0.02103976
C  C240  1  0.16455000  0.22885000  0.11355000  1.0 -0.02103976
C  C241  1  0.34954000  0.41326000  0.60860000  1.0 -0.1129104483
C  C242  1  0.65046000  0.58674000  0.60860000  1.0 -0.1129104483
C  C243  1  0.58674000  0.65046000  0.39140000  1.0 -0.1129104483
C  C244  1  0.41326000  0.34954000  0.39140000  1.0 -0.1129104483
C  C245  1  0.15046000  0.08674000  0.89140000  1.0 -0.1129104483
C  C246  1  0.84954000  0.91326000  0.89140000  1.0 -0.1129104483
C  C247  1  0.91326000  0.84954000  0.10860000  1.0 -0.1129104483
C  C248  1  0.08674000  0.15046000  0.10860000  1.0 -0.1129104483
C  C249  1  0.36734000  0.48006000  0.61640000  1.0 -0.02103976
C  C250  1  0.63266000  0.51994000  0.61640000  1.0 -0.02103976
C  C251  1  0.51994000  0.63266000  0.38360000  1.0 -0.02103976
C  C252  1  0.48006000  0.36734000  0.38360000  1.0 -0.02103976
C  C253  1  0.13266000  0.01994000  0.88360000  1.0 -0.02103976
C  C254  1  0.86734000  0.98006000  0.88360000  1.0 -0.02103976
C  C255  1  0.98006000  0.86734000  0.11640000  1.0 -0.02103976
C  C256  1  0.01994000  0.13266000  0.11640000  1.0 -0.02103976
C  C257  1  0.30737000  0.46943000  0.62894000  1.0 -0.100489939
C  C258  1  0.69263000  0.53057000  0.62894000  1.0 -0.100489939
C  C259  1  0.53057000  0.69263000  0.37106000  1.0 -0.100489939
C  C260  1  0.46943000  0.30737000  0.37106000  1.0 -0.100489939
C  C261  1  0.19263000  0.03057000  0.87106000  1.0 -0.100489939
C  C262  1  0.80737000  0.96943000  0.87106000  1.0 -0.100489939
C  C263  1  0.96943000  0.80737000  0.12894000  1.0 -0.100489939
C  C264  1  0.03057000  0.19263000  0.12894000  1.0 -0.100489939
C  C265  1  0.16646000  0.38214000  0.64959000  1.0 0.5888618305
C  C266  1  0.83354000  0.61786000  0.64959000  1.0 0.5888618305
C  C267  1  0.61786000  0.83354000  0.35041000  1.0 0.5888618305
C  C268  1  0.38214000  0.16646000  0.35041000  1.0 0.5888618305
C  C269  1  0.33354000  0.11786000  0.85041000  1.0 0.5888618305
C  C270  1  0.66646000  0.88214000  0.85041000  1.0 0.5888618305
C  C271  1  0.88214000  0.66646000  0.14959000  1.0 0.5888618305
C  C272  1  0.11786000  0.33354000  0.14959000  1.0 0.5888618305
C  C273  1  0.25026000  0.26194000  0.60660000  1.0 0.5606129144
C  C274  1  0.74974000  0.73806000  0.60660000  1.0 0.5606129144
C  C275  1  0.73806000  0.74974000  0.39340000  1.0 0.5606129144
C  C276  1  0.26194000  0.25026000  0.39340000  1.0 0.5606129144
C  C277  1  0.24974000  0.23806000  0.89340000  1.0 0.5606129144
C  C278  1  0.75026000  0.76194000  0.89340000  1.0 0.5606129144
C  C279  1  0.76194000  0.75026000  0.10660000  1.0 0.5606129144
C  C280  1  0.23806000  0.24974000  0.10660000  1.0 0.5606129144
C  C281  1  0.45147000  0.56273000  0.61471000  1.0 0.5336356273
C  C282  1  0.54853000  0.43727000  0.61471000  1.0 0.5336356273
C  C283  1  0.43727000  0.54853000  0.38529000  1.0 0.5336356273
C  C284  1  0.56273000  0.45147000  0.38529000  1.0 0.5336356273
C  C285  1  0.04853000  0.93727000  0.88529000  1.0 0.5336356273
C  C286  1  0.95147000  0.06273000  0.88529000  1.0 0.5336356273
C  C287  1  0.06273000  0.95147000  0.11471000  1.0 0.5336356273
C  C288  1  0.93727000  0.04853000  0.11471000  1.0 0.5336356273
C  C289  1  0.97173000  0.10447000  0.43156000  1.0 0.2750963543
C  C290  1  0.02827000  0.89553000  0.43156000  1.0 0.2734980856
C  C291  1  0.89553000  0.02827000  0.56844000  1.0 0.2734980856
C  C292  1  0.10447000  0.97173000  0.56844000  1.0 0.2734980856
C  C293  1  0.52827000  0.39553000  0.06844000  1.0 0.2734980856
C  C294  1  0.47173000  0.60447000  0.06844000  1.0 0.2734980856
C  C295  1  0.60447000  0.47173000  0.93156000  1.0 0.2734980856
C  C296  1  0.39553000  0.52827000  0.93156000  1.0 0.2734980856
C  C297  1  0.85493000  0.06927000  0.45296000  1.0 -0.3215432155
C  C298  1  0.14507000  0.93073000  0.45296000  1.0 -0.3215432155
C  C299  1  0.93073000  0.14507000  0.54704000  1.0 -0.3215432155
C  C300  1  0.06927000  0.85493000  0.54704000  1.0 -0.3215432155
C  C301  1  0.64507000  0.43073000  0.04704000  1.0 -0.3215432155
C  C302  1  0.35493000  0.56927000  0.04704000  1.0 -0.3215432155
C  C303  1  0.56927000  0.35493000  0.95296000  1.0 -0.3215432155
C  C304  1  0.43073000  0.64507000  0.95296000  1.0 -0.3215432155
C  C305  1  0.84855000  0.00305000  0.40369000  1.0 -0.3111938562
C  C306  1  0.15145000  0.99695000  0.40369000  1.0 -0.3111938562
C  C307  1  0.99695000  0.15145000  0.59631000  1.0 -0.3111938562
C  C308  1  0.00305000  0.84855000  0.59631000  1.0 -0.3111938562
C  C309  1  0.65145000  0.49695000  0.09631000  1.0 -0.3111938562
C  C310  1  0.34855000  0.50305000  0.09631000  1.0 -0.3111938562
C  C311  1  0.50305000  0.34855000  0.90369000  1.0 -0.3111938562
C  C312  1  0.49695000  0.65145000  0.90369000  1.0 -0.3111938562
C  C313  1  0.30451000  0.62269000  0.66235000  1.0 0.3108978209
C  C314  1  0.69549000  0.37731000  0.66235000  1.0 0.3108978209
C  C315  1  0.37731000  0.69549000  0.33765000  1.0 0.3108978209
C  C316  1  0.62269000  0.30451000  0.33765000  1.0 0.3108978209
C  C317  1  0.19549000  0.87731000  0.83765000  1.0 0.3108978209
C  C318  1  0.80451000  0.12269000  0.83765000  1.0 0.3108978209
C  C319  1  0.12269000  0.80451000  0.16235000  1.0 0.3108978209
C  C320  1  0.87731000  0.19549000  0.16235000  1.0 0.3108978209
C  C321  1  0.42211000  0.71909000  0.69697000  1.0 -0.2943812932
C  C322  1  0.57789000  0.28091000  0.69697000  1.0 -0.2943812932
C  C323  1  0.28091000  0.57789000  0.30303000  1.0 -0.2943812932
C  C324  1  0.71909000  0.42211000  0.30303000  1.0 -0.2943812932
C  C325  1  0.07789000  0.78091000  0.80303000  1.0 -0.2943812932
C  C326  1  0.92211000  0.21909000  0.80303000  1.0 -0.2943812932
C  C327  1  0.21909000  0.92211000  0.19697000  1.0 -0.2943812932
C  C328  1  0.78091000  0.07789000  0.19697000  1.0 -0.2943812932
C  C329  1  0.43313000  0.72167000  0.63372000  1.0 -0.3215432155
C  C330  1  0.56687000  0.27833000  0.63372000  1.0 -0.3215432155
C  C331  1  0.27833000  0.56687000  0.36628000  1.0 -0.3215432155
C  C332  1  0.72167000  0.43313000  0.36628000  1.0 -0.3215432155
C  C333  1  0.06687000  0.77833000  0.86628000  1.0 -0.3215432155
C  C334  1  0.93313000  0.22167000  0.86628000  1.0 -0.3215432155
C  C335  1  0.22167000  0.93313000  0.13372000  1.0 -0.3215432155
C  C336  1  0.77833000  0.06687000  0.13372000  1.0 -0.3215432155
C  C337  1  0.22025000  0.26775000  0.51544000  1.0 -0.3638502869
C  C338  1  0.77975000  0.73225000  0.51544000  1.0 -0.3638502869
C  C339  1  0.73225000  0.77975000  0.48456000  1.0 -0.3638502869
C  C340  1  0.26775000  0.22025000  0.48456000  1.0 -0.3638502869
C  C341  1  0.27975000  0.23225000  0.98456000  1.0 -0.3638502869
C  C342  1  0.72025000  0.76775000  0.98456000  1.0 -0.3638502869
C  C343  1  0.76775000  0.72025000  0.01544000  1.0 -0.3638502869
C  C344  1  0.23225000  0.27975000  0.01544000  1.0 -0.3638502869
C  C345  1  0.14928000  0.20212000  0.49232000  1.0 0.0707892545
C  C346  1  0.85072000  0.79788000  0.49232000  1.0 0.0707892545
C  C347  1  0.79788000  0.85072000  0.50768000  1.0 0.0707892545
C  C348  1  0.20212000  0.14928000  0.50768000  1.0 0.0707892545
C  C349  1  0.35072000  0.29788000  0.00768000  1.0 0.0707892545
C  C350  1  0.64928000  0.70212000  0.00768000  1.0 0.0707892545
C  C351  1  0.70212000  0.64928000  0.99232000  1.0 0.0707892545
C  C352  1  0.29788000  0.35072000  0.99232000  1.0 0.0707892545
N  N1  1  0.89577000  0.06223000  0.43028000  1.0 0.01890934
N  N2  1  0.10423000  0.93777000  0.43028000  1.0 0.01890934
N  N3  1  0.93777000  0.10423000  0.56972000  1.0 0.01890934
N  N4  1  0.06223000  0.89577000  0.56972000  1.0 0.01890934
N  N5  1  0.60423000  0.43777000  0.06972000  1.0 0.01890934
N  N6  1  0.39577000  0.56223000  0.06972000  1.0 0.01890934
N  N7  1  0.56223000  0.39577000  0.93028000  1.0 0.01890934
N  N8  1  0.43777000  0.60423000  0.93028000  1.0 0.01890934
N  N9  1  0.38377000  0.68443000  0.66468000  1.0 0.0394512129
N  N10  1  0.61623000  0.31557000  0.66468000  1.0 0.0394512129
N  N11  1  0.31557000  0.61623000  0.33532000  1.0 0.0394512129
N  N12  1  0.68443000  0.38377000  0.33532000  1.0 0.0394512129
N  N13  1  0.11623000  0.81557000  0.83532000  1.0 0.0394512129
N  N14  1  0.88377000  0.18443000  0.83532000  1.0 0.0394512129
N  N15  1  0.18443000  0.88377000  0.16468000  1.0 0.0394512129
N  N16  1  0.81557000  0.11623000  0.16468000  1.0 0.0394512129
O  O1  1  0.01110000  0.35490000  0.67535000  1.0 -0.588395151
O  O2  1  0.98890000  0.64510000  0.67535000  1.0 -0.588395151
O  O3  1  0.64510000  0.98890000  0.32465000  1.0 -0.588395151
O  O4  1  0.35490000  0.01110000  0.32465000  1.0 -0.588395151
O  O5  1  0.48890000  0.14510000  0.82465000  1.0 -0.588395151
O  O6  1  0.51110000  0.85490000  0.82465000  1.0 -0.588395151
O  O7  1  0.85490000  0.51110000  0.17535000  1.0 -0.588395151
O  O8  1  0.14510000  0.48890000  0.17535000  1.0 -0.588395151
O  O9  1  0.93871000  0.24629000  0.64394000  1.0 -0.4828560521
O  O10  1  0.06129000  0.75371000  0.64394000  1.0 -0.4828560521
O  O11  1  0.75371000  0.06129000  0.35606000  1.0 -0.4828560521
O  O12  1  0.24629000  0.93871000  0.35606000  1.0 -0.4828560521
O  O13  1  0.56129000  0.25371000  0.85606000  1.0 -0.4828560521
O  O14  1  0.43871000  0.74629000  0.85606000  1.0 -0.4828560521
O  O15  1  0.74629000  0.43871000  0.14394000  1.0 -0.4828560521
O  O16  1  0.25371000  0.56129000  0.14394000  1.0 -0.4828560521
O  O17  1  0.78911000  0.21409000  0.54359000  1.0 -0.5487804051
O  O18  1  0.21089000  0.78591000  0.54359000  1.0 -0.5487804051
O  O19  1  0.78591000  0.21089000  0.45641000  1.0 -0.5487804051
O  O20  1  0.21409000  0.78911000  0.45641000  1.0 -0.5487804051
O  O21  1  0.71089000  0.28591000  0.95641000  1.0 -0.5487804051
O  O22  1  0.28911000  0.71409000  0.95641000  1.0 -0.5487804051
O  O23  1  0.71409000  0.28911000  0.04359000  1.0 -0.5487804051
O  O24  1  0.28591000  0.71089000  0.04359000  1.0 -0.5487804051
O  O25  1  0.79267000  0.30693000  0.53670000  1.0 -0.5023371304
O  O26  1  0.20733000  0.69307000  0.53670000  1.0 -0.5023371304
O  O27  1  0.69307000  0.20733000  0.46330000  1.0 -0.5023371304
O  O28  1  0.30693000  0.79267000  0.46330000  1.0 -0.5023371304
O  O29  1  0.70733000  0.19307000  0.96330000  1.0 -0.5023371304
O  O30  1  0.29267000  0.80693000  0.96330000  1.0 -0.5023371304
O  O31  1  0.80693000  0.29267000  0.03670000  1.0 -0.5023371304
O  O32  1  0.19307000  0.70733000  0.03670000  1.0 -0.5023371304
O  O33  1  0.86670000  0.47890000  0.63352000  1.0 -0.5399225214
O  O34  1  0.13330000  0.52110000  0.63352000  1.0 -0.5399225214
O  O35  1  0.52110000  0.13330000  0.36648000  1.0 -0.5399225214
O  O36  1  0.47890000  0.86670000  0.36648000  1.0 -0.5399225214
O  O37  1  0.63330000  0.02110000  0.86648000  1.0 -0.5399225214
O  O38  1  0.36670000  0.97890000  0.86648000  1.0 -0.5399225214
O  O39  1  0.97890000  0.36670000  0.13352000  1.0 -0.5399225214
O  O40  1  0.02110000  0.63330000  0.13352000  1.0 -0.5399225214
O  O41  1  0.90001000  0.46619000  0.68222000  1.0 -0.5023371304
O  O42  1  0.09999000  0.53381000  0.68222000  1.0 -0.5023371304
O  O43  1  0.53381000  0.09999000  0.31778000  1.0 -0.5023371304
O  O44  1  0.46619000  0.90001000  0.31778000  1.0 -0.5023371304
O  O45  1  0.59999000  0.03381000  0.81778000  1.0 -0.5023371304
O  O46  1  0.40001000  0.96619000  0.81778000  1.0 -0.5023371304
O  O47  1  0.96619000  0.40001000  0.18222000  1.0 -0.5023371304
O  O48  1  0.03381000  0.59999000  0.18222000  1.0 -0.5023371304
O  O49  1  0.93658000  0.32662000  0.50120000  1.0 -0.450242245
O  O50  1  0.06342000  0.67338000  0.50120000  1.0 -0.450242245
O  O51  1  0.67338000  0.06342000  0.49880000  1.0 -0.450242245
O  O52  1  0.32662000  0.93658000  0.49880000  1.0 -0.450242245
O  O53  1  0.56342000  0.17338000  0.99880000  1.0 -0.450242245
O  O54  1  0.43658000  0.82662000  0.99880000  1.0 -0.450242245
O  O55  1  0.82662000  0.43658000  0.00120000  1.0 -0.450242245
O  O56  1  0.17338000  0.56342000  0.00120000  1.0 -0.450242245
O  O57  1  0.91380000  0.23040000  0.48190000  1.0 -0.4828560521
O  O58  1  0.08620000  0.76960000  0.48190000  1.0 -0.4828560521
O  O59  1  0.76960000  0.08620000  0.51810000  1.0 -0.4828560521
O  O60  1  0.23040000  0.91380000  0.51810000  1.0 -0.4828560521
O  O61  1  0.58620000  0.26960000  0.01810000  1.0 -0.4828560521
O  O62  1  0.41380000  0.73040000  0.01810000  1.0 -0.4828560521
O  O63  1  0.73040000  0.41380000  0.98190000  1.0 -0.4828560521
O  O64  1  0.26960000  0.58620000  0.98190000  1.0 -0.4828560521
O  O65  1  0.12581000  0.28579000  0.42061000  1.0 -0.5718503545
O  O66  1  0.87419000  0.71421000  0.42061000  1.0 -0.5718503545
O  O67  1  0.71421000  0.87419000  0.57939000  1.0 -0.5718503545
O  O68  1  0.28579000  0.12581000  0.57939000  1.0 -0.5718503545
O  O69  1  0.37419000  0.21421000  0.07939000  1.0 -0.5718503545
O  O70  1  0.62581000  0.78579000  0.07939000  1.0 -0.5718503545
O  O71  1  0.78579000  0.62581000  0.92061000  1.0 -0.5718503545
O  O72  1  0.21421000  0.37419000  0.92061000  1.0 -0.5718503545
O  O73  1  0.25219000  0.41101000  0.41882000  1.0 -0.5338330294
O  O74  1  0.74781000  0.58899000  0.41882000  1.0 -0.5338330294
O  O75  1  0.58899000  0.74781000  0.58118000  1.0 -0.5338330294
O  O76  1  0.41101000  0.25219000  0.58118000  1.0 -0.5338330294
O  O77  1  0.24781000  0.08899000  0.08118000  1.0 -0.5338330294
O  O78  1  0.75219000  0.91101000  0.08118000  1.0 -0.5338330294
O  O79  1  0.91101000  0.75219000  0.91882000  1.0 -0.5338330294
O  O80  1  0.08899000  0.24781000  0.91882000  1.0 -0.5338330294
O  O81  1  0.30050000  0.63750000  0.45850000  1.0 -0.450242245
O  O82  1  0.69950000  0.36250000  0.45850000  1.0 -0.450242245
O  O83  1  0.36250000  0.69950000  0.54150000  1.0 -0.450242245
O  O84  1  0.63750000  0.30050000  0.54150000  1.0 -0.450242245
O  O85  1  0.19950000  0.86250000  0.04150000  1.0 -0.450242245
O  O86  1  0.80050000  0.13750000  0.04150000  1.0 -0.450242245
O  O87  1  0.13750000  0.80050000  0.95850000  1.0 -0.450242245
O  O88  1  0.86250000  0.19950000  0.95850000  1.0 -0.450242245
O  O89  1  0.20349000  0.60911000  0.48527000  1.0 -0.4857280663
O  O90  1  0.79651000  0.39089000  0.48527000  1.0 -0.4857280663
O  O91  1  0.39089000  0.79651000  0.51473000  1.0 -0.4857280663
O  O92  1  0.60911000  0.20349000  0.51473000  1.0 -0.4857280663
O  O93  1  0.29651000  0.89089000  0.01473000  1.0 -0.4857280663
O  O94  1  0.70349000  0.10911000  0.01473000  1.0 -0.4857280663
O  O95  1  0.10911000  0.70349000  0.98527000  1.0 -0.4828560521
O  O96  1  0.89089000  0.29651000  0.98527000  1.0 -0.4857280663
O  O97  1  0.64630000  0.78830000  0.65217000  1.0 -0.5718503545
O  O98  1  0.35370000  0.21170000  0.65217000  1.0 -0.5718503545
O  O99  1  0.21170000  0.35370000  0.34783000  1.0 -0.5718503545
O  O100  1  0.78830000  0.64630000  0.34783000  1.0 -0.5718503545
O  O101  1  0.85370000  0.71170000  0.84783000  1.0 -0.5718503545
O  O102  1  0.14630000  0.28830000  0.84783000  1.0 -0.5718503545
O  O103  1  0.28830000  0.14630000  0.15217000  1.0 -0.5718503545
O  O104  1  0.71170000  0.85370000  0.15217000  1.0 -0.5718503545
O  O105  1  0.78038000  0.88162000  0.64316000  1.0 -0.5399225214
O  O106  1  0.21962000  0.11838000  0.64316000  1.0 -0.5399225214
O  O107  1  0.11838000  0.21962000  0.35684000  1.0 -0.5399225214
O  O108  1  0.88162000  0.78038000  0.35684000  1.0 -0.5399225214
O  O109  1  0.71962000  0.61838000  0.85684000  1.0 -0.5399225214
O  O110  1  0.28038000  0.38162000  0.85684000  1.0 -0.5399225214
O  O111  1  0.38162000  0.28038000  0.14316000  1.0 -0.5399225214
O  O112  1  0.61838000  0.71962000  0.14316000  1.0 -0.5399225214
O  O113  1  0.95220000  0.15400000  0.68933000  1.0 -0.5023371304
O  O114  1  0.04780000  0.84600000  0.68933000  1.0 -0.5023371304
O  O115  1  0.84600000  0.04780000  0.31067000  1.0 -0.5023371304
O  O116  1  0.15400000  0.95220000  0.31067000  1.0 -0.5023371304
O  O117  1  0.54780000  0.34600000  0.81067000  1.0 -0.5023371304
O  O118  1  0.45220000  0.65400000  0.81067000  1.0 -0.5023371304
O  O119  1  0.65400000  0.45220000  0.18933000  1.0 -0.5023371304
O  O120  1  0.34600000  0.54780000  0.18933000  1.0 -0.5023371304
O  O121  1  0.89477000  0.17983000  0.71669000  1.0 -0.5221388365
O  O122  1  0.10523000  0.82017000  0.71669000  1.0 -0.5221388365
O  O123  1  0.82017000  0.10523000  0.28331000  1.0 -0.5221388365
O  O124  1  0.17983000  0.89477000  0.28331000  1.0 -0.5221388365
O  O125  1  0.60523000  0.32017000  0.78331000  1.0 -0.5221388365
O  O126  1  0.39477000  0.67983000  0.78331000  1.0 -0.5221388365
O  O127  1  0.67983000  0.39477000  0.21669000  1.0 -0.5221388365
O  O128  1  0.32017000  0.60523000  0.21669000  1.0 -0.5221388365
O  O129  1  0.63156000  0.94524000  0.77377000  1.0 -0.5487804051
O  O130  1  0.36844000  0.05476000  0.77377000  1.0 -0.5487804051
O  O131  1  0.05476000  0.36844000  0.22623000  1.0 -0.5487804051
O  O132  1  0.94524000  0.63156000  0.22623000  1.0 -0.5487804051
O  O133  1  0.86844000  0.55476000  0.72623000  1.0 -0.5487804051
O  O134  1  0.13156000  0.44524000  0.72623000  1.0 -0.5487804051
O  O135  1  0.44524000  0.13156000  0.27377000  1.0 -0.5487804051
O  O136  1  0.55476000  0.86844000  0.27377000  1.0 -0.5487804051
O  O137  1  0.57866000  0.82294000  0.76802000  1.0 -0.5338330294
O  O138  1  0.42134000  0.17706000  0.76802000  1.0 -0.5338330294
O  O139  1  0.17706000  0.42134000  0.23198000  1.0 -0.5338330294
O  O140  1  0.82294000  0.57866000  0.23198000  1.0 -0.5338330294
O  O141  1  0.92134000  0.67706000  0.73198000  1.0 -0.5338330294
O  O142  1  0.07866000  0.32294000  0.73198000  1.0 -0.5338330294
O  O143  1  0.32294000  0.07866000  0.26802000  1.0 -0.5338330294
O  O144  1  0.67706000  0.92134000  0.26802000  1.0 -0.5338330294
O  O145  1  0.10073000  0.31047000  0.65733000  1.0 -0.5399225214
O  O146  1  0.89927000  0.68953000  0.65733000  1.0 -0.5399225214
O  O147  1  0.68953000  0.89927000  0.34267000  1.0 -0.5399225214
O  O148  1  0.31047000  0.10073000  0.34267000  1.0 -0.5399225214
O  O149  1  0.39927000  0.18953000  0.84267000  1.0 -0.5399225214
O  O150  1  0.60073000  0.81047000  0.84267000  1.0 -0.5399225214
O  O151  1  0.81047000  0.60073000  0.15733000  1.0 -0.5399225214
O  O152  1  0.18953000  0.39927000  0.15733000  1.0 -0.5399225214
O  O153  1  0.18283000  0.44297000  0.65475000  1.0 -0.5625282849
O  O154  1  0.81717000  0.55703000  0.65475000  1.0 -0.5625282849
O  O155  1  0.55703000  0.81717000  0.34525000  1.0 -0.5625282849
O  O156  1  0.44297000  0.18283000  0.34525000  1.0 -0.5625282849
O  O157  1  0.31717000  0.05703000  0.84525000  1.0 -0.5625282849
O  O158  1  0.68283000  0.94297000  0.84525000  1.0 -0.5625282849
O  O159  1  0.94297000  0.68283000  0.15475000  1.0 -0.5625282849
O  O160  1  0.05703000  0.31717000  0.15475000  1.0 -0.5625282849
O  O161  1  0.17843000  0.19257000  0.60820000  1.0 -0.5110122512
O  O162  1  0.82157000  0.80743000  0.60820000  1.0 -0.5110122512
O  O163  1  0.80743000  0.82157000  0.39180000  1.0 -0.5110122512
O  O164  1  0.19257000  0.17843000  0.39180000  1.0 -0.5110122512
O  O165  1  0.32157000  0.30743000  0.89180000  1.0 -0.5110122512
O  O166  1  0.67843000  0.69257000  0.89180000  1.0 -0.5110122512
O  O167  1  0.69257000  0.67843000  0.10820000  1.0 -0.5110122512
O  O168  1  0.30743000  0.32157000  0.10820000  1.0 -0.5110122512
O  O169  1  0.30594000  0.26886000  0.59826000  1.0 -0.5961607422
O  O170  1  0.69406000  0.73114000  0.59826000  1.0 -0.5961607422
O  O171  1  0.73114000  0.69406000  0.40174000  1.0 -0.5961607422
O  O172  1  0.26886000  0.30594000  0.40174000  1.0 -0.5961607422
O  O173  1  0.19406000  0.23114000  0.90174000  1.0 -0.5961607422
O  O174  1  0.80594000  0.76886000  0.90174000  1.0 -0.5961607422
O  O175  1  0.76886000  0.80594000  0.09826000  1.0 -0.5961607422
O  O176  1  0.23114000  0.19406000  0.09826000  1.0 -0.5961607422
O  O177  1  0.50400000  0.57600000  0.59694000  1.0 -0.5399225214
O  O178  1  0.49600000  0.42400000  0.59694000  1.0 -0.5399225214
O  O179  1  0.42400000  0.49600000  0.40306000  1.0 -0.5399225214
O  O180  1  0.57600000  0.50400000  0.40306000  1.0 -0.5399225214
O  O181  1  0.99600000  0.92400000  0.90306000  1.0 -0.5399225214
O  O182  1  0.00400000  0.07600000  0.90306000  1.0 -0.5399225214
O  O183  1  0.07600000  0.00400000  0.09694000  1.0 -0.5399225214
O  O184  1  0.92400000  0.99600000  0.09694000  1.0 -0.5399225214
O  O185  1  0.47076000  0.61784000  0.63201000  1.0 -0.5487804051
O  O186  1  0.52924000  0.38216000  0.63201000  1.0 -0.5399225214
O  O187  1  0.38216000  0.52924000  0.36799000  1.0 -0.5487804051
O  O188  1  0.61784000  0.47076000  0.36799000  1.0 -0.5399225214
O  O189  1  0.02924000  0.88216000  0.86799000  1.0 -0.5487804051
O  O190  1  0.97076000  0.11784000  0.86799000  1.0 -0.5399225214
O  O191  1  0.11784000  0.97076000  0.13201000  1.0 -0.5487804051
O  O192  1  0.88216000  0.02924000  0.13201000  1.0 -0.5399225214
O  O193  1  0.35431000  0.39989000  0.33718000  1.0 -0.6179980959
O  O194  1  0.64569000  0.60011000  0.33718000  1.0 -0.6179980959
O  O195  1  0.60011000  0.64569000  0.66282000  1.0 -0.6179980959
O  O196  1  0.39989000  0.35431000  0.66282000  1.0 -0.6179980959
O  O197  1  0.14569000  0.10011000  0.16282000  1.0 -0.6179980959
O  O198  1  0.85431000  0.89989000  0.16282000  1.0 -0.6179980959
O  O199  1  0.89989000  0.85431000  0.83718000  1.0 -0.6179980959
O  O200  1  0.10011000  0.14569000  0.83718000  1.0 -0.6179980959
O  O201  1  0.01507000  0.10573000  0.41444000  1.0 -0.450242245
O  O202  1  0.98493000  0.89427000  0.41444000  1.0 -0.450242245
O  O203  1  0.89427000  0.98493000  0.58556000  1.0 -0.450242245
O  O204  1  0.10573000  0.01507000  0.58556000  1.0 -0.450242245
O  O205  1  0.48493000  0.39427000  0.08556000  1.0 -0.450242245
O  O206  1  0.51507000  0.60573000  0.08556000  1.0 -0.450242245
O  O207  1  0.60573000  0.51507000  0.91444000  1.0 -0.450242245
O  O208  1  0.39427000  0.48493000  0.91444000  1.0 -0.450242245
O  O209  1  0.25673000  0.58727000  0.68667000  1.0 -0.4327607999
O  O210  1  0.74327000  0.41273000  0.68667000  1.0 -0.4327607999
O  O211  1  0.41273000  0.74327000  0.31333000  1.0 -0.4327607999
O  O212  1  0.58727000  0.25673000  0.31333000  1.0 -0.4327607999
O  O213  1  0.24327000  0.91273000  0.81333000  1.0 -0.4327607999
O  O214  1  0.75673000  0.08727000  0.81333000  1.0 -0.4327607999
O  O215  1  0.08727000  0.75673000  0.18667000  1.0 -0.4327607999
O  O216  1  0.91273000  0.24327000  0.18667000  1.0 -0.4327607999
O  O217  1  0.14200000  0.19480000  0.45523000  1.0 -0.4828560521
O  O218  1  0.85800000  0.80520000  0.45523000  1.0 -0.4828560521
O  O219  1  0.80520000  0.85800000  0.54477000  1.0 -0.4828560521
O  O220  1  0.19480000  0.14200000  0.54477000  1.0 -0.4828560521
O  O221  1  0.35800000  0.30520000  0.04477000  1.0 -0.4828560521
O  O222  1  0.64200000  0.69480000  0.04477000  1.0 -0.4828560521
O  O223  1  0.69480000  0.64200000  0.95523000  1.0 -0.4828560521
O  O224  1  0.30520000  0.35800000  0.95523000  1.0 -0.4828560521
