# DDEC6 charges by PACMAN v1.1 (https://github.com/mtap-research/PACMAN-charge/)
data_DUWBEE_ASR_pacman
_symmetry_space_group_name_H-M   'P 1'
_cell_length_a   19.51300000
_cell_length_b   26.70630000
_cell_length_c   28.89380000
_cell_angle_alpha   90.00000000
_cell_angle_beta   90.00000000
_cell_angle_gamma   90.00000000
_symmetry_Int_Tables_number   1
_chemical_formula_structural   CdH3(C2O)4
_chemical_formula_sum   'Cd32 H96 C256 O128'
_cell_volume   15057.13797771
_cell_formula_units_Z   32
loop_
 _symmetry_equiv_pos_site_id
 _symmetry_equiv_pos_as_xyz
  1  'x, y, z'
loop_
 _atom_site_type_symbol
 _atom_site_label
 _atom_site_symmetry_multiplicity
 _atom_site_fract_x
 _atom_site_fract_y
 _atom_site_fract_z
 _atom_site_occupancy
 _atom_site_charge
Cd  Cd1  1  0.72844000  0.52018000  0.01550000  1.0 1.0043381759
Cd  Cd2  1  0.77156000  0.97982000  0.51550000  1.0 1.0043381759
Cd  Cd3  1  0.77156000  0.02018000  0.98450000  1.0 1.0043381759
Cd  Cd4  1  0.72844000  0.47982000  0.48450000  1.0 1.0043381759
Cd  Cd5  1  0.27156000  0.47982000  0.98450000  1.0 1.0043381759
Cd  Cd6  1  0.22844000  0.02018000  0.48450000  1.0 1.0043381759
Cd  Cd7  1  0.22844000  0.97982000  0.01550000  1.0 1.0043381759
Cd  Cd8  1  0.27156000  0.52018000  0.51550000  1.0 1.0043381759
Cd  Cd9  1  0.86889000  0.46481000  0.07853000  1.0 1.1158577659
Cd  Cd10  1  0.63111000  0.03519000  0.57853000  1.0 1.1158577659
Cd  Cd11  1  0.63111000  0.96481000  0.92147000  1.0 1.1158577659
Cd  Cd12  1  0.86889000  0.53519000  0.42147000  1.0 1.1158577659
Cd  Cd13  1  0.13111000  0.53519000  0.92147000  1.0 1.1158577659
Cd  Cd14  1  0.36889000  0.96481000  0.42147000  1.0 1.1158577659
Cd  Cd15  1  0.36889000  0.03519000  0.07853000  1.0 1.1158577659
Cd  Cd16  1  0.13111000  0.46481000  0.57853000  1.0 1.1158577659
Cd  Cd17  1  0.87874000  0.84745000  0.20438000  1.0 1.1109120259
Cd  Cd18  1  0.62126000  0.65255000  0.70438000  1.0 1.1109120259
Cd  Cd19  1  0.62126000  0.34745000  0.79562000  1.0 1.1109120259
Cd  Cd20  1  0.87874000  0.15255000  0.29562000  1.0 1.1109120259
Cd  Cd21  1  0.12126000  0.15255000  0.79562000  1.0 1.1109120259
Cd  Cd22  1  0.37874000  0.34745000  0.29562000  1.0 1.1109120259
Cd  Cd23  1  0.37874000  0.65255000  0.20438000  1.0 1.1109120259
Cd  Cd24  1  0.12126000  0.84745000  0.70438000  1.0 1.1109120259
Cd  Cd25  1  0.74367000  0.76401000  0.24557000  1.0 1.0183006981
Cd  Cd26  1  0.75633000  0.73599000  0.74557000  1.0 1.0183006981
Cd  Cd27  1  0.75633000  0.26401000  0.75443000  1.0 1.0183006981
Cd  Cd28  1  0.74367000  0.23599000  0.25443000  1.0 1.0183006981
Cd  Cd29  1  0.25633000  0.23599000  0.75443000  1.0 1.0183006981
Cd  Cd30  1  0.24367000  0.26401000  0.25443000  1.0 1.0183006981
Cd  Cd31  1  0.24367000  0.73599000  0.24557000  1.0 1.0183006981
Cd  Cd32  1  0.25633000  0.76401000  0.74557000  1.0 1.0183006981
H  H1  1  0.26370000  0.62170000  0.84960000  1.0 0.1188339293
H  H2  1  0.23630000  0.87830000  0.34960000  1.0 0.1188339293
H  H3  1  0.23630000  0.12170000  0.15040000  1.0 0.1188339293
H  H4  1  0.26370000  0.37830000  0.65040000  1.0 0.1188339293
H  H5  1  0.73630000  0.37830000  0.15040000  1.0 0.1188339293
H  H6  1  0.76370000  0.12170000  0.65040000  1.0 0.1188339293
H  H7  1  0.76370000  0.87830000  0.84960000  1.0 0.1188339293
H  H8  1  0.73630000  0.62170000  0.34960000  1.0 0.1188339293
H  H9  1  0.44730000  0.68160000  0.81610000  1.0 0.1114923109
H  H10  1  0.05270000  0.81840000  0.31610000  1.0 0.1114923109
H  H11  1  0.05270000  0.18160000  0.18390000  1.0 0.1114923109
H  H12  1  0.44730000  0.31840000  0.68390000  1.0 0.1114923109
H  H13  1  0.55270000  0.31840000  0.18390000  1.0 0.1114923109
H  H14  1  0.94730000  0.18160000  0.68390000  1.0 0.1114923109
H  H15  1  0.94730000  0.81840000  0.81610000  1.0 0.1114923109
H  H16  1  0.55270000  0.68160000  0.31610000  1.0 0.1114923109
H  H17  1  0.43700000  0.56950000  0.90950000  1.0 0.1188339293
H  H18  1  0.06300000  0.93050000  0.40950000  1.0 0.1188339293
H  H19  1  0.06300000  0.06950000  0.09050000  1.0 0.1188339293
H  H20  1  0.43700000  0.43050000  0.59050000  1.0 0.1188339293
H  H21  1  0.56300000  0.43050000  0.09050000  1.0 0.1188339293
H  H22  1  0.93700000  0.06950000  0.59050000  1.0 0.1188339293
H  H23  1  0.93700000  0.93050000  0.90950000  1.0 0.1188339293
H  H24  1  0.56300000  0.56950000  0.40950000  1.0 0.1188339293
H  H25  1  0.55140000  0.66710000  0.81080000  1.0 0.0988796707
H  H26  1  0.94860000  0.83290000  0.31080000  1.0 0.0988796707
H  H27  1  0.94860000  0.16710000  0.18920000  1.0 0.0988796707
H  H28  1  0.55140000  0.33290000  0.68920000  1.0 0.0988796707
H  H29  1  0.44860000  0.33290000  0.18920000  1.0 0.0988796707
H  H30  1  0.05140000  0.16710000  0.68920000  1.0 0.0988796707
H  H31  1  0.05140000  0.83290000  0.81080000  1.0 0.0988796707
H  H32  1  0.44860000  0.66710000  0.31080000  1.0 0.0988796707
H  H33  1  0.72170000  0.63340000  0.88510000  1.0 0.1310237953
H  H34  1  0.77830000  0.86660000  0.38510000  1.0 0.1310237953
H  H35  1  0.77830000  0.13340000  0.11490000  1.0 0.1310237953
H  H36  1  0.72170000  0.36660000  0.61490000  1.0 0.1310237953
H  H37  1  0.27830000  0.36660000  0.11490000  1.0 0.1310237953
H  H38  1  0.22170000  0.13340000  0.61490000  1.0 0.1310237953
H  H39  1  0.22170000  0.86660000  0.88510000  1.0 0.1310237953
H  H40  1  0.27830000  0.63340000  0.38510000  1.0 0.1310237953
H  H41  1  0.53510000  0.58750000  0.92940000  1.0 0.1188339293
H  H42  1  0.96490000  0.91250000  0.42940000  1.0 0.1188339293
H  H43  1  0.96490000  0.08750000  0.07060000  1.0 0.1188339293
H  H44  1  0.53510000  0.41250000  0.57060000  1.0 0.1188339293
H  H45  1  0.46490000  0.41250000  0.07060000  1.0 0.1188339293
H  H46  1  0.03510000  0.08750000  0.57060000  1.0 0.1188339293
H  H47  1  0.03510000  0.91250000  0.92940000  1.0 0.1188339293
H  H48  1  0.46490000  0.58750000  0.42940000  1.0 0.1188339293
H  H49  1  0.78310000  0.66180000  0.12500000  1.0 0.1310237953
H  H50  1  0.71690000  0.83820000  0.62500000  1.0 0.1310237953
H  H51  1  0.71690000  0.16180000  0.87500000  1.0 0.1310237953
H  H52  1  0.78310000  0.33820000  0.37500000  1.0 0.1310237953
H  H53  1  0.21690000  0.33820000  0.87500000  1.0 0.1310237953
H  H54  1  0.28310000  0.16180000  0.37500000  1.0 0.1310237953
H  H55  1  0.28310000  0.83820000  0.12500000  1.0 0.1310237953
H  H56  1  0.21690000  0.66180000  0.62500000  1.0 0.1310237953
H  H57  1  0.97900000  0.70450000  0.14930000  1.0 0.1114923109
H  H58  1  0.52100000  0.79550000  0.64930000  1.0 0.1114923109
H  H59  1  0.52100000  0.20450000  0.85070000  1.0 0.1114923109
H  H60  1  0.97900000  0.29550000  0.35070000  1.0 0.1114923109
H  H61  1  0.02100000  0.29550000  0.85070000  1.0 0.1114923109
H  H62  1  0.47900000  0.20450000  0.35070000  1.0 0.1114923109
H  H63  1  0.47900000  0.79550000  0.14930000  1.0 0.1114923109
H  H64  1  0.02100000  0.70450000  0.64930000  1.0 0.1114923109
H  H65  1  0.93980000  0.57740000  0.07700000  1.0 0.0988796707
H  H66  1  0.56020000  0.92260000  0.57700000  1.0 0.0988796707
H  H67  1  0.56020000  0.07740000  0.92300000  1.0 0.0988796707
H  H68  1  0.93980000  0.42260000  0.42300000  1.0 0.0988796707
H  H69  1  0.06020000  0.42260000  0.92300000  1.0 0.0988796707
H  H70  1  0.43980000  0.07740000  0.42300000  1.0 0.0988796707
H  H71  1  0.43980000  0.92260000  0.07700000  1.0 0.0988796707
H  H72  1  0.06020000  0.57740000  0.57700000  1.0 0.0988796707
H  H73  1  0.04320000  0.59140000  0.04770000  1.0 0.1114923109
H  H74  1  0.45680000  0.90860000  0.54770000  1.0 0.1114923109
H  H75  1  0.45680000  0.09140000  0.95230000  1.0 0.1114923109
H  H76  1  0.04320000  0.40860000  0.45230000  1.0 0.1114923109
H  H77  1  0.95680000  0.40860000  0.95230000  1.0 0.1114923109
H  H78  1  0.54320000  0.09140000  0.45230000  1.0 0.1114923109
H  H79  1  0.54320000  0.90860000  0.04770000  1.0 0.1114923109
H  H80  1  0.95680000  0.59140000  0.54770000  1.0 0.1114923109
H  H81  1  0.23210000  0.59060000  0.10520000  1.0 0.1310237953
H  H82  1  0.26790000  0.90940000  0.60520000  1.0 0.1310237953
H  H83  1  0.26790000  0.09060000  0.89480000  1.0 0.1310237953
H  H84  1  0.23210000  0.40940000  0.39480000  1.0 0.1310237953
H  H85  1  0.76790000  0.40940000  0.89480000  1.0 0.1310237953
H  H86  1  0.73210000  0.09060000  0.39480000  1.0 0.1310237953
H  H87  1  0.73210000  0.90940000  0.10520000  1.0 0.1310237953
H  H88  1  0.76790000  0.59060000  0.60520000  1.0 0.1310237953
H  H89  1  0.07660000  0.66300000  0.16920000  1.0 0.1188339293
H  H90  1  0.42340000  0.83700000  0.66920000  1.0 0.1188339293
H  H91  1  0.42340000  0.16300000  0.83080000  1.0 0.1188339293
H  H92  1  0.07660000  0.33700000  0.33080000  1.0 0.1188339293
H  H93  1  0.92340000  0.33700000  0.83080000  1.0 0.1188339293
H  H94  1  0.57660000  0.16300000  0.33080000  1.0 0.1188339293
H  H95  1  0.57660000  0.83700000  0.16920000  1.0 0.1188339293
H  H96  1  0.92340000  0.66300000  0.66920000  1.0 0.1188339293
C  C1  1  0.30280000  0.55601000  0.91375000  1.0 0.601928465
C  C2  1  0.19720000  0.94399000  0.41375000  1.0 0.601928465
C  C3  1  0.19720000  0.05601000  0.08625000  1.0 0.601928465
C  C4  1  0.30280000  0.44399000  0.58625000  1.0 0.601928465
C  C5  1  0.69720000  0.44399000  0.08625000  1.0 0.601928465
C  C6  1  0.80280000  0.05601000  0.58625000  1.0 0.601928465
C  C7  1  0.80280000  0.94399000  0.91375000  1.0 0.601928465
C  C8  1  0.69720000  0.55601000  0.41375000  1.0 0.601928465
C  C9  1  0.34420000  0.59121000  0.88414000  1.0 -0.018171081
C  C10  1  0.15580000  0.90879000  0.38414000  1.0 -0.018171081
C  C11  1  0.15580000  0.09121000  0.11586000  1.0 -0.018171081
C  C12  1  0.34420000  0.40879000  0.61586000  1.0 -0.018171081
C  C13  1  0.65580000  0.40879000  0.11586000  1.0 -0.018171081
C  C14  1  0.84420000  0.09121000  0.61586000  1.0 -0.018171081
C  C15  1  0.84420000  0.90879000  0.88414000  1.0 -0.018171081
C  C16  1  0.65580000  0.59121000  0.38414000  1.0 -0.018171081
C  C17  1  0.31210000  0.62287000  0.85319000  1.0 -0.0922994933
C  C18  1  0.18790000  0.87713000  0.35319000  1.0 -0.0922994933
C  C19  1  0.18790000  0.12287000  0.14681000  1.0 -0.0922994933
C  C20  1  0.31210000  0.37713000  0.64681000  1.0 -0.0922994933
C  C21  1  0.68790000  0.37713000  0.14681000  1.0 -0.0922994933
C  C22  1  0.81210000  0.12287000  0.64681000  1.0 -0.0922994933
C  C23  1  0.81210000  0.87713000  0.85319000  1.0 -0.0922994933
C  C24  1  0.68790000  0.62287000  0.35319000  1.0 -0.0922994933
C  C25  1  0.35090000  0.65662000  0.82728000  1.0 -0.0126623006
C  C26  1  0.14910000  0.84338000  0.32728000  1.0 -0.0126623006
C  C27  1  0.14910000  0.15662000  0.17272000  1.0 -0.0126623006
C  C28  1  0.35090000  0.34338000  0.67272000  1.0 -0.0126623006
C  C29  1  0.64910000  0.34338000  0.17272000  1.0 -0.0126623006
C  C30  1  0.85090000  0.15662000  0.67272000  1.0 -0.0126623006
C  C31  1  0.85090000  0.84338000  0.82728000  1.0 -0.0126623006
C  C32  1  0.64910000  0.65662000  0.32728000  1.0 -0.0126623006
C  C33  1  0.31640000  0.69198000  0.79484000  1.0 0.5422492967
C  C34  1  0.18360000  0.80802000  0.29484000  1.0 0.5422492967
C  C35  1  0.18360000  0.19198000  0.20516000  1.0 0.5422492967
C  C36  1  0.31640000  0.30802000  0.70516000  1.0 0.5422492967
C  C37  1  0.68360000  0.30802000  0.20516000  1.0 0.5422492967
C  C38  1  0.81640000  0.19198000  0.70516000  1.0 0.5422492967
C  C39  1  0.81640000  0.80802000  0.79484000  1.0 0.5422492967
C  C40  1  0.68360000  0.69198000  0.29484000  1.0 0.5422492967
C  C41  1  0.42120000  0.65803000  0.83323000  1.0 -0.1384066878
C  C42  1  0.07880000  0.84197000  0.33323000  1.0 -0.1384066878
C  C43  1  0.07880000  0.15803000  0.16677000  1.0 -0.1384066878
C  C44  1  0.42120000  0.34197000  0.66677000  1.0 -0.1384066878
C  C45  1  0.57880000  0.34197000  0.16677000  1.0 -0.1384066878
C  C46  1  0.92120000  0.15803000  0.66677000  1.0 -0.1384066878
C  C47  1  0.92120000  0.84197000  0.83323000  1.0 -0.1384066878
C  C48  1  0.57880000  0.65803000  0.33323000  1.0 -0.1384066878
C  C49  1  0.45482000  0.62589000  0.86364000  1.0 0.0692971923
C  C50  1  0.04518000  0.87411000  0.36364000  1.0 0.0692971923
C  C51  1  0.04518000  0.12589000  0.13636000  1.0 0.0692971923
C  C52  1  0.45482000  0.37411000  0.63636000  1.0 0.0692971923
C  C53  1  0.54518000  0.37411000  0.13636000  1.0 0.0692971923
C  C54  1  0.95482000  0.12589000  0.63636000  1.0 0.0692971923
C  C55  1  0.95482000  0.87411000  0.86364000  1.0 0.0692971923
C  C56  1  0.54518000  0.62589000  0.36364000  1.0 0.0692971923
C  C57  1  0.41530000  0.59218000  0.88882000  1.0 -0.1384066878
C  C58  1  0.08470000  0.90782000  0.38882000  1.0 -0.1384066878
C  C59  1  0.08470000  0.09218000  0.11118000  1.0 -0.1384066878
C  C60  1  0.41530000  0.40782000  0.61118000  1.0 -0.1384066878
C  C61  1  0.58470000  0.40782000  0.11118000  1.0 -0.1384066878
C  C62  1  0.91530000  0.09218000  0.61118000  1.0 -0.1384066878
C  C63  1  0.91530000  0.90782000  0.88882000  1.0 -0.1384066878
C  C64  1  0.58470000  0.59218000  0.38882000  1.0 -0.1384066878
C  C65  1  0.53080000  0.62772000  0.86988000  1.0 0.0692971923
C  C66  1  0.96920000  0.87228000  0.36988000  1.0 0.0692971923
C  C67  1  0.96920000  0.12772000  0.13012000  1.0 0.0692971923
C  C68  1  0.53080000  0.37228000  0.63012000  1.0 0.0692971923
C  C69  1  0.46920000  0.37228000  0.13012000  1.0 0.0692971923
C  C70  1  0.03080000  0.12772000  0.63012000  1.0 0.0692971923
C  C71  1  0.03080000  0.87228000  0.86988000  1.0 0.0692971923
C  C72  1  0.46920000  0.62772000  0.36988000  1.0 0.0692971923
C  C73  1  0.57180000  0.65210000  0.83724000  1.0 -0.159782094
C  C74  1  0.92820000  0.84790000  0.33724000  1.0 -0.159782094
C  C75  1  0.92820000  0.15210000  0.16276000  1.0 -0.159782094
C  C76  1  0.57180000  0.34790000  0.66276000  1.0 -0.159782094
C  C77  1  0.42820000  0.34790000  0.16276000  1.0 -0.159782094
C  C78  1  0.07180000  0.15210000  0.66276000  1.0 -0.159782094
C  C79  1  0.07180000  0.84790000  0.83724000  1.0 -0.159782094
C  C80  1  0.42820000  0.65210000  0.33724000  1.0 -0.159782094
C  C81  1  0.64270000  0.65447000  0.84338000  1.0 -0.0126623006
C  C82  1  0.85730000  0.84553000  0.34338000  1.0 -0.0126623006
C  C83  1  0.85730000  0.15447000  0.15662000  1.0 -0.0126623006
C  C84  1  0.64270000  0.34553000  0.65662000  1.0 -0.0126623006
C  C85  1  0.35730000  0.34553000  0.15662000  1.0 -0.0126623006
C  C86  1  0.14270000  0.15447000  0.65662000  1.0 -0.0126623006
C  C87  1  0.14270000  0.84553000  0.84338000  1.0 -0.0126623006
C  C88  1  0.35730000  0.65447000  0.34338000  1.0 -0.0126623006
C  C89  1  0.67350000  0.63147000  0.88098000  1.0 -0.0922994933
C  C90  1  0.82650000  0.86853000  0.38098000  1.0 -0.0922994933
C  C91  1  0.82650000  0.13147000  0.11902000  1.0 -0.0922994933
C  C92  1  0.67350000  0.36853000  0.61902000  1.0 -0.0922994933
C  C93  1  0.32650000  0.36853000  0.11902000  1.0 -0.0922994933
C  C94  1  0.17350000  0.13147000  0.61902000  1.0 -0.0922994933
C  C95  1  0.17350000  0.86853000  0.88098000  1.0 -0.0922994933
C  C96  1  0.32650000  0.63147000  0.38098000  1.0 -0.0922994933
C  C97  1  0.63330000  0.60541000  0.91284000  1.0 -0.0126623006
C  C98  1  0.86670000  0.89459000  0.41284000  1.0 -0.0126623006
C  C99  1  0.86670000  0.10541000  0.08716000  1.0 -0.0126623006
C  C100  1  0.63330000  0.39459000  0.58716000  1.0 -0.0126623006
C  C101  1  0.36670000  0.39459000  0.08716000  1.0 -0.0126623006
C  C102  1  0.13330000  0.10541000  0.58716000  1.0 -0.0126623006
C  C103  1  0.13330000  0.89459000  0.91284000  1.0 -0.0126623006
C  C104  1  0.36670000  0.60541000  0.41284000  1.0 -0.0126623006
C  C105  1  0.56240000  0.60447000  0.90720000  1.0 -0.1384066878
C  C106  1  0.93760000  0.89553000  0.40720000  1.0 -0.1384066878
C  C107  1  0.93760000  0.10447000  0.09280000  1.0 -0.1384066878
C  C108  1  0.56240000  0.39553000  0.59280000  1.0 -0.1384066878
C  C109  1  0.43760000  0.39553000  0.09280000  1.0 -0.1384066878
C  C110  1  0.06240000  0.10447000  0.59280000  1.0 -0.1384066878
C  C111  1  0.06240000  0.89553000  0.90720000  1.0 -0.1384066878
C  C112  1  0.43760000  0.60447000  0.40720000  1.0 -0.1384066878
C  C113  1  0.68576000  0.68090000  0.80828000  1.0 0.5731778005
C  C114  1  0.81424000  0.81910000  0.30828000  1.0 0.5731778005
C  C115  1  0.81424000  0.18090000  0.19172000  1.0 0.5731778005
C  C116  1  0.68576000  0.31910000  0.69172000  1.0 0.5731778005
C  C117  1  0.31424000  0.31910000  0.19172000  1.0 0.5731778005
C  C118  1  0.18576000  0.18090000  0.69172000  1.0 0.5731778005
C  C119  1  0.18576000  0.81910000  0.80828000  1.0 0.5731778005
C  C120  1  0.31424000  0.68090000  0.30828000  1.0 0.5731778005
C  C121  1  0.66610000  0.57675000  0.95168000  1.0 0.5422492967
C  C122  1  0.83390000  0.92325000  0.45168000  1.0 0.5422492967
C  C123  1  0.83390000  0.07675000  0.04832000  1.0 0.5422492967
C  C124  1  0.66610000  0.42325000  0.54832000  1.0 0.5422492967
C  C125  1  0.33390000  0.42325000  0.04832000  1.0 0.5422492967
C  C126  1  0.16610000  0.07675000  0.54832000  1.0 0.5422492967
C  C127  1  0.16610000  0.92325000  0.95168000  1.0 0.5422492967
C  C128  1  0.33390000  0.57675000  0.45168000  1.0 0.5422492967
C  C129  1  0.80430000  0.58079000  0.07340000  1.0 0.5799781092
C  C130  1  0.69570000  0.91921000  0.57340000  1.0 0.5799781092
C  C131  1  0.69570000  0.08079000  0.92660000  1.0 0.5799781092
C  C132  1  0.80430000  0.41921000  0.42660000  1.0 0.5799781092
C  C133  1  0.19570000  0.41921000  0.92660000  1.0 0.5799781092
C  C134  1  0.30430000  0.08079000  0.42660000  1.0 0.5799781092
C  C135  1  0.30430000  0.91921000  0.07340000  1.0 0.5799781092
C  C136  1  0.19570000  0.58079000  0.57340000  1.0 0.5799781092
C  C137  1  0.85410000  0.61560000  0.09653000  1.0 -0.018171081
C  C138  1  0.64590000  0.88440000  0.59653000  1.0 -0.018171081
C  C139  1  0.64590000  0.11560000  0.90347000  1.0 -0.018171081
C  C140  1  0.85410000  0.38440000  0.40347000  1.0 -0.018171081
C  C141  1  0.14590000  0.38440000  0.90347000  1.0 -0.018171081
C  C142  1  0.35410000  0.11560000  0.40347000  1.0 -0.018171081
C  C143  1  0.35410000  0.88440000  0.09653000  1.0 -0.018171081
C  C144  1  0.14590000  0.61560000  0.59653000  1.0 -0.018171081
C  C145  1  0.83100000  0.65652000  0.12133000  1.0 -0.0922994933
C  C146  1  0.66900000  0.84348000  0.62133000  1.0 -0.0922994933
C  C147  1  0.66900000  0.15652000  0.87867000  1.0 -0.0922994933
C  C148  1  0.83100000  0.34348000  0.37867000  1.0 -0.0922994933
C  C149  1  0.16900000  0.34348000  0.87867000  1.0 -0.0922994933
C  C150  1  0.33100000  0.15652000  0.37867000  1.0 -0.0922994933
C  C151  1  0.33100000  0.84348000  0.12133000  1.0 -0.0922994933
C  C152  1  0.16900000  0.65652000  0.62133000  1.0 -0.0922994933
C  C153  1  0.87710000  0.69012000  0.14104000  1.0 -0.0289585679
C  C154  1  0.62290000  0.80988000  0.64104000  1.0 -0.0289585679
C  C155  1  0.62290000  0.19012000  0.85896000  1.0 -0.0289585679
C  C156  1  0.87710000  0.30988000  0.35896000  1.0 -0.0289585679
C  C157  1  0.12290000  0.30988000  0.85896000  1.0 -0.0289585679
C  C158  1  0.37710000  0.19012000  0.35896000  1.0 -0.0289585679
C  C159  1  0.37710000  0.80988000  0.14104000  1.0 -0.0289585679
C  C160  1  0.12290000  0.69012000  0.64104000  1.0 -0.0289585679
C  C161  1  0.94730000  0.68131000  0.13655000  1.0 -0.1329586497
C  C162  1  0.55270000  0.81869000  0.63655000  1.0 -0.1329586497
C  C163  1  0.55270000  0.18131000  0.86345000  1.0 -0.1329586497
C  C164  1  0.94730000  0.31869000  0.36345000  1.0 -0.1329586497
C  C165  1  0.05270000  0.31869000  0.86345000  1.0 -0.1329586497
C  C166  1  0.44730000  0.18131000  0.36345000  1.0 -0.1329586497
C  C167  1  0.44730000  0.81869000  0.13655000  1.0 -0.1329586497
C  C168  1  0.05270000  0.68131000  0.63655000  1.0 -0.1329586497
C  C169  1  0.97200000  0.63855000  0.11337000  1.0 0.0692971923
C  C170  1  0.52800000  0.86145000  0.61337000  1.0 0.0692971923
C  C171  1  0.52800000  0.13855000  0.88663000  1.0 0.0692971923
C  C172  1  0.97200000  0.36145000  0.38663000  1.0 0.0692971923
C  C173  1  0.02800000  0.36145000  0.88663000  1.0 0.0692971923
C  C174  1  0.47200000  0.13855000  0.38663000  1.0 0.0692971923
C  C175  1  0.47200000  0.86145000  0.11337000  1.0 0.0692971923
C  C176  1  0.02800000  0.63855000  0.61337000  1.0 0.0692971923
C  C177  1  0.92420000  0.60622000  0.09320000  1.0 -0.159782094
C  C178  1  0.57580000  0.89378000  0.59320000  1.0 -0.159782094
C  C179  1  0.57580000  0.10622000  0.90680000  1.0 -0.159782094
C  C180  1  0.92420000  0.39378000  0.40680000  1.0 -0.159782094
C  C181  1  0.07580000  0.39378000  0.90680000  1.0 -0.159782094
C  C182  1  0.42420000  0.10622000  0.40680000  1.0 -0.159782094
C  C183  1  0.42420000  0.89378000  0.09320000  1.0 -0.159782094
C  C184  1  0.07580000  0.60622000  0.59320000  1.0 -0.159782094
C  C185  1  0.04670000  0.62739000  0.10988000  1.0 0.0570243382
C  C186  1  0.45330000  0.87261000  0.60988000  1.0 0.0570243382
C  C187  1  0.45330000  0.12739000  0.89012000  1.0 0.0570243382
C  C188  1  0.04670000  0.37261000  0.39012000  1.0 0.0570243382
C  C189  1  0.95330000  0.37261000  0.89012000  1.0 0.0570243382
C  C190  1  0.54670000  0.12739000  0.39012000  1.0 0.0570243382
C  C191  1  0.54670000  0.87261000  0.10988000  1.0 0.0570243382
C  C192  1  0.95330000  0.62739000  0.60988000  1.0 0.0570243382
C  C193  1  0.07290000  0.60026000  0.07242000  1.0 -0.1384066878
C  C194  1  0.42710000  0.89974000  0.57242000  1.0 -0.1384066878
C  C195  1  0.42710000  0.10026000  0.92758000  1.0 -0.1384066878
C  C196  1  0.07290000  0.39974000  0.42758000  1.0 -0.1384066878
C  C197  1  0.92710000  0.39974000  0.92758000  1.0 -0.1384066878
C  C198  1  0.57290000  0.10026000  0.42758000  1.0 -0.1384066878
C  C199  1  0.57290000  0.89974000  0.07242000  1.0 -0.1384066878
C  C200  1  0.92710000  0.60026000  0.57242000  1.0 -0.1384066878
C  C201  1  0.14150000  0.58592000  0.07064000  1.0 -0.0289585679
C  C202  1  0.35850000  0.91408000  0.57064000  1.0 -0.0289585679
C  C203  1  0.35850000  0.08592000  0.92936000  1.0 -0.0289585679
C  C204  1  0.14150000  0.41408000  0.42936000  1.0 -0.0289585679
C  C205  1  0.85850000  0.41408000  0.92936000  1.0 -0.0289585679
C  C206  1  0.64150000  0.08592000  0.42936000  1.0 -0.0289585679
C  C207  1  0.64150000  0.91408000  0.07064000  1.0 -0.0289585679
C  C208  1  0.85850000  0.58592000  0.57064000  1.0 -0.0289585679
C  C209  1  0.18550000  0.60088000  0.10580000  1.0 -0.0922994933
C  C210  1  0.31450000  0.89912000  0.60580000  1.0 -0.0922994933
C  C211  1  0.31450000  0.10088000  0.89420000  1.0 -0.0922994933
C  C212  1  0.18550000  0.39912000  0.39420000  1.0 -0.0922994933
C  C213  1  0.81450000  0.39912000  0.89420000  1.0 -0.0922994933
C  C214  1  0.68550000  0.10088000  0.39420000  1.0 -0.0922994933
C  C215  1  0.68550000  0.89912000  0.10580000  1.0 -0.0922994933
C  C216  1  0.81450000  0.60088000  0.60580000  1.0 -0.0922994933
C  C217  1  0.16210000  0.63059000  0.14171000  1.0 -0.0289585679
C  C218  1  0.33790000  0.86941000  0.64171000  1.0 -0.0289585679
C  C219  1  0.33790000  0.13059000  0.85829000  1.0 -0.0289585679
C  C220  1  0.16210000  0.36941000  0.35829000  1.0 -0.0289585679
C  C221  1  0.83790000  0.36941000  0.85829000  1.0 -0.0289585679
C  C222  1  0.66210000  0.13059000  0.35829000  1.0 -0.0289585679
C  C223  1  0.66210000  0.86941000  0.14171000  1.0 -0.0289585679
C  C224  1  0.83790000  0.63059000  0.64171000  1.0 -0.0289585679
C  C225  1  0.09270000  0.64333000  0.14408000  1.0 -0.1384066878
C  C226  1  0.40730000  0.85667000  0.64408000  1.0 -0.1384066878
C  C227  1  0.40730000  0.14333000  0.85592000  1.0 -0.1384066878
C  C228  1  0.09270000  0.35667000  0.35592000  1.0 -0.1384066878
C  C229  1  0.90730000  0.35667000  0.85592000  1.0 -0.1384066878
C  C230  1  0.59270000  0.14333000  0.35592000  1.0 -0.1384066878
C  C231  1  0.59270000  0.85667000  0.14408000  1.0 -0.1384066878
C  C232  1  0.90730000  0.64333000  0.64408000  1.0 -0.1384066878
C  C233  1  0.21100000  0.65096000  0.17721000  1.0 0.601928465
C  C234  1  0.28900000  0.84904000  0.67721000  1.0 0.601928465
C  C235  1  0.28900000  0.15096000  0.82279000  1.0 0.601928465
C  C236  1  0.21100000  0.34904000  0.32279000  1.0 0.601928465
C  C237  1  0.78900000  0.34904000  0.82279000  1.0 0.601928465
C  C238  1  0.71100000  0.15096000  0.32279000  1.0 0.601928465
C  C239  1  0.71100000  0.84904000  0.17721000  1.0 0.601928465
C  C240  1  0.78900000  0.65096000  0.67721000  1.0 0.601928465
C  C241  1  0.16670000  0.55584000  0.02990000  1.0 0.601928465
C  C242  1  0.33333333  0.94416000  0.52990000  1.0 0.5949587533
C  C243  1  0.33333333  0.05584000  0.97010000  1.0 0.5949587533
C  C244  1  0.16670000  0.44416000  0.47010000  1.0 0.5949587533
C  C245  1  0.83330000  0.44416000  0.97010000  1.0 0.5949587533
C  C246  1  0.66666667  0.05584000  0.47010000  1.0 0.5949587533
C  C247  1  0.66666667  0.94416000  0.02990000  1.0 0.5949587533
C  C248  1  0.83330000  0.55584000  0.52990000  1.0 0.5949587533
C  C249  1  0.85130000  0.73443000  0.16779000  1.0 0.601928465
C  C250  1  0.64870000  0.76557000  0.66779000  1.0 0.601928465
C  C251  1  0.64870000  0.23443000  0.83221000  1.0 0.601928465
C  C252  1  0.85130000  0.26557000  0.33221000  1.0 0.601928465
C  C253  1  0.14870000  0.26557000  0.83221000  1.0 0.601928465
C  C254  1  0.35130000  0.23443000  0.33221000  1.0 0.601928465
C  C255  1  0.35130000  0.76557000  0.16779000  1.0 0.601928465
C  C256  1  0.14870000  0.73443000  0.66779000  1.0 0.601928465
O  O1  1  0.35259000  0.72258000  0.77178000  1.0 -0.5454271129
O  O2  1  0.14741000  0.77742000  0.27178000  1.0 -0.5454271129
O  O3  1  0.14741000  0.22258000  0.22822000  1.0 -0.5454271129
O  O4  1  0.35259000  0.27742000  0.72822000  1.0 -0.5454271129
O  O5  1  0.64741000  0.27742000  0.22822000  1.0 -0.5454271129
O  O6  1  0.85259000  0.22258000  0.72822000  1.0 -0.5454271129
O  O7  1  0.85259000  0.77742000  0.77178000  1.0 -0.5454271129
O  O8  1  0.64741000  0.72258000  0.27178000  1.0 -0.5454271129
O  O9  1  0.25249000  0.69189000  0.79171000  1.0 -0.5282601631
O  O10  1  0.24751000  0.80811000  0.29171000  1.0 -0.5282601631
O  O11  1  0.24751000  0.19189000  0.20829000  1.0 -0.5282601631
O  O12  1  0.25249000  0.30811000  0.70829000  1.0 -0.5282601631
O  O13  1  0.74751000  0.30811000  0.20829000  1.0 -0.5282601631
O  O14  1  0.75249000  0.19189000  0.70829000  1.0 -0.5282601631
O  O15  1  0.75249000  0.80811000  0.79171000  1.0 -0.5282601631
O  O16  1  0.74751000  0.69189000  0.29171000  1.0 -0.5282601631
O  O17  1  0.23964000  0.55938000  0.91161000  1.0 -0.5982298768
O  O18  1  0.26036000  0.94062000  0.41161000  1.0 -0.5982298768
O  O19  1  0.26036000  0.05938000  0.08839000  1.0 -0.5982298768
O  O20  1  0.23964000  0.44062000  0.58839000  1.0 -0.5982298768
O  O21  1  0.76036000  0.44062000  0.08839000  1.0 -0.5982298768
O  O22  1  0.73964000  0.05938000  0.58839000  1.0 -0.5982298768
O  O23  1  0.73964000  0.94062000  0.91161000  1.0 -0.5982298768
O  O24  1  0.76036000  0.55938000  0.41161000  1.0 -0.5982298768
O  O25  1  0.33546000  0.52592000  0.93933000  1.0 -0.5209110705
O  O26  1  0.16454000  0.97408000  0.43933000  1.0 -0.5209110705
O  O27  1  0.16454000  0.02592000  0.06067000  1.0 -0.5209110705
O  O28  1  0.33546000  0.47408000  0.56067000  1.0 -0.5209110705
O  O29  1  0.66454000  0.47408000  0.06067000  1.0 -0.5209110705
O  O30  1  0.83546000  0.02592000  0.56067000  1.0 -0.5209110705
O  O31  1  0.83546000  0.97408000  0.93933000  1.0 -0.5209110705
O  O32  1  0.66454000  0.52592000  0.43933000  1.0 -0.5209110705
O  O33  1  0.65725000  0.69548000  0.77033000  1.0 -0.628534495
O  O34  1  0.84275000  0.80452000  0.27033000  1.0 -0.628534495
O  O35  1  0.84275000  0.19548000  0.22967000  1.0 -0.628534495
O  O36  1  0.65725000  0.30452000  0.72967000  1.0 -0.628534495
O  O37  1  0.34275000  0.30452000  0.22967000  1.0 -0.628534495
O  O38  1  0.15725000  0.19548000  0.72967000  1.0 -0.628534495
O  O39  1  0.15725000  0.80452000  0.77033000  1.0 -0.628534495
O  O40  1  0.34275000  0.69548000  0.27033000  1.0 -0.628534495
O  O41  1  0.74730000  0.68883000  0.81642000  1.0 -0.4825966535
O  O42  1  0.75270000  0.81117000  0.31642000  1.0 -0.4825966535
O  O43  1  0.75270000  0.18883000  0.18358000  1.0 -0.4825966535
O  O44  1  0.74730000  0.31117000  0.68358000  1.0 -0.4825966535
O  O45  1  0.25270000  0.31117000  0.18358000  1.0 -0.4825966535
O  O46  1  0.24730000  0.18883000  0.68358000  1.0 -0.4825966535
O  O47  1  0.24730000  0.81117000  0.81642000  1.0 -0.4825966535
O  O48  1  0.25270000  0.68883000  0.31642000  1.0 -0.4825966535
O  O49  1  0.72961000  0.58073000  0.95752000  1.0 -0.5209110705
O  O50  1  0.77039000  0.91927000  0.45752000  1.0 -0.5209110705
O  O51  1  0.77039000  0.08073000  0.04248000  1.0 -0.5209110705
O  O52  1  0.72961000  0.41927000  0.54248000  1.0 -0.5209110705
O  O53  1  0.27039000  0.41927000  0.04248000  1.0 -0.5209110705
O  O54  1  0.22961000  0.08073000  0.54248000  1.0 -0.5209110705
O  O55  1  0.22961000  0.91927000  0.95752000  1.0 -0.5209110705
O  O56  1  0.27039000  0.58073000  0.45752000  1.0 -0.5209110705
O  O57  1  0.62978000  0.54891000  0.97649000  1.0 -0.5282601631
O  O58  1  0.87022000  0.95109000  0.47649000  1.0 -0.5282601631
O  O59  1  0.87022000  0.04891000  0.02351000  1.0 -0.5282601631
O  O60  1  0.62978000  0.45109000  0.52351000  1.0 -0.5282601631
O  O61  1  0.37022000  0.45109000  0.02351000  1.0 -0.5282601631
O  O62  1  0.12978000  0.04891000  0.52351000  1.0 -0.5282601631
O  O63  1  0.12978000  0.95109000  0.97649000  1.0 -0.5282601631
O  O64  1  0.37022000  0.54891000  0.47649000  1.0 -0.5282601631
O  O65  1  0.82806000  0.54207000  0.05332000  1.0 -0.6115417993
O  O66  1  0.67194000  0.95793000  0.55332000  1.0 -0.6115417993
O  O67  1  0.67194000  0.04207000  0.94668000  1.0 -0.6115417993
O  O68  1  0.82806000  0.45793000  0.44668000  1.0 -0.6115417993
O  O69  1  0.17194000  0.45793000  0.94668000  1.0 -0.6115417993
O  O70  1  0.32806000  0.04207000  0.44668000  1.0 -0.6115417993
O  O71  1  0.32806000  0.95793000  0.05332000  1.0 -0.6115417993
O  O72  1  0.17194000  0.54207000  0.55332000  1.0 -0.6115417993
O  O73  1  0.74203000  0.59100000  0.07249000  1.0 -0.4988782993
O  O74  1  0.75797000  0.90900000  0.57249000  1.0 -0.4988782993
O  O75  1  0.75797000  0.09100000  0.92751000  1.0 -0.4988782993
O  O76  1  0.74203000  0.40900000  0.42751000  1.0 -0.4988782993
O  O77  1  0.25797000  0.40900000  0.92751000  1.0 -0.4988782993
O  O78  1  0.24203000  0.09100000  0.42751000  1.0 -0.4988782993
O  O79  1  0.24203000  0.90900000  0.07249000  1.0 -0.4988782993
O  O80  1  0.25797000  0.59100000  0.57249000  1.0 -0.4988782993
O  O81  1  0.12524000  0.55021000  0.99713000  1.0 -0.5982298768
O  O82  1  0.37476000  0.94979000  0.49713000  1.0 -0.5982298768
O  O83  1  0.37476000  0.05021000  0.00287000  1.0 -0.5982298768
O  O84  1  0.12524000  0.44979000  0.50287000  1.0 -0.5982298768
O  O85  1  0.87476000  0.44979000  0.00287000  1.0 -0.5982298768
O  O86  1  0.62524000  0.05021000  0.50287000  1.0 -0.5982298768
O  O87  1  0.62524000  0.94979000  0.99713000  1.0 -0.5982298768
O  O88  1  0.87476000  0.55021000  0.49713000  1.0 -0.5982298768
O  O89  1  0.22609000  0.53824000  0.03240000  1.0 -0.538631673
O  O90  1  0.27391000  0.96176000  0.53240000  1.0 -0.538631673
O  O91  1  0.27391000  0.03824000  0.96760000  1.0 -0.538631673
O  O92  1  0.22609000  0.46176000  0.46760000  1.0 -0.538631673
O  O93  1  0.77391000  0.46176000  0.96760000  1.0 -0.538631673
O  O94  1  0.72609000  0.03824000  0.46760000  1.0 -0.538631673
O  O95  1  0.72609000  0.96176000  0.03240000  1.0 -0.538631673
O  O96  1  0.77391000  0.53824000  0.53240000  1.0 -0.538631673
O  O97  1  0.27252000  0.63804000  0.17458000  1.0 -0.5982298768
O  O98  1  0.22748000  0.86196000  0.67458000  1.0 -0.5982298768
O  O99  1  0.22748000  0.13804000  0.82542000  1.0 -0.5982298768
O  O100  1  0.27252000  0.36196000  0.32542000  1.0 -0.5982298768
O  O101  1  0.72748000  0.36196000  0.82542000  1.0 -0.5982298768
O  O102  1  0.77252000  0.13804000  0.32542000  1.0 -0.5982298768
O  O103  1  0.77252000  0.86196000  0.17458000  1.0 -0.5982298768
O  O104  1  0.72748000  0.63804000  0.67458000  1.0 -0.5982298768
O  O105  1  0.18549000  0.67949000  0.20722000  1.0 -0.538631673
O  O106  1  0.31451000  0.82051000  0.70722000  1.0 -0.538631673
O  O107  1  0.31451000  0.17949000  0.79278000  1.0 -0.538631673
O  O108  1  0.18549000  0.32051000  0.29278000  1.0 -0.538631673
O  O109  1  0.81451000  0.32051000  0.79278000  1.0 -0.538631673
O  O110  1  0.68549000  0.17949000  0.29278000  1.0 -0.538631673
O  O111  1  0.68549000  0.82051000  0.20722000  1.0 -0.538631673
O  O112  1  0.81451000  0.67949000  0.70722000  1.0 -0.538631673
O  O113  1  0.79104000  0.73106000  0.18306000  1.0 -0.5566707468
O  O114  1  0.70896000  0.76894000  0.68306000  1.0 -0.5566707468
O  O115  1  0.70896000  0.23106000  0.81694000  1.0 -0.5566707468
O  O116  1  0.79104000  0.26894000  0.31694000  1.0 -0.5566707468
O  O117  1  0.20896000  0.26894000  0.81694000  1.0 -0.5566707468
O  O118  1  0.29104000  0.23106000  0.31694000  1.0 -0.5566707468
O  O119  1  0.29104000  0.76894000  0.18306000  1.0 -0.5566707468
O  O120  1  0.20896000  0.73106000  0.68306000  1.0 -0.5566707468
O  O121  1  0.89122000  0.77077000  0.17304000  1.0 -0.5853342554
O  O122  1  0.60878000  0.72923000  0.67304000  1.0 -0.5853342554
O  O123  1  0.60878000  0.27077000  0.82696000  1.0 -0.5853342554
O  O124  1  0.89122000  0.22923000  0.32696000  1.0 -0.5853342554
O  O125  1  0.10878000  0.22923000  0.82696000  1.0 -0.5853342554
O  O126  1  0.39122000  0.27077000  0.32696000  1.0 -0.5853342554
O  O127  1  0.39122000  0.72923000  0.17304000  1.0 -0.5853342554
O  O128  1  0.10878000  0.77077000  0.67304000  1.0 -0.5853342554
