# DDEC6 charges by PACMAN v1.1 (https://github.com/mtap-research/PACMAN-charge/)
data_DUXKEN_FSR_pacman
_symmetry_space_group_name_H-M   'P 1'
_cell_length_a   11.27840000
_cell_length_b   22.52100000
_cell_length_c   22.60000000
_cell_angle_alpha   104.62600000
_cell_angle_beta   96.24100000
_cell_angle_gamma   100.21500000
_symmetry_Int_Tables_number   1
_chemical_formula_structural   V36Ni8H168C210N37O93
_chemical_formula_sum   'V36 Ni8 H168 C210 N37 O93'
_cell_volume   5394.87905061
_cell_formula_units_Z   1
loop_
 _symmetry_equiv_pos_site_id
 _symmetry_equiv_pos_as_xyz
  1  'x, y, z'
loop_
 _atom_site_type_symbol
 _atom_site_label
 _atom_site_symmetry_multiplicity
 _atom_site_fract_x
 _atom_site_fract_y
 _atom_site_fract_z
 _atom_site_occupancy
 _atom_site_charge
V  V1  1  0.12786000  0.38186000  0.53766000  1.0 1.8592332991
V  V2  1  0.34130000  0.43947000  0.31489000  1.0 1.9359268935
V  V3  1  0.48263000  0.36269000  0.50166000  1.0 1.8894890936
V  V4  1  0.28907000  0.42073000  0.16120000  1.0 1.9707576426
V  V5  1  0.47678000  0.33776000  0.97899000  1.0 1.9325092228
V  V6  1  0.32527000  0.44828000  0.82133000  1.0 1.9359268935
V  V7  1  0.25349000  0.39590000  0.93683000  1.0 1.9478278549
V  V8  1  0.35199000  0.29158000  0.10295000  1.0 1.9325092228
V  V9  1  0.45560000  0.78335000  0.89567000  1.0 1.251030484
V  V10  1  0.12340000  0.46966000  0.05097000  1.0 1.9359268935
V  V11  1  0.24159000  0.34443000  0.40324000  1.0 1.9707576426
V  V12  1  0.23200000  0.94002000  0.52488000  1.0 1.096443096
V  V13  1  0.30686000  0.41164000  0.67177000  1.0 1.9478278549
V  V14  1  0.19247000  0.94718000  0.01622000  1.0 0.9580289813
V  V15  1  0.43660000  0.88186000  0.04030000  1.0 0.7286354891
V  V16  1  0.92412000  0.85570000  0.01756000  1.0 0.7194236906
V  V17  1  0.93430000  0.86690000  0.52297000  1.0 1.0136357935
V  V18  1  0.75402000  0.85536000  0.89629000  1.0 0.9114665778
V  V19  1  0.46140000  0.77154000  0.39405000  1.0 1.0586887987
V  V20  1  0.40278000  0.28606000  0.61556000  1.0 1.9359268935
V  V21  1  0.75150000  0.86040000  0.40070000  1.0 0.757264504
V  V22  1  0.72917000  0.92878000  0.10523000  1.0 0.7489519807
V  V23  1  0.71310000  0.91953000  0.60493000  1.0 0.5909495147
V  V24  1  0.41220000  0.84617000  0.53544000  1.0 0.7771784456
V  V25  1  0.23680000  0.93861000  0.50512000  1.0 1.0233351381
V  V26  1  0.93670000  0.86530000  0.50748000  1.0 0.9580289813
V  V27  1  0.43920000  0.77457000  0.40489000  1.0 1.0801617296
V  V28  1  0.71340000  0.85300000  0.39350000  1.0 0.7679114731
V  V29  1  0.77290000  0.94644000  0.61018000  1.0 0.6700673493
V  V30  1  0.46880000  0.87462000  0.55363000  1.0 0.7902819307
V  V31  1  0.19360000  0.95590000  0.04020000  1.0 0.968617955
V  V32  1  0.90870000  0.88280000  0.02380000  1.0 0.6700673493
V  V33  1  0.76170000  0.81670000  0.87230000  1.0 1.0136357935
V  V34  1  0.73530000  0.95220000  0.11980000  1.0 0.757264504
V  V35  1  0.43050000  0.88090000  0.01840000  1.0 0.7362488003
V  V36  1  0.46890000  0.78460000  0.91060000  1.0 1.1831136139
Ni  Ni1  1  0.24053000  0.12112000  0.05503000  1.0 0.7286354891
Ni  Ni2  1  0.74702000  0.88046000  0.24624000  1.0 0.317108074
Ni  Ni3  1  0.29652000  0.11335000  0.55700000  1.0 0.6795612367
Ni  Ni4  1  0.40232000  0.62002000  0.89341000  1.0 0.7286354891
Ni  Ni5  1  0.40652000  0.60707000  0.38998000  1.0 0.7489519807
Ni  Ni6  1  0.81212000  0.38584000  0.00952000  1.0 0.7362488003
Ni  Ni7  1  0.81133000  0.38508000  0.50866000  1.0 0.7079798968
Ni  Ni8  1  0.79529000  0.88658000  0.74978000  1.0 0.2931534739
H  H1  1  0.70190000  0.79680000  0.61840000  1.0 0.0416160212
H  H2  1  0.71820000  0.69820000  0.55900000  1.0 0.0902804901
H  H3  1  0.89920000  0.67460000  0.71540000  1.0 0.0902804901
H  H4  1  0.86740000  0.77320000  0.76980000  1.0 0.0603861509
H  H5  1  0.98830000  0.50660000  0.59190000  1.0 0.0997513568
H  H6  1  0.98720000  0.61010000  0.64090000  1.0 0.0902804901
H  H7  1  0.65220000  0.58630000  0.53960000  1.0 0.1192024894
H  H8  1  0.67070000  0.48550000  0.49160000  1.0 0.1298136031
H  H9  1  0.95670000  0.83340000  0.30310000  1.0 0.070652046
H  H10  1  0.16070000  0.83320000  0.30020000  1.0 0.0902804901
H  H11  1  0.15280000  0.92270000  0.16930000  1.0 0.1192024894
H  H12  1  0.95380000  0.92820000  0.17890000  1.0 0.0416160212
H  H13  1  0.56210000  0.95250000  0.20630000  1.0 0.051327789
H  H14  1  0.35880000  0.95420000  0.20290000  1.0 0.1192024894
H  H15  1  0.30530000  0.79010000  0.25170000  1.0 0.1192024894
H  H16  1  0.51050000  0.79180000  0.25290000  1.0 0.0997513568
H  H17  1  0.54930000  0.82350000  0.67160000  1.0 0.0997513568
H  H18  1  0.34100000  0.82250000  0.67010000  1.0 0.1192024894
H  H19  1  0.42420000  0.93590000  0.84640000  1.0 0.1098562616
H  H20  1  0.62810000  0.93370000  0.84440000  1.0 0.070652046
H  H21  1  0.99210000  0.89500000  0.66666667  1.0 0.0794313541
H  H22  1  0.19930000  0.88760000  0.66430000  1.0 0.0997513568
H  H23  1  0.22020000  0.88960000  0.84920000  1.0 0.0997513568
H  H24  1  0.01030000  0.89420000  0.83990000  1.0 0.0603861509
H  H25  1  0.65060000  0.25290000  0.49290000  1.0 0.1098562616
H  H26  1  0.62490000  0.15080000  0.43280000  1.0 0.1298136031
H  H27  1  0.95000000  0.20210000  0.37960000  1.0 0.1298136031
H  H28  1  0.95950000  0.30370000  0.43560000  1.0 0.0794313541
H  H29  1  0.63370000  0.95660000  0.34060000  1.0 0.0603861509
H  H30  1  0.63310000  0.05700000  0.39540000  1.0 0.0997513568
H  H31  1  0.91260000  0.11860000  0.31210000  1.0 0.0997513568
H  H32  1  0.89430000  0.01820000  0.25450000  1.0 0.0794313541
H  H33  1  0.95150000  0.98620000  0.86300000  1.0 0.0902804901
H  H34  1  0.95770000  0.08890000  0.92180000  1.0 0.0997513568
H  H35  1  0.72240000  0.10340000  0.77950000  1.0 0.0997513568
H  H36  1  0.72220000  0.99840000  0.73110000  1.0 0.0416160212
H  H37  1  0.65200000  0.27150000  0.92040000  1.0 0.0997513568
H  H38  1  0.65500000  0.16990000  0.86480000  1.0 0.1298136031
H  H39  1  0.00570000  0.19710000  0.94300000  1.0 0.1192024894
H  H40  1  0.99660000  0.29720000  0.99720000  1.0 0.1192024894
H  H41  1  0.70610000  0.49110000  0.97900000  1.0 0.0997513568
H  H42  1  0.69350000  0.59370000  0.02350000  1.0 0.1098562616
H  H43  1  0.87370000  0.58370000  0.18340000  1.0 0.1098562616
H  H44  1  0.90090000  0.48590000  0.13060000  1.0 0.0902804901
H  H45  1  0.72930000  0.64660000  0.22320000  1.0 0.0997513568
H  H46  1  0.70020000  0.74670000  0.27110000  1.0 0.070652046
H  H47  1  0.76010000  0.80090000  0.11710000  1.0 0.0416160212
H  H48  1  0.78920000  0.70070000  0.06910000  1.0 0.1098562616
H  H49  1  0.54910000  0.18880000  0.62740000  1.0 0.0997513568
H  H50  1  0.75240000  0.19680000  0.61650000  1.0 0.1098562616
H  H51  1  0.65840000  0.02610000  0.48860000  1.0 0.1098562616
H  H52  1  0.45460000  0.02840000  0.49800000  1.0 0.0902804901
H  H53  1  0.05180000  0.01940000  0.52160000  1.0 0.0603861509
H  H54  1  0.84360000  0.01820000  0.51990000  1.0 0.0794313541
H  H55  1  0.91640000  0.20830000  0.56190000  1.0 0.1192024894
H  H56  1  0.12470000  0.20950000  0.56360000  1.0 0.0902804901
H  H57  1  0.39140000  0.05020000  0.65390000  1.0 0.1098562616
H  H58  1  0.37320000  0.04850000  0.75470000  1.0 0.1192024894
H  H59  1  0.16630000  0.17820000  0.76420000  1.0 0.1298136031
H  H60  1  0.19530000  0.17910000  0.66510000  1.0 0.0902804901
H  H61  1  0.23650000  0.02580000  0.93140000  1.0 0.0997513568
H  H62  1  0.24960000  0.02170000  0.82840000  1.0 0.1192024894
H  H63  1  0.24270000  0.20480000  0.86730000  1.0 0.1410111158
H  H64  1  0.22680000  0.20480000  0.96840000  1.0 0.0997513568
H  H65  1  0.42940000  0.05060000  0.09210000  1.0 0.0902804901
H  H66  1  0.63440000  0.04810000  0.09050000  1.0 0.0997513568
H  H67  1  0.67190000  0.20190000  0.02800000  1.0 0.1298136031
H  H68  1  0.46570000  0.19730000  0.02540000  1.0 0.0997513568
H  H69  1  0.07910000  0.21120000  0.09980000  1.0 0.1098562616
H  H70  1  0.87440000  0.21550000  0.10160000  1.0 0.1192024894
H  H71  1  0.78420000  0.03000000  0.01320000  1.0 0.1298136031
H  H72  1  0.99040000  0.03200000  0.01050000  1.0 0.0902804901
H  H73  1  0.98830000  0.39940000  0.91960000  1.0 0.0902804901
H  H74  1  0.99220000  0.39150000  0.81490000  1.0 0.1410111158
H  H75  1  0.62780000  0.38740000  0.79210000  1.0 0.1496050524
H  H76  1  0.63300000  0.39220000  0.89630000  1.0 0.1098562616
H  H77  1  0.66900000  0.42550000  0.61290000  1.0 0.0902804901
H  H78  1  0.67170000  0.43250000  0.71600000  1.0 0.1298136031
H  H79  1  0.93780000  0.33150000  0.70680000  1.0 0.1298136031
H  H80  1  0.92840000  0.32670000  0.60350000  1.0 0.0902804901
H  H81  1  0.64220000  0.38030000  0.10240000  1.0 0.0997513568
H  H82  1  0.64720000  0.39000000  0.20730000  1.0 0.1410111158
H  H83  1  0.99040000  0.35800000  0.21580000  1.0 0.1410111158
H  H84  1  0.97960000  0.35480000  0.11220000  1.0 0.1098562616
H  H85  1  0.99450000  0.42410000  0.42470000  1.0 0.0997513568
H  H86  1  0.00530000  0.41260000  0.32070000  1.0 0.1298136031
H  H87  1  0.63610000  0.35300000  0.28460000  1.0 0.1410111158
H  H88  1  0.63750000  0.35770000  0.38890000  1.0 0.1098562616
H  H89  1  0.11390000  0.04900000  0.13690000  1.0 0.0997513568
H  H90  1  0.12240000  0.04670000  0.23850000  1.0 0.1098562616
H  H91  1  0.40740000  0.19480000  0.28540000  1.0 0.1298136031
H  H92  1  0.38910000  0.19650000  0.18380000  1.0 0.1192024894
H  H93  1  0.34710000  0.20630000  0.48080000  1.0 0.0997513568
H  H94  1  0.33650000  0.21200000  0.38020000  1.0 0.1298136031
H  H95  1  0.22270000  0.02250000  0.32390000  1.0 0.1192024894
H  H96  1  0.23300000  0.02270000  0.42610000  1.0 0.0794313541
H  H97  1  0.34550000  0.51650000  0.47000000  1.0 0.1098562616
H  H98  1  0.33880000  0.51660000  0.57160000  1.0 0.1410111158
H  H99  1  0.46600000  0.70630000  0.62080000  1.0 0.1098562616
H  H100  1  0.47650000  0.69900000  0.51750000  1.0 0.0902804901
H  H101  1  0.55070000  0.68230000  0.81310000  1.0 0.070652046
H  H102  1  0.55890000  0.67890000  0.71060000  1.0 0.1098562616
H  H103  1  0.23490000  0.55320000  0.66470000  1.0 0.1192024894
H  H104  1  0.23970000  0.56010000  0.76770000  1.0 0.0997513568
H  H105  1  0.18310000  0.54560000  0.92680000  1.0 0.1192024894
H  H106  1  0.97740000  0.54210000  0.93070000  1.0 0.1298136031
H  H107  1  0.00810000  0.69630000  0.86750000  1.0 0.1410111158
H  H108  1  0.21320000  0.69260000  0.86110000  1.0 0.0794313541
H  H109  1  0.65170000  0.70890000  0.94290000  1.0 0.070652046
H  H110  1  0.85670000  0.71180000  0.94610000  1.0 0.1192024894
H  H111  1  0.77360000  0.52630000  0.85850000  1.0 0.1192024894
H  H112  1  0.57000000  0.52880000  0.85810000  1.0 0.0997513568
H  H113  1  0.24690000  0.68450000  0.45790000  1.0 0.0902804901
H  H114  1  0.04490000  0.68730000  0.46330000  1.0 0.1298136031
H  H115  1  0.94910000  0.53080000  0.31880000  1.0 0.1192024894
H  H116  1  0.15350000  0.53180000  0.31630000  1.0 0.1098562616
H  H117  1  0.58170000  0.51830000  0.38780000  1.0 0.0997513568
H  H118  1  0.78300000  0.51420000  0.37890000  1.0 0.1192024894
H  H119  1  0.85570000  0.70390000  0.41160000  1.0 0.1192024894
H  H120  1  0.65170000  0.70050000  0.41510000  1.0 0.0794313541
H  H121  1  0.75420000  0.79730000  0.61690000  1.0 0.070652046
H  H122  1  0.76460000  0.69690000  0.56470000  1.0 0.0997513568
H  H123  1  0.82750000  0.65910000  0.73300000  1.0 0.0902804901
H  H124  1  0.80460000  0.75790000  0.77740000  1.0 0.070652046
H  H125  1  0.95790000  0.49310000  0.60990000  1.0 0.0902804901
H  H126  1  0.95290000  0.59210000  0.66320000  1.0 0.0902804901
H  H127  1  0.65530000  0.58460000  0.54150000  1.0 0.1298136031
H  H128  1  0.65800000  0.47890000  0.49270000  1.0 0.1298136031
H  H129  1  0.52770000  0.55540000  0.27930000  1.0 0.0997513568
H  H130  1  0.53670000  0.55830000  0.17870000  1.0 0.1192024894
H  H131  1  0.27440000  0.66000000  0.19230000  1.0 0.1298136031
H  H132  1  0.27720000  0.65540000  0.29350000  1.0 0.0794313541
H  H133  1  0.37560000  0.70300000  0.01860000  1.0 0.0902804901
H  H134  1  0.37490000  0.70090000  0.12020000  1.0 0.1192024894
H  H135  1  0.44430000  0.52680000  0.07470000  1.0 0.1410111158
H  H136  1  0.44900000  0.53410000  0.97520000  1.0 0.1098562616
H  H137  1  0.97270000  0.90130000  0.33930000  1.0 0.0794313541
H  H138  1  0.17950000  0.88990000  0.34330000  1.0 0.0997513568
H  H139  1  0.13580000  0.86570000  0.15850000  1.0 0.0902804901
H  H140  1  0.94580000  0.88780000  0.16140000  1.0 0.070652046
H  H141  1  0.57790000  0.91870000  0.34080000  1.0 0.051327789
H  H142  1  0.37490000  0.92120000  0.34340000  1.0 0.2750976475
H  H143  1  0.29870000  0.82040000  0.16200000  1.0 0.1192024894
H  H144  1  0.50470000  0.81950000  0.16810000  1.0 0.0997513568
H  H145  1  0.55990000  0.79930000  0.75150000  1.0 0.0902804901
H  H146  1  0.35110000  0.79510000  0.75010000  1.0 0.1098562616
H  H147  1  0.40180000  0.95960000  0.70390000  1.0 0.0997513568
H  H148  1  0.61180000  0.95950000  0.70820000  1.0 0.0416160212
H  H149  1  0.98800000  0.91700000  0.67540000  1.0 0.070652046
H  H150  1  0.18620000  0.91590000  0.66220000  1.0 0.0794313541
H  H151  1  0.22580000  0.85920000  0.81970000  1.0 0.0902804901
H  H152  1  0.02050000  0.86030000  0.82320000  1.0 0.0902804901
H  H153  1  0.91680000  0.97950000  0.35080000  1.0 0.0794313541
H  H154  1  0.92730000  0.07980000  0.41520000  1.0 0.0902804901
H  H155  1  0.63320000  0.08750000  0.30010000  1.0 0.1192024894
H  H156  1  0.63580000  0.98960000  0.23900000  1.0 0.051327789
H  H157  1  0.95480000  0.01980000  0.76280000  1.0 0.0902804901
H  H158  1  0.97230000  0.12240000  0.81920000  1.0 0.0997513568
H  H159  1  0.68250000  0.06250000  0.89970000  1.0 0.0997513568
H  H160  1  0.68150000  0.96190000  0.84420000  1.0 0.0794313541
H  H161  1  0.85320000  0.66980000  0.22380000  1.0 0.0997513568
H  H162  1  0.82970000  0.76970000  0.27650000  1.0 0.0603861509
H  H163  1  0.64920000  0.78580000  0.11810000  1.0 0.0416160212
H  H164  1  0.67270000  0.68590000  0.06530000  1.0 0.0902804901
H  H165  1  0.05940000  0.02310000  0.55550000  1.0 0.051327789
H  H166  1  0.85330000  0.02440000  0.55910000  1.0 0.070652046
H  H167  1  0.91250000  0.20200000  0.54270000  1.0 0.1192024894
H  H168  1  0.11860000  0.20070000  0.53910000  1.0 0.0902804901
C  C1  1  0.73880000  0.77050000  0.63820000  1.0 0.0997513568
C  C2  1  0.74850000  0.71210000  0.60220000  1.0 -0.1592417603
C  C3  1  0.80500000  0.67470000  0.63220000  1.0 0.051327789
C  C4  1  0.85480000  0.69790000  0.69500000  1.0 -0.0787495954
C  C5  1  0.83680000  0.75700000  0.72670000  1.0 0.0794313541
C  C6  1  0.91740000  0.52220000  0.58310000  1.0 -0.0199814853
C  C7  1  0.91920000  0.58450000  0.61140000  1.0 -0.0503620731
C  C8  1  0.81900000  0.60890000  0.59580000  1.0 0.070652046
C  C9  1  0.72200000  0.57110000  0.55140000  1.0 -0.1592417603
C  C10  1  0.73200000  0.51000000  0.52500000  1.0 -0.0787495954
C  C11  1  0.99810000  0.85490000  0.27760000  1.0 0.029773791
C  C12  1  0.11810000  0.85220000  0.27410000  1.0 -0.0602218897
C  C13  1  0.17540000  0.87690000  0.23320000  1.0 0.029773791
C  C14  1  0.11450000  0.90530000  0.19830000  1.0 -0.0602218897
C  C15  1  0.99650000  0.90900000  0.20480000  1.0 -0.0011504251
C  C16  1  0.50910000  0.91960000  0.21580000  1.0 -0.0998131915
C  C17  1  0.38870000  0.92080000  0.21380000  1.0 -0.1796552429
C  C18  1  0.30800000  0.87270000  0.22770000  1.0 0.0794313541
C  C19  1  0.35670000  0.82370000  0.24250000  1.0 -0.0787495954
C  C20  1  0.47850000  0.82520000  0.24330000  1.0 0.051327789
C  C21  1  0.52380000  0.84660000  0.70750000  1.0 0.070652046
C  C22  1  0.39840000  0.84630000  0.70580000  1.0 0.0106808776
C  C23  1  0.35970000  0.88200000  0.75780000  1.0 0.0794313541
C  C24  1  0.44790000  0.91310000  0.80980000  1.0 -0.2465311198
C  C25  1  0.56990000  0.91120000  0.80860000  1.0 -0.1592417603
C  C26  1  0.03950000  0.89210000  0.70280000  1.0 -0.0787495954
C  C27  1  0.16300000  0.88750000  0.70030000  1.0 -0.0503620731
C  C28  1  0.22800000  0.88280000  0.75600000  1.0 0.051327789
C  C29  1  0.17490000  0.88840000  0.81080000  1.0 -0.0602218897
C  C30  1  0.05010000  0.89210000  0.80470000  1.0 0.0106808776
C  C31  1  0.71080000  0.24250000  0.46810000  1.0 0.051327789
C  C32  1  0.69560000  0.18120000  0.43350000  1.0 -0.2296563647
C  C33  1  0.78670000  0.16450000  0.39930000  1.0 0.0997513568
C  C34  1  0.88560000  0.21170000  0.40170000  1.0 -0.2002447322
C  C35  1  0.89140000  0.27210000  0.43570000  1.0 0.0794313541
C  C36  1  0.69180000  0.98990000  0.33490000  1.0 -0.0602218897
C  C37  1  0.69170000  0.05020000  0.36860000  1.0 -0.0602218897
C  C38  1  0.77800000  0.10180000  0.36360000  1.0 0.029773791
C  C39  1  0.85390000  0.08620000  0.31900000  1.0 -0.0503620731
C  C40  1  0.84460000  0.02550000  0.28580000  1.0 -0.0199814853
C  C41  1  0.89740000  0.00920000  0.84850000  1.0 0.0027783281
C  C42  1  0.90450000  0.07060000  0.88330000  1.0 -0.0710512792
C  C43  1  0.83000000  0.10310000  0.85860000  1.0 0.0027783281
C  C44  1  0.76470000  0.07920000  0.79970000  1.0 -0.0503620731
C  C45  1  0.76590000  0.01670000  0.77190000  1.0 0.0106808776
C  C46  1  0.72390000  0.25560000  0.92580000  1.0 0.070652046
C  C47  1  0.72610000  0.19520000  0.89210000  1.0 -0.2205460691
C  C48  1  0.83050000  0.17110000  0.89760000  1.0 0.0902804901
C  C49  1  0.93160000  0.21110000  0.93800000  1.0 -0.2205460691
C  C50  1  0.92570000  0.27060000  0.97070000  1.0 0.0794313541
C  C51  1  0.74310000  0.51080000  0.02090000  1.0 0.0794313541
C  C52  1  0.73320000  0.57180000  0.04770000  1.0 -0.2582238732
C  C53  1  0.78100000  0.60150000  0.10990000  1.0 0.0794313541
C  C54  1  0.84090000  0.56680000  0.14070000  1.0 -0.2296563647
C  C55  1  0.85320000  0.50720000  0.10928000  1.0 0.0997513568
C  C56  1  0.76200000  0.66423000  0.14162000  1.0 0.0173502126
C  C57  1  0.73550000  0.67790000  0.20163000  1.0 -0.0403846702
C  C58  1  0.71830000  0.73740000  0.23012000  1.0 0.051327789
C  C59  1  0.75390000  0.76955000  0.13861000  1.0 0.0603861509
C  C60  1  0.77110000  0.71005000  0.11012000  1.0 -0.0283057961
C  C61  1  0.57140000  0.15695000  0.59709000  1.0 0.0902804901
C  C62  1  0.69340000  0.16091000  0.59231000  1.0 -0.2002447322
C  C63  1  0.72980000  0.11250000  0.55230000  1.0 0.0794313541
C  C64  1  0.63820000  0.06090000  0.51620000  1.0 -0.2888774085
C  C65  1  0.51670000  0.06279000  0.52235000  1.0 0.0794313541
C  C66  1  0.02430000  0.05775000  0.52981000  1.0 0.0794313541
C  C67  1  0.90060000  0.05705000  0.52877000  1.0 -0.0199814853
C  C68  1  0.86040000  0.11315000  0.54073000  1.0 0.0902804901
C  C69  1  0.94390000  0.16994000  0.55373000  1.0 -0.1796552429
C  C70  1  0.06760000  0.17065000  0.55476000  1.0 0.0794313541
C  C71  1  0.34560000  0.07670000  0.67690000  1.0 0.0603861509
C  C72  1  0.33440000  0.07560000  0.73700000  1.0 -0.2069165764
C  C73  1  0.26660000  0.11370000  0.77250000  1.0 0.1098562616
C  C74  1  0.21420000  0.15160000  0.74310000  1.0 -0.1902411936
C  C75  1  0.23060000  0.15140000  0.68340000  1.0 0.0902804901
C  C76  1  0.23820000  0.06290000  0.91850000  1.0 0.0603861509
C  C77  1  0.24710000  0.06050000  0.85670000  1.0 -0.2205460691
C  C78  1  0.25240000  0.11360000  0.83600000  1.0 0.0902804901
C  C79  1  0.24270000  0.16720000  0.87910000  1.0 -0.1708627351
C  C80  1  0.23310000  0.16690000  0.93980000  1.0 0.070652046
C  C81  1  0.47880000  0.08100000  0.07770000  1.0 0.0902804901
C  C82  1  0.60170000  0.07960000  0.07740000  1.0 -0.1708627351
C  C83  1  0.67570000  0.12420000  0.05790000  1.0 0.1098562616
C  C84  1  0.62320000  0.16940000  0.04000000  1.0 -0.1902411936
C  C85  1  0.50040000  0.16690000  0.03950000  1.0 0.0902804901
C  C86  1  0.01840000  0.17420000  0.08050000  1.0 0.0902804901
C  C87  1  0.89600000  0.17710000  0.08260000  1.0 -0.1902411936
C  C88  1  0.80680000  0.12280000  0.05650000  1.0 0.0997513568
C  C89  1  0.84280000  0.06820000  0.03020000  1.0 -0.1796552429
C  C90  1  0.96670000  0.06990000  0.02900000  1.0 0.0603861509
C  C91  1  0.91460000  0.39640000  0.89330000  1.0 0.070652046
C  C92  1  0.91760000  0.39160000  0.83070000  1.0 -0.1902411936
C  C93  1  0.80940000  0.38680000  0.79140000  1.0 0.0997513568
C  C94  1  0.70220000  0.38870000  0.81700000  1.0 -0.1708627351
C  C95  1  0.70680000  0.39260000  0.87960000  1.0 0.0794313541
C  C96  1  0.72520000  0.40690000  0.63270000  1.0 0.0416160212
C  C97  1  0.72580000  0.41090000  0.69410000  1.0 -0.1592417603
C  C98  1  0.80570000  0.38340000  0.72490000  1.0 0.0997513568
C  C99  1  0.88240000  0.35140000  0.68840000  1.0 -0.1902411936
C  C100  1  0.87710000  0.34910000  0.62690000  1.0 0.051327789
C  C101  1  0.71450000  0.37690000  0.12600000  1.0 0.0794313541
C  C102  1  0.71620000  0.38160000  0.18870000  1.0 -0.1708627351
C  C103  1  0.81910000  0.37400000  0.22460000  1.0 0.0902804901
C  C104  1  0.91820000  0.36360000  0.19400000  1.0 -0.2002447322
C  C105  1  0.91060000  0.36130000  0.13160000  1.0 0.0603861509
C  C106  1  0.92120000  0.40810000  0.39550000  1.0 0.0603861509
C  C107  1  0.92880000  0.40200000  0.33360000  1.0 -0.2069165764
C  C108  1  0.82110000  0.37970000  0.29030000  1.0 0.0902804901
C  C109  1  0.71120000  0.36580000  0.31240000  1.0 -0.1708627351
C  C110  1  0.71200000  0.37050000  0.37510000  1.0 0.0794313541
C  C111  1  0.17430000  0.07940000  0.16750000  1.0 0.070652046
C  C112  1  0.17940000  0.07730000  0.22800000  1.0 -0.1902411936
C  C113  1  0.26850000  0.12010000  0.27370000  1.0 0.0997513568
C  C114  1  0.34590000  0.16430000  0.25540000  1.0 -0.1796552429
C  C115  1  0.33510000  0.16490000  0.19460000  1.0 0.0794313541
C  C116  1  0.32060000  0.16850000  0.44810000  1.0 0.070652046
C  C117  1  0.31450000  0.17230000  0.38810000  1.0 -0.1592417603
C  C118  1  0.27560000  0.11750000  0.33820000  1.0 0.1098562616
C  C119  1  0.24730000  0.06130000  0.35530000  1.0 -0.2296563647
C  C120  1  0.25470000  0.06160000  0.41670000  1.0 0.051327789
C  C121  1  0.37110000  0.55530000  0.50130000  1.0 0.0794313541
C  C122  1  0.36550000  0.55490000  0.56180000  1.0 -0.1520140005
C  C123  1  0.40000000  0.61180000  0.60880000  1.0 0.0997513568
C  C124  1  0.44160000  0.66666667  0.59070000  1.0 -0.2582238732
C  C125  1  0.44640000  0.66190000  0.52880000  1.0 0.0416160212
C  C126  1  0.48650000  0.65540000  0.78210000  1.0 0.029773791
C  C127  1  0.49160000  0.65380000  0.72090000  1.0 -0.2296563647
C  C128  1  0.39800000  0.61550000  0.67430000  1.0 0.1192024894
C  C129  1  0.30180000  0.58010000  0.69410000  1.0 -0.1708627351
C  C130  1  0.30560000  0.58450000  0.75570000  1.0 0.0902804901
C  C131  1  0.14640000  0.57590000  0.91350000  1.0 0.0997513568
C  C132  1  0.02420000  0.57400000  0.91710000  1.0 -0.1796552429
C  C133  1  0.97180000  0.61990000  0.90040000  1.0 0.1098562616
C  C134  1  0.04200000  0.66450000  0.87940000  1.0 -0.1902411936
C  C135  1  0.16490000  0.66200000  0.87580000  1.0 0.070652046
C  C136  1  0.67670000  0.67110000  0.92500000  1.0 0.029773791
C  C137  1  0.79960000  0.67330000  0.92720000  1.0 -0.1423348991
C  C138  1  0.84040000  0.61930000  0.90190000  1.0 0.0997513568
C  C139  1  0.75090000  0.56480000  0.87600000  1.0 -0.2002447322
C  C140  1  0.62900000  0.56680000  0.87580000  1.0 0.0902804901
C  C141  1  0.18530000  0.65280000  0.42930000  1.0 0.0794313541
C  C142  1  0.06550000  0.65470000  0.43300000  1.0 -0.1796552429
C  C143  1  0.97560000  0.60920000  0.39240000  1.0 0.1098562616
C  C144  1  0.00950000  0.56270000  0.34790000  1.0 -0.2002447322
C  C145  1  0.13090000  0.56350000  0.34670000  1.0 0.0794313541
C  C146  1  0.63780000  0.55620000  0.39090000  1.0 0.051327789
C  C147  1  0.75860000  0.55340000  0.38700000  1.0 -0.2069165764
C  C148  1  0.84340000  0.60900000  0.39510000  1.0 0.1098562616
C  C149  1  0.80110000  0.66480000  0.40570000  1.0 -0.2002447322
C  C150  1  0.67880000  0.66200000  0.40740000  1.0 0.029773791
C  C151  1  0.76870000  0.76890000  0.64020000  1.0 0.0794313541
C  C152  1  0.77590000  0.70890000  0.60860000  1.0 -0.1337867437
C  C153  1  0.80000000  0.66520000  0.64140000  1.0 0.029773791
C  C154  1  0.81190000  0.68600000  0.70800000  1.0 -0.0503620731
C  C155  1  0.79980000  0.74560000  0.73360000  1.0 0.0416160212
C  C156  1  0.89780000  0.51290000  0.59510000  1.0 -0.0011504251
C  C157  1  0.89420000  0.57150000  0.62700000  1.0 -0.0602218897
C  C158  1  0.80700000  0.60290000  0.60900000  1.0 0.070652046
C  C159  1  0.71800000  0.56600000  0.55600000  1.0 -0.1592417603
C  C160  1  0.72200000  0.50420000  0.52500000  1.0 -0.0503620731
C  C161  1  0.47580000  0.57720000  0.26120000  1.0 0.0794313541
C  C162  1  0.48170000  0.57870000  0.20110000  1.0 -0.2002447322
C  C163  1  0.40700000  0.60990000  0.17340000  1.0 0.1098562616
C  C164  1  0.32850000  0.63840000  0.20920000  1.0 -0.1902411936
C  C165  1  0.33000000  0.63500000  0.26940000  1.0 0.070652046
C  C166  1  0.39090000  0.66700000  0.03010000  1.0 0.051327789
C  C167  1  0.39000000  0.66590000  0.09070000  1.0 -0.2002447322
C  C168  1  0.41100000  0.61440000  0.10840000  1.0 0.0997513568
C  C169  1  0.43150000  0.56370000  0.06430000  1.0 -0.1902411936
C  C170  1  0.43280000  0.56850000  0.00500000  1.0 0.0794313541
C  C171  1  0.00720000  0.89320000  0.30230000  1.0 -0.0102947744
C  C172  1  0.13330000  0.88790000  0.30490000  1.0 -0.0403846702
C  C173  1  0.18910000  0.87970000  0.25150000  1.0 0.0106808776
C  C174  1  0.10760000  0.87520000  0.19730000  1.0 -0.0102947744
C  C175  1  0.99020000  0.88380000  0.19790000  1.0 0.0173502126
C  C176  1  0.51950000  0.89840000  0.30450000  1.0 -0.1520140005
C  C177  1  0.39910000  0.90060000  0.30600000  1.0 -0.1592417603
C  C178  1  0.31060000  0.87240000  0.25200000  1.0 0.0794313541
C  C179  1  0.35300000  0.84110000  0.19960000  1.0 -0.0102947744
C  C180  1  0.47700000  0.84120000  0.20400000  1.0 0.070652046
C  C181  1  0.52690000  0.83300000  0.74320000  1.0 0.0416160212
C  C182  1  0.40280000  0.82980000  0.74260000  1.0 -0.0710512792
C  C183  1  0.35770000  0.88020000  0.73060000  1.0 0.0794313541
C  C184  1  0.43350000  0.92710000  0.71560000  1.0 -0.1796552429
C  C185  1  0.55870000  0.92670000  0.71760000  1.0 -0.110125201
C  C186  1  0.03800000  0.90540000  0.70530000  1.0 -0.0503620731
C  C187  1  0.15480000  0.90360000  0.69560000  1.0 -0.0998131915
C  C188  1  0.22520000  0.88280000  0.73710000  1.0 0.0416160212
C  C189  1  0.17760000  0.86980000  0.78830000  1.0 -0.0199814853
C  C190  1  0.05610000  0.87310000  0.79100000  1.0 -0.0199814853
C  C191  1  0.85720000  0.00230000  0.34170000  1.0 -0.0403846702
C  C192  1  0.86690000  0.06200000  0.37920000  1.0 -0.0885054527
C  C193  1  0.78300000  0.09420000  0.36130000  1.0 0.0173502126
C  C194  1  0.69390000  0.06590000  0.31070000  1.0 -0.0403846702
C  C195  1  0.69260000  0.00760000  0.27630000  1.0 0.0027783281
C  C196  1  0.90050000  0.02830000  0.79170000  1.0 0.0173502126
C  C197  1  0.91040000  0.09110000  0.82560000  1.0 -0.0403846702
C  C198  1  0.83600000  0.10940000  0.86690000  1.0 0.0173502126
C  C199  1  0.74080000  0.05500000  0.87280000  1.0 -0.0602218897
C  C200  1  0.74000000  0.99550000  0.83930000  1.0 -0.110125201
C  C201  1  0.76520000  0.66846000  0.13959000  1.0 0.0106808776
C  C202  1  0.81180000  0.69335000  0.20231000  1.0 -0.0503620731
C  C203  1  0.79780000  0.75267000  0.23363000  1.0 0.0603861509
C  C204  1  0.69060000  0.76222000  0.13951000  1.0 0.070652046
C  C205  1  0.70460000  0.70290000  0.10819000  1.0 -0.0283057961
C  C206  1  0.02960000  0.05943000  0.55290000  1.0 0.070652046
C  C207  1  0.90720000  0.06020000  0.55503000  1.0 -0.0199814853
C  C208  1  0.86350000  0.11331000  0.55122000  1.0 0.0902804901
C  C209  1  0.94230000  0.16566000  0.54527000  1.0 -0.1796552429
C  C210  1  0.06480000  0.16489000  0.54314000  1.0 0.0997513568
N  N1  1  0.77800000  0.79130000  0.69840000  1.0 -0.2296563647
N  N2  1  0.82000000  0.48170000  0.54330000  1.0 -0.0787495954
N  N3  1  0.93750000  0.88650000  0.24660000  1.0 -0.1592417603
N  N4  1  0.55610000  0.87290000  0.23100000  1.0 0.1496050524
N  N5  1  0.60980000  0.87790000  0.75760000  1.0 0.1410111158
N  N6  1  0.98660000  0.89260000  0.75210000  1.0 -0.1181173383
N  N7  1  0.80520000  0.28880000  0.46910000  1.0 -0.2205460691
N  N8  1  0.77000000  0.97480000  0.29380000  1.0 -0.0998131915
N  N9  1  0.82190000  0.98120000  0.79740000  1.0 -0.0602218897
N  N10  1  0.82220000  0.29210000  0.96620000  1.0 -0.2205460691
N  N11  1  0.80180000  0.47860000  0.05110000  1.0 -0.2002447322
N  N12  1  0.72740000  0.78323000  0.19862000  1.0 -0.2790149508
N  N13  1  0.48330000  0.11017000  0.56045000  1.0 -0.2205460691
N  N14  1  0.10780000  0.11454000  0.54280000  1.0 -0.2205460691
N  N15  1  0.29270000  0.11470000  0.65060000  1.0 -0.2205460691
N  N16  1  0.23220000  0.11580000  0.95960000  1.0 -0.2205460691
N  N17  1  0.42730000  0.12370000  0.05820000  1.0 -0.2205460691
N  N18  1  0.05420000  0.12230000  0.05270000  1.0 -0.2296563647
N  N19  1  0.81010000  0.39700000  0.91790000  1.0 -0.2424962251
N  N20  1  0.80170000  0.37740000  0.59830000  1.0 -0.2582238732
N  N21  1  0.81150000  0.36780000  0.09720000  1.0 -0.2296563647
N  N22  1  0.81610000  0.39280000  0.41700000  1.0 -0.2424962251
N  N23  1  0.25070000  0.12240000  0.14890000  1.0 -0.2205460691
N  N24  1  0.29090000  0.11370000  0.46330000  1.0 -0.2296563647
N  N25  1  0.41050000  0.60760000  0.48380000  1.0 -0.2424962251
N  N26  1  0.39460000  0.62050000  0.79960000  1.0 -0.2205460691
N  N27  1  0.21600000  0.61830000  0.89200000  1.0 -0.2296563647
N  N28  1  0.58960000  0.61890000  0.89910000  1.0 -0.2424962251
N  N29  1  0.21950000  0.60790000  0.38710000  1.0 -0.2296563647
N  N30  1  0.59530000  0.60950000  0.39900000  1.0 -0.2582238732
N  N31  1  0.78200000  0.78980000  0.70460000  1.0 -0.2205460691
N  N32  1  0.40170000  0.60460000  0.29530000  1.0 -0.2296563647
N  N33  1  0.41280000  0.61850000  0.98600000  1.0 -0.2424962251
N  N34  1  0.55730000  0.86830000  0.25290000  1.0 0.1410111158
N  N35  1  0.60270000  0.88070000  0.73280000  1.0 0.1410111158
N  N36  1  0.73720000  0.78711000  0.20223000  1.0 -0.3104876263
N  N37  1  0.10840000  0.11178000  0.54695000  1.0 -0.2296563647
O  O1  1  0.44520000  0.94370000  0.39500000  1.0 -0.5699674694
O  O2  1  0.25650000  0.01630000  0.53550000  1.0 -0.6919846443
O  O3  1  0.33620000  0.21020000  0.58590000  1.0 -0.8302220015
O  O4  1  0.62730000  0.36330000  0.99590000  1.0 -0.8596871106
O  O5  1  0.62720000  0.36530000  0.49130000  1.0 -0.8302220015
O  O6  1  0.99520000  0.40340000  0.52880000  1.0 -0.8158973662
O  O7  1  0.36610000  0.51130000  0.36180000  1.0 -0.8521554677
O  O8  1  0.22820000  0.40030000  0.85930000  1.0 -0.9798131991
O  O9  1  0.35470000  0.52320000  0.86140000  1.0 -0.8596871106
O  O10  1  0.20820000  0.02570000  0.03510000  1.0 -0.6482937543
O  O11  1  0.47170000  0.42040000  0.30950000  1.0 -0.7669925301
O  O12  1  0.24580000  0.38520000  0.34690000  1.0 -0.9708858935
O  O13  1  0.29550000  0.32930000  0.65470000  1.0 -0.9978649625
O  O14  1  0.25250000  0.43740000  0.74230000  1.0 -0.9599215198
O  O15  1  0.40770000  0.40100000  0.96290000  1.0 -0.9599215198
O  O16  1  0.34930000  0.91660000  0.56730000  1.0 -0.7669925301
O  O17  1  0.32220000  0.92450000  0.05370000  1.0 -0.4133060483
O  O18  1  0.23750000  0.33830000  0.12630000  1.0 -0.9978649625
O  O19  1  0.43300000  0.43720000  0.15840000  1.0 -0.762282124
O  O20  1  0.26340000  0.43830000  0.23950000  1.0 -0.9798131991
O  O21  1  0.99570000  0.41420000  0.03060000  1.0 -0.8761372773
O  O22  1  0.20390000  0.45750000  0.98540000  1.0 -0.9599215198
O  O23  1  0.79880000  0.86260000  0.82900000  1.0 -0.6579830257
O  O24  1  0.83230000  0.90970000  0.55710000  1.0 -0.3910142191
O  O25  1  0.44620000  0.44520000  0.67890000  1.0 -0.7095392355
O  O26  1  0.44270000  0.71730000  0.91910000  1.0 -0.7179723788
O  O27  1  0.22190000  0.42920000  0.61030000  1.0 -0.9539647309
O  O28  1  0.42250000  0.31270000  0.04200000  1.0 -0.9978649625
O  O29  1  0.45320000  0.42480000  0.81970000  1.0 -0.7789946107
O  O30  1  0.08980000  0.53770000  0.06330000  1.0 -0.7374492495
O  O31  1  0.43010000  0.84840000  0.95940000  1.0 -0.2983969508
O  O32  1  0.60940000  0.80260000  0.88110000  1.0 -0.7789946107
O  O33  1  0.72720000  0.92930000  0.43340000  1.0 -0.2582238732
O  O34  1  0.44090000  0.70330000  0.41250000  1.0 -0.7179723788
O  O35  1  0.61940000  0.80040000  0.39730000  1.0 -0.3503830938
O  O36  1  0.21290000  0.46350000  0.11990000  1.0 -0.9798131991
O  O37  1  0.41600000  0.82580000  0.07370000  1.0 -0.2790149508
O  O38  1  0.51960000  0.29190000  0.66540000  1.0 -0.7312850861
O  O39  1  0.57920000  0.92950000  0.06930000  1.0 -0.7312850861
O  O40  1  0.45280000  0.29590000  0.16040000  1.0 -0.7527337679
O  O41  1  0.19340000  0.38800000  0.46930000  1.0 -0.9708858935
O  O42  1  0.27630000  0.21660000  0.07680000  1.0 -0.8721985428
O  O43  1  0.86620000  0.82610000  0.93920000  1.0 -0.3910142191
O  O44  1  0.14660000  0.27840000  0.37480000  1.0 -0.7179723788
O  O45  1  0.38430000  0.32790000  0.42620000  1.0 -0.991072586
O  O46  1  0.17540000  0.32960000  0.94090000  1.0 -0.7527337679
O  O47  1  0.44520000  0.31550000  0.55320000  1.0 -0.991072586
O  O48  1  0.46650000  0.43300000  0.53130000  1.0 -0.7527337679
O  O49  1  0.76420000  0.85990000  0.32770000  1.0 -0.6654424278
O  O50  1  0.89050000  0.84620000  0.44190000  1.0 -0.3390418349
O  O51  1  0.96290000  0.79920000  0.04170000  1.0 -0.4476282207
O  O52  1  0.10240000  0.30970000  0.53900000  1.0 -0.762282124
O  O53  1  0.40140000  0.82030000  0.45570000  1.0 -0.2888774085
O  O54  1  0.45070000  0.27940000  0.91800000  1.0 -0.7669925301
O  O55  1  0.77660000  0.90750000  0.66820000  1.0 -0.6579830257
O  O56  1  0.18200000  0.92110000  0.94180000  1.0 -0.6449447481
O  O57  1  0.05360000  0.91360000  0.04010000  1.0 -0.2790149508
O  O58  1  0.36260000  0.77210000  0.83370000  1.0 -0.2296563647
O  O59  1  0.80490000  0.99880000  0.12990000  1.0 -0.0011504251
O  O60  1  0.22670000  0.90900000  0.45110000  1.0 -0.1423348991
O  O61  1  0.93360000  0.80720000  0.54930000  1.0 -0.4133060483
O  O62  1  0.74300000  0.92330000  0.93840000  1.0 -0.5858215301
O  O63  1  0.80550000  0.87620000  0.05690000  1.0 -0.3604033697
O  O64  1  0.34950000  0.78790000  0.55790000  1.0 -0.4243597595
O  O65  1  0.08370000  0.91180000  0.54430000  1.0 -0.4604748694
O  O66  1  0.37900000  0.76820000  0.32850000  1.0 -0.3227775601
O  O67  1  0.56710000  0.86750000  0.57070000  1.0 -0.3104876263
O  O68  1  0.69920000  0.99200000  0.62230000  1.0 -0.1423348991
O  O69  1  0.72260000  0.89930000  0.16460000  1.0 -0.6841407625
O  O70  1  0.33220000  0.90760000  0.55730000  1.0 -0.7095392355
O  O71  1  0.87360000  0.92310000  0.55550000  1.0 -0.4003789632
O  O72  1  0.42700000  0.86170000  0.93730000  1.0 -0.3910142191
O  O73  1  0.68460000  0.91620000  0.43490000  1.0 -0.2069165764
O  O74  1  0.57540000  0.79220000  0.37260000  1.0 -0.3503830938
O  O75  1  0.83660000  0.83030000  0.43770000  1.0 -0.3227775601
O  O76  1  0.44760000  0.83760000  0.47430000  1.0 -0.3104876263
O  O77  1  0.33500000  0.77250000  0.85510000  1.0 -0.2296563647
O  O78  1  0.28220000  0.92550000  0.43860000  1.0 -0.3104876263
O  O79  1  0.95540000  0.80830000  0.53590000  1.0 -0.3390418349
O  O80  1  0.45990000  0.82060000  0.59130000  1.0 -0.2705539076
O  O81  1  0.07630000  0.90250000  0.49120000  1.0 -0.4349535613
O  O82  1  0.31650000  0.76980000  0.35830000  1.0 -0.2790149508
O  O83  1  0.61350000  0.92420000  0.57620000  1.0 -0.2983969508
O  O84  1  0.80940000  0.02210000  0.63970000  1.0 -0.3744758872
O  O85  1  0.18400000  0.95700000  0.11390000  1.0 -0.7095392355
O  O86  1  0.33000000  0.93590000  0.01740000  1.0 -0.3604033697
O  O87  1  0.05300000  0.90770000  0.99680000  1.0 -0.3604033697
O  O88  1  0.84800000  0.93990000  0.06600000  1.0 -0.4395208268
O  O89  1  0.85100000  0.81460000  0.03800000  1.0 -0.2705539076
O  O90  1  0.86300000  0.87200000  0.94360000  1.0 -0.2705539076
O  O91  1  0.78600000  0.74560000  0.84300000  1.0 -0.6919846443
O  O92  1  0.38400000  0.82410000  0.04720000  1.0 -0.1902411936
O  O93  1  0.77900000  0.02150000  0.15330000  1.0 -0.2888774085
