# DDEC6 charges by PACMAN v1.1 (https://github.com/mtap-research/PACMAN-charge/)
data_DUYRAR_ASR_pacman
_symmetry_space_group_name_H-M   'P 1'
_cell_length_a   20.47100000
_cell_length_b   23.42600000
_cell_length_c   29.40600000
_cell_angle_alpha   90.00000000
_cell_angle_beta   90.00000000
_cell_angle_gamma   90.00000000
_symmetry_Int_Tables_number   1
_chemical_formula_structural   Nd3H9W12C21N3O44
_chemical_formula_sum   'Nd24 H72 W96 C168 N24 O352'
_cell_volume   14101.75451428
_cell_formula_units_Z   8
loop_
 _symmetry_equiv_pos_site_id
 _symmetry_equiv_pos_as_xyz
  1  'x, y, z'
loop_
 _atom_site_type_symbol
 _atom_site_label
 _atom_site_symmetry_multiplicity
 _atom_site_fract_x
 _atom_site_fract_y
 _atom_site_fract_z
 _atom_site_occupancy
 _atom_site_charge
Nd  Nd1  1  0.40944000  0.46772000  0.68263000  1.0 1.9334656415
Nd  Nd2  1  0.59056000  0.03228000  0.18263000  1.0 1.9334656415
Nd  Nd3  1  0.09056000  0.96772000  0.31737000  1.0 1.9334656415
Nd  Nd4  1  0.90944000  0.53228000  0.81737000  1.0 1.9334656415
Nd  Nd5  1  0.59056000  0.53228000  0.31737000  1.0 1.9334656415
Nd  Nd6  1  0.40944000  0.96772000  0.81737000  1.0 1.9334656415
Nd  Nd7  1  0.90944000  0.03228000  0.68263000  1.0 1.9334656415
Nd  Nd8  1  0.09056000  0.46772000  0.18263000  1.0 1.9334656415
Nd  Nd9  1  0.87861000  0.80611000  0.55194000  1.0 2.1044446644
Nd  Nd10  1  0.12139000  0.69389000  0.05194000  1.0 2.1044446644
Nd  Nd11  1  0.62139000  0.30611000  0.44806000  1.0 2.1053001103
Nd  Nd12  1  0.37861000  0.19389000  0.94806000  1.0 2.1044446644
Nd  Nd13  1  0.12139000  0.19389000  0.44806000  1.0 2.1044446644
Nd  Nd14  1  0.87861000  0.30611000  0.94806000  1.0 2.1053001103
Nd  Nd15  1  0.37861000  0.69389000  0.55194000  1.0 2.1053001103
Nd  Nd16  1  0.62139000  0.80611000  0.05194000  1.0 2.1044446644
Nd  Nd17  1  0.50686000  0.22860000  0.64459000  1.0 1.9822060682
Nd  Nd18  1  0.49314000  0.27140000  0.14459000  1.0 1.9822060682
Nd  Nd19  1  0.99314000  0.72860000  0.35541000  1.0 1.9822060682
Nd  Nd20  1  0.00686000  0.77140000  0.85541000  1.0 1.9926761803
Nd  Nd21  1  0.49314000  0.77140000  0.35541000  1.0 1.9822060682
Nd  Nd22  1  0.50686000  0.72860000  0.85541000  1.0 1.9822060682
Nd  Nd23  1  0.00686000  0.27140000  0.64459000  1.0 1.9926761803
Nd  Nd24  1  0.99314000  0.22860000  0.14459000  1.0 1.9822060682
H  H1  1  0.63790000  0.74200000  0.48230000  1.0 0.1259356444
H  H2  1  0.36210000  0.75800000  0.98230000  1.0 0.1259356444
H  H3  1  0.86210000  0.24200000  0.51770000  1.0 0.1259356444
H  H4  1  0.13790000  0.25800000  0.01770000  1.0 0.1259356444
H  H5  1  0.36210000  0.25800000  0.51770000  1.0 0.1259356444
H  H6  1  0.63790000  0.24200000  0.01770000  1.0 0.1259356444
H  H7  1  0.13790000  0.75800000  0.48230000  1.0 0.1259356444
H  H8  1  0.86210000  0.74200000  0.98230000  1.0 0.1259356444
H  H9  1  0.67420000  0.70400000  0.41470000  1.0 0.1073543714
H  H10  1  0.32580000  0.79600000  0.91470000  1.0 0.1073543714
H  H11  1  0.82580000  0.20400000  0.58530000  1.0 0.1073543714
H  H12  1  0.17420000  0.29600000  0.08530000  1.0 0.1073543714
H  H13  1  0.32580000  0.29600000  0.58530000  1.0 0.1073543714
H  H14  1  0.67420000  0.20400000  0.08530000  1.0 0.1073543714
H  H15  1  0.17420000  0.79600000  0.41470000  1.0 0.1073543714
H  H16  1  0.82580000  0.70400000  0.91470000  1.0 0.1073543714
H  H17  1  0.78210000  0.70920000  0.39540000  1.0 0.1259356444
H  H18  1  0.21790000  0.79080000  0.89540000  1.0 0.1259356444
H  H19  1  0.71790000  0.20920000  0.60460000  1.0 0.1259356444
H  H20  1  0.28210000  0.29080000  0.10460000  1.0 0.1259356444
H  H21  1  0.21790000  0.29080000  0.60460000  1.0 0.1259356444
H  H22  1  0.78210000  0.20920000  0.10460000  1.0 0.1259356444
H  H23  1  0.28210000  0.79080000  0.39540000  1.0 0.1259356444
H  H24  1  0.71790000  0.70920000  0.89540000  1.0 0.1259356444
H  H25  1  0.22140000  0.57480000  0.58460000  1.0 0.1259356444
H  H26  1  0.77860000  0.92520000  0.08460000  1.0 0.1259356444
H  H27  1  0.27860000  0.07480000  0.41540000  1.0 0.1259356444
H  H28  1  0.72140000  0.42520000  0.91540000  1.0 0.1259356444
H  H29  1  0.77860000  0.42520000  0.41540000  1.0 0.1259356444
H  H30  1  0.22140000  0.07480000  0.91540000  1.0 0.1259356444
H  H31  1  0.72140000  0.92520000  0.58460000  1.0 0.1259356444
H  H32  1  0.27860000  0.57480000  0.08460000  1.0 0.1259356444
H  H33  1  0.13380000  0.50930000  0.59360000  1.0 0.0995361133
H  H34  1  0.86620000  0.99070000  0.09360000  1.0 0.0995361133
H  H35  1  0.36620000  0.00930000  0.40640000  1.0 0.0995361133
H  H36  1  0.63380000  0.49070000  0.90640000  1.0 0.0995361133
H  H37  1  0.86620000  0.49070000  0.40640000  1.0 0.0995361133
H  H38  1  0.13380000  0.00930000  0.90640000  1.0 0.0995361133
H  H39  1  0.63380000  0.99070000  0.59360000  1.0 0.0995361133
H  H40  1  0.36620000  0.50930000  0.09360000  1.0 0.0995361133
H  H41  1  0.15410000  0.42350000  0.63270000  1.0 0.1208048174
H  H42  1  0.84590000  0.07650000  0.13270000  1.0 0.1208048174
H  H43  1  0.34590000  0.92350000  0.36730000  1.0 0.1208048174
H  H44  1  0.65410000  0.57650000  0.86730000  1.0 0.1208048174
H  H45  1  0.84590000  0.57650000  0.36730000  1.0 0.1208048174
H  H46  1  0.15410000  0.92350000  0.86730000  1.0 0.1208048174
H  H47  1  0.65410000  0.07650000  0.63270000  1.0 0.1208048174
H  H48  1  0.34590000  0.42350000  0.13270000  1.0 0.1208048174
H  H49  1  0.60740000  0.34860000  0.76650000  1.0 0.1208048174
H  H50  1  0.39260000  0.15140000  0.26650000  1.0 0.1208048174
H  H51  1  0.89260000  0.84860000  0.23350000  1.0 0.1208048174
H  H52  1  0.10740000  0.65140000  0.73350000  1.0 0.1208048174
H  H53  1  0.39260000  0.65140000  0.23350000  1.0 0.1208048174
H  H54  1  0.60740000  0.84860000  0.73350000  1.0 0.1208048174
H  H55  1  0.10740000  0.15140000  0.76650000  1.0 0.1208048174
H  H56  1  0.89260000  0.34860000  0.26650000  1.0 0.1208048174
H  H57  1  0.64510000  0.42060000  0.81470000  1.0 0.1073543714
H  H58  1  0.35490000  0.07940000  0.31470000  1.0 0.1073543714
H  H59  1  0.85490000  0.92060000  0.18530000  1.0 0.1073543714
H  H60  1  0.14510000  0.57940000  0.68530000  1.0 0.1073543714
H  H61  1  0.35490000  0.57940000  0.18530000  1.0 0.1073543714
H  H62  1  0.64510000  0.92060000  0.68530000  1.0 0.1073543714
H  H63  1  0.14510000  0.07940000  0.81470000  1.0 0.1073543714
H  H64  1  0.85490000  0.42060000  0.31470000  1.0 0.1073543714
H  H65  1  0.59590000  0.50880000  0.81320000  1.0 0.0995361133
H  H66  1  0.40410000  0.99120000  0.31320000  1.0 0.0995361133
H  H67  1  0.90410000  0.00880000  0.18680000  1.0 0.0995361133
H  H68  1  0.09590000  0.49120000  0.68680000  1.0 0.0995361133
H  H69  1  0.40410000  0.49120000  0.18680000  1.0 0.0995361133
H  H70  1  0.59590000  0.00880000  0.68680000  1.0 0.0995361133
H  H71  1  0.09590000  0.99120000  0.81320000  1.0 0.0995361133
H  H72  1  0.90410000  0.50880000  0.31320000  1.0 0.0995361133
W  W1  1  0.87032000  0.40150000  0.63121000  1.0 2.4517712411
W  W2  1  0.12968000  0.09850000  0.13121000  1.0 2.4517712411
W  W3  1  0.62968000  0.90150000  0.36879000  1.0 2.4517712411
W  W4  1  0.37032000  0.59850000  0.86879000  1.0 2.4517712411
W  W5  1  0.12968000  0.59850000  0.36879000  1.0 2.4517712411
W  W6  1  0.87032000  0.90150000  0.86879000  1.0 2.4517712411
W  W7  1  0.37032000  0.09850000  0.63121000  1.0 2.4517712411
W  W8  1  0.62968000  0.40150000  0.13121000  1.0 2.4517712411
W  W9  1  0.93428000  0.52264000  0.60048000  1.0 2.4195923293
W  W10  1  0.06572000  0.97736000  0.10048000  1.0 2.4195923293
W  W11  1  0.56572000  0.02264000  0.39952000  1.0 2.4195923293
W  W12  1  0.43428000  0.47736000  0.89952000  1.0 2.4195923293
W  W13  1  0.06572000  0.47736000  0.39952000  1.0 2.4195923293
W  W14  1  0.93428000  0.02264000  0.89952000  1.0 2.4195923293
W  W15  1  0.43428000  0.97736000  0.60048000  1.0 2.4195923293
W  W16  1  0.56572000  0.52264000  0.10048000  1.0 2.4195923293
W  W17  1  0.81958000  0.64046000  0.57577000  1.0 2.4307768915
W  W18  1  0.18042000  0.85954000  0.07577000  1.0 2.4307768915
W  W19  1  0.68042000  0.14046000  0.42423000  1.0 2.435687941
W  W20  1  0.31958000  0.35954000  0.92423000  1.0 2.4307768915
W  W21  1  0.18042000  0.35954000  0.42423000  1.0 2.4307768915
W  W22  1  0.81958000  0.14046000  0.92423000  1.0 2.435687941
W  W23  1  0.31958000  0.85954000  0.57577000  1.0 2.4307768915
W  W24  1  0.68042000  0.64046000  0.07577000  1.0 2.4307768915
W  W25  1  0.66103000  0.62850000  0.59246000  1.0 2.4635540065
W  W26  1  0.33897000  0.87150000  0.09246000  1.0 2.4662556467
W  W27  1  0.83897000  0.12850000  0.40754000  1.0 2.4662556467
W  W28  1  0.16103000  0.37150000  0.90754000  1.0 2.4635540065
W  W29  1  0.33897000  0.37150000  0.40754000  1.0 2.4662556467
W  W30  1  0.66103000  0.12850000  0.90754000  1.0 2.4635540065
W  W31  1  0.16103000  0.87150000  0.59246000  1.0 2.4662556467
W  W32  1  0.83897000  0.62850000  0.09246000  1.0 2.4635540065
W  W33  1  0.59698000  0.48772000  0.62813000  1.0 2.4307768915
W  W34  1  0.40302000  0.01228000  0.12813000  1.0 2.4307768915
W  W35  1  0.90302000  0.98772000  0.37187000  1.0 2.4307768915
W  W36  1  0.09698000  0.51228000  0.87187000  1.0 2.4307768915
W  W37  1  0.40302000  0.51228000  0.37187000  1.0 2.4307768915
W  W38  1  0.59698000  0.98772000  0.87187000  1.0 2.4307768915
W  W39  1  0.09698000  0.01228000  0.62813000  1.0 2.4307768915
W  W40  1  0.90302000  0.48772000  0.12813000  1.0 2.4307768915
W  W41  1  0.84832000  0.59677000  0.69484000  1.0 2.4307768915
W  W42  1  0.15168000  0.90323000  0.19484000  1.0 2.435687941
W  W43  1  0.65168000  0.09677000  0.30516000  1.0 2.435687941
W  W44  1  0.34832000  0.40323000  0.80516000  1.0 2.435687941
W  W45  1  0.15168000  0.40323000  0.30516000  1.0 2.435687941
W  W46  1  0.84832000  0.09677000  0.80516000  1.0 2.435687941
W  W47  1  0.34832000  0.90323000  0.69484000  1.0 2.435687941
W  W48  1  0.65168000  0.59677000  0.19484000  1.0 2.4307768915
W  W49  1  0.67443000  0.42243000  0.54692000  1.0 2.4307768915
W  W50  1  0.32557000  0.07757000  0.04692000  1.0 2.4307768915
W  W51  1  0.82557000  0.92243000  0.45308000  1.0 2.4307768915
W  W52  1  0.17443000  0.57757000  0.95308000  1.0 2.4307768915
W  W53  1  0.32557000  0.57757000  0.45308000  1.0 2.4195923293
W  W54  1  0.67443000  0.92243000  0.95308000  1.0 2.4307768915
W  W55  1  0.17443000  0.07757000  0.54692000  1.0 2.4307768915
W  W56  1  0.82557000  0.42243000  0.04692000  1.0 2.4307768915
W  W57  1  0.69004000  0.57583000  0.70964000  1.0 2.4066120324
W  W58  1  0.30996000  0.92417000  0.20964000  1.0 2.4066120324
W  W59  1  0.80996000  0.07583000  0.29036000  1.0 2.4066120324
W  W60  1  0.19004000  0.42417000  0.79036000  1.0 2.4010035214
W  W61  1  0.30996000  0.42417000  0.29036000  1.0 2.4066120324
W  W62  1  0.69004000  0.07583000  0.79036000  1.0 2.4066120324
W  W63  1  0.19004000  0.92417000  0.70964000  1.0 2.4010035214
W  W64  1  0.80996000  0.57583000  0.20964000  1.0 2.4010035214
W  W65  1  0.85061000  0.44608000  0.52772000  1.0 2.4010035214
W  W66  1  0.14939000  0.05392000  0.02772000  1.0 2.3886512336
W  W67  1  0.64939000  0.94608000  0.47228000  1.0 2.4010035214
W  W68  1  0.35061000  0.55392000  0.97228000  1.0 2.3886512336
W  W69  1  0.14939000  0.55392000  0.47228000  1.0 2.3886512336
W  W70  1  0.85061000  0.94608000  0.97228000  1.0 2.4010035214
W  W71  1  0.35061000  0.05392000  0.52772000  1.0 2.3886512336
W  W72  1  0.64939000  0.44608000  0.02772000  1.0 2.4010035214
W  W73  1  0.79241000  0.47155000  0.72760000  1.0 2.2994828638
W  W74  1  0.20759000  0.02845000  0.22760000  1.0 2.2994828638
W  W75  1  0.70759000  0.97155000  0.27240000  1.0 2.2936903653
W  W76  1  0.29241000  0.52845000  0.77240000  1.0 2.2936903653
W  W77  1  0.20759000  0.52845000  0.27240000  1.0 2.2936903653
W  W78  1  0.79241000  0.97155000  0.77240000  1.0 2.2994828638
W  W79  1  0.29241000  0.02845000  0.72760000  1.0 2.2994828638
W  W80  1  0.70759000  0.47155000  0.22760000  1.0 2.2936903653
W  W81  1  0.73122000  0.56275000  0.50580000  1.0 2.34760434
W  W82  1  0.26878000  0.93725000  0.00580000  1.0 2.3431968309
W  W83  1  0.76878000  0.06275000  0.49420000  1.0 2.34760434
W  W84  1  0.23122000  0.43725000  0.99420000  1.0 2.34760434
W  W85  1  0.26878000  0.43725000  0.49420000  1.0 2.34760434
W  W86  1  0.73122000  0.06275000  0.99420000  1.0 2.34760434
W  W87  1  0.23122000  0.93725000  0.50580000  1.0 2.34760434
W  W88  1  0.76878000  0.56275000  0.00580000  1.0 2.34760434
W  W89  1  0.69352000  0.38045000  0.65123000  1.0 2.34760434
W  W90  1  0.30648000  0.11955000  0.15123000  1.0 2.3431968309
W  W91  1  0.80648000  0.88045000  0.34877000  1.0 2.34760434
W  W92  1  0.19352000  0.61955000  0.84877000  1.0 2.3431968309
W  W93  1  0.30648000  0.61955000  0.34877000  1.0 2.3431968309
W  W94  1  0.69352000  0.88045000  0.84877000  1.0 2.3431968309
W  W95  1  0.19352000  0.11955000  0.65123000  1.0 2.3431968309
W  W96  1  0.80648000  0.38045000  0.15123000  1.0 2.34760434
C  C1  1  0.72780000  0.76560000  0.50350000  1.0 0.08990731
C  C2  1  0.27220000  0.73440000  0.00350000  1.0 0.08990731
C  C3  1  0.77220000  0.26560000  0.49650000  1.0 0.08990731
C  C4  1  0.22780000  0.23440000  0.99650000  1.0 0.08990731
C  C5  1  0.27220000  0.23440000  0.49650000  1.0 0.08990731
C  C6  1  0.72780000  0.26560000  0.99650000  1.0 0.08990731
C  C7  1  0.22780000  0.73440000  0.50350000  1.0 0.08990731
C  C8  1  0.77220000  0.76560000  0.00350000  1.0 0.08990731
C  C9  1  0.68200000  0.74260000  0.47480000  1.0 -0.1275867147
C  C10  1  0.31800000  0.75740000  0.97480000  1.0 -0.1275867147
C  C11  1  0.81800000  0.24260000  0.52520000  1.0 -0.1275867147
C  C12  1  0.18200000  0.25740000  0.02520000  1.0 -0.1275867147
C  C13  1  0.31800000  0.25740000  0.52520000  1.0 -0.1275867147
C  C14  1  0.68200000  0.24260000  0.02520000  1.0 -0.1275867147
C  C15  1  0.18200000  0.75740000  0.47480000  1.0 -0.1275867147
C  C16  1  0.81800000  0.74260000  0.97480000  1.0 -0.1275867147
C  C17  1  0.70390000  0.72060000  0.43470000  1.0 -0.0502361649
C  C18  1  0.29610000  0.77940000  0.93470000  1.0 -0.0502361649
C  C19  1  0.79610000  0.22060000  0.56530000  1.0 -0.0502361649
C  C20  1  0.20390000  0.27940000  0.06530000  1.0 -0.0502361649
C  C21  1  0.29610000  0.27940000  0.56530000  1.0 -0.0502361649
C  C22  1  0.70390000  0.22060000  0.06530000  1.0 -0.0502361649
C  C23  1  0.20390000  0.77940000  0.43470000  1.0 -0.0502361649
C  C24  1  0.79610000  0.72060000  0.93470000  1.0 -0.0502361649
C  C25  1  0.76780000  0.72260000  0.42340000  1.0 -0.1275867147
C  C26  1  0.23220000  0.77740000  0.92340000  1.0 -0.1275867147
C  C27  1  0.73220000  0.22260000  0.57660000  1.0 -0.1275867147
C  C28  1  0.26780000  0.27740000  0.07660000  1.0 -0.1275867147
C  C29  1  0.23220000  0.27740000  0.57660000  1.0 -0.1275867147
C  C30  1  0.76780000  0.22260000  0.07660000  1.0 -0.1275867147
C  C31  1  0.26780000  0.77740000  0.42340000  1.0 -0.1275867147
C  C32  1  0.73220000  0.72260000  0.92340000  1.0 -0.1275867147
C  C33  1  0.81310000  0.74580000  0.45560000  1.0 0.1208048174
C  C34  1  0.18690000  0.75420000  0.95560000  1.0 0.1208048174
C  C35  1  0.68690000  0.24580000  0.54440000  1.0 0.1208048174
C  C36  1  0.31310000  0.25420000  0.04440000  1.0 0.1208048174
C  C37  1  0.18690000  0.25420000  0.54440000  1.0 0.1208048174
C  C38  1  0.81310000  0.24580000  0.04440000  1.0 0.1208048174
C  C39  1  0.31310000  0.75420000  0.45560000  1.0 0.1208048174
C  C40  1  0.68690000  0.74580000  0.95560000  1.0 0.1208048174
C  C41  1  0.71200000  0.78870000  0.54890000  1.0 0.5279891309
C  C42  1  0.28800000  0.71130000  0.04890000  1.0 0.5279891309
C  C43  1  0.78800000  0.28870000  0.45110000  1.0 0.5279891309
C  C44  1  0.21200000  0.21130000  0.95110000  1.0 0.5279891309
C  C45  1  0.28800000  0.21130000  0.45110000  1.0 0.5279891309
C  C46  1  0.71200000  0.28870000  0.95110000  1.0 0.5279891309
C  C47  1  0.21200000  0.71130000  0.54890000  1.0 0.5279891309
C  C48  1  0.78800000  0.78870000  0.04890000  1.0 0.5279891309
C  C49  1  0.88490000  0.74920000  0.44660000  1.0 0.5920428713
C  C50  1  0.11510000  0.75080000  0.94660000  1.0 0.5920428713
C  C51  1  0.61510000  0.24920000  0.55340000  1.0 0.5920428713
C  C52  1  0.38490000  0.25080000  0.05340000  1.0 0.5920428713
C  C53  1  0.11510000  0.25080000  0.55340000  1.0 0.5920428713
C  C54  1  0.88490000  0.24920000  0.05340000  1.0 0.5920428713
C  C55  1  0.38490000  0.75080000  0.44660000  1.0 0.5920428713
C  C56  1  0.61510000  0.74920000  0.94660000  1.0 0.5920428713
C  C57  1  0.28540000  0.52950000  0.62240000  1.0 0.075957703
C  C58  1  0.71460000  0.97050000  0.12240000  1.0 0.075957703
C  C59  1  0.21460000  0.02950000  0.37760000  1.0 0.075957703
C  C60  1  0.78540000  0.47050000  0.87760000  1.0 0.075957703
C  C61  1  0.71460000  0.47050000  0.37760000  1.0 0.075957703
C  C62  1  0.28540000  0.02950000  0.87760000  1.0 0.075957703
C  C63  1  0.78540000  0.97050000  0.62240000  1.0 0.075957703
C  C64  1  0.21460000  0.52950000  0.12240000  1.0 0.075957703
C  C65  1  0.22680000  0.54150000  0.60140000  1.0 -0.1602998289
C  C66  1  0.77320000  0.95850000  0.10140000  1.0 -0.1656626197
C  C67  1  0.27320000  0.04150000  0.39860000  1.0 -0.1656626197
C  C68  1  0.72680000  0.45850000  0.89860000  1.0 -0.1656626197
C  C69  1  0.77320000  0.45850000  0.39860000  1.0 -0.1656626197
C  C70  1  0.22680000  0.04150000  0.89860000  1.0 -0.1656626197
C  C71  1  0.72680000  0.95850000  0.60140000  1.0 -0.1656626197
C  C72  1  0.27320000  0.54150000  0.10140000  1.0 -0.1602998289
C  C73  1  0.17460000  0.50180000  0.60600000  1.0 -0.0839643092
C  C74  1  0.82540000  0.99820000  0.10600000  1.0 -0.0839643092
C  C75  1  0.32540000  0.00180000  0.39400000  1.0 -0.0839643092
C  C76  1  0.67460000  0.49820000  0.89400000  1.0 -0.0839643092
C  C77  1  0.82540000  0.49820000  0.39400000  1.0 -0.0839643092
C  C78  1  0.17460000  0.00180000  0.89400000  1.0 -0.0839643092
C  C79  1  0.67460000  0.99820000  0.60600000  1.0 -0.0839643092
C  C80  1  0.32540000  0.50180000  0.10600000  1.0 -0.0839643092
C  C81  1  0.18630000  0.45120000  0.62970000  1.0 -0.1602998289
C  C82  1  0.81370000  0.04880000  0.12970000  1.0 -0.1602998289
C  C83  1  0.31370000  0.95120000  0.37030000  1.0 -0.1602998289
C  C84  1  0.68630000  0.54880000  0.87030000  1.0 -0.1602998289
C  C85  1  0.81370000  0.54880000  0.37030000  1.0 -0.1602998289
C  C86  1  0.18630000  0.95120000  0.87030000  1.0 -0.1602998289
C  C87  1  0.68630000  0.04880000  0.62970000  1.0 -0.1602998289
C  C88  1  0.31370000  0.45120000  0.12970000  1.0 -0.1602998289
C  C89  1  0.24940000  0.44370000  0.64920000  1.0 0.1208048174
C  C90  1  0.75060000  0.05630000  0.14920000  1.0 0.1208048174
C  C91  1  0.25060000  0.94370000  0.35080000  1.0 0.1208048174
C  C92  1  0.74940000  0.55630000  0.85080000  1.0 0.1208048174
C  C93  1  0.75060000  0.55630000  0.35080000  1.0 0.1208048174
C  C94  1  0.24940000  0.94370000  0.85080000  1.0 0.1208048174
C  C95  1  0.74940000  0.05630000  0.64920000  1.0 0.1208048174
C  C96  1  0.25060000  0.44370000  0.14920000  1.0 0.1208048174
C  C97  1  0.34420000  0.56660000  0.61770000  1.0 0.5920428713
C  C98  1  0.65580000  0.93340000  0.11770000  1.0 0.5920428713
C  C99  1  0.15580000  0.06660000  0.38230000  1.0 0.5920428713
C  C100  1  0.84420000  0.43340000  0.88230000  1.0 0.5920428713
C  C101  1  0.65580000  0.43340000  0.38230000  1.0 0.5920428713
C  C102  1  0.34420000  0.06660000  0.88230000  1.0 0.5920428713
C  C103  1  0.84420000  0.93340000  0.61770000  1.0 0.5920428713
C  C104  1  0.15580000  0.56660000  0.11770000  1.0 0.5920428713
C  C105  1  0.27280000  0.38960000  0.67030000  1.0 0.5216021058
C  C106  1  0.72720000  0.11040000  0.17030000  1.0 0.5216021058
C  C107  1  0.22720000  0.88960000  0.32970000  1.0 0.5216021058
C  C108  1  0.77280000  0.61040000  0.82970000  1.0 0.5216021058
C  C109  1  0.72720000  0.61040000  0.32970000  1.0 0.5216021058
C  C110  1  0.27280000  0.88960000  0.82970000  1.0 0.5216021058
C  C111  1  0.77280000  0.11040000  0.67030000  1.0 0.5216021058
C  C112  1  0.22720000  0.38960000  0.17030000  1.0 0.5216021058
C  C113  1  0.53360000  0.39560000  0.73930000  1.0 0.08990731
C  C114  1  0.46640000  0.10440000  0.23930000  1.0 0.08990731
C  C115  1  0.96640000  0.89560000  0.26070000  1.0 0.08990731
C  C116  1  0.03360000  0.60440000  0.76070000  1.0 0.08990731
C  C117  1  0.46640000  0.60440000  0.26070000  1.0 0.08990731
C  C118  1  0.53360000  0.89560000  0.76070000  1.0 0.08990731
C  C119  1  0.03360000  0.10440000  0.73930000  1.0 0.08990731
C  C120  1  0.96640000  0.39560000  0.23930000  1.0 0.08990731
C  C121  1  0.58730000  0.38420000  0.76700000  1.0 -0.1275867147
C  C122  1  0.41270000  0.11580000  0.26700000  1.0 -0.1275867147
C  C123  1  0.91270000  0.88420000  0.23300000  1.0 -0.1275867147
C  C124  1  0.08730000  0.61580000  0.73300000  1.0 -0.1275867147
C  C125  1  0.41270000  0.61580000  0.23300000  1.0 -0.1275867147
C  C126  1  0.58730000  0.88420000  0.73300000  1.0 -0.1275867147
C  C127  1  0.08730000  0.11580000  0.76700000  1.0 -0.1275867147
C  C128  1  0.91270000  0.38420000  0.26700000  1.0 -0.1275867147
C  C129  1  0.61010000  0.42740000  0.79530000  1.0 -0.0502361649
C  C130  1  0.38990000  0.07260000  0.29530000  1.0 -0.0502361649
C  C131  1  0.88990000  0.92740000  0.20470000  1.0 -0.0502361649
C  C132  1  0.11010000  0.57260000  0.70470000  1.0 -0.0502361649
C  C133  1  0.38990000  0.57260000  0.20470000  1.0 -0.0502361649
C  C134  1  0.61010000  0.92740000  0.70470000  1.0 -0.0502361649
C  C135  1  0.11010000  0.07260000  0.79530000  1.0 -0.0502361649
C  C136  1  0.88990000  0.42740000  0.29530000  1.0 -0.0502361649
C  C137  1  0.58100000  0.47940000  0.79460000  1.0 -0.1468810602
C  C138  1  0.41900000  0.02060000  0.29460000  1.0 -0.1468810602
C  C139  1  0.91900000  0.97940000  0.20540000  1.0 -0.1468810602
C  C140  1  0.08100000  0.52060000  0.70540000  1.0 -0.1468810602
C  C141  1  0.41900000  0.52060000  0.20540000  1.0 -0.1468810602
C  C142  1  0.58100000  0.97940000  0.70540000  1.0 -0.1468810602
C  C143  1  0.08100000  0.02060000  0.79460000  1.0 -0.1468810602
C  C144  1  0.91900000  0.47940000  0.29460000  1.0 -0.1468810602
C  C145  1  0.52850000  0.48790000  0.76550000  1.0 0.0995361133
C  C146  1  0.47150000  0.01210000  0.26550000  1.0 0.0995361133
C  C147  1  0.97150000  0.98790000  0.23450000  1.0 0.0995361133
C  C148  1  0.02850000  0.51210000  0.73450000  1.0 0.0995361133
C  C149  1  0.47150000  0.51210000  0.23450000  1.0 0.0995361133
C  C150  1  0.52850000  0.98790000  0.73450000  1.0 0.0995361133
C  C151  1  0.02850000  0.01210000  0.76550000  1.0 0.0995361133
C  C152  1  0.97150000  0.48790000  0.26550000  1.0 0.0995361133
C  C153  1  0.49610000  0.54440000  0.75770000  1.0 0.5352353868
C  C154  1  0.50390000  0.95560000  0.25770000  1.0 0.5352353868
C  C155  1  0.00390000  0.04440000  0.24230000  1.0 0.5352353868
C  C156  1  0.99610000  0.45560000  0.74230000  1.0 0.5352353868
C  C157  1  0.50390000  0.45560000  0.24230000  1.0 0.5352353868
C  C158  1  0.49610000  0.04440000  0.74230000  1.0 0.5352353868
C  C159  1  0.99610000  0.95560000  0.75770000  1.0 0.5352353868
C  C160  1  0.00390000  0.54440000  0.25770000  1.0 0.5352353868
C  C161  1  0.50640000  0.35530000  0.70520000  1.0 0.5966134262
C  C162  1  0.49360000  0.14470000  0.20520000  1.0 0.5966134262
C  C163  1  0.99360000  0.85530000  0.29480000  1.0 0.5966134262
C  C164  1  0.00640000  0.64470000  0.79480000  1.0 0.5966134262
C  C165  1  0.49360000  0.64470000  0.29480000  1.0 0.5966134262
C  C166  1  0.50640000  0.85530000  0.79480000  1.0 0.5966134262
C  C167  1  0.00640000  0.14470000  0.70520000  1.0 0.5966134262
C  C168  1  0.99360000  0.35530000  0.20520000  1.0 0.5966134262
N  N1  1  0.50460000  0.44660000  0.73880000  1.0 -0.3791309851
N  N2  1  0.49540000  0.05340000  0.23880000  1.0 -0.3791309851
N  N3  1  0.99540000  0.94660000  0.26120000  1.0 -0.3791309851
N  N4  1  0.00460000  0.55340000  0.76120000  1.0 -0.3791309851
N  N5  1  0.49540000  0.55340000  0.26120000  1.0 -0.3791309851
N  N6  1  0.50460000  0.94660000  0.76120000  1.0 -0.3791309851
N  N7  1  0.00460000  0.05340000  0.73880000  1.0 -0.3791309851
N  N8  1  0.99540000  0.44660000  0.23880000  1.0 -0.3791309851
N  N9  1  0.29690000  0.48170000  0.64600000  1.0 -0.4429744515
N  N10  1  0.70310000  0.01830000  0.14600000  1.0 -0.4429744515
N  N11  1  0.20310000  0.98170000  0.35400000  1.0 -0.4429744515
N  N12  1  0.79690000  0.51830000  0.85400000  1.0 -0.4429744515
N  N13  1  0.70310000  0.51830000  0.35400000  1.0 -0.4429744515
N  N14  1  0.29690000  0.98170000  0.85400000  1.0 -0.4429744515
N  N15  1  0.79690000  0.01830000  0.64600000  1.0 -0.4429744515
N  N16  1  0.20310000  0.48170000  0.14600000  1.0 -0.4429744515
N  N17  1  0.79200000  0.76750000  0.49450000  1.0 -0.393670674
N  N18  1  0.20800000  0.73250000  0.99450000  1.0 -0.393670674
N  N19  1  0.70800000  0.26750000  0.50550000  1.0 -0.393670674
N  N20  1  0.29200000  0.23250000  0.00550000  1.0 -0.393670674
N  N21  1  0.20800000  0.23250000  0.50550000  1.0 -0.393670674
N  N22  1  0.79200000  0.26750000  0.00550000  1.0 -0.393670674
N  N23  1  0.29200000  0.73250000  0.49450000  1.0 -0.393670674
N  N24  1  0.70800000  0.76750000  0.99450000  1.0 -0.393670674
O  O1  1  0.69750000  0.46300000  0.61090000  1.0 -1.0142143087
O  O2  1  0.30250000  0.03700000  0.11090000  1.0 -1.0142143087
O  O3  1  0.80250000  0.96300000  0.38910000  1.0 -1.0169736243
O  O4  1  0.19750000  0.53700000  0.88910000  1.0 -1.0142143087
O  O5  1  0.30250000  0.53700000  0.38910000  1.0 -1.0142143087
O  O6  1  0.69750000  0.96300000  0.88910000  1.0 -1.0142143087
O  O7  1  0.19750000  0.03700000  0.61090000  1.0 -1.0142143087
O  O8  1  0.80250000  0.46300000  0.11090000  1.0 -1.0169736243
O  O9  1  0.74720000  0.57070000  0.58070000  1.0 -1.0142143087
O  O10  1  0.25280000  0.92930000  0.08070000  1.0 -1.0142143087
O  O11  1  0.75280000  0.07070000  0.41930000  1.0 -1.0169736243
O  O12  1  0.24720000  0.42930000  0.91930000  1.0 -1.0169736243
O  O13  1  0.25280000  0.42930000  0.41930000  1.0 -1.0169736243
O  O14  1  0.74720000  0.07070000  0.91930000  1.0 -1.0169736243
O  O15  1  0.24720000  0.92930000  0.58070000  1.0 -1.0169736243
O  O16  1  0.75280000  0.57070000  0.08070000  1.0 -1.0142143087
O  O17  1  0.77660000  0.53240000  0.67410000  1.0 -0.9706685377
O  O18  1  0.22340000  0.96760000  0.17410000  1.0 -0.9706685377
O  O19  1  0.72340000  0.03240000  0.32590000  1.0 -0.9706685377
O  O20  1  0.27660000  0.46760000  0.82590000  1.0 -0.9706685377
O  O21  1  0.22340000  0.46760000  0.32590000  1.0 -0.9706685377
O  O22  1  0.77660000  0.03240000  0.82590000  1.0 -0.9706685377
O  O23  1  0.27660000  0.96760000  0.67410000  1.0 -0.9706685377
O  O24  1  0.72340000  0.53240000  0.17410000  1.0 -0.9706685377
O  O25  1  0.83920000  0.47750000  0.59910000  1.0 -1.0305677387
O  O26  1  0.16080000  0.02250000  0.09910000  1.0 -1.0305677387
O  O27  1  0.66080000  0.97750000  0.40090000  1.0 -1.0305677387
O  O28  1  0.33920000  0.52250000  0.90090000  1.0 -1.0305677387
O  O29  1  0.16080000  0.52250000  0.40090000  1.0 -1.0305677387
O  O30  1  0.83920000  0.97750000  0.90090000  1.0 -1.0305677387
O  O31  1  0.33920000  0.02250000  0.59910000  1.0 -1.0305677387
O  O32  1  0.66080000  0.47750000  0.09910000  1.0 -1.0305677387
O  O33  1  0.92760000  0.48800000  0.53960000  1.0 -0.9706685377
O  O34  1  0.07240000  0.01200000  0.03960000  1.0 -0.9706685377
O  O35  1  0.57240000  0.98800000  0.46040000  1.0 -0.9706685377
O  O36  1  0.42760000  0.51200000  0.96040000  1.0 -0.9706685377
O  O37  1  0.07240000  0.51200000  0.46040000  1.0 -0.9706685377
O  O38  1  0.92760000  0.98800000  0.96040000  1.0 -0.9706685377
O  O39  1  0.42760000  0.01200000  0.53960000  1.0 -0.9706685377
O  O40  1  0.57240000  0.48800000  0.03960000  1.0 -0.9706685377
O  O41  1  0.32870000  0.38640000  0.68350000  1.0 -0.5670125368
O  O42  1  0.67130000  0.11360000  0.18350000  1.0 -0.5670125368
O  O43  1  0.17130000  0.88640000  0.31650000  1.0 -0.5670125368
O  O44  1  0.82870000  0.61360000  0.81650000  1.0 -0.5670125368
O  O45  1  0.67130000  0.61360000  0.31650000  1.0 -0.5670125368
O  O46  1  0.32870000  0.88640000  0.81650000  1.0 -0.5670125368
O  O47  1  0.82870000  0.11360000  0.68350000  1.0 -0.5670125368
O  O48  1  0.17130000  0.38640000  0.18350000  1.0 -0.5670125368
O  O49  1  0.53020000  0.30600000  0.70090000  1.0 -0.6873032377
O  O50  1  0.46980000  0.19400000  0.20090000  1.0 -0.6873032377
O  O51  1  0.96980000  0.80600000  0.29910000  1.0 -0.6873032377
O  O52  1  0.03020000  0.69400000  0.79910000  1.0 -0.6873032377
O  O53  1  0.46980000  0.69400000  0.29910000  1.0 -0.6873032377
O  O54  1  0.53020000  0.80600000  0.79910000  1.0 -0.6873032377
O  O55  1  0.03020000  0.19400000  0.70090000  1.0 -0.6873032377
O  O56  1  0.96980000  0.30600000  0.20090000  1.0 -0.6873032377
O  O57  1  0.39520000  0.55270000  0.63680000  1.0 -0.5801704956
O  O58  1  0.60480000  0.94730000  0.13680000  1.0 -0.5801704956
O  O59  1  0.10480000  0.05270000  0.36320000  1.0 -0.5801704956
O  O60  1  0.89520000  0.44730000  0.86320000  1.0 -0.5801704956
O  O61  1  0.60480000  0.44730000  0.36320000  1.0 -0.5801704956
O  O62  1  0.39520000  0.05270000  0.86320000  1.0 -0.5801704956
O  O63  1  0.89520000  0.94730000  0.63680000  1.0 -0.5801704956
O  O64  1  0.10480000  0.55270000  0.13680000  1.0 -0.5801704956
O  O65  1  0.91710000  0.34260000  0.64800000  1.0 -0.9408346179
O  O66  1  0.08290000  0.15740000  0.14800000  1.0 -0.9408346179
O  O67  1  0.58290000  0.84260000  0.35200000  1.0 -0.9408346179
O  O68  1  0.41710000  0.65740000  0.85200000  1.0 -0.9408346179
O  O69  1  0.08290000  0.65740000  0.35200000  1.0 -0.9408346179
O  O70  1  0.91710000  0.84260000  0.85200000  1.0 -0.9408346179
O  O71  1  0.41710000  0.15740000  0.64800000  1.0 -0.9408346179
O  O72  1  0.58290000  0.34260000  0.14800000  1.0 -0.9408346179
O  O73  1  0.86010000  0.70330000  0.56430000  1.0 -0.9194692157
O  O74  1  0.13990000  0.79670000  0.06430000  1.0 -0.9194692157
O  O75  1  0.63990000  0.20330000  0.43570000  1.0 -0.9194692157
O  O76  1  0.36010000  0.29670000  0.93570000  1.0 -0.9194692157
O  O77  1  0.13990000  0.29670000  0.43570000  1.0 -0.9194692157
O  O78  1  0.86010000  0.20330000  0.93570000  1.0 -0.9194692157
O  O79  1  0.36010000  0.79670000  0.56430000  1.0 -0.9194692157
O  O80  1  0.63990000  0.70330000  0.06430000  1.0 -0.9194692157
O  O81  1  0.76290000  0.41340000  0.53620000  1.0 -0.8992766999
O  O82  1  0.23710000  0.08660000  0.03620000  1.0 -0.8992766999
O  O83  1  0.73710000  0.91340000  0.46380000  1.0 -0.8992766999
O  O84  1  0.26290000  0.58660000  0.96380000  1.0 -0.8992766999
O  O85  1  0.23710000  0.58660000  0.46380000  1.0 -0.8992766999
O  O86  1  0.76290000  0.91340000  0.96380000  1.0 -0.8992766999
O  O87  1  0.26290000  0.08660000  0.53620000  1.0 -0.8992766999
O  O88  1  0.73710000  0.41340000  0.03620000  1.0 -0.8992766999
O  O89  1  0.76820000  0.62260000  0.72100000  1.0 -0.9974731686
O  O90  1  0.23180000  0.87740000  0.22100000  1.0 -0.9974731686
O  O91  1  0.73180000  0.12260000  0.27900000  1.0 -0.9974731686
O  O92  1  0.26820000  0.37740000  0.77900000  1.0 -0.9974731686
O  O93  1  0.23180000  0.37740000  0.27900000  1.0 -0.9974731686
O  O94  1  0.76820000  0.12260000  0.77900000  1.0 -0.9974731686
O  O95  1  0.26820000  0.87740000  0.72100000  1.0 -0.9974731686
O  O96  1  0.73180000  0.62260000  0.22100000  1.0 -0.9974731686
O  O97  1  0.61060000  0.55710000  0.60020000  1.0 -0.9294059
O  O98  1  0.38940000  0.94290000  0.10020000  1.0 -0.9294059
O  O99  1  0.88940000  0.05710000  0.39980000  1.0 -0.9294059
O  O100  1  0.11060000  0.44290000  0.89980000  1.0 -0.9294059
O  O101  1  0.38940000  0.44290000  0.39980000  1.0 -0.9294059
O  O102  1  0.61060000  0.05710000  0.89980000  1.0 -0.9294059
O  O103  1  0.11060000  0.94290000  0.60020000  1.0 -0.9294059
O  O104  1  0.88940000  0.55710000  0.10020000  1.0 -0.9294059
O  O105  1  0.51510000  0.58430000  0.78650000  1.0 -0.5801704956
O  O106  1  0.48490000  0.91570000  0.28650000  1.0 -0.5801704956
O  O107  1  0.98490000  0.08430000  0.21350000  1.0 -0.5801704956
O  O108  1  0.01510000  0.41570000  0.71350000  1.0 -0.5801704956
O  O109  1  0.48490000  0.41570000  0.21350000  1.0 -0.5801704956
O  O110  1  0.51510000  0.08430000  0.71350000  1.0 -0.5801704956
O  O111  1  0.01510000  0.91570000  0.78650000  1.0 -0.5801704956
O  O112  1  0.98490000  0.58430000  0.28650000  1.0 -0.5801704956
O  O113  1  0.46070000  0.37460000  0.68040000  1.0 -0.639066692
O  O114  1  0.53930000  0.12540000  0.18040000  1.0 -0.639066692
O  O115  1  0.03930000  0.87460000  0.31960000  1.0 -0.639066692
O  O116  1  0.96070000  0.62540000  0.81960000  1.0 -0.639066692
O  O117  1  0.53930000  0.62540000  0.31960000  1.0 -0.639066692
O  O118  1  0.46070000  0.87460000  0.81960000  1.0 -0.639066692
O  O119  1  0.96070000  0.12540000  0.68040000  1.0 -0.639066692
O  O120  1  0.03930000  0.37460000  0.18040000  1.0 -0.639066692
O  O121  1  0.67850000  0.62110000  0.65560000  1.0 -0.9499822614
O  O122  1  0.32150000  0.87890000  0.15560000  1.0 -0.955966461
O  O123  1  0.82150000  0.12110000  0.34440000  1.0 -0.9499822614
O  O124  1  0.17850000  0.37890000  0.84440000  1.0 -0.9499822614
O  O125  1  0.32150000  0.37890000  0.34440000  1.0 -0.955966461
O  O126  1  0.67850000  0.12110000  0.84440000  1.0 -0.955966461
O  O127  1  0.17850000  0.87890000  0.65560000  1.0 -0.9499822614
O  O128  1  0.82150000  0.62110000  0.15560000  1.0 -0.9499822614
O  O129  1  0.72440000  0.52080000  0.75150000  1.0 -0.9499822614
O  O130  1  0.27560000  0.97920000  0.25150000  1.0 -0.9499822614
O  O131  1  0.77560000  0.02080000  0.24850000  1.0 -0.9499822614
O  O132  1  0.22440000  0.47920000  0.74850000  1.0 -0.9499822614
O  O133  1  0.27560000  0.47920000  0.24850000  1.0 -0.9499822614
O  O134  1  0.72440000  0.02080000  0.74850000  1.0 -0.9499822614
O  O135  1  0.22440000  0.97920000  0.75150000  1.0 -0.9499822614
O  O136  1  0.77560000  0.52080000  0.25150000  1.0 -0.9499822614
O  O137  1  0.80410000  0.51110000  0.50600000  1.0 -0.9499822614
O  O138  1  0.19590000  0.98890000  0.00600000  1.0 -0.9499822614
O  O139  1  0.69590000  0.01110000  0.49400000  1.0 -0.9499822614
O  O140  1  0.30410000  0.48890000  0.99400000  1.0 -0.9499822614
O  O141  1  0.19590000  0.48890000  0.49400000  1.0 -0.9499822614
O  O142  1  0.80410000  0.01110000  0.99400000  1.0 -0.9499822614
O  O143  1  0.30410000  0.98890000  0.50600000  1.0 -0.9499822614
O  O144  1  0.69590000  0.51110000  0.00600000  1.0 -0.9499822614
O  O145  1  0.67310000  0.35950000  0.59020000  1.0 -0.9294059
O  O146  1  0.32690000  0.14050000  0.09020000  1.0 -0.9194692157
O  O147  1  0.82690000  0.85950000  0.40980000  1.0 -0.9194692157
O  O148  1  0.17310000  0.64050000  0.90980000  1.0 -0.9194692157
O  O149  1  0.32690000  0.64050000  0.40980000  1.0 -0.9194692157
O  O150  1  0.67310000  0.85950000  0.90980000  1.0 -0.9194692157
O  O151  1  0.17310000  0.14050000  0.59020000  1.0 -0.9194692157
O  O152  1  0.82690000  0.35950000  0.09020000  1.0 -0.9194692157
O  O153  1  0.22970000  0.34920000  0.67570000  1.0 -0.5801704956
O  O154  1  0.77030000  0.15080000  0.17570000  1.0 -0.5801704956
O  O155  1  0.27030000  0.84920000  0.32430000  1.0 -0.5801704956
O  O156  1  0.72970000  0.65080000  0.82430000  1.0 -0.5801704956
O  O157  1  0.77030000  0.65080000  0.32430000  1.0 -0.5801704956
O  O158  1  0.22970000  0.84920000  0.82430000  1.0 -0.5801704956
O  O159  1  0.72970000  0.15080000  0.67570000  1.0 -0.5801704956
O  O160  1  0.27030000  0.34920000  0.17570000  1.0 -0.5801704956
O  O161  1  0.64150000  0.38390000  0.50160000  1.0 -0.9128646192
O  O162  1  0.35850000  0.11610000  0.00160000  1.0 -0.9128646192
O  O163  1  0.85850000  0.88390000  0.49840000  1.0 -0.9128646192
O  O164  1  0.14150000  0.61610000  0.99840000  1.0 -0.9128646192
O  O165  1  0.35850000  0.61610000  0.49840000  1.0 -0.9128646192
O  O166  1  0.64150000  0.88390000  0.99840000  1.0 -0.9128646192
O  O167  1  0.14150000  0.11610000  0.50160000  1.0 -0.9194692157
O  O168  1  0.85850000  0.38390000  0.00160000  1.0 -0.9128646192
O  O169  1  0.73130000  0.42320000  0.70180000  1.0 -0.9194692157
O  O170  1  0.26870000  0.07680000  0.20180000  1.0 -0.9194692157
O  O171  1  0.76870000  0.92320000  0.29820000  1.0 -0.9194692157
O  O172  1  0.23130000  0.57680000  0.79820000  1.0 -0.9194692157
O  O173  1  0.26870000  0.57680000  0.29820000  1.0 -0.9194692157
O  O174  1  0.73130000  0.92320000  0.79820000  1.0 -0.9194692157
O  O175  1  0.23130000  0.07680000  0.70180000  1.0 -0.9194692157
O  O176  1  0.76870000  0.42320000  0.20180000  1.0 -0.9194692157
O  O177  1  0.33740000  0.61320000  0.59410000  1.0 -0.6873032377
O  O178  1  0.66260000  0.88680000  0.09410000  1.0 -0.6873032377
O  O179  1  0.16260000  0.11320000  0.40590000  1.0 -0.6849969807
O  O180  1  0.83740000  0.38680000  0.90590000  1.0 -0.6873032377
O  O181  1  0.66260000  0.38680000  0.40590000  1.0 -0.6849969807
O  O182  1  0.33740000  0.11320000  0.90590000  1.0 -0.6873032377
O  O183  1  0.83740000  0.88680000  0.59410000  1.0 -0.6873032377
O  O184  1  0.16260000  0.61320000  0.09410000  1.0 -0.6849969807
O  O185  1  0.85530000  0.43970000  0.68830000  1.0 -0.9194692157
O  O186  1  0.14470000  0.06030000  0.18830000  1.0 -0.9128646192
O  O187  1  0.64470000  0.93970000  0.31170000  1.0 -0.9128646192
O  O188  1  0.35530000  0.56030000  0.81170000  1.0 -0.9128646192
O  O189  1  0.14470000  0.56030000  0.31170000  1.0 -0.9128646192
O  O190  1  0.85530000  0.93970000  0.81170000  1.0 -0.9194692157
O  O191  1  0.35530000  0.06030000  0.68830000  1.0 -0.9128646192
O  O192  1  0.64470000  0.43970000  0.18830000  1.0 -0.9128646192
O  O193  1  0.88560000  0.58650000  0.57260000  1.0 -0.9294059
O  O194  1  0.11440000  0.91350000  0.07260000  1.0 -0.9294059
O  O195  1  0.61440000  0.08650000  0.42740000  1.0 -0.9294059
O  O196  1  0.38560000  0.41350000  0.92740000  1.0 -0.9294059
O  O197  1  0.11440000  0.41350000  0.42740000  1.0 -0.9294059
O  O198  1  0.88560000  0.08650000  0.92740000  1.0 -0.9294059
O  O199  1  0.38560000  0.91350000  0.57260000  1.0 -0.9294059
O  O200  1  0.61440000  0.58650000  0.07260000  1.0 -0.9294059
O  O201  1  0.82590000  0.63790000  0.63940000  1.0 -0.9294059
O  O202  1  0.17410000  0.86210000  0.13940000  1.0 -0.9294059
O  O203  1  0.67410000  0.13790000  0.36060000  1.0 -0.9294059
O  O204  1  0.32590000  0.36210000  0.86060000  1.0 -0.9294059
O  O205  1  0.17410000  0.36210000  0.36060000  1.0 -0.9294059
O  O206  1  0.82590000  0.13790000  0.86060000  1.0 -0.9294059
O  O207  1  0.32590000  0.86210000  0.63940000  1.0 -0.9294059
O  O208  1  0.67410000  0.63790000  0.13940000  1.0 -0.9294059
O  O209  1  0.51500000  0.49060000  0.64320000  1.0 -0.8640753808
O  O210  1  0.48500000  0.00940000  0.14320000  1.0 -0.866356374
O  O211  1  0.98500000  0.99060000  0.35680000  1.0 -0.866356374
O  O212  1  0.01500000  0.50940000  0.85680000  1.0 -0.866356374
O  O213  1  0.48500000  0.50940000  0.35680000  1.0 -0.866356374
O  O214  1  0.51500000  0.99060000  0.85680000  1.0 -0.866356374
O  O215  1  0.01500000  0.00940000  0.64320000  1.0 -0.866356374
O  O216  1  0.98500000  0.49060000  0.14320000  1.0 -0.866356374
O  O217  1  0.67950000  0.49570000  0.51920000  1.0 -0.9194692157
O  O218  1  0.32050000  0.00430000  0.01920000  1.0 -0.9194692157
O  O219  1  0.82050000  0.99570000  0.48080000  1.0 -0.9194692157
O  O220  1  0.17950000  0.50430000  0.98080000  1.0 -0.9194692157
O  O221  1  0.32050000  0.50430000  0.48080000  1.0 -0.9194692157
O  O222  1  0.67950000  0.99570000  0.98080000  1.0 -0.9194692157
O  O223  1  0.17950000  0.00430000  0.51920000  1.0 -0.9194692157
O  O224  1  0.82050000  0.49570000  0.01920000  1.0 -0.9194692157
O  O225  1  0.45730000  0.55110000  0.72750000  1.0 -0.5613670233
O  O226  1  0.54270000  0.94890000  0.22750000  1.0 -0.5613670233
O  O227  1  0.04270000  0.05110000  0.27250000  1.0 -0.5613670233
O  O228  1  0.95730000  0.44890000  0.77250000  1.0 -0.5613670233
O  O229  1  0.54270000  0.44890000  0.27250000  1.0 -0.5613670233
O  O230  1  0.45730000  0.05110000  0.77250000  1.0 -0.5613670233
O  O231  1  0.95730000  0.94890000  0.72750000  1.0 -0.5613670233
O  O232  1  0.04270000  0.55110000  0.22750000  1.0 -0.5613670233
O  O233  1  0.85490000  0.53630000  0.73960000  1.0 -1.0745659652
O  O234  1  0.14510000  0.96370000  0.23960000  1.0 -1.0745659652
O  O235  1  0.64510000  0.03630000  0.26040000  1.0 -1.075330216
O  O236  1  0.35490000  0.46370000  0.76040000  1.0 -1.0745659652
O  O237  1  0.14510000  0.46370000  0.26040000  1.0 -1.0745659652
O  O238  1  0.85490000  0.03630000  0.76040000  1.0 -1.0745659652
O  O239  1  0.35490000  0.96370000  0.73960000  1.0 -1.0745659652
O  O240  1  0.64510000  0.53630000  0.23960000  1.0 -1.075330216
O  O241  1  0.90360000  0.73320000  0.40850000  1.0 -0.6873032377
O  O242  1  0.09640000  0.76680000  0.90850000  1.0 -0.6873032377
O  O243  1  0.59640000  0.23320000  0.59150000  1.0 -0.6873032377
O  O244  1  0.40360000  0.26680000  0.09150000  1.0 -0.6873032377
O  O245  1  0.09640000  0.26680000  0.59150000  1.0 -0.6873032377
O  O246  1  0.90360000  0.23320000  0.09150000  1.0 -0.6873032377
O  O247  1  0.40360000  0.76680000  0.40850000  1.0 -0.6873032377
O  O248  1  0.59640000  0.73320000  0.90850000  1.0 -0.6873032377
O  O249  1  0.95140000  0.45060000  0.62500000  1.0 -0.9499822614
O  O250  1  0.04860000  0.04940000  0.12500000  1.0 -0.9499822614
O  O251  1  0.54860000  0.95060000  0.37500000  1.0 -0.9499822614
O  O252  1  0.45140000  0.54940000  0.87500000  1.0 -0.9499822614
O  O253  1  0.04860000  0.54940000  0.37500000  1.0 -0.9499822614
O  O254  1  0.95140000  0.95060000  0.87500000  1.0 -0.9499822614
O  O255  1  0.45140000  0.04940000  0.62500000  1.0 -0.9499822614
O  O256  1  0.54860000  0.45060000  0.12500000  1.0 -0.9499822614
O  O257  1  0.79210000  0.62460000  0.51460000  1.0 -0.8992766999
O  O258  1  0.20790000  0.87540000  0.01460000  1.0 -0.8992766999
O  O259  1  0.70790000  0.12460000  0.48540000  1.0 -0.8992766999
O  O260  1  0.29210000  0.37540000  0.98540000  1.0 -0.8992766999
O  O261  1  0.20790000  0.37540000  0.48540000  1.0 -0.9128646192
O  O262  1  0.79210000  0.12460000  0.98540000  1.0 -0.8992766999
O  O263  1  0.29210000  0.87540000  0.51460000  1.0 -0.8992766999
O  O264  1  0.70790000  0.62460000  0.01460000  1.0 -0.8992766999
O  O265  1  0.90690000  0.55610000  0.65680000  1.0 -0.9408346179
O  O266  1  0.09310000  0.94390000  0.15680000  1.0 -0.9294059
O  O267  1  0.59310000  0.05610000  0.34320000  1.0 -0.9294059
O  O268  1  0.40690000  0.44390000  0.84320000  1.0 -0.9294059
O  O269  1  0.09310000  0.44390000  0.34320000  1.0 -0.9294059
O  O270  1  0.90690000  0.05610000  0.84320000  1.0 -0.9294059
O  O271  1  0.40690000  0.94390000  0.65680000  1.0 -0.9294059
O  O272  1  0.59310000  0.55610000  0.15680000  1.0 -0.9408346179
O  O273  1  0.78630000  0.37310000  0.63410000  1.0 -0.9194692157
O  O274  1  0.21370000  0.12690000  0.13410000  1.0 -0.9194692157
O  O275  1  0.71370000  0.87310000  0.36590000  1.0 -0.9194692157
O  O276  1  0.28630000  0.62690000  0.86590000  1.0 -0.9194692157
O  O277  1  0.21370000  0.62690000  0.36590000  1.0 -0.9194692157
O  O278  1  0.78630000  0.87310000  0.86590000  1.0 -0.9194692157
O  O279  1  0.28630000  0.12690000  0.63410000  1.0 -0.9194692157
O  O280  1  0.71370000  0.37310000  0.13410000  1.0 -0.9194692157
O  O281  1  0.73370000  0.67580000  0.58430000  1.0 -0.9499822614
O  O282  1  0.26630000  0.82420000  0.08430000  1.0 -0.9499822614
O  O283  1  0.76630000  0.17580000  0.41570000  1.0 -0.9499822614
O  O284  1  0.23370000  0.32420000  0.91570000  1.0 -0.9499822614
O  O285  1  0.26630000  0.32420000  0.41570000  1.0 -0.9499822614
O  O286  1  0.73370000  0.17580000  0.91570000  1.0 -0.9499822614
O  O287  1  0.23370000  0.82420000  0.58430000  1.0 -0.955966461
O  O288  1  0.76630000  0.67580000  0.08430000  1.0 -0.9499822614
O  O289  1  0.66140000  0.61020000  0.52780000  1.0 -0.9706685377
O  O290  1  0.33860000  0.88980000  0.02780000  1.0 -0.9706685377
O  O291  1  0.83860000  0.11020000  0.47220000  1.0 -0.9706685377
O  O292  1  0.16140000  0.38980000  0.97220000  1.0 -0.9706685377
O  O293  1  0.33860000  0.38980000  0.47220000  1.0 -0.9706685377
O  O294  1  0.66140000  0.11020000  0.97220000  1.0 -0.9706685377
O  O295  1  0.16140000  0.88980000  0.52780000  1.0 -0.9706685377
O  O296  1  0.83860000  0.61020000  0.02780000  1.0 -0.9706685377
O  O297  1  0.58840000  0.44610000  0.57290000  1.0 -0.955966461
O  O298  1  0.41160000  0.05390000  0.07290000  1.0 -0.9499822614
O  O299  1  0.91160000  0.94610000  0.42710000  1.0 -0.955966461
O  O300  1  0.08840000  0.55390000  0.92710000  1.0 -0.9499822614
O  O301  1  0.41160000  0.55390000  0.42710000  1.0 -0.9499822614
O  O302  1  0.58840000  0.94610000  0.92710000  1.0 -0.955966461
O  O303  1  0.08840000  0.05390000  0.57290000  1.0 -0.9499822614
O  O304  1  0.91160000  0.44610000  0.07290000  1.0 -0.955966461
O  O305  1  0.63500000  0.52190000  0.68280000  1.0 -0.9128646192
O  O306  1  0.36500000  0.97810000  0.18280000  1.0 -0.9128646192
O  O307  1  0.86500000  0.02190000  0.31720000  1.0 -0.9128646192
O  O308  1  0.13500000  0.47810000  0.81720000  1.0 -0.9128646192
O  O309  1  0.36500000  0.47810000  0.31720000  1.0 -0.9128646192
O  O310  1  0.63500000  0.02190000  0.81720000  1.0 -0.9128646192
O  O311  1  0.13500000  0.97810000  0.68280000  1.0 -0.9128646192
O  O312  1  0.86500000  0.52190000  0.18280000  1.0 -0.9128646192
O  O313  1  0.61180000  0.41330000  0.66030000  1.0 -0.9294059
O  O314  1  0.38820000  0.08670000  0.16030000  1.0 -0.9294059
O  O315  1  0.88820000  0.91330000  0.33970000  1.0 -0.9294059
O  O316  1  0.11180000  0.58670000  0.83970000  1.0 -0.9294059
O  O317  1  0.38820000  0.58670000  0.33970000  1.0 -0.9294059
O  O318  1  0.61180000  0.91330000  0.83970000  1.0 -0.9294059
O  O319  1  0.11180000  0.08670000  0.66030000  1.0 -0.9294059
O  O320  1  0.88820000  0.41330000  0.16030000  1.0 -0.9294059
O  O321  1  0.88040000  0.38450000  0.56650000  1.0 -0.9499822614
O  O322  1  0.11960000  0.11550000  0.06650000  1.0 -0.9499822614
O  O323  1  0.61960000  0.88450000  0.43350000  1.0 -0.9499822614
O  O324  1  0.38040000  0.61550000  0.93350000  1.0 -0.9499822614
O  O325  1  0.11960000  0.61550000  0.43350000  1.0 -0.9499822614
O  O326  1  0.88040000  0.88450000  0.93350000  1.0 -0.9499822614
O  O327  1  0.38040000  0.11550000  0.56650000  1.0 -0.9499822614
O  O328  1  0.61960000  0.38450000  0.06650000  1.0 -0.9499822614
O  O329  1  0.75380000  0.80640000  0.57370000  1.0 -0.5613670233
O  O330  1  0.24620000  0.69360000  0.07370000  1.0 -0.5613670233
O  O331  1  0.74620000  0.30640000  0.42630000  1.0 -0.5613670233
O  O332  1  0.25380000  0.19360000  0.92630000  1.0 -0.5613670233
O  O333  1  0.24620000  0.19360000  0.42630000  1.0 -0.5613670233
O  O334  1  0.75380000  0.30640000  0.92630000  1.0 -0.5613670233
O  O335  1  0.25380000  0.69360000  0.57370000  1.0 -0.5613670233
O  O336  1  0.74620000  0.80640000  0.07370000  1.0 -0.5613670233
O  O337  1  0.91940000  0.76800000  0.47780000  1.0 -0.6247067335
O  O338  1  0.08060000  0.73200000  0.97780000  1.0 -0.6258349302
O  O339  1  0.58060000  0.26800000  0.52220000  1.0 -0.6247067335
O  O340  1  0.41940000  0.23200000  0.02220000  1.0 -0.6247067335
O  O341  1  0.08060000  0.23200000  0.52220000  1.0 -0.6258349302
O  O342  1  0.91940000  0.26800000  0.02220000  1.0 -0.6247067335
O  O343  1  0.41940000  0.73200000  0.47780000  1.0 -0.6247067335
O  O344  1  0.58060000  0.76800000  0.97780000  1.0 -0.6247067335
O  O345  1  0.64950000  0.79090000  0.55760000  1.0 -0.5613670233
O  O346  1  0.35050000  0.70910000  0.05760000  1.0 -0.5613670233
O  O347  1  0.85050000  0.29090000  0.44240000  1.0 -0.5613670233
O  O348  1  0.14950000  0.20910000  0.94240000  1.0 -0.5613670233
O  O349  1  0.35050000  0.20910000  0.44240000  1.0 -0.5613670233
O  O350  1  0.64950000  0.29090000  0.94240000  1.0 -0.5613670233
O  O351  1  0.14950000  0.70910000  0.55760000  1.0 -0.5613670233
O  O352  1  0.85050000  0.79090000  0.05760000  1.0 -0.5613670233
