# DDEC6 charges by PACMAN v1.1 (https://github.com/mtap-research/PACMAN-charge/)
data_DUYVEA_FSR_pacman
_symmetry_space_group_name_H-M   'P 1'
_cell_length_a   7.08700000
_cell_length_b   17.66900000
_cell_length_c   17.79300000
_cell_angle_alpha   90.00000000
_cell_angle_beta   90.00000000
_cell_angle_gamma   90.00000000
_symmetry_Int_Tables_number   1
_chemical_formula_structural   CdH20C18N4O5
_chemical_formula_sum   'Cd4 H80 C72 N16 O20'
_cell_volume   2228.04307198
_cell_formula_units_Z   4
loop_
 _symmetry_equiv_pos_site_id
 _symmetry_equiv_pos_as_xyz
  1  'x, y, z'
loop_
 _atom_site_type_symbol
 _atom_site_label
 _atom_site_symmetry_multiplicity
 _atom_site_fract_x
 _atom_site_fract_y
 _atom_site_fract_z
 _atom_site_occupancy
 _atom_site_charge
Cd  Cd1  1  0.72246000  0.98694000  0.52677000  1.0 0.8310858755
Cd  Cd2  1  0.27754000  0.01306000  0.02677000  1.0 0.8310858755
Cd  Cd3  1  0.77754000  0.48694000  0.02677000  1.0 0.8310858755
Cd  Cd4  1  0.22246000  0.51306000  0.52677000  1.0 0.8310858755
H  H1  1  0.80810000  0.83910000  0.62440000  1.0 0.1188321286
H  H2  1  0.19190000  0.16090000  0.12440000  1.0 0.1188321286
H  H3  1  0.69190000  0.33910000  0.12440000  1.0 0.1188321286
H  H4  1  0.30810000  0.66090000  0.62440000  1.0 0.1188321286
H  H5  1  0.79310000  0.64790000  0.50670000  1.0 0.1188321286
H  H6  1  0.20690000  0.35210000  0.00670000  1.0 0.1188321286
H  H7  1  0.70690000  0.14790000  0.00670000  1.0 0.1188321286
H  H8  1  0.29310000  0.85210000  0.50670000  1.0 0.1188321286
H  H9  1  0.82170000  0.70940000  0.62120000  1.0 0.1328287451
H  H10  1  0.17830000  0.29060000  0.12120000  1.0 0.1328287451
H  H11  1  0.67830000  0.20940000  0.12120000  1.0 0.1328287451
H  H12  1  0.32170000  0.79060000  0.62120000  1.0 0.1328287451
H  H13  1  0.69220000  0.61280000  0.30960000  1.0 0.1629798243
H  H14  1  0.30780000  0.38720000  0.80960000  1.0 0.1629798243
H  H15  1  0.80780000  0.11280000  0.80960000  1.0 0.1629798243
H  H16  1  0.19220000  0.88720000  0.30960000  1.0 0.1629798243
H  H17  1  0.56490000  0.62270000  0.38100000  1.0 0.151705712
H  H18  1  0.43510000  0.37730000  0.88100000  1.0 0.151705712
H  H19  1  0.93510000  0.12270000  0.88100000  1.0 0.151705712
H  H20  1  0.06490000  0.87730000  0.38100000  1.0 0.151705712
H  H21  1  0.77450000  0.59570000  0.38970000  1.0 0.151705712
H  H22  1  0.22550000  0.40430000  0.88970000  1.0 0.151705712
H  H23  1  0.72550000  0.09570000  0.88970000  1.0 0.151705712
H  H24  1  0.27450000  0.90430000  0.38970000  1.0 0.151705712
H  H25  1  0.72930000  0.85000000  0.40950000  1.0 0.1188321286
H  H26  1  0.27070000  0.15000000  0.90950000  1.0 0.1188321286
H  H27  1  0.77070000  0.35000000  0.90950000  1.0 0.1188321286
H  H28  1  0.22930000  0.65000000  0.40950000  1.0 0.1188321286
H  H29  1  0.79260000  0.62350000  0.14520000  1.0 0.1188321286
H  H30  1  0.20740000  0.37650000  0.64520000  1.0 0.1188321286
H  H31  1  0.70740000  0.12350000  0.64520000  1.0 0.1188321286
H  H32  1  0.29260000  0.87650000  0.14520000  1.0 0.1188321286
H  H33  1  0.68280000  0.86910000  0.17430000  1.0 0.151705712
H  H34  1  0.31720000  0.13090000  0.67430000  1.0 0.151705712
H  H35  1  0.81720000  0.36910000  0.67430000  1.0 0.151705712
H  H36  1  0.18280000  0.63090000  0.17430000  1.0 0.151705712
H  H37  1  0.90390000  0.86920000  0.17230000  1.0 0.151705712
H  H38  1  0.09610000  0.13080000  0.67230000  1.0 0.151705712
H  H39  1  0.59610000  0.36920000  0.67230000  1.0 0.151705712
H  H40  1  0.40390000  0.63080000  0.17230000  1.0 0.151705712
H  H41  1  0.79780000  0.86150000  0.24920000  1.0 0.1629798243
H  H42  1  0.20220000  0.13850000  0.74920000  1.0 0.1629798243
H  H43  1  0.70220000  0.36150000  0.74920000  1.0 0.1629798243
H  H44  1  0.29780000  0.63850000  0.24920000  1.0 0.1629798243
H  H45  1  0.79410000  0.82820000  0.05090000  1.0 0.1188321286
H  H46  1  0.20590000  0.17180000  0.55090000  1.0 0.1188321286
H  H47  1  0.70590000  0.32820000  0.55090000  1.0 0.1188321286
H  H48  1  0.29410000  0.67180000  0.05090000  1.0 0.1188321286
H  H49  1  0.78060000  0.63910000  0.92690000  1.0 0.1106121911
H  H50  1  0.21940000  0.36090000  0.42690000  1.0 0.1106121911
H  H51  1  0.71940000  0.13910000  0.42690000  1.0 0.1106121911
H  H52  1  0.28060000  0.86090000  0.92690000  1.0 0.1106121911
H  H53  1  0.78490000  0.77070000  0.93520000  1.0 0.1328287451
H  H54  1  0.21510000  0.22930000  0.43520000  1.0 0.1328287451
H  H55  1  0.71510000  0.27070000  0.43520000  1.0 0.1328287451
H  H56  1  0.28490000  0.72930000  0.93520000  1.0 0.1328287451
H  H57  1  0.24600000  0.98770000  0.71130000  1.0 0.1328287451
H  H58  1  0.75400000  0.01230000  0.21130000  1.0 0.1328287451
H  H59  1  0.25400000  0.48770000  0.21130000  1.0 0.1328287451
H  H60  1  0.74600000  0.51230000  0.71130000  1.0 0.1328287451
H  H61  1  0.33470000  0.90810000  0.72780000  1.0 0.1188321286
H  H62  1  0.66530000  0.09190000  0.22780000  1.0 0.1188321286
H  H63  1  0.16530000  0.40810000  0.22780000  1.0 0.1188321286
H  H64  1  0.83470000  0.59190000  0.72780000  1.0 0.1188321286
H  H65  1  0.50000000  0.04280000  0.77620000  1.0 0.1328287451
H  H66  1  0.50000000  0.95720000  0.27620000  1.0 0.1328287451
H  H67  1  0.00000000  0.54280000  0.27620000  1.0 0.1328287451
H  H68  1  0.00000000  0.45720000  0.77620000  1.0 0.1328287451
H  H69  1  0.56700000  0.96150000  0.79820000  1.0 0.1328287451
H  H70  1  0.43300000  0.03850000  0.29820000  1.0 0.1328287451
H  H71  1  0.93300000  0.46150000  0.29820000  1.0 0.1328287451
H  H72  1  0.06700000  0.53850000  0.79820000  1.0 0.1328287451
H  H73  1  0.09210000  0.96530000  0.55990000  1.0 0.3657547756
H  H74  1  0.90790000  0.03470000  0.05990000  1.0 0.3657547756
H  H75  1  0.40790000  0.46530000  0.05990000  1.0 0.3657547756
H  H76  1  0.59210000  0.53470000  0.55990000  1.0 0.3657547756
H  H77  1  0.09140000  0.01250000  0.49740000  1.0 0.3570610731
H  H78  1  0.90860000  0.98750000  0.99740000  1.0 0.3570610731
H  H79  1  0.40860000  0.51250000  0.99740000  1.0 0.3570610731
H  H80  1  0.59140000  0.48750000  0.49740000  1.0 0.3570610731
C  C1  1  0.79300000  0.81460000  0.57851000  1.0 0.0509829594
C  C2  1  0.20700000  0.18540000  0.07851000  1.0 0.0509829594
C  C3  1  0.70700000  0.31460000  0.07851000  1.0 0.0509829594
C  C4  1  0.29300000  0.68540000  0.57851000  1.0 0.0509829594
C  C5  1  0.76160000  0.74248000  0.44375000  1.0 -0.0198875536
C  C6  1  0.23840000  0.25752000  0.94375000  1.0 -0.0198875536
C  C7  1  0.73840000  0.24248000  0.94375000  1.0 -0.0198875536
C  C8  1  0.26160000  0.75752000  0.44375000  1.0 -0.0198875536
C  C9  1  0.75310000  0.70789000  0.36825000  1.0 0.2596211953
C  C10  1  0.24690000  0.29211000  0.86825000  1.0 0.2596211953
C  C11  1  0.74690000  0.20789000  0.86825000  1.0 0.2596211953
C  C12  1  0.25310000  0.79211000  0.36825000  1.0 0.2596211953
C  C13  1  0.78720000  0.70046000  0.50906000  1.0 -0.0774919094
C  C14  1  0.21280000  0.29954000  0.00906000  1.0 -0.0774919094
C  C15  1  0.71280000  0.20046000  0.00906000  1.0 -0.0774919094
C  C16  1  0.28720000  0.79954000  0.50906000  1.0 -0.0774919094
C  C17  1  0.79430000  0.76427000  0.18847000  1.0 0.2596211953
C  C18  1  0.20570000  0.23573000  0.68847000  1.0 0.2596211953
C  C19  1  0.70570000  0.26427000  0.68847000  1.0 0.2596211953
C  C20  1  0.29430000  0.73573000  0.18847000  1.0 0.2596211953
C  C21  1  0.80370000  0.73680000  0.57713000  1.0 -0.1381188818
C  C22  1  0.19630000  0.26320000  0.07713000  1.0 -0.1381188818
C  C23  1  0.69630000  0.23680000  0.07713000  1.0 -0.1381188818
C  C24  1  0.30370000  0.76320000  0.57713000  1.0 -0.1381188818
C  C25  1  0.69060000  0.62766000  0.36155000  1.0 -0.5087669642
C  C26  1  0.30940000  0.37234000  0.86155000  1.0 -0.5087669642
C  C27  1  0.80940000  0.12766000  0.86155000  1.0 -0.5087669642
C  C28  1  0.19060000  0.87234000  0.36155000  1.0 -0.5087669642
C  C29  1  0.74870000  0.82083000  0.45235000  1.0 0.0509829594
C  C30  1  0.25130000  0.17917000  0.95235000  1.0 0.0509829594
C  C31  1  0.75130000  0.32083000  0.95235000  1.0 0.0509829594
C  C32  1  0.24870000  0.67917000  0.45235000  1.0 0.0509829594
C  C33  1  0.79100000  0.65380000  0.10251000  1.0 0.036748099
C  C34  1  0.20900000  0.34620000  0.60251000  1.0 0.036748099
C  C35  1  0.70900000  0.15380000  0.60251000  1.0 0.036748099
C  C36  1  0.29100000  0.84620000  0.10251000  1.0 0.036748099
C  C37  1  0.79240000  0.73181000  0.11148000  1.0 -0.0130236625
C  C38  1  0.20760000  0.26819000  0.61148000  1.0 -0.0130236625
C  C39  1  0.70760000  0.23181000  0.61148000  1.0 -0.0130236625
C  C40  1  0.29240000  0.76819000  0.11148000  1.0 -0.0130236625
C  C41  1  0.79470000  0.84860000  0.19682000  1.0 -0.5087669642
C  C42  1  0.20530000  0.15140000  0.69682000  1.0 -0.5087669642
C  C43  1  0.70530000  0.34860000  0.69682000  1.0 -0.5087669642
C  C44  1  0.29470000  0.65140000  0.19682000  1.0 -0.5087669642
C  C45  1  0.79150000  0.77571000  0.04731000  1.0 -0.0852249154
C  C46  1  0.20850000  0.22429000  0.54731000  1.0 -0.0852249154
C  C47  1  0.70850000  0.27571000  0.54731000  1.0 -0.0852249154
C  C48  1  0.29150000  0.72429000  0.04731000  1.0 -0.0852249154
C  C49  1  0.48520000  0.96810000  0.64919000  1.0 0.5943108572
C  C50  1  0.51480000  0.03190000  0.14919000  1.0 0.5943108572
C  C51  1  0.01480000  0.46810000  0.14919000  1.0 0.5943108572
C  C52  1  0.98520000  0.53190000  0.64919000  1.0 0.5943108572
C  C53  1  0.78430000  0.66220000  0.97380000  1.0 0.0752994193
C  C54  1  0.21570000  0.33780000  0.47380000  1.0 0.0752994193
C  C55  1  0.71570000  0.16220000  0.47380000  1.0 0.0752994193
C  C56  1  0.28430000  0.83780000  0.97380000  1.0 0.0752994193
C  C57  1  0.78670000  0.74150000  0.97880000  1.0 -0.1381188818
C  C58  1  0.21330000  0.25850000  0.47880000  1.0 -0.1381188818
C  C59  1  0.71330000  0.24150000  0.47880000  1.0 -0.1381188818
C  C60  1  0.28670000  0.75850000  0.97880000  1.0 -0.1381188818
C  C61  1  0.36400000  0.96112000  0.71944000  1.0 -0.2965179534
C  C62  1  0.63600000  0.03888000  0.21944000  1.0 -0.2965179534
C  C63  1  0.13600000  0.46112000  0.21944000  1.0 -0.2965179534
C  C64  1  0.86400000  0.53888000  0.71944000  1.0 -0.2965179534
C  C65  1  0.45630000  0.99210000  0.78771000  1.0 -0.2828717084
C  C66  1  0.54370000  0.00790000  0.28771000  1.0 -0.2828717084
C  C67  1  0.04370000  0.49210000  0.28771000  1.0 -0.2828717084
C  C68  1  0.95630000  0.50790000  0.78771000  1.0 -0.2828717084
C  C69  1  0.33840000  0.99601000  0.85926000  1.0 0.5943108572
C  C70  1  0.66160000  0.00399000  0.35926000  1.0 0.5943108572
C  C71  1  0.16160000  0.49601000  0.35926000  1.0 0.5943108572
C  C72  1  0.83840000  0.50399000  0.85926000  1.0 0.5943108572
N  N1  1  0.76260000  0.85627000  0.51800000  1.0 -0.2422349231
N  N2  1  0.23740000  0.14373000  0.01800000  1.0 -0.2422349231
N  N3  1  0.73740000  0.35627000  0.01800000  1.0 -0.2422349231
N  N4  1  0.26260000  0.64373000  0.51800000  1.0 -0.2422349231
N  N5  1  0.79420000  0.71711000  0.24264000  1.0 -0.2132180707
N  N6  1  0.20580000  0.28289000  0.74264000  1.0 -0.2132180707
N  N7  1  0.70580000  0.21711000  0.74264000  1.0 -0.2132180707
N  N8  1  0.29420000  0.78289000  0.24264000  1.0 -0.2132180707
N  N9  1  0.80010000  0.75143000  0.31465000  1.0 -0.2186822371
N  N10  1  0.19990000  0.24857000  0.81465000  1.0 -0.2186822371
N  N11  1  0.69990000  0.25143000  0.81465000  1.0 -0.2186822371
N  N12  1  0.30010000  0.74857000  0.31465000  1.0 -0.2186822371
N  N13  1  0.78730000  0.62009000  0.03480000  1.0 -0.2186822371
N  N14  1  0.21270000  0.37991000  0.53480000  1.0 -0.2186822371
N  N15  1  0.71270000  0.12009000  0.53480000  1.0 -0.2186822371
N  N16  1  0.28730000  0.87991000  0.03480000  1.0 -0.2186822371
O  O1  1  0.66180000  0.97623000  0.65546000  1.0 -0.567455724
O  O2  1  0.33820000  0.02377000  0.15546000  1.0 -0.567455724
O  O3  1  0.83820000  0.47623000  0.15546000  1.0 -0.567455724
O  O4  1  0.16180000  0.52377000  0.65546000  1.0 -0.567455724
O  O5  1  0.40680000  0.96668000  0.58708000  1.0 -0.567455724
O  O6  1  0.59320000  0.03332000  0.08708000  1.0 -0.567455724
O  O7  1  0.09320000  0.46668000  0.08708000  1.0 -0.567455724
O  O8  1  0.90680000  0.53332000  0.58708000  1.0 -0.567455724
O  O9  1  0.16690000  0.99249000  0.85780000  1.0 -0.567455724
O  O10  1  0.83310000  0.00751000  0.35780000  1.0 -0.567455724
O  O11  1  0.33310000  0.49249000  0.35780000  1.0 -0.567455724
O  O12  1  0.66690000  0.50751000  0.85780000  1.0 -0.567455724
O  O13  1  0.43440000  0.00613000  0.91874000  1.0 -0.5837373884
O  O14  1  0.56560000  0.99387000  0.41874000  1.0 -0.5837373884
O  O15  1  0.06560000  0.50613000  0.41874000  1.0 -0.5837373884
O  O16  1  0.93440000  0.49387000  0.91874000  1.0 -0.5837373884
O  O17  1  0.04240000  0.00466000  0.54044000  1.0 -0.6485990287
O  O18  1  0.95760000  0.99534000  0.04044000  1.0 -0.6485990287
O  O19  1  0.45760000  0.50466000  0.04044000  1.0 -0.6485990287
O  O20  1  0.54240000  0.49534000  0.54044000  1.0 -0.6485990287
