# DDEC6 charges by PACMAN v1.1 (https://github.com/mtap-research/PACMAN-charge/)
data_DUZKAM_ASR_pacman
_symmetry_space_group_name_H-M   'P 1'
_cell_length_a   36.71000000
_cell_length_b   36.71000000
_cell_length_c   15.41400000
_cell_angle_alpha   90.00000000
_cell_angle_beta   90.00000000
_cell_angle_gamma   90.00000000
_symmetry_Int_Tables_number   1
_chemical_formula_structural   Li2Mn2Cu3H39C39(NO3)6
_chemical_formula_sum   'Li16 Mn16 Cu24 H312 C312 N48 O144'
_cell_volume   20772.27787740
_cell_formula_units_Z   8
loop_
 _symmetry_equiv_pos_site_id
 _symmetry_equiv_pos_as_xyz
  1  'x, y, z'
loop_
 _atom_site_type_symbol
 _atom_site_label
 _atom_site_symmetry_multiplicity
 _atom_site_fract_x
 _atom_site_fract_y
 _atom_site_fract_z
 _atom_site_occupancy
 _atom_site_charge
Li  Li1  1  0.27980000  0.14400000  0.25060000  1.0 0.5962869919
Li  Li2  1  0.72020000  0.85600000  0.25060000  1.0 0.5962869919
Li  Li3  1  0.14400000  0.72020000  0.25060000  1.0 0.5962869919
Li  Li4  1  0.85600000  0.27980000  0.25060000  1.0 0.5962869919
Li  Li5  1  0.27980000  0.85600000  0.74940000  1.0 0.5962869919
Li  Li6  1  0.72020000  0.14400000  0.74940000  1.0 0.5962869919
Li  Li7  1  0.14400000  0.27980000  0.74940000  1.0 0.5962869919
Li  Li8  1  0.85600000  0.72020000  0.74940000  1.0 0.5962869919
Li  Li9  1  0.72020000  0.85600000  0.74940000  1.0 0.5962869919
Li  Li10  1  0.27980000  0.14400000  0.74940000  1.0 0.5962869919
Li  Li11  1  0.85600000  0.27980000  0.74940000  1.0 0.5962869919
Li  Li12  1  0.14400000  0.72020000  0.74940000  1.0 0.5962869919
Li  Li13  1  0.72020000  0.14400000  0.25060000  1.0 0.5962869919
Li  Li14  1  0.27980000  0.85600000  0.25060000  1.0 0.5962869919
Li  Li15  1  0.85600000  0.72020000  0.25060000  1.0 0.5962869919
Li  Li16  1  0.14400000  0.27980000  0.25060000  1.0 0.5962869919
Mn  Mn1  1  0.35117000  0.14392000  0.25000000  1.0 1.1469791889
Mn  Mn2  1  0.64883000  0.85608000  0.25000000  1.0 1.1469791889
Mn  Mn3  1  0.14392000  0.64883000  0.25000000  1.0 1.1469791889
Mn  Mn4  1  0.85608000  0.35117000  0.25000000  1.0 1.1469791889
Mn  Mn5  1  0.35117000  0.85608000  0.75000000  1.0 1.1469791889
Mn  Mn6  1  0.64883000  0.14392000  0.75000000  1.0 1.1469791889
Mn  Mn7  1  0.14392000  0.35117000  0.75000000  1.0 1.1469791889
Mn  Mn8  1  0.85608000  0.64883000  0.75000000  1.0 1.1469791889
Mn  Mn9  1  0.64883000  0.85608000  0.75000000  1.0 1.1469791889
Mn  Mn10  1  0.35117000  0.14392000  0.75000000  1.0 1.1469791889
Mn  Mn11  1  0.85608000  0.35117000  0.75000000  1.0 1.1469791889
Mn  Mn12  1  0.14392000  0.64883000  0.75000000  1.0 1.1469791889
Mn  Mn13  1  0.64883000  0.14392000  0.25000000  1.0 1.1469791889
Mn  Mn14  1  0.35117000  0.85608000  0.25000000  1.0 1.1469791889
Mn  Mn15  1  0.85608000  0.64883000  0.25000000  1.0 1.1469791889
Mn  Mn16  1  0.14392000  0.35117000  0.25000000  1.0 1.1469791889
Cu  Cu1  1  0.33016000  0.00000000  0.27270000  1.0 0.3628375738
Cu  Cu2  1  0.66984000  0.00000000  0.27270000  1.0 0.3628375738
Cu  Cu3  1  0.00000000  0.66984000  0.27270000  1.0 0.3628375738
Cu  Cu4  1  0.00000000  0.33016000  0.27270000  1.0 0.3628375738
Cu  Cu5  1  0.33016000  0.00000000  0.72730000  1.0 0.3628375738
Cu  Cu6  1  0.66984000  0.00000000  0.72730000  1.0 0.3628375738
Cu  Cu7  1  0.00000000  0.33016000  0.72730000  1.0 0.3628375738
Cu  Cu8  1  0.00000000  0.66984000  0.72730000  1.0 0.3628375738
Cu  Cu9  1  0.50000000  0.14874000  0.26940000  1.0 0.5356367906
Cu  Cu10  1  0.50000000  0.85126000  0.26940000  1.0 0.5356367906
Cu  Cu11  1  0.14874000  0.50000000  0.26940000  1.0 0.5309100402
Cu  Cu12  1  0.85126000  0.50000000  0.26940000  1.0 0.5356367906
Cu  Cu13  1  0.50000000  0.85126000  0.73060000  1.0 0.5356367906
Cu  Cu14  1  0.50000000  0.14874000  0.73060000  1.0 0.5356367906
Cu  Cu15  1  0.14874000  0.50000000  0.73060000  1.0 0.5356367906
Cu  Cu16  1  0.85126000  0.50000000  0.73060000  1.0 0.5356367906
Cu  Cu17  1  0.24185000  0.24185000  0.23350000  1.0 0.5236182719
Cu  Cu18  1  0.75815000  0.75815000  0.23350000  1.0 0.5309100402
Cu  Cu19  1  0.24185000  0.75815000  0.23350000  1.0 0.5309100402
Cu  Cu20  1  0.75815000  0.24185000  0.23350000  1.0 0.5236182719
Cu  Cu21  1  0.24185000  0.75815000  0.76650000  1.0 0.5309100402
Cu  Cu22  1  0.75815000  0.24185000  0.76650000  1.0 0.5309100402
Cu  Cu23  1  0.24185000  0.24185000  0.76650000  1.0 0.5309100402
Cu  Cu24  1  0.75815000  0.75815000  0.76650000  1.0 0.5309100402
H  H1  1  0.21950000  0.02220000  0.50000000  1.0 0.0897840063
H  H2  1  0.78050000  0.97780000  0.50000000  1.0 0.0897840063
H  H3  1  0.02220000  0.78050000  0.50000000  1.0 0.0897840063
H  H4  1  0.97780000  0.21950000  0.50000000  1.0 0.0897840063
H  H5  1  0.21950000  0.97780000  0.50000000  1.0 0.0897840063
H  H6  1  0.78050000  0.02220000  0.50000000  1.0 0.0897840063
H  H7  1  0.02220000  0.21950000  0.50000000  1.0 0.0897840063
H  H8  1  0.97780000  0.78050000  0.50000000  1.0 0.0897840063
H  H9  1  0.19960000  0.11170000  0.00000000  1.0 0.2087479758
H  H10  1  0.80040000  0.88830000  0.00000000  1.0 0.2087479758
H  H11  1  0.11170000  0.80040000  0.00000000  1.0 0.2087479758
H  H12  1  0.88830000  0.19960000  0.00000000  1.0 0.2087479758
H  H13  1  0.19960000  0.88830000  0.00000000  1.0 0.2087479758
H  H14  1  0.80040000  0.11170000  0.00000000  1.0 0.2087479758
H  H15  1  0.11170000  0.19960000  0.00000000  1.0 0.2087479758
H  H16  1  0.88830000  0.80040000  0.00000000  1.0 0.2087479758
H  H17  1  0.45170000  0.07330000  0.26830000  1.0 0.120993052
H  H18  1  0.54830000  0.92670000  0.26830000  1.0 0.120993052
H  H19  1  0.07330000  0.54830000  0.26830000  1.0 0.120993052
H  H20  1  0.92670000  0.45170000  0.26830000  1.0 0.120993052
H  H21  1  0.45170000  0.92670000  0.73170000  1.0 0.120993052
H  H22  1  0.54830000  0.07330000  0.73170000  1.0 0.120993052
H  H23  1  0.07330000  0.45170000  0.73170000  1.0 0.120993052
H  H24  1  0.92670000  0.54830000  0.73170000  1.0 0.120993052
H  H25  1  0.54830000  0.92670000  0.73170000  1.0 0.120993052
H  H26  1  0.45170000  0.07330000  0.73170000  1.0 0.120993052
H  H27  1  0.92670000  0.45170000  0.73170000  1.0 0.120993052
H  H28  1  0.07330000  0.54830000  0.73170000  1.0 0.120993052
H  H29  1  0.54830000  0.07330000  0.26830000  1.0 0.120993052
H  H30  1  0.45170000  0.92670000  0.26830000  1.0 0.120993052
H  H31  1  0.92670000  0.54830000  0.26830000  1.0 0.120993052
H  H32  1  0.07330000  0.45170000  0.26830000  1.0 0.120993052
H  H33  1  0.46890000  0.03840000  0.31480000  1.0 0.120993052
H  H34  1  0.53110000  0.96160000  0.31480000  1.0 0.120993052
H  H35  1  0.03840000  0.53110000  0.31480000  1.0 0.120993052
H  H36  1  0.96160000  0.46890000  0.31480000  1.0 0.120993052
H  H37  1  0.46890000  0.96160000  0.68520000  1.0 0.120993052
H  H38  1  0.53110000  0.03840000  0.68520000  1.0 0.120993052
H  H39  1  0.03840000  0.46890000  0.68520000  1.0 0.120993052
H  H40  1  0.96160000  0.53110000  0.68520000  1.0 0.120993052
H  H41  1  0.53110000  0.96160000  0.68520000  1.0 0.120993052
H  H42  1  0.46890000  0.03840000  0.68520000  1.0 0.120993052
H  H43  1  0.96160000  0.46890000  0.68520000  1.0 0.120993052
H  H44  1  0.03840000  0.53110000  0.68520000  1.0 0.120993052
H  H45  1  0.53110000  0.03840000  0.31480000  1.0 0.120993052
H  H46  1  0.46890000  0.96160000  0.31480000  1.0 0.120993052
H  H47  1  0.96160000  0.53110000  0.31480000  1.0 0.120993052
H  H48  1  0.03840000  0.46890000  0.31480000  1.0 0.120993052
H  H49  1  0.42580000  0.04510000  0.31800000  1.0 0.1373719558
H  H50  1  0.57420000  0.95490000  0.31800000  1.0 0.1373719558
H  H51  1  0.04510000  0.57420000  0.31800000  1.0 0.1373719558
H  H52  1  0.95490000  0.42580000  0.31800000  1.0 0.1373719558
H  H53  1  0.42580000  0.95490000  0.68200000  1.0 0.1373719558
H  H54  1  0.57420000  0.04510000  0.68200000  1.0 0.1373719558
H  H55  1  0.04510000  0.42580000  0.68200000  1.0 0.1373719558
H  H56  1  0.95490000  0.57420000  0.68200000  1.0 0.1373719558
H  H57  1  0.57420000  0.95490000  0.68200000  1.0 0.1373719558
H  H58  1  0.42580000  0.04510000  0.68200000  1.0 0.1373719558
H  H59  1  0.95490000  0.42580000  0.68200000  1.0 0.1373719558
H  H60  1  0.04510000  0.57420000  0.68200000  1.0 0.1373719558
H  H61  1  0.57420000  0.04510000  0.31800000  1.0 0.1373719558
H  H62  1  0.42580000  0.95490000  0.31800000  1.0 0.1373719558
H  H63  1  0.95490000  0.57420000  0.31800000  1.0 0.1373719558
H  H64  1  0.04510000  0.42580000  0.31800000  1.0 0.1373719558
H  H65  1  0.45170000  0.03940000  0.50000000  1.0 0.1298134971
H  H66  1  0.54830000  0.96060000  0.50000000  1.0 0.1298134971
H  H67  1  0.03940000  0.54830000  0.50000000  1.0 0.1298134971
H  H68  1  0.96060000  0.45170000  0.50000000  1.0 0.1298134971
H  H69  1  0.45170000  0.96060000  0.50000000  1.0 0.1298134971
H  H70  1  0.54830000  0.03940000  0.50000000  1.0 0.1298134971
H  H71  1  0.03940000  0.45170000  0.50000000  1.0 0.1298134971
H  H72  1  0.96060000  0.54830000  0.50000000  1.0 0.1298134971
H  H73  1  0.25760000  0.05570000  0.27960000  1.0 0.1094594913
H  H74  1  0.74240000  0.94430000  0.27960000  1.0 0.1094594913
H  H75  1  0.05570000  0.74240000  0.27960000  1.0 0.1094594913
H  H76  1  0.94430000  0.25760000  0.27960000  1.0 0.1094594913
H  H77  1  0.25760000  0.94430000  0.72040000  1.0 0.1094594913
H  H78  1  0.74240000  0.05570000  0.72040000  1.0 0.1094594913
H  H79  1  0.05570000  0.25760000  0.72040000  1.0 0.1094594913
H  H80  1  0.94430000  0.74240000  0.72040000  1.0 0.1094594913
H  H81  1  0.74240000  0.94430000  0.72040000  1.0 0.1094594913
H  H82  1  0.25760000  0.05570000  0.72040000  1.0 0.1094594913
H  H83  1  0.94430000  0.25760000  0.72040000  1.0 0.1094594913
H  H84  1  0.05570000  0.74240000  0.72040000  1.0 0.1094594913
H  H85  1  0.74240000  0.05570000  0.27960000  1.0 0.1094594913
H  H86  1  0.25760000  0.94430000  0.27960000  1.0 0.1094594913
H  H87  1  0.94430000  0.74240000  0.27960000  1.0 0.1094594913
H  H88  1  0.05570000  0.25760000  0.27960000  1.0 0.1094594913
H  H89  1  0.23120000  0.02310000  0.30770000  1.0 0.120993052
H  H90  1  0.76880000  0.97690000  0.30770000  1.0 0.120993052
H  H91  1  0.02310000  0.76880000  0.30770000  1.0 0.120993052
H  H92  1  0.97690000  0.23120000  0.30770000  1.0 0.120993052
H  H93  1  0.23120000  0.97690000  0.69230000  1.0 0.120993052
H  H94  1  0.76880000  0.02310000  0.69230000  1.0 0.120993052
H  H95  1  0.02310000  0.23120000  0.69230000  1.0 0.120993052
H  H96  1  0.97690000  0.76880000  0.69230000  1.0 0.120993052
H  H97  1  0.76880000  0.97690000  0.69230000  1.0 0.120993052
H  H98  1  0.23120000  0.02310000  0.69230000  1.0 0.120993052
H  H99  1  0.97690000  0.23120000  0.69230000  1.0 0.120993052
H  H100  1  0.02310000  0.76880000  0.69230000  1.0 0.120993052
H  H101  1  0.76880000  0.02310000  0.30770000  1.0 0.120993052
H  H102  1  0.23120000  0.97690000  0.30770000  1.0 0.120993052
H  H103  1  0.97690000  0.76880000  0.30770000  1.0 0.120993052
H  H104  1  0.02310000  0.23120000  0.30770000  1.0 0.120993052
H  H105  1  0.21920000  0.06450000  0.32380000  1.0 0.1298134971
H  H106  1  0.78080000  0.93550000  0.32380000  1.0 0.1298134971
H  H107  1  0.06450000  0.78080000  0.32380000  1.0 0.1298134971
H  H108  1  0.93550000  0.21920000  0.32380000  1.0 0.1298134971
H  H109  1  0.21920000  0.93550000  0.67620000  1.0 0.1298134971
H  H110  1  0.78080000  0.06450000  0.67620000  1.0 0.1298134971
H  H111  1  0.06450000  0.21920000  0.67620000  1.0 0.1298134971
H  H112  1  0.93550000  0.78080000  0.67620000  1.0 0.1298134971
H  H113  1  0.78080000  0.93550000  0.67620000  1.0 0.1298134971
H  H114  1  0.21920000  0.06450000  0.67620000  1.0 0.1298134971
H  H115  1  0.93550000  0.21920000  0.67620000  1.0 0.1298134971
H  H116  1  0.06450000  0.78080000  0.67620000  1.0 0.1298134971
H  H117  1  0.78080000  0.06450000  0.32380000  1.0 0.1298134971
H  H118  1  0.21920000  0.93550000  0.32380000  1.0 0.1298134971
H  H119  1  0.93550000  0.78080000  0.32380000  1.0 0.1298134971
H  H120  1  0.06450000  0.21920000  0.32380000  1.0 0.1298134971
H  H121  1  0.20970000  0.14340000  0.20010000  1.0 0.1298134971
H  H122  1  0.79030000  0.85660000  0.20010000  1.0 0.1298134971
H  H123  1  0.14340000  0.79030000  0.20010000  1.0 0.1298134971
H  H124  1  0.85660000  0.20970000  0.20010000  1.0 0.1298134971
H  H125  1  0.20970000  0.85660000  0.79990000  1.0 0.1298134971
H  H126  1  0.79030000  0.14340000  0.79990000  1.0 0.1298134971
H  H127  1  0.14340000  0.20970000  0.79990000  1.0 0.1298134971
H  H128  1  0.85660000  0.79030000  0.79990000  1.0 0.1298134971
H  H129  1  0.79030000  0.85660000  0.79990000  1.0 0.1298134971
H  H130  1  0.20970000  0.14340000  0.79990000  1.0 0.1298134971
H  H131  1  0.85660000  0.20970000  0.79990000  1.0 0.1298134971
H  H132  1  0.14340000  0.79030000  0.79990000  1.0 0.1298134971
H  H133  1  0.79030000  0.14340000  0.20010000  1.0 0.1298134971
H  H134  1  0.20970000  0.85660000  0.20010000  1.0 0.1298134971
H  H135  1  0.85660000  0.79030000  0.20010000  1.0 0.1298134971
H  H136  1  0.14340000  0.20970000  0.20010000  1.0 0.1298134971
H  H137  1  0.18060000  0.13000000  0.12980000  1.0 0.1298134971
H  H138  1  0.81940000  0.87000000  0.12980000  1.0 0.1298134971
H  H139  1  0.13000000  0.81940000  0.12980000  1.0 0.1298134971
H  H140  1  0.87000000  0.18060000  0.12980000  1.0 0.1298134971
H  H141  1  0.18060000  0.87000000  0.87020000  1.0 0.1298134971
H  H142  1  0.81940000  0.13000000  0.87020000  1.0 0.1298134971
H  H143  1  0.13000000  0.18060000  0.87020000  1.0 0.1298134971
H  H144  1  0.87000000  0.81940000  0.87020000  1.0 0.1298134971
H  H145  1  0.81940000  0.87000000  0.87020000  1.0 0.1298134971
H  H146  1  0.18060000  0.13000000  0.87020000  1.0 0.1298134971
H  H147  1  0.87000000  0.18060000  0.87020000  1.0 0.1298134971
H  H148  1  0.13000000  0.81940000  0.87020000  1.0 0.1298134971
H  H149  1  0.81940000  0.13000000  0.12980000  1.0 0.1298134971
H  H150  1  0.18060000  0.87000000  0.12980000  1.0 0.1298134971
H  H151  1  0.87000000  0.81940000  0.12980000  1.0 0.1298134971
H  H152  1  0.13000000  0.18060000  0.12980000  1.0 0.1298134971
H  H153  1  0.22000000  0.11130000  0.13430000  1.0 0.1373719558
H  H154  1  0.78000000  0.88870000  0.13430000  1.0 0.1373719558
H  H155  1  0.11130000  0.78000000  0.13430000  1.0 0.1373719558
H  H156  1  0.88870000  0.22000000  0.13430000  1.0 0.1373719558
H  H157  1  0.22000000  0.88870000  0.86570000  1.0 0.1373719558
H  H158  1  0.78000000  0.11130000  0.86570000  1.0 0.1373719558
H  H159  1  0.11130000  0.22000000  0.86570000  1.0 0.1373719558
H  H160  1  0.88870000  0.78000000  0.86570000  1.0 0.1373719558
H  H161  1  0.78000000  0.88870000  0.86570000  1.0 0.1373719558
H  H162  1  0.22000000  0.11130000  0.86570000  1.0 0.1373719558
H  H163  1  0.88870000  0.22000000  0.86570000  1.0 0.1373719558
H  H164  1  0.11130000  0.78000000  0.86570000  1.0 0.1373719558
H  H165  1  0.78000000  0.11130000  0.13430000  1.0 0.1373719558
H  H166  1  0.22000000  0.88870000  0.13430000  1.0 0.1373719558
H  H167  1  0.88870000  0.78000000  0.13430000  1.0 0.1373719558
H  H168  1  0.11130000  0.22000000  0.13430000  1.0 0.1373719558
H  H169  1  0.44290000  0.18020000  0.55870000  1.0 0.042969576
H  H170  1  0.55710000  0.81980000  0.55870000  1.0 0.042969576
H  H171  1  0.18020000  0.55710000  0.55870000  1.0 0.042969576
H  H172  1  0.81980000  0.44290000  0.55870000  1.0 0.042969576
H  H173  1  0.44290000  0.81980000  0.44130000  1.0 0.042969576
H  H174  1  0.55710000  0.18020000  0.44130000  1.0 0.042969576
H  H175  1  0.18020000  0.44290000  0.44130000  1.0 0.042969576
H  H176  1  0.81980000  0.55710000  0.44130000  1.0 0.042969576
H  H177  1  0.55710000  0.81980000  0.44130000  1.0 0.042969576
H  H178  1  0.44290000  0.18020000  0.44130000  1.0 0.042969576
H  H179  1  0.81980000  0.44290000  0.44130000  1.0 0.042969576
H  H180  1  0.18020000  0.55710000  0.44130000  1.0 0.042969576
H  H181  1  0.55710000  0.18020000  0.55870000  1.0 0.042969576
H  H182  1  0.44290000  0.81980000  0.55870000  1.0 0.042969576
H  H183  1  0.81980000  0.55710000  0.55870000  1.0 0.042969576
H  H184  1  0.18020000  0.44290000  0.55870000  1.0 0.042969576
H  H185  1  0.47170000  0.18210000  0.48100000  1.0 0.0641982437
H  H186  1  0.52830000  0.81790000  0.48100000  1.0 0.0641982437
H  H187  1  0.18210000  0.52830000  0.48100000  1.0 0.0641982437
H  H188  1  0.81790000  0.47170000  0.48100000  1.0 0.0641982437
H  H189  1  0.47170000  0.81790000  0.51900000  1.0 0.0641982437
H  H190  1  0.52830000  0.18210000  0.51900000  1.0 0.0641982437
H  H191  1  0.18210000  0.47170000  0.51900000  1.0 0.0641982437
H  H192  1  0.81790000  0.52830000  0.51900000  1.0 0.0641982437
H  H193  1  0.52830000  0.81790000  0.51900000  1.0 0.0641982437
H  H194  1  0.47170000  0.18210000  0.51900000  1.0 0.0641982437
H  H195  1  0.81790000  0.47170000  0.51900000  1.0 0.0641982437
H  H196  1  0.18210000  0.52830000  0.51900000  1.0 0.0641982437
H  H197  1  0.52830000  0.18210000  0.48100000  1.0 0.0641982437
H  H198  1  0.47170000  0.81790000  0.48100000  1.0 0.0641982437
H  H199  1  0.81790000  0.52830000  0.48100000  1.0 0.0641982437
H  H200  1  0.18210000  0.47170000  0.48100000  1.0 0.0641982437
H  H201  1  0.42910000  0.17930000  0.46030000  1.0 0.0641982437
H  H202  1  0.57090000  0.82070000  0.46030000  1.0 0.0641982437
H  H203  1  0.17930000  0.57090000  0.46030000  1.0 0.0641982437
H  H204  1  0.82070000  0.42910000  0.46030000  1.0 0.0641982437
H  H205  1  0.42910000  0.82070000  0.53970000  1.0 0.0641982437
H  H206  1  0.57090000  0.17930000  0.53970000  1.0 0.0641982437
H  H207  1  0.17930000  0.42910000  0.53970000  1.0 0.0641982437
H  H208  1  0.82070000  0.57090000  0.53970000  1.0 0.0641982437
H  H209  1  0.57090000  0.82070000  0.53970000  1.0 0.0641982437
H  H210  1  0.42910000  0.17930000  0.53970000  1.0 0.0641982437
H  H211  1  0.82070000  0.42910000  0.53970000  1.0 0.0641982437
H  H212  1  0.17930000  0.57090000  0.53970000  1.0 0.0641982437
H  H213  1  0.57090000  0.17930000  0.46030000  1.0 0.0641982437
H  H214  1  0.42910000  0.82070000  0.46030000  1.0 0.0641982437
H  H215  1  0.82070000  0.57090000  0.46030000  1.0 0.0641982437
H  H216  1  0.17930000  0.42910000  0.46030000  1.0 0.0641982437
H  H217  1  0.30660000  0.23210000  0.94010000  1.0 0.042969576
H  H218  1  0.69340000  0.76790000  0.94010000  1.0 0.042969576
H  H219  1  0.23210000  0.69340000  0.94010000  1.0 0.042969576
H  H220  1  0.76790000  0.30660000  0.94010000  1.0 0.042969576
H  H221  1  0.30660000  0.76790000  0.05990000  1.0 0.042969576
H  H222  1  0.69340000  0.23210000  0.05990000  1.0 0.042969576
H  H223  1  0.23210000  0.30660000  0.05990000  1.0 0.042969576
H  H224  1  0.76790000  0.69340000  0.05990000  1.0 0.042969576
H  H225  1  0.69340000  0.76790000  0.05990000  1.0 0.042969576
H  H226  1  0.30660000  0.23210000  0.05990000  1.0 0.042969576
H  H227  1  0.76790000  0.30660000  0.05990000  1.0 0.042969576
H  H228  1  0.23210000  0.69340000  0.05990000  1.0 0.042969576
H  H229  1  0.69340000  0.23210000  0.94010000  1.0 0.042969576
H  H230  1  0.30660000  0.76790000  0.94010000  1.0 0.042969576
H  H231  1  0.76790000  0.69340000  0.94010000  1.0 0.042969576
H  H232  1  0.23210000  0.30660000  0.94010000  1.0 0.042969576
H  H233  1  0.29170000  0.25040000  0.02740000  1.0 0.0479810781
H  H234  1  0.70830000  0.74960000  0.02740000  1.0 0.0479810781
H  H235  1  0.25040000  0.70830000  0.02740000  1.0 0.0479810781
H  H236  1  0.74960000  0.29170000  0.02740000  1.0 0.0479810781
H  H237  1  0.29170000  0.74960000  0.97260000  1.0 0.0479810781
H  H238  1  0.70830000  0.25040000  0.97260000  1.0 0.0479810781
H  H239  1  0.25040000  0.29170000  0.97260000  1.0 0.0479810781
H  H240  1  0.74960000  0.70830000  0.97260000  1.0 0.0479810781
H  H241  1  0.70830000  0.74960000  0.97260000  1.0 0.0479810781
H  H242  1  0.29170000  0.25040000  0.97260000  1.0 0.0479810781
H  H243  1  0.74960000  0.29170000  0.97260000  1.0 0.0479810781
H  H244  1  0.25040000  0.70830000  0.97260000  1.0 0.0479810781
H  H245  1  0.70830000  0.25040000  0.02740000  1.0 0.0479810781
H  H246  1  0.29170000  0.74960000  0.02740000  1.0 0.0479810781
H  H247  1  0.74960000  0.70830000  0.02740000  1.0 0.0479810781
H  H248  1  0.25040000  0.29170000  0.02740000  1.0 0.0479810781
H  H249  1  0.31910000  0.21660000  0.03250000  1.0 0.0680989558
H  H250  1  0.68090000  0.78340000  0.03250000  1.0 0.0680989558
H  H251  1  0.21660000  0.68090000  0.03250000  1.0 0.0680989558
H  H252  1  0.78340000  0.31910000  0.03250000  1.0 0.0680989558
H  H253  1  0.31910000  0.78340000  0.96750000  1.0 0.0680989558
H  H254  1  0.68090000  0.21660000  0.96750000  1.0 0.0680989558
H  H255  1  0.21660000  0.31910000  0.96750000  1.0 0.0680989558
H  H256  1  0.78340000  0.68090000  0.96750000  1.0 0.0680989558
H  H257  1  0.68090000  0.78340000  0.96750000  1.0 0.0680989558
H  H258  1  0.31910000  0.21660000  0.96750000  1.0 0.0680989558
H  H259  1  0.78340000  0.31910000  0.96750000  1.0 0.0680989558
H  H260  1  0.21660000  0.68090000  0.96750000  1.0 0.0680989558
H  H261  1  0.68090000  0.21660000  0.03250000  1.0 0.0680989558
H  H262  1  0.31910000  0.78340000  0.03250000  1.0 0.0680989558
H  H263  1  0.78340000  0.68090000  0.03250000  1.0 0.0680989558
H  H264  1  0.21660000  0.31910000  0.03250000  1.0 0.0680989558
H  H265  1  0.36440000  0.03380000  0.55990000  1.0 0.0680989558
H  H266  1  0.63560000  0.96620000  0.55990000  1.0 0.0680989558
H  H267  1  0.03380000  0.63560000  0.55990000  1.0 0.0680989558
H  H268  1  0.96620000  0.36440000  0.55990000  1.0 0.0680989558
H  H269  1  0.36440000  0.96620000  0.44010000  1.0 0.0680989558
H  H270  1  0.63560000  0.03380000  0.44010000  1.0 0.0680989558
H  H271  1  0.03380000  0.36440000  0.44010000  1.0 0.0680989558
H  H272  1  0.96620000  0.63560000  0.44010000  1.0 0.0680989558
H  H273  1  0.63560000  0.96620000  0.44010000  1.0 0.0680989558
H  H274  1  0.36440000  0.03380000  0.44010000  1.0 0.0680989558
H  H275  1  0.96620000  0.36440000  0.44010000  1.0 0.0680989558
H  H276  1  0.03380000  0.63560000  0.44010000  1.0 0.0680989558
H  H277  1  0.63560000  0.03380000  0.55990000  1.0 0.0680989558
H  H278  1  0.36440000  0.96620000  0.55990000  1.0 0.0680989558
H  H279  1  0.96620000  0.63560000  0.55990000  1.0 0.0680989558
H  H280  1  0.03380000  0.36440000  0.55990000  1.0 0.0680989558
H  H281  1  0.35880000  0.01200000  0.47090000  1.0 0.0160585123
H  H282  1  0.64120000  0.98800000  0.47090000  1.0 0.0160585123
H  H283  1  0.01200000  0.64120000  0.47090000  1.0 0.0160585123
H  H284  1  0.98800000  0.35880000  0.47090000  1.0 0.0160585123
H  H285  1  0.35880000  0.98800000  0.52910000  1.0 0.0160585123
H  H286  1  0.64120000  0.01200000  0.52910000  1.0 0.0160585123
H  H287  1  0.01200000  0.35880000  0.52910000  1.0 0.0160585123
H  H288  1  0.98800000  0.64120000  0.52910000  1.0 0.0160585123
H  H289  1  0.64120000  0.98800000  0.52910000  1.0 0.0160585123
H  H290  1  0.35880000  0.01200000  0.52910000  1.0 0.0160585123
H  H291  1  0.98800000  0.35880000  0.52910000  1.0 0.0160585123
H  H292  1  0.01200000  0.64120000  0.52910000  1.0 0.0160585123
H  H293  1  0.64120000  0.01200000  0.47090000  1.0 0.0160585123
H  H294  1  0.35880000  0.98800000  0.47090000  1.0 0.0160585123
H  H295  1  0.98800000  0.64120000  0.47090000  1.0 0.0160585123
H  H296  1  0.01200000  0.35880000  0.47090000  1.0 0.0160585123
H  H297  1  0.36960000  0.05420000  0.46910000  1.0 0.0808108433
H  H298  1  0.63040000  0.94580000  0.46910000  1.0 0.0808108433
H  H299  1  0.05420000  0.63040000  0.46910000  1.0 0.0808108433
H  H300  1  0.94580000  0.36960000  0.46910000  1.0 0.0808108433
H  H301  1  0.36960000  0.94580000  0.53090000  1.0 0.0808108433
H  H302  1  0.63040000  0.05420000  0.53090000  1.0 0.0808108433
H  H303  1  0.05420000  0.36960000  0.53090000  1.0 0.0808108433
H  H304  1  0.94580000  0.63040000  0.53090000  1.0 0.0808108433
H  H305  1  0.63040000  0.94580000  0.53090000  1.0 0.0808108433
H  H306  1  0.36960000  0.05420000  0.53090000  1.0 0.0808108433
H  H307  1  0.94580000  0.36960000  0.53090000  1.0 0.0808108433
H  H308  1  0.05420000  0.63040000  0.53090000  1.0 0.0808108433
H  H309  1  0.63040000  0.05420000  0.46910000  1.0 0.0808108433
H  H310  1  0.36960000  0.94580000  0.46910000  1.0 0.0808108433
H  H311  1  0.94580000  0.63040000  0.46910000  1.0 0.0808108433
H  H312  1  0.05420000  0.36960000  0.46910000  1.0 0.0808108433
C  C1  1  0.35650000  0.06410000  0.22600000  1.0 0.481523326
C  C2  1  0.64350000  0.93590000  0.22600000  1.0 0.481523326
C  C3  1  0.06410000  0.64350000  0.22600000  1.0 0.481523326
C  C4  1  0.93590000  0.35650000  0.22600000  1.0 0.481523326
C  C5  1  0.35650000  0.93590000  0.77400000  1.0 0.481523326
C  C6  1  0.64350000  0.06410000  0.77400000  1.0 0.481523326
C  C7  1  0.06410000  0.35650000  0.77400000  1.0 0.481523326
C  C8  1  0.93590000  0.64350000  0.77400000  1.0 0.481523326
C  C9  1  0.64350000  0.93590000  0.77400000  1.0 0.481523326
C  C10  1  0.35650000  0.06410000  0.77400000  1.0 0.481523326
C  C11  1  0.93590000  0.35650000  0.77400000  1.0 0.481523326
C  C12  1  0.06410000  0.64350000  0.77400000  1.0 0.481523326
C  C13  1  0.64350000  0.06410000  0.22600000  1.0 0.481523326
C  C14  1  0.35650000  0.93590000  0.22600000  1.0 0.481523326
C  C15  1  0.93590000  0.64350000  0.22600000  1.0 0.481523326
C  C16  1  0.06410000  0.35650000  0.22600000  1.0 0.481523326
C  C17  1  0.32160000  0.07760000  0.28470000  1.0 0.2798531859
C  C18  1  0.67840000  0.92240000  0.28470000  1.0 0.2798531859
C  C19  1  0.07760000  0.67840000  0.28470000  1.0 0.2798531859
C  C20  1  0.92240000  0.32160000  0.28470000  1.0 0.2798531859
C  C21  1  0.32160000  0.92240000  0.71530000  1.0 0.2798531859
C  C22  1  0.67840000  0.07760000  0.71530000  1.0 0.2798531859
C  C23  1  0.07760000  0.32160000  0.71530000  1.0 0.2798531859
C  C24  1  0.92240000  0.67840000  0.71530000  1.0 0.2798531859
C  C25  1  0.67840000  0.92240000  0.71530000  1.0 0.2798531859
C  C26  1  0.32160000  0.07760000  0.71530000  1.0 0.2798531859
C  C27  1  0.92240000  0.32160000  0.71530000  1.0 0.2798531859
C  C28  1  0.07760000  0.67840000  0.71530000  1.0 0.2798531859
C  C29  1  0.67840000  0.07760000  0.28470000  1.0 0.2798531859
C  C30  1  0.32160000  0.92240000  0.28470000  1.0 0.2798531859
C  C31  1  0.92240000  0.67840000  0.28470000  1.0 0.2798531859
C  C32  1  0.07760000  0.32160000  0.28470000  1.0 0.2798531859
C  C33  1  0.42850000  0.14270000  0.30230000  1.0 0.3154701202
C  C34  1  0.57150000  0.85730000  0.30230000  1.0 0.3154701202
C  C35  1  0.14270000  0.57150000  0.30230000  1.0 0.3154701202
C  C36  1  0.85730000  0.42850000  0.30230000  1.0 0.3154701202
C  C37  1  0.42850000  0.85730000  0.69770000  1.0 0.3154701202
C  C38  1  0.57150000  0.14270000  0.69770000  1.0 0.3154701202
C  C39  1  0.14270000  0.42850000  0.69770000  1.0 0.3154701202
C  C40  1  0.85730000  0.57150000  0.69770000  1.0 0.3154701202
C  C41  1  0.57150000  0.85730000  0.69770000  1.0 0.3154701202
C  C42  1  0.42850000  0.14270000  0.69770000  1.0 0.3154701202
C  C43  1  0.85730000  0.42850000  0.69770000  1.0 0.3154701202
C  C44  1  0.14270000  0.57150000  0.69770000  1.0 0.3154701202
C  C45  1  0.57150000  0.14270000  0.30230000  1.0 0.3154701202
C  C46  1  0.42850000  0.85730000  0.30230000  1.0 0.3154701202
C  C47  1  0.85730000  0.57150000  0.30230000  1.0 0.3154701202
C  C48  1  0.14270000  0.42850000  0.30230000  1.0 0.3154701202
C  C49  1  0.43290000  0.15710000  0.20540000  1.0 0.466871519
C  C50  1  0.56710000  0.84290000  0.20540000  1.0 0.466871519
C  C51  1  0.15710000  0.56710000  0.20540000  1.0 0.466871519
C  C52  1  0.84290000  0.43290000  0.20540000  1.0 0.466871519
C  C53  1  0.43290000  0.84290000  0.79460000  1.0 0.466871519
C  C54  1  0.56710000  0.15710000  0.79460000  1.0 0.466871519
C  C55  1  0.15710000  0.43290000  0.79460000  1.0 0.466871519
C  C56  1  0.84290000  0.56710000  0.79460000  1.0 0.466871519
C  C57  1  0.56710000  0.84290000  0.79460000  1.0 0.466871519
C  C58  1  0.43290000  0.15710000  0.79460000  1.0 0.466871519
C  C59  1  0.84290000  0.43290000  0.79460000  1.0 0.466871519
C  C60  1  0.15710000  0.56710000  0.79460000  1.0 0.466871519
C  C61  1  0.56710000  0.15710000  0.20540000  1.0 0.466871519
C  C62  1  0.43290000  0.84290000  0.20540000  1.0 0.466871519
C  C63  1  0.84290000  0.56710000  0.20540000  1.0 0.466871519
C  C64  1  0.15710000  0.43290000  0.20540000  1.0 0.466871519
C  C65  1  0.30400000  0.20780000  0.31200000  1.0 0.5711172282
C  C66  1  0.69600000  0.79220000  0.31200000  1.0 0.5711172282
C  C67  1  0.20780000  0.69600000  0.31200000  1.0 0.5711172282
C  C68  1  0.79220000  0.30400000  0.31200000  1.0 0.5711172282
C  C69  1  0.30400000  0.79220000  0.68800000  1.0 0.5711172282
C  C70  1  0.69600000  0.20780000  0.68800000  1.0 0.5711172282
C  C71  1  0.20780000  0.30400000  0.68800000  1.0 0.5711172282
C  C72  1  0.79220000  0.69600000  0.68800000  1.0 0.5711172282
C  C73  1  0.69600000  0.79220000  0.68800000  1.0 0.5711172282
C  C74  1  0.30400000  0.20780000  0.68800000  1.0 0.5711172282
C  C75  1  0.79220000  0.30400000  0.68800000  1.0 0.5711172282
C  C76  1  0.20780000  0.69600000  0.68800000  1.0 0.5711172282
C  C77  1  0.69600000  0.20780000  0.31200000  1.0 0.5711172282
C  C78  1  0.30400000  0.79220000  0.31200000  1.0 0.5711172282
C  C79  1  0.79220000  0.69600000  0.31200000  1.0 0.5711172282
C  C80  1  0.20780000  0.30400000  0.31200000  1.0 0.5711172282
C  C81  1  0.29050000  0.19040000  0.22100000  1.0 0.120993052
C  C82  1  0.70950000  0.80960000  0.22100000  1.0 0.120993052
C  C83  1  0.19040000  0.70950000  0.22100000  1.0 0.120993052
C  C84  1  0.80960000  0.29050000  0.22100000  1.0 0.120993052
C  C85  1  0.29050000  0.80960000  0.77900000  1.0 0.120993052
C  C86  1  0.70950000  0.19040000  0.77900000  1.0 0.120993052
C  C87  1  0.19040000  0.29050000  0.77900000  1.0 0.120993052
C  C88  1  0.80960000  0.70950000  0.77900000  1.0 0.120993052
C  C89  1  0.70950000  0.80960000  0.77900000  1.0 0.120993052
C  C90  1  0.29050000  0.19040000  0.77900000  1.0 0.120993052
C  C91  1  0.80960000  0.29050000  0.77900000  1.0 0.120993052
C  C92  1  0.19040000  0.70950000  0.77900000  1.0 0.120993052
C  C93  1  0.70950000  0.19040000  0.22100000  1.0 0.120993052
C  C94  1  0.29050000  0.80960000  0.22100000  1.0 0.120993052
C  C95  1  0.80960000  0.70950000  0.22100000  1.0 0.120993052
C  C96  1  0.19040000  0.29050000  0.22100000  1.0 0.120993052
C  C97  1  0.29370000  0.05070000  0.42190000  1.0 0.042969576
C  C98  1  0.70630000  0.94930000  0.42190000  1.0 0.042969576
C  C99  1  0.05070000  0.70630000  0.42190000  1.0 0.042969576
C  C100  1  0.94930000  0.29370000  0.42190000  1.0 0.042969576
C  C101  1  0.29370000  0.94930000  0.57810000  1.0 0.042969576
C  C102  1  0.70630000  0.05070000  0.57810000  1.0 0.042969576
C  C103  1  0.05070000  0.29370000  0.57810000  1.0 0.042969576
C  C104  1  0.94930000  0.70630000  0.57810000  1.0 0.042969576
C  C105  1  0.70630000  0.94930000  0.57810000  1.0 0.042969576
C  C106  1  0.29370000  0.05070000  0.57810000  1.0 0.042969576
C  C107  1  0.94930000  0.29370000  0.57810000  1.0 0.042969576
C  C108  1  0.05070000  0.70630000  0.57810000  1.0 0.042969576
C  C109  1  0.70630000  0.05070000  0.42190000  1.0 0.042969576
C  C110  1  0.29370000  0.94930000  0.42190000  1.0 0.042969576
C  C111  1  0.94930000  0.70630000  0.42190000  1.0 0.042969576
C  C112  1  0.05070000  0.29370000  0.42190000  1.0 0.042969576
C  C113  1  0.31370000  0.04630000  0.50000000  1.0 0.0321061521
C  C114  1  0.68630000  0.95370000  0.50000000  1.0 0.0321061521
C  C115  1  0.04630000  0.68630000  0.50000000  1.0 0.0321061521
C  C116  1  0.95370000  0.31370000  0.50000000  1.0 0.0321061521
C  C117  1  0.31370000  0.95370000  0.50000000  1.0 0.0321061521
C  C118  1  0.68630000  0.04630000  0.50000000  1.0 0.0321061521
C  C119  1  0.04630000  0.31370000  0.50000000  1.0 0.0321061521
C  C120  1  0.95370000  0.68630000  0.50000000  1.0 0.0321061521
C  C121  1  0.25850000  0.04660000  0.41580000  1.0 0.0680989558
C  C122  1  0.74150000  0.95340000  0.41580000  1.0 0.0680989558
C  C123  1  0.04660000  0.74150000  0.41580000  1.0 0.0680989558
C  C124  1  0.95340000  0.25850000  0.41580000  1.0 0.0680989558
C  C125  1  0.25850000  0.95340000  0.58420000  1.0 0.0680989558
C  C126  1  0.74150000  0.04660000  0.58420000  1.0 0.0680989558
C  C127  1  0.04660000  0.25850000  0.58420000  1.0 0.0680989558
C  C128  1  0.95340000  0.74150000  0.58420000  1.0 0.0680989558
C  C129  1  0.74150000  0.95340000  0.58420000  1.0 0.0680989558
C  C130  1  0.25850000  0.04660000  0.58420000  1.0 0.0680989558
C  C131  1  0.95340000  0.25850000  0.58420000  1.0 0.0680989558
C  C132  1  0.04660000  0.74150000  0.58420000  1.0 0.0680989558
C  C133  1  0.74150000  0.04660000  0.41580000  1.0 0.0680989558
C  C134  1  0.25850000  0.95340000  0.41580000  1.0 0.0680989558
C  C135  1  0.95340000  0.74150000  0.41580000  1.0 0.0680989558
C  C136  1  0.04660000  0.25850000  0.41580000  1.0 0.0680989558
C  C137  1  0.24150000  0.03600000  0.50000000  1.0 -0.1289638613
C  C138  1  0.75850000  0.96400000  0.50000000  1.0 -0.1289638613
C  C139  1  0.03600000  0.75850000  0.50000000  1.0 -0.1289638613
C  C140  1  0.96400000  0.24150000  0.50000000  1.0 -0.1289638613
C  C141  1  0.24150000  0.96400000  0.50000000  1.0 -0.1289638613
C  C142  1  0.75850000  0.03600000  0.50000000  1.0 -0.1289638613
C  C143  1  0.03600000  0.24150000  0.50000000  1.0 -0.1289638613
C  C144  1  0.96400000  0.75850000  0.50000000  1.0 -0.1289638613
C  C145  1  0.45920000  0.11100000  0.42130000  1.0 0.0321061521
C  C146  1  0.54080000  0.88900000  0.42130000  1.0 0.0321061521
C  C147  1  0.11100000  0.54080000  0.42130000  1.0 0.0321061521
C  C148  1  0.88900000  0.45920000  0.42130000  1.0 0.0321061521
C  C149  1  0.45920000  0.88900000  0.57870000  1.0 0.0321061521
C  C150  1  0.54080000  0.11100000  0.57870000  1.0 0.0321061521
C  C151  1  0.11100000  0.45920000  0.57870000  1.0 0.0321061521
C  C152  1  0.88900000  0.54080000  0.57870000  1.0 0.0321061521
C  C153  1  0.54080000  0.88900000  0.57870000  1.0 0.0321061521
C  C154  1  0.45920000  0.11100000  0.57870000  1.0 0.0321061521
C  C155  1  0.88900000  0.45920000  0.57870000  1.0 0.0321061521
C  C156  1  0.11100000  0.54080000  0.57870000  1.0 0.0321061521
C  C157  1  0.54080000  0.11100000  0.42130000  1.0 0.0321061521
C  C158  1  0.45920000  0.88900000  0.42130000  1.0 0.0321061521
C  C159  1  0.88900000  0.54080000  0.42130000  1.0 0.0321061521
C  C160  1  0.11100000  0.45920000  0.42130000  1.0 0.0321061521
C  C161  1  0.45100000  0.13110000  0.50000000  1.0 0.0976899753
C  C162  1  0.54900000  0.86890000  0.50000000  1.0 0.0976899753
C  C163  1  0.13110000  0.54900000  0.50000000  1.0 0.0976899753
C  C164  1  0.86890000  0.45100000  0.50000000  1.0 0.0976899753
C  C165  1  0.45100000  0.86890000  0.50000000  1.0 0.0976899753
C  C166  1  0.54900000  0.13110000  0.50000000  1.0 0.0976899753
C  C167  1  0.13110000  0.45100000  0.50000000  1.0 0.0976899753
C  C168  1  0.86890000  0.54900000  0.50000000  1.0 0.0976899753
C  C169  1  0.44840000  0.17170000  0.50000000  1.0 -0.231776444
C  C170  1  0.55160000  0.82830000  0.50000000  1.0 -0.231776444
C  C171  1  0.17170000  0.55160000  0.50000000  1.0 -0.231776444
C  C172  1  0.82830000  0.44840000  0.50000000  1.0 -0.231776444
C  C173  1  0.44840000  0.82830000  0.50000000  1.0 -0.231776444
C  C174  1  0.55160000  0.17170000  0.50000000  1.0 -0.231776444
C  C175  1  0.17170000  0.44840000  0.50000000  1.0 -0.231776444
C  C176  1  0.82830000  0.55160000  0.50000000  1.0 -0.231776444
C  C177  1  0.24890000  0.18940000  0.07710000  1.0 0.0897840063
C  C178  1  0.75110000  0.81060000  0.07710000  1.0 0.0897840063
C  C179  1  0.18940000  0.75110000  0.07710000  1.0 0.0897840063
C  C180  1  0.81060000  0.24890000  0.07710000  1.0 0.0897840063
C  C181  1  0.24890000  0.81060000  0.92290000  1.0 0.0897840063
C  C182  1  0.75110000  0.18940000  0.92290000  1.0 0.0897840063
C  C183  1  0.18940000  0.24890000  0.92290000  1.0 0.0897840063
C  C184  1  0.81060000  0.75110000  0.92290000  1.0 0.0897840063
C  C185  1  0.75110000  0.81060000  0.92290000  1.0 0.0897840063
C  C186  1  0.24890000  0.18940000  0.92290000  1.0 0.0897840063
C  C187  1  0.81060000  0.24890000  0.92290000  1.0 0.0897840063
C  C188  1  0.18940000  0.75110000  0.92290000  1.0 0.0897840063
C  C189  1  0.75110000  0.18940000  0.07710000  1.0 0.0897840063
C  C190  1  0.24890000  0.81060000  0.07710000  1.0 0.0897840063
C  C191  1  0.81060000  0.75110000  0.07710000  1.0 0.0897840063
C  C192  1  0.18940000  0.24890000  0.07710000  1.0 0.0897840063
C  C193  1  0.26530000  0.20010000  0.00000000  1.0 -0.0127635138
C  C194  1  0.73470000  0.79990000  0.00000000  1.0 -0.0127635138
C  C195  1  0.20010000  0.73470000  0.00000000  1.0 -0.0127635138
C  C196  1  0.79990000  0.26530000  0.00000000  1.0 -0.0127635138
C  C197  1  0.26530000  0.79990000  0.00000000  1.0 -0.0127635138
C  C198  1  0.73470000  0.20010000  0.00000000  1.0 -0.0127635138
C  C199  1  0.20010000  0.26530000  0.00000000  1.0 -0.0127635138
C  C200  1  0.79990000  0.73470000  0.00000000  1.0 -0.0127635138
C  C201  1  0.29890000  0.22740000  0.00000000  1.0 -0.231776444
C  C202  1  0.70110000  0.77260000  0.00000000  1.0 -0.231776444
C  C203  1  0.22740000  0.70110000  0.00000000  1.0 -0.231776444
C  C204  1  0.77260000  0.29890000  0.00000000  1.0 -0.231776444
C  C205  1  0.29890000  0.77260000  0.00000000  1.0 -0.231776444
C  C206  1  0.70110000  0.22740000  0.00000000  1.0 -0.231776444
C  C207  1  0.22740000  0.29890000  0.00000000  1.0 -0.231776444
C  C208  1  0.77260000  0.70110000  0.00000000  1.0 -0.231776444
C  C209  1  0.22020000  0.16030000  0.08060000  1.0 0.1459373127
C  C210  1  0.77980000  0.83970000  0.08060000  1.0 0.1459373127
C  C211  1  0.16030000  0.77980000  0.08060000  1.0 0.1459373127
C  C212  1  0.83970000  0.22020000  0.08060000  1.0 0.1459373127
C  C213  1  0.22020000  0.83970000  0.91940000  1.0 0.1459373127
C  C214  1  0.77980000  0.16030000  0.91940000  1.0 0.1459373127
C  C215  1  0.16030000  0.22020000  0.91940000  1.0 0.1459373127
C  C216  1  0.83970000  0.77980000  0.91940000  1.0 0.1459373127
C  C217  1  0.77980000  0.83970000  0.91940000  1.0 0.1459373127
C  C218  1  0.22020000  0.16030000  0.91940000  1.0 0.1459373127
C  C219  1  0.83970000  0.22020000  0.91940000  1.0 0.1459373127
C  C220  1  0.16030000  0.77980000  0.91940000  1.0 0.1459373127
C  C221  1  0.77980000  0.16030000  0.08060000  1.0 0.1459373127
C  C222  1  0.22020000  0.83970000  0.08060000  1.0 0.1459373127
C  C223  1  0.83970000  0.77980000  0.08060000  1.0 0.1459373127
C  C224  1  0.16030000  0.22020000  0.08060000  1.0 0.1459373127
C  C225  1  0.20970000  0.13550000  0.00000000  1.0 -0.2363246509
C  C226  1  0.79030000  0.86450000  0.00000000  1.0 -0.2363246509
C  C227  1  0.13550000  0.79030000  0.00000000  1.0 -0.2363246509
C  C228  1  0.86450000  0.20970000  0.00000000  1.0 -0.2363246509
C  C229  1  0.20970000  0.86450000  0.00000000  1.0 -0.2363246509
C  C230  1  0.79030000  0.13550000  0.00000000  1.0 -0.2363246509
C  C231  1  0.13550000  0.20970000  0.00000000  1.0 -0.2363246509
C  C232  1  0.86450000  0.79030000  0.00000000  1.0 -0.2363246509
C  C233  1  0.45420000  0.07810000  0.39950000  1.0 0.042969576
C  C234  1  0.54580000  0.92190000  0.39950000  1.0 0.042969576
C  C235  1  0.07810000  0.54580000  0.39950000  1.0 0.042969576
C  C236  1  0.92190000  0.45420000  0.39950000  1.0 0.042969576
C  C237  1  0.45420000  0.92190000  0.60050000  1.0 0.042969576
C  C238  1  0.54580000  0.07810000  0.60050000  1.0 0.042969576
C  C239  1  0.07810000  0.45420000  0.60050000  1.0 0.042969576
C  C240  1  0.92190000  0.54580000  0.60050000  1.0 0.042969576
C  C241  1  0.54580000  0.92190000  0.60050000  1.0 0.042969576
C  C242  1  0.45420000  0.07810000  0.60050000  1.0 0.042969576
C  C243  1  0.92190000  0.45420000  0.60050000  1.0 0.042969576
C  C244  1  0.07810000  0.54580000  0.60050000  1.0 0.042969576
C  C245  1  0.54580000  0.07810000  0.39950000  1.0 0.042969576
C  C246  1  0.45420000  0.92190000  0.39950000  1.0 0.042969576
C  C247  1  0.92190000  0.54580000  0.39950000  1.0 0.042969576
C  C248  1  0.07810000  0.45420000  0.39950000  1.0 0.042969576
C  C249  1  0.44980000  0.05690000  0.31800000  1.0 -0.4289697952
C  C250  1  0.55020000  0.94310000  0.31800000  1.0 -0.4289697952
C  C251  1  0.05690000  0.55020000  0.31800000  1.0 -0.4289697952
C  C252  1  0.94310000  0.44980000  0.31800000  1.0 -0.4289697952
C  C253  1  0.44980000  0.94310000  0.68200000  1.0 -0.4289697952
C  C254  1  0.55020000  0.05690000  0.68200000  1.0 -0.4289697952
C  C255  1  0.05690000  0.44980000  0.68200000  1.0 -0.4289697952
C  C256  1  0.94310000  0.55020000  0.68200000  1.0 -0.4289697952
C  C257  1  0.55020000  0.94310000  0.68200000  1.0 -0.4289697952
C  C258  1  0.44980000  0.05690000  0.68200000  1.0 -0.4289697952
C  C259  1  0.94310000  0.44980000  0.68200000  1.0 -0.4289697952
C  C260  1  0.05690000  0.55020000  0.68200000  1.0 -0.4289697952
C  C261  1  0.55020000  0.05690000  0.31800000  1.0 -0.4289697952
C  C262  1  0.44980000  0.94310000  0.31800000  1.0 -0.4289697952
C  C263  1  0.94310000  0.55020000  0.31800000  1.0 -0.4289697952
C  C264  1  0.05690000  0.44980000  0.31800000  1.0 -0.4289697952
C  C265  1  0.45340000  0.06520000  0.50000000  1.0 -0.0024574251
C  C266  1  0.54660000  0.93480000  0.50000000  1.0 -0.0024574251
C  C267  1  0.06520000  0.54660000  0.50000000  1.0 -0.0024574251
C  C268  1  0.93480000  0.45340000  0.50000000  1.0 -0.0024574251
C  C269  1  0.45340000  0.93480000  0.50000000  1.0 -0.0024574251
C  C270  1  0.54660000  0.06520000  0.50000000  1.0 -0.0024574251
C  C271  1  0.06520000  0.45340000  0.50000000  1.0 -0.0024574251
C  C272  1  0.93480000  0.54660000  0.50000000  1.0 -0.0024574251
C  C273  1  0.35560000  0.03550000  0.50000000  1.0 -0.2981116241
C  C274  1  0.64440000  0.96450000  0.50000000  1.0 -0.2981116241
C  C275  1  0.03550000  0.64440000  0.50000000  1.0 -0.2981116241
C  C276  1  0.96450000  0.35560000  0.50000000  1.0 -0.2981116241
C  C277  1  0.35560000  0.96450000  0.50000000  1.0 -0.2981116241
C  C278  1  0.64440000  0.03550000  0.50000000  1.0 -0.2981116241
C  C279  1  0.03550000  0.35560000  0.50000000  1.0 -0.2981116241
C  C280  1  0.96450000  0.64440000  0.50000000  1.0 -0.2981116241
C  C281  1  0.23980000  0.04760000  0.32280000  1.0 -0.4140476227
C  C282  1  0.76020000  0.95240000  0.32280000  1.0 -0.4140476227
C  C283  1  0.04760000  0.76020000  0.32280000  1.0 -0.4140476227
C  C284  1  0.95240000  0.23980000  0.32280000  1.0 -0.4140476227
C  C285  1  0.23980000  0.95240000  0.67720000  1.0 -0.4140476227
C  C286  1  0.76020000  0.04760000  0.67720000  1.0 -0.4140476227
C  C287  1  0.04760000  0.23980000  0.67720000  1.0 -0.4140476227
C  C288  1  0.95240000  0.76020000  0.67720000  1.0 -0.4140476227
C  C289  1  0.76020000  0.95240000  0.67720000  1.0 -0.4140476227
C  C290  1  0.23980000  0.04760000  0.67720000  1.0 -0.4140476227
C  C291  1  0.95240000  0.23980000  0.67720000  1.0 -0.4140476227
C  C292  1  0.04760000  0.76020000  0.67720000  1.0 -0.4140476227
C  C293  1  0.76020000  0.04760000  0.32280000  1.0 -0.4140476227
C  C294  1  0.23980000  0.95240000  0.32280000  1.0 -0.4140476227
C  C295  1  0.95240000  0.76020000  0.32280000  1.0 -0.4140476227
C  C296  1  0.04760000  0.23980000  0.32280000  1.0 -0.4140476227
C  C297  1  0.20660000  0.13420000  0.14090000  1.0 -0.4289697952
C  C298  1  0.79340000  0.86580000  0.14090000  1.0 -0.4289697952
C  C299  1  0.13420000  0.79340000  0.14090000  1.0 -0.4289697952
C  C300  1  0.86580000  0.20660000  0.14090000  1.0 -0.4289697952
C  C301  1  0.20660000  0.86580000  0.85910000  1.0 -0.4289697952
C  C302  1  0.79340000  0.13420000  0.85910000  1.0 -0.4289697952
C  C303  1  0.13420000  0.20660000  0.85910000  1.0 -0.4289697952
C  C304  1  0.86580000  0.79340000  0.85910000  1.0 -0.4289697952
C  C305  1  0.79340000  0.86580000  0.85910000  1.0 -0.4289697952
C  C306  1  0.20660000  0.13420000  0.85910000  1.0 -0.4289697952
C  C307  1  0.86580000  0.20660000  0.85910000  1.0 -0.4289697952
C  C308  1  0.13420000  0.79340000  0.85910000  1.0 -0.4289697952
C  C309  1  0.79340000  0.13420000  0.14090000  1.0 -0.4289697952
C  C310  1  0.20660000  0.86580000  0.14090000  1.0 -0.4289697952
C  C311  1  0.86580000  0.79340000  0.14090000  1.0 -0.4289697952
C  C312  1  0.13420000  0.20660000  0.14090000  1.0 -0.4289697952
N  N1  1  0.31810000  0.05450000  0.33840000  1.0 -0.2981116241
N  N2  1  0.68190000  0.94550000  0.33840000  1.0 -0.2981116241
N  N3  1  0.05450000  0.68190000  0.33840000  1.0 -0.2981116241
N  N4  1  0.94550000  0.31810000  0.33840000  1.0 -0.2981116241
N  N5  1  0.31810000  0.94550000  0.66160000  1.0 -0.2981116241
N  N6  1  0.68190000  0.05450000  0.66160000  1.0 -0.2981116241
N  N7  1  0.05450000  0.31810000  0.66160000  1.0 -0.2981116241
N  N8  1  0.94550000  0.68190000  0.66160000  1.0 -0.2981116241
N  N9  1  0.68190000  0.94550000  0.66160000  1.0 -0.2981116241
N  N10  1  0.31810000  0.05450000  0.66160000  1.0 -0.2981116241
N  N11  1  0.94550000  0.31810000  0.66160000  1.0 -0.2981116241
N  N12  1  0.05450000  0.68190000  0.66160000  1.0 -0.2981116241
N  N13  1  0.68190000  0.05450000  0.33840000  1.0 -0.2981116241
N  N14  1  0.31810000  0.94550000  0.33840000  1.0 -0.2981116241
N  N15  1  0.94550000  0.68190000  0.33840000  1.0 -0.2981116241
N  N16  1  0.05450000  0.31810000  0.33840000  1.0 -0.2981116241
N  N17  1  0.46360000  0.13340000  0.33730000  1.0 -0.3567297176
N  N18  1  0.53640000  0.86660000  0.33730000  1.0 -0.3567297176
N  N19  1  0.13340000  0.53640000  0.33730000  1.0 -0.3567297176
N  N20  1  0.86660000  0.46360000  0.33730000  1.0 -0.3567297176
N  N21  1  0.46360000  0.86660000  0.66270000  1.0 -0.3567297176
N  N22  1  0.53640000  0.13340000  0.66270000  1.0 -0.3567297176
N  N23  1  0.13340000  0.46360000  0.66270000  1.0 -0.3567297176
N  N24  1  0.86660000  0.53640000  0.66270000  1.0 -0.3567297176
N  N25  1  0.53640000  0.86660000  0.66270000  1.0 -0.3567297176
N  N26  1  0.46360000  0.13340000  0.66270000  1.0 -0.3567297176
N  N27  1  0.86660000  0.46360000  0.66270000  1.0 -0.3567297176
N  N28  1  0.13340000  0.53640000  0.66270000  1.0 -0.3567297176
N  N29  1  0.53640000  0.13340000  0.33730000  1.0 -0.3567297176
N  N30  1  0.46360000  0.86660000  0.33730000  1.0 -0.3567297176
N  N31  1  0.86660000  0.53640000  0.33730000  1.0 -0.3567297176
N  N32  1  0.13340000  0.46360000  0.33730000  1.0 -0.3567297176
N  N33  1  0.26220000  0.19060000  0.17070000  1.0 -0.3481695444
N  N34  1  0.73780000  0.80940000  0.17070000  1.0 -0.3481695444
N  N35  1  0.19060000  0.73780000  0.17070000  1.0 -0.3481695444
N  N36  1  0.80940000  0.26220000  0.17070000  1.0 -0.3481695444
N  N37  1  0.26220000  0.80940000  0.82930000  1.0 -0.3481695444
N  N38  1  0.73780000  0.19060000  0.82930000  1.0 -0.3481695444
N  N39  1  0.19060000  0.26220000  0.82930000  1.0 -0.3481695444
N  N40  1  0.80940000  0.73780000  0.82930000  1.0 -0.3481695444
N  N41  1  0.73780000  0.80940000  0.82930000  1.0 -0.3481695444
N  N42  1  0.26220000  0.19060000  0.82930000  1.0 -0.3481695444
N  N43  1  0.80940000  0.26220000  0.82930000  1.0 -0.3481695444
N  N44  1  0.19060000  0.73780000  0.82930000  1.0 -0.3481695444
N  N45  1  0.73780000  0.19060000  0.17070000  1.0 -0.3481695444
N  N46  1  0.26220000  0.80940000  0.17070000  1.0 -0.3481695444
N  N47  1  0.80940000  0.73780000  0.17070000  1.0 -0.3481695444
N  N48  1  0.19060000  0.26220000  0.17070000  1.0 -0.3481695444
O  O1  1  0.35790000  0.03300000  0.20270000  1.0 -0.3722706956
O  O2  1  0.64210000  0.96700000  0.20270000  1.0 -0.3722706956
O  O3  1  0.03300000  0.64210000  0.20270000  1.0 -0.3722706956
O  O4  1  0.96700000  0.35790000  0.20270000  1.0 -0.3722706956
O  O5  1  0.35790000  0.96700000  0.79730000  1.0 -0.3722706956
O  O6  1  0.64210000  0.03300000  0.79730000  1.0 -0.3722706956
O  O7  1  0.03300000  0.35790000  0.79730000  1.0 -0.3722706956
O  O8  1  0.96700000  0.64210000  0.79730000  1.0 -0.3722706956
O  O9  1  0.64210000  0.96700000  0.79730000  1.0 -0.3722706956
O  O10  1  0.35790000  0.03300000  0.79730000  1.0 -0.3722706956
O  O11  1  0.96700000  0.35790000  0.79730000  1.0 -0.3722706956
O  O12  1  0.03300000  0.64210000  0.79730000  1.0 -0.3722706956
O  O13  1  0.64210000  0.03300000  0.20270000  1.0 -0.3722706956
O  O14  1  0.35790000  0.96700000  0.20270000  1.0 -0.3722706956
O  O15  1  0.96700000  0.64210000  0.20270000  1.0 -0.3722706956
O  O16  1  0.03300000  0.35790000  0.20270000  1.0 -0.3722706956
O  O17  1  0.36290000  0.09740000  0.19310000  1.0 -0.4963624605
O  O18  1  0.63710000  0.90260000  0.19310000  1.0 -0.4963624605
O  O19  1  0.09740000  0.63710000  0.19310000  1.0 -0.4963624605
O  O20  1  0.90260000  0.36290000  0.19310000  1.0 -0.4963624605
O  O21  1  0.36290000  0.90260000  0.80690000  1.0 -0.4963624605
O  O22  1  0.63710000  0.09740000  0.80690000  1.0 -0.4963624605
O  O23  1  0.09740000  0.36290000  0.80690000  1.0 -0.4963624605
O  O24  1  0.90260000  0.63710000  0.80690000  1.0 -0.4963624605
O  O25  1  0.63710000  0.90260000  0.80690000  1.0 -0.4963624605
O  O26  1  0.36290000  0.09740000  0.80690000  1.0 -0.4963624605
O  O27  1  0.90260000  0.36290000  0.80690000  1.0 -0.4963624605
O  O28  1  0.09740000  0.63710000  0.80690000  1.0 -0.4963624605
O  O29  1  0.63710000  0.09740000  0.19310000  1.0 -0.4963624605
O  O30  1  0.36290000  0.90260000  0.19310000  1.0 -0.4963624605
O  O31  1  0.90260000  0.63710000  0.19310000  1.0 -0.4963624605
O  O32  1  0.09740000  0.36290000  0.19310000  1.0 -0.4963624605
O  O33  1  0.31830000  0.11020000  0.32300000  1.0 -0.4768483859
O  O34  1  0.68170000  0.88980000  0.32300000  1.0 -0.4768483859
O  O35  1  0.11020000  0.68170000  0.32300000  1.0 -0.4768483859
O  O36  1  0.88980000  0.31830000  0.32300000  1.0 -0.4768483859
O  O37  1  0.31830000  0.88980000  0.67700000  1.0 -0.4768483859
O  O38  1  0.68170000  0.11020000  0.67700000  1.0 -0.4768483859
O  O39  1  0.11020000  0.31830000  0.67700000  1.0 -0.4768483859
O  O40  1  0.88980000  0.68170000  0.67700000  1.0 -0.4768483859
O  O41  1  0.68170000  0.88980000  0.67700000  1.0 -0.4768483859
O  O42  1  0.31830000  0.11020000  0.67700000  1.0 -0.4768483859
O  O43  1  0.88980000  0.31830000  0.67700000  1.0 -0.4768483859
O  O44  1  0.11020000  0.68170000  0.67700000  1.0 -0.4768483859
O  O45  1  0.68170000  0.11020000  0.32300000  1.0 -0.4768483859
O  O46  1  0.31830000  0.88980000  0.32300000  1.0 -0.4768483859
O  O47  1  0.88980000  0.68170000  0.32300000  1.0 -0.4768483859
O  O48  1  0.11020000  0.31830000  0.32300000  1.0 -0.4768483859
O  O49  1  0.46100000  0.17620000  0.18280000  1.0 -0.4495980559
O  O50  1  0.53900000  0.82380000  0.18280000  1.0 -0.4495980559
O  O51  1  0.17620000  0.53900000  0.18280000  1.0 -0.4495980559
O  O52  1  0.82380000  0.46100000  0.18280000  1.0 -0.4495980559
O  O53  1  0.46100000  0.82380000  0.81720000  1.0 -0.4495980559
O  O54  1  0.53900000  0.17620000  0.81720000  1.0 -0.4495980559
O  O55  1  0.17620000  0.46100000  0.81720000  1.0 -0.4495980559
O  O56  1  0.82380000  0.53900000  0.81720000  1.0 -0.4495980559
O  O57  1  0.53900000  0.82380000  0.81720000  1.0 -0.4495980559
O  O58  1  0.46100000  0.17620000  0.81720000  1.0 -0.4495980559
O  O59  1  0.82380000  0.46100000  0.81720000  1.0 -0.4495980559
O  O60  1  0.17620000  0.53900000  0.81720000  1.0 -0.4495980559
O  O61  1  0.53900000  0.17620000  0.18280000  1.0 -0.4495980559
O  O62  1  0.46100000  0.82380000  0.18280000  1.0 -0.4495980559
O  O63  1  0.82380000  0.53900000  0.18280000  1.0 -0.4495980559
O  O64  1  0.17620000  0.46100000  0.18280000  1.0 -0.4495980559
O  O65  1  0.39510000  0.17110000  0.18100000  1.0 -0.4449113996
O  O66  1  0.60490000  0.82890000  0.18100000  1.0 -0.4449113996
O  O67  1  0.17110000  0.60490000  0.18100000  1.0 -0.4449113996
O  O68  1  0.82890000  0.39510000  0.18100000  1.0 -0.4449113996
O  O69  1  0.39510000  0.82890000  0.81900000  1.0 -0.4449113996
O  O70  1  0.60490000  0.17110000  0.81900000  1.0 -0.4495980559
O  O71  1  0.17110000  0.39510000  0.81900000  1.0 -0.4495980559
O  O72  1  0.82890000  0.60490000  0.81900000  1.0 -0.4495980559
O  O73  1  0.60490000  0.82890000  0.81900000  1.0 -0.4449113996
O  O74  1  0.39510000  0.17110000  0.81900000  1.0 -0.4495980559
O  O75  1  0.82890000  0.39510000  0.81900000  1.0 -0.4495980559
O  O76  1  0.17110000  0.60490000  0.81900000  1.0 -0.4495980559
O  O77  1  0.60490000  0.17110000  0.18100000  1.0 -0.4449113996
O  O78  1  0.39510000  0.82890000  0.18100000  1.0 -0.4449113996
O  O79  1  0.82890000  0.60490000  0.18100000  1.0 -0.4449113996
O  O80  1  0.17110000  0.39510000  0.18100000  1.0 -0.4449113996
O  O81  1  0.39150000  0.13660000  0.34310000  1.0 -0.4289697952
O  O82  1  0.60850000  0.86340000  0.34310000  1.0 -0.4289697952
O  O83  1  0.13660000  0.60850000  0.34310000  1.0 -0.4289697952
O  O84  1  0.86340000  0.39150000  0.34310000  1.0 -0.4289697952
O  O85  1  0.39150000  0.86340000  0.65690000  1.0 -0.4289697952
O  O86  1  0.60850000  0.13660000  0.65690000  1.0 -0.4289697952
O  O87  1  0.13660000  0.39150000  0.65690000  1.0 -0.4289697952
O  O88  1  0.86340000  0.60850000  0.65690000  1.0 -0.4289697952
O  O89  1  0.60850000  0.86340000  0.65690000  1.0 -0.4289697952
O  O90  1  0.39150000  0.13660000  0.65690000  1.0 -0.4289697952
O  O91  1  0.86340000  0.39150000  0.65690000  1.0 -0.4289697952
O  O92  1  0.13660000  0.60850000  0.65690000  1.0 -0.4289697952
O  O93  1  0.60850000  0.13660000  0.34310000  1.0 -0.4289697952
O  O94  1  0.39150000  0.86340000  0.34310000  1.0 -0.4289697952
O  O95  1  0.86340000  0.60850000  0.34310000  1.0 -0.4289697952
O  O96  1  0.13660000  0.39150000  0.34310000  1.0 -0.4289697952
O  O97  1  0.31470000  0.16010000  0.16560000  1.0 -0.5546797604
O  O98  1  0.68530000  0.83990000  0.16560000  1.0 -0.5546797604
O  O99  1  0.16010000  0.68530000  0.16560000  1.0 -0.5546797604
O  O100  1  0.83990000  0.31470000  0.16560000  1.0 -0.5546797604
O  O101  1  0.31470000  0.83990000  0.83440000  1.0 -0.5546797604
O  O102  1  0.68530000  0.16010000  0.83440000  1.0 -0.5546797604
O  O103  1  0.16010000  0.31470000  0.83440000  1.0 -0.5546797604
O  O104  1  0.83990000  0.68530000  0.83440000  1.0 -0.5546797604
O  O105  1  0.68530000  0.83990000  0.83440000  1.0 -0.5546797604
O  O106  1  0.31470000  0.16010000  0.83440000  1.0 -0.5546797604
O  O107  1  0.83990000  0.31470000  0.83440000  1.0 -0.5546797604
O  O108  1  0.16010000  0.68530000  0.83440000  1.0 -0.5546797604
O  O109  1  0.68530000  0.16010000  0.16560000  1.0 -0.5546797604
O  O110  1  0.31470000  0.83990000  0.16560000  1.0 -0.5546797604
O  O111  1  0.83990000  0.68530000  0.16560000  1.0 -0.5546797604
O  O112  1  0.16010000  0.31470000  0.16560000  1.0 -0.5546797604
O  O113  1  0.33900000  0.19200000  0.30630000  1.0 -0.5335090548
O  O114  1  0.66100000  0.80800000  0.30630000  1.0 -0.5335090548
O  O115  1  0.19200000  0.66100000  0.30630000  1.0 -0.5335090548
O  O116  1  0.80800000  0.33900000  0.30630000  1.0 -0.5335090548
O  O117  1  0.33900000  0.80800000  0.69370000  1.0 -0.5335090548
O  O118  1  0.66100000  0.19200000  0.69370000  1.0 -0.5335090548
O  O119  1  0.19200000  0.33900000  0.69370000  1.0 -0.5335090548
O  O120  1  0.80800000  0.66100000  0.69370000  1.0 -0.5335090548
O  O121  1  0.66100000  0.80800000  0.69370000  1.0 -0.5335090548
O  O122  1  0.33900000  0.19200000  0.69370000  1.0 -0.5335090548
O  O123  1  0.80800000  0.33900000  0.69370000  1.0 -0.5335090548
O  O124  1  0.19200000  0.66100000  0.69370000  1.0 -0.5335090548
O  O125  1  0.66100000  0.19200000  0.30630000  1.0 -0.5335090548
O  O126  1  0.33900000  0.80800000  0.30630000  1.0 -0.5335090548
O  O127  1  0.80800000  0.66100000  0.30630000  1.0 -0.5335090548
O  O128  1  0.19200000  0.33900000  0.30630000  1.0 -0.5335090548
O  O129  1  0.28630000  0.23660000  0.30080000  1.0 -0.4205311533
O  O130  1  0.71370000  0.76340000  0.30080000  1.0 -0.4205311533
O  O131  1  0.23660000  0.71370000  0.30080000  1.0 -0.4205311533
O  O132  1  0.76340000  0.28630000  0.30080000  1.0 -0.4205311533
O  O133  1  0.28630000  0.76340000  0.69920000  1.0 -0.4205311533
O  O134  1  0.71370000  0.23660000  0.69920000  1.0 -0.4205311533
O  O135  1  0.23660000  0.28630000  0.69920000  1.0 -0.4205311533
O  O136  1  0.76340000  0.71370000  0.69920000  1.0 -0.4205311533
O  O137  1  0.71370000  0.76340000  0.69920000  1.0 -0.4205311533
O  O138  1  0.28630000  0.23660000  0.69920000  1.0 -0.4205311533
O  O139  1  0.76340000  0.28630000  0.69920000  1.0 -0.4205311533
O  O140  1  0.23660000  0.71370000  0.69920000  1.0 -0.4205311533
O  O141  1  0.71370000  0.23660000  0.30080000  1.0 -0.4205311533
O  O142  1  0.28630000  0.76340000  0.30080000  1.0 -0.4205311533
O  O143  1  0.76340000  0.71370000  0.30080000  1.0 -0.4205311533
O  O144  1  0.23660000  0.28630000  0.30080000  1.0 -0.4205311533
