# DDEC6 charges by PACMAN v1.1 (https://github.com/mtap-research/PACMAN-charge/)
data_DUZKEQ_ASR_pacman
_symmetry_space_group_name_H-M   'P 1'
_cell_length_a   37.49200000
_cell_length_b   37.49200000
_cell_length_c   15.55700000
_cell_angle_alpha   90.00000000
_cell_angle_beta   90.00000000
_cell_angle_gamma   90.00000000
_symmetry_Int_Tables_number   1
_chemical_formula_structural   K9Mn4Cu6H78C78N12O43
_chemical_formula_sum   'K36 Mn16 Cu24 H312 C312 N48 O172'
_cell_volume   21867.69804565
_cell_formula_units_Z   4
loop_
 _symmetry_equiv_pos_site_id
 _symmetry_equiv_pos_as_xyz
  1  'x, y, z'
loop_
 _atom_site_type_symbol
 _atom_site_label
 _atom_site_symmetry_multiplicity
 _atom_site_fract_x
 _atom_site_fract_y
 _atom_site_fract_z
 _atom_site_occupancy
 _atom_site_charge
K  K1  1  0.42560000  0.21560000  0.06780000  1.0 0.8665679063
K  K2  1  0.57440000  0.78440000  0.06780000  1.0 0.8665679063
K  K3  1  0.21560000  0.57440000  0.06780000  1.0 0.8636370824
K  K4  1  0.78440000  0.42560000  0.06780000  1.0 0.8665679063
K  K5  1  0.42560000  0.78440000  0.93220000  1.0 0.8665679063
K  K6  1  0.57440000  0.21560000  0.93220000  1.0 0.8636370824
K  K7  1  0.21560000  0.42560000  0.93220000  1.0 0.8636370824
K  K8  1  0.78440000  0.57440000  0.93220000  1.0 0.8665679063
K  K9  1  0.57440000  0.78440000  0.93220000  1.0 0.8665679063
K  K10  1  0.42560000  0.21560000  0.93220000  1.0 0.8636370824
K  K11  1  0.78440000  0.42560000  0.93220000  1.0 0.8665679063
K  K12  1  0.21560000  0.57440000  0.93220000  1.0 0.8636370824
K  K13  1  0.57440000  0.21560000  0.06780000  1.0 0.8636370824
K  K14  1  0.42560000  0.78440000  0.06780000  1.0 0.8665679063
K  K15  1  0.78440000  0.57440000  0.06780000  1.0 0.8665679063
K  K16  1  0.21560000  0.42560000  0.06780000  1.0 0.8665679063
K  K17  1  0.45020000  0.00000000  0.00000000  1.0 0.2914581027
K  K18  1  0.54980000  0.00000000  0.00000000  1.0 0.2914581027
K  K19  1  0.00000000  0.54980000  0.00000000  1.0 0.2914581027
K  K20  1  0.00000000  0.45020000  0.00000000  1.0 0.2914581027
K  K21  1  0.40270000  0.97360000  0.00000000  1.0 0.4312710602
K  K22  1  0.59730000  0.02640000  0.00000000  1.0 0.4312710602
K  K23  1  0.97360000  0.59730000  0.00000000  1.0 0.4312710602
K  K24  1  0.02640000  0.40270000  0.00000000  1.0 0.4312710602
K  K25  1  0.40270000  0.02640000  0.00000000  1.0 0.4312710602
K  K26  1  0.59730000  0.97360000  0.00000000  1.0 0.4312710602
K  K27  1  0.97360000  0.40270000  0.00000000  1.0 0.4312710602
K  K28  1  0.02640000  0.59730000  0.00000000  1.0 0.4312710602
K  K29  1  0.41920000  0.00000000  0.10550000  1.0 0.592352989
K  K30  1  0.58080000  0.00000000  0.10550000  1.0 0.5983301725
K  K31  1  0.00000000  0.58080000  0.10550000  1.0 0.5983301725
K  K32  1  0.00000000  0.41920000  0.10550000  1.0 0.592352989
K  K33  1  0.41920000  0.00000000  0.89450000  1.0 0.592352989
K  K34  1  0.58080000  0.00000000  0.89450000  1.0 0.592352989
K  K35  1  0.00000000  0.41920000  0.89450000  1.0 0.592352989
K  K36  1  0.00000000  0.58080000  0.89450000  1.0 0.592352989
Mn  Mn1  1  0.35170000  0.14613000  0.24810000  1.0 1.0612142708
Mn  Mn2  1  0.64830000  0.85387000  0.24810000  1.0 1.0612142708
Mn  Mn3  1  0.14613000  0.64830000  0.24810000  1.0 1.0612142708
Mn  Mn4  1  0.85387000  0.35170000  0.24810000  1.0 1.0612142708
Mn  Mn5  1  0.35170000  0.85387000  0.75190000  1.0 1.0612142708
Mn  Mn6  1  0.64830000  0.14613000  0.75190000  1.0 1.0612142708
Mn  Mn7  1  0.14613000  0.35170000  0.75190000  1.0 1.0612142708
Mn  Mn8  1  0.85387000  0.64830000  0.75190000  1.0 1.0612142708
Mn  Mn9  1  0.64830000  0.85387000  0.75190000  1.0 1.0612142708
Mn  Mn10  1  0.35170000  0.14613000  0.75190000  1.0 1.0612142708
Mn  Mn11  1  0.85387000  0.35170000  0.75190000  1.0 1.0612142708
Mn  Mn12  1  0.14613000  0.64830000  0.75190000  1.0 1.0612142708
Mn  Mn13  1  0.64830000  0.14613000  0.24810000  1.0 1.0612142708
Mn  Mn14  1  0.35170000  0.85387000  0.24810000  1.0 1.0612142708
Mn  Mn15  1  0.85387000  0.64830000  0.24810000  1.0 1.0612142708
Mn  Mn16  1  0.14613000  0.35170000  0.24810000  1.0 1.0612142708
Cu  Cu1  1  0.33268000  0.00000000  0.27403000  1.0 0.3637899187
Cu  Cu2  1  0.66732000  0.00000000  0.27403000  1.0 0.3650583651
Cu  Cu3  1  0.00000000  0.66732000  0.27403000  1.0 0.3650583651
Cu  Cu4  1  0.00000000  0.33268000  0.27403000  1.0 0.3637899187
Cu  Cu5  1  0.33268000  0.00000000  0.72597000  1.0 0.3637899187
Cu  Cu6  1  0.66732000  0.00000000  0.72597000  1.0 0.3650583651
Cu  Cu7  1  0.00000000  0.33268000  0.72597000  1.0 0.3637899187
Cu  Cu8  1  0.00000000  0.66732000  0.72597000  1.0 0.3650583651
Cu  Cu9  1  0.50000000  0.14659000  0.26827000  1.0 0.631527799
Cu  Cu10  1  0.50000000  0.85341000  0.26827000  1.0 0.631527799
Cu  Cu11  1  0.14659000  0.50000000  0.26827000  1.0 0.631527799
Cu  Cu12  1  0.85341000  0.50000000  0.26827000  1.0 0.631527799
Cu  Cu13  1  0.50000000  0.85341000  0.73173000  1.0 0.631527799
Cu  Cu14  1  0.50000000  0.14659000  0.73173000  1.0 0.631527799
Cu  Cu15  1  0.14659000  0.50000000  0.73173000  1.0 0.631527799
Cu  Cu16  1  0.85341000  0.50000000  0.73173000  1.0 0.631527799
Cu  Cu17  1  0.24088000  0.24088000  0.23048000  1.0 0.5709925618
Cu  Cu18  1  0.75912000  0.75912000  0.23048000  1.0 0.5709925618
Cu  Cu19  1  0.24088000  0.75912000  0.23048000  1.0 0.5709925618
Cu  Cu20  1  0.75912000  0.24088000  0.23048000  1.0 0.5709925618
Cu  Cu21  1  0.24088000  0.75912000  0.76952000  1.0 0.5709925618
Cu  Cu22  1  0.75912000  0.24088000  0.76952000  1.0 0.5709925618
Cu  Cu23  1  0.24088000  0.24088000  0.76952000  1.0 0.5709925618
Cu  Cu24  1  0.75912000  0.75912000  0.76952000  1.0 0.5709925618
H  H1  1  0.21170000  0.04690000  0.50000000  1.0 0.1314242392
H  H2  1  0.78830000  0.95310000  0.50000000  1.0 0.1186810086
H  H3  1  0.04690000  0.78830000  0.50000000  1.0 0.1314242392
H  H4  1  0.95310000  0.21170000  0.50000000  1.0 0.1186810086
H  H5  1  0.21170000  0.95310000  0.50000000  1.0 0.1314242392
H  H6  1  0.78830000  0.04690000  0.50000000  1.0 0.1186810086
H  H7  1  0.04690000  0.21170000  0.50000000  1.0 0.1314242392
H  H8  1  0.95310000  0.78830000  0.50000000  1.0 0.1186810086
H  H9  1  0.18450000  0.12430000  0.00000000  1.0 0.1414623162
H  H10  1  0.81550000  0.87570000  0.00000000  1.0 0.1414623162
H  H11  1  0.12430000  0.81550000  0.00000000  1.0 0.1414623162
H  H12  1  0.87570000  0.18450000  0.00000000  1.0 0.1414623162
H  H13  1  0.18450000  0.87570000  0.00000000  1.0 0.1414623162
H  H14  1  0.81550000  0.12430000  0.00000000  1.0 0.1414623162
H  H15  1  0.12430000  0.18450000  0.00000000  1.0 0.1414623162
H  H16  1  0.87570000  0.81550000  0.00000000  1.0 0.1414623162
H  H17  1  0.44820000  0.07050000  0.28250000  1.0 0.1314242392
H  H18  1  0.55180000  0.92950000  0.28250000  1.0 0.1314242392
H  H19  1  0.07050000  0.55180000  0.28250000  1.0 0.1314242392
H  H20  1  0.92950000  0.44820000  0.28250000  1.0 0.1314242392
H  H21  1  0.44820000  0.92950000  0.71750000  1.0 0.1314242392
H  H22  1  0.55180000  0.07050000  0.71750000  1.0 0.1314242392
H  H23  1  0.07050000  0.44820000  0.71750000  1.0 0.1314242392
H  H24  1  0.92950000  0.55180000  0.71750000  1.0 0.1314242392
H  H25  1  0.55180000  0.92950000  0.71750000  1.0 0.1314242392
H  H26  1  0.44820000  0.07050000  0.71750000  1.0 0.1314242392
H  H27  1  0.92950000  0.44820000  0.71750000  1.0 0.1314242392
H  H28  1  0.07050000  0.55180000  0.71750000  1.0 0.1314242392
H  H29  1  0.55180000  0.07050000  0.28250000  1.0 0.1314242392
H  H30  1  0.44820000  0.92950000  0.28250000  1.0 0.1314242392
H  H31  1  0.92950000  0.55180000  0.28250000  1.0 0.1314242392
H  H32  1  0.07050000  0.44820000  0.28250000  1.0 0.1314242392
H  H33  1  0.46600000  0.03690000  0.32960000  1.0 0.1186810086
H  H34  1  0.53400000  0.96310000  0.32960000  1.0 0.1186810086
H  H35  1  0.03690000  0.53400000  0.32960000  1.0 0.1186810086
H  H36  1  0.96310000  0.46600000  0.32960000  1.0 0.1186810086
H  H37  1  0.46600000  0.96310000  0.67040000  1.0 0.1186810086
H  H38  1  0.53400000  0.03690000  0.67040000  1.0 0.1186810086
H  H39  1  0.03690000  0.46600000  0.67040000  1.0 0.1186810086
H  H40  1  0.96310000  0.53400000  0.67040000  1.0 0.1186810086
H  H41  1  0.53400000  0.96310000  0.67040000  1.0 0.1186810086
H  H42  1  0.46600000  0.03690000  0.67040000  1.0 0.1186810086
H  H43  1  0.96310000  0.46600000  0.67040000  1.0 0.1186810086
H  H44  1  0.03690000  0.53400000  0.67040000  1.0 0.1186810086
H  H45  1  0.53400000  0.03690000  0.32960000  1.0 0.1186810086
H  H46  1  0.46600000  0.96310000  0.32960000  1.0 0.1186810086
H  H47  1  0.96310000  0.53400000  0.32960000  1.0 0.1186810086
H  H48  1  0.03690000  0.46600000  0.32960000  1.0 0.1186810086
H  H49  1  0.42390000  0.04360000  0.33690000  1.0 0.1314242392
H  H50  1  0.57610000  0.95640000  0.33690000  1.0 0.1314242392
H  H51  1  0.04360000  0.57610000  0.33690000  1.0 0.1314242392
H  H52  1  0.95640000  0.42390000  0.33690000  1.0 0.1314242392
H  H53  1  0.42390000  0.95640000  0.66310000  1.0 0.1314242392
H  H54  1  0.57610000  0.04360000  0.66310000  1.0 0.1314242392
H  H55  1  0.04360000  0.42390000  0.66310000  1.0 0.1314242392
H  H56  1  0.95640000  0.57610000  0.66310000  1.0 0.1314242392
H  H57  1  0.57610000  0.95640000  0.66310000  1.0 0.1314242392
H  H58  1  0.42390000  0.04360000  0.66310000  1.0 0.1314242392
H  H59  1  0.95640000  0.42390000  0.66310000  1.0 0.1314242392
H  H60  1  0.04360000  0.57610000  0.66310000  1.0 0.1314242392
H  H61  1  0.57610000  0.04360000  0.33690000  1.0 0.1314242392
H  H62  1  0.42390000  0.95640000  0.33690000  1.0 0.1314242392
H  H63  1  0.95640000  0.57610000  0.33690000  1.0 0.1314242392
H  H64  1  0.04360000  0.42390000  0.33690000  1.0 0.1314242392
H  H65  1  0.45160000  0.03440000  0.50000000  1.0 0.1186810086
H  H66  1  0.54840000  0.96560000  0.50000000  1.0 0.1186810086
H  H67  1  0.03440000  0.54840000  0.50000000  1.0 0.1186810086
H  H68  1  0.96560000  0.45160000  0.50000000  1.0 0.1186810086
H  H69  1  0.45160000  0.96560000  0.50000000  1.0 0.1186810086
H  H70  1  0.54840000  0.03440000  0.50000000  1.0 0.1186810086
H  H71  1  0.03440000  0.45160000  0.50000000  1.0 0.1186810086
H  H72  1  0.96560000  0.54840000  0.50000000  1.0 0.1186810086
H  H73  1  0.25500000  0.04850000  0.28370000  1.0 0.1314242392
H  H74  1  0.74500000  0.95150000  0.28370000  1.0 0.1314242392
H  H75  1  0.04850000  0.74500000  0.28370000  1.0 0.1314242392
H  H76  1  0.95150000  0.25500000  0.28370000  1.0 0.1314242392
H  H77  1  0.25500000  0.95150000  0.71630000  1.0 0.1314242392
H  H78  1  0.74500000  0.04850000  0.71630000  1.0 0.1314242392
H  H79  1  0.04850000  0.25500000  0.71630000  1.0 0.1314242392
H  H80  1  0.95150000  0.74500000  0.71630000  1.0 0.1314242392
H  H81  1  0.74500000  0.95150000  0.71630000  1.0 0.1314242392
H  H82  1  0.25500000  0.04850000  0.71630000  1.0 0.1314242392
H  H83  1  0.95150000  0.25500000  0.71630000  1.0 0.1314242392
H  H84  1  0.04850000  0.74500000  0.71630000  1.0 0.1314242392
H  H85  1  0.74500000  0.04850000  0.28370000  1.0 0.1314242392
H  H86  1  0.25500000  0.95150000  0.28370000  1.0 0.1314242392
H  H87  1  0.95150000  0.74500000  0.28370000  1.0 0.1314242392
H  H88  1  0.04850000  0.25500000  0.28370000  1.0 0.1314242392
H  H89  1  0.22360000  0.02610000  0.32780000  1.0 0.1186810086
H  H90  1  0.77640000  0.97390000  0.32780000  1.0 0.1186810086
H  H91  1  0.02610000  0.77640000  0.32780000  1.0 0.1186810086
H  H92  1  0.97390000  0.22360000  0.32780000  1.0 0.1186810086
H  H93  1  0.22360000  0.97390000  0.67220000  1.0 0.1186810086
H  H94  1  0.77640000  0.02610000  0.67220000  1.0 0.1186810086
H  H95  1  0.02610000  0.22360000  0.67220000  1.0 0.1186810086
H  H96  1  0.97390000  0.77640000  0.67220000  1.0 0.1186810086
H  H97  1  0.77640000  0.97390000  0.67220000  1.0 0.1186810086
H  H98  1  0.22360000  0.02610000  0.67220000  1.0 0.1186810086
H  H99  1  0.97390000  0.22360000  0.67220000  1.0 0.1186810086
H  H100  1  0.02610000  0.77640000  0.67220000  1.0 0.1186810086
H  H101  1  0.77640000  0.02610000  0.32780000  1.0 0.1186810086
H  H102  1  0.22360000  0.97390000  0.32780000  1.0 0.1186810086
H  H103  1  0.97390000  0.77640000  0.32780000  1.0 0.1186810086
H  H104  1  0.02610000  0.22360000  0.32780000  1.0 0.1186810086
H  H105  1  0.22210000  0.06870000  0.32760000  1.0 0.1414623162
H  H106  1  0.77790000  0.93130000  0.32760000  1.0 0.1414623162
H  H107  1  0.06870000  0.77790000  0.32760000  1.0 0.1414623162
H  H108  1  0.93130000  0.22210000  0.32760000  1.0 0.1414623162
H  H109  1  0.22210000  0.93130000  0.67240000  1.0 0.1414623162
H  H110  1  0.77790000  0.06870000  0.67240000  1.0 0.1414623162
H  H111  1  0.06870000  0.22210000  0.67240000  1.0 0.1414623162
H  H112  1  0.93130000  0.77790000  0.67240000  1.0 0.1414623162
H  H113  1  0.77790000  0.93130000  0.67240000  1.0 0.1414623162
H  H114  1  0.22210000  0.06870000  0.67240000  1.0 0.1414623162
H  H115  1  0.93130000  0.22210000  0.67240000  1.0 0.1414623162
H  H116  1  0.06870000  0.77790000  0.67240000  1.0 0.1414623162
H  H117  1  0.77790000  0.06870000  0.32760000  1.0 0.1414623162
H  H118  1  0.22210000  0.93130000  0.32760000  1.0 0.1414623162
H  H119  1  0.93130000  0.77790000  0.32760000  1.0 0.1414623162
H  H120  1  0.06870000  0.22210000  0.32760000  1.0 0.1414623162
H  H121  1  0.19490000  0.11430000  0.16490000  1.0 0.1186810086
H  H122  1  0.80510000  0.88570000  0.16490000  1.0 0.1186810086
H  H123  1  0.11430000  0.80510000  0.16490000  1.0 0.1186810086
H  H124  1  0.88570000  0.19490000  0.16490000  1.0 0.1186810086
H  H125  1  0.19490000  0.88570000  0.83510000  1.0 0.1186810086
H  H126  1  0.80510000  0.11430000  0.83510000  1.0 0.1186810086
H  H127  1  0.11430000  0.19490000  0.83510000  1.0 0.1186810086
H  H128  1  0.88570000  0.80510000  0.83510000  1.0 0.1186810086
H  H129  1  0.80510000  0.88570000  0.83510000  1.0 0.1186810086
H  H130  1  0.19490000  0.11430000  0.83510000  1.0 0.1186810086
H  H131  1  0.88570000  0.19490000  0.83510000  1.0 0.1186810086
H  H132  1  0.11430000  0.80510000  0.83510000  1.0 0.1186810086
H  H133  1  0.80510000  0.11430000  0.16490000  1.0 0.1186810086
H  H134  1  0.19490000  0.88570000  0.16490000  1.0 0.1186810086
H  H135  1  0.88570000  0.80510000  0.16490000  1.0 0.1186810086
H  H136  1  0.11430000  0.19490000  0.16490000  1.0 0.1186810086
H  H137  1  0.23300000  0.12620000  0.20120000  1.0 0.1472649898
H  H138  1  0.76700000  0.87380000  0.20120000  1.0 0.1472649898
H  H139  1  0.12620000  0.76700000  0.20120000  1.0 0.1472649898
H  H140  1  0.87380000  0.23300000  0.20120000  1.0 0.1472649898
H  H141  1  0.23300000  0.87380000  0.79880000  1.0 0.1472649898
H  H142  1  0.76700000  0.12620000  0.79880000  1.0 0.1472649898
H  H143  1  0.12620000  0.23300000  0.79880000  1.0 0.1472649898
H  H144  1  0.87380000  0.76700000  0.79880000  1.0 0.1472649898
H  H145  1  0.76700000  0.87380000  0.79880000  1.0 0.1472649898
H  H146  1  0.23300000  0.12620000  0.79880000  1.0 0.1472649898
H  H147  1  0.87380000  0.23300000  0.79880000  1.0 0.1472649898
H  H148  1  0.12620000  0.76700000  0.79880000  1.0 0.1472649898
H  H149  1  0.76700000  0.12620000  0.20120000  1.0 0.1472649898
H  H150  1  0.23300000  0.87380000  0.20120000  1.0 0.1472649898
H  H151  1  0.87380000  0.76700000  0.20120000  1.0 0.1472649898
H  H152  1  0.12620000  0.23300000  0.20120000  1.0 0.1472649898
H  H153  1  0.19990000  0.15290000  0.20690000  1.0 0.1186810086
H  H154  1  0.80010000  0.84710000  0.20690000  1.0 0.1186810086
H  H155  1  0.15290000  0.80010000  0.20690000  1.0 0.1186810086
H  H156  1  0.84710000  0.19990000  0.20690000  1.0 0.1186810086
H  H157  1  0.19990000  0.84710000  0.79310000  1.0 0.1186810086
H  H158  1  0.80010000  0.15290000  0.79310000  1.0 0.1186810086
H  H159  1  0.15290000  0.19990000  0.79310000  1.0 0.1186810086
H  H160  1  0.84710000  0.80010000  0.79310000  1.0 0.1186810086
H  H161  1  0.80010000  0.84710000  0.79310000  1.0 0.1186810086
H  H162  1  0.19990000  0.15290000  0.79310000  1.0 0.1186810086
H  H163  1  0.84710000  0.19990000  0.79310000  1.0 0.1186810086
H  H164  1  0.15290000  0.80010000  0.79310000  1.0 0.1186810086
H  H165  1  0.80010000  0.15290000  0.20690000  1.0 0.1186810086
H  H166  1  0.19990000  0.84710000  0.20690000  1.0 0.1186810086
H  H167  1  0.84710000  0.80010000  0.20690000  1.0 0.1186810086
H  H168  1  0.15290000  0.19990000  0.20690000  1.0 0.1186810086
H  H169  1  0.36840000  0.04940000  0.55930000  1.0 0.0687976462
H  H170  1  0.63160000  0.95060000  0.55930000  1.0 0.0687976462
H  H171  1  0.04940000  0.63160000  0.55930000  1.0 0.0687976462
H  H172  1  0.95060000  0.36840000  0.55930000  1.0 0.0687976462
H  H173  1  0.36840000  0.95060000  0.44070000  1.0 0.0687976462
H  H174  1  0.63160000  0.04940000  0.44070000  1.0 0.0687976462
H  H175  1  0.04940000  0.36840000  0.44070000  1.0 0.0687976462
H  H176  1  0.95060000  0.63160000  0.44070000  1.0 0.0687976462
H  H177  1  0.63160000  0.95060000  0.44070000  1.0 0.0687976462
H  H178  1  0.36840000  0.04940000  0.44070000  1.0 0.0687976462
H  H179  1  0.95060000  0.36840000  0.44070000  1.0 0.0687976462
H  H180  1  0.04940000  0.63160000  0.44070000  1.0 0.0687976462
H  H181  1  0.63160000  0.04940000  0.55930000  1.0 0.0687976462
H  H182  1  0.36840000  0.95060000  0.55930000  1.0 0.0687976462
H  H183  1  0.95060000  0.63160000  0.55930000  1.0 0.0687976462
H  H184  1  0.04940000  0.36840000  0.55930000  1.0 0.0687976462
H  H185  1  0.36930000  0.02640000  0.47280000  1.0 0.0687976462
H  H186  1  0.63070000  0.97360000  0.47280000  1.0 0.0687976462
H  H187  1  0.02640000  0.63070000  0.47280000  1.0 0.0687976462
H  H188  1  0.97360000  0.36930000  0.47280000  1.0 0.0687976462
H  H189  1  0.36930000  0.97360000  0.52720000  1.0 0.0687976462
H  H190  1  0.63070000  0.02640000  0.52720000  1.0 0.0687976462
H  H191  1  0.02640000  0.36930000  0.52720000  1.0 0.0687976462
H  H192  1  0.97360000  0.63070000  0.52720000  1.0 0.0687976462
H  H193  1  0.63070000  0.97360000  0.52720000  1.0 0.0687976462
H  H194  1  0.36930000  0.02640000  0.52720000  1.0 0.0687976462
H  H195  1  0.97360000  0.36930000  0.52720000  1.0 0.0687976462
H  H196  1  0.02640000  0.63070000  0.52720000  1.0 0.0687976462
H  H197  1  0.63070000  0.02640000  0.47280000  1.0 0.0687976462
H  H198  1  0.36930000  0.97360000  0.47280000  1.0 0.0687976462
H  H199  1  0.97360000  0.63070000  0.47280000  1.0 0.0687976462
H  H200  1  0.02640000  0.36930000  0.47280000  1.0 0.0687976462
H  H201  1  0.36760000  0.06900000  0.46790000  1.0 0.0964575883
H  H202  1  0.63240000  0.93100000  0.46790000  1.0 0.0964575883
H  H203  1  0.06900000  0.63240000  0.46790000  1.0 0.0964575883
H  H204  1  0.93100000  0.36760000  0.46790000  1.0 0.0964575883
H  H205  1  0.36760000  0.93100000  0.53210000  1.0 0.0964575883
H  H206  1  0.63240000  0.06900000  0.53210000  1.0 0.0964575883
H  H207  1  0.06900000  0.36760000  0.53210000  1.0 0.0964575883
H  H208  1  0.93100000  0.63240000  0.53210000  1.0 0.0964575883
H  H209  1  0.63240000  0.93100000  0.53210000  1.0 0.0964575883
H  H210  1  0.36760000  0.06900000  0.53210000  1.0 0.0964575883
H  H211  1  0.93100000  0.36760000  0.53210000  1.0 0.0964575883
H  H212  1  0.06900000  0.63240000  0.53210000  1.0 0.0964575883
H  H213  1  0.63240000  0.06900000  0.46790000  1.0 0.0964575883
H  H214  1  0.36760000  0.93100000  0.46790000  1.0 0.0964575883
H  H215  1  0.93100000  0.63240000  0.46790000  1.0 0.0964575883
H  H216  1  0.06900000  0.36760000  0.46790000  1.0 0.0964575883
H  H217  1  0.45930000  0.17870000  0.55820000  1.0 0.0420920912
H  H218  1  0.54070000  0.82130000  0.55820000  1.0 0.0420920912
H  H219  1  0.17870000  0.54070000  0.55820000  1.0 0.0420920912
H  H220  1  0.82130000  0.45930000  0.55820000  1.0 0.0420920912
H  H221  1  0.45930000  0.82130000  0.44180000  1.0 0.0420920912
H  H222  1  0.54070000  0.17870000  0.44180000  1.0 0.0420920912
H  H223  1  0.17870000  0.45930000  0.44180000  1.0 0.0420920912
H  H224  1  0.82130000  0.54070000  0.44180000  1.0 0.0420920912
H  H225  1  0.54070000  0.82130000  0.44180000  1.0 0.0420920912
H  H226  1  0.45930000  0.17870000  0.44180000  1.0 0.0420920912
H  H227  1  0.82130000  0.45930000  0.44180000  1.0 0.0420920912
H  H228  1  0.17870000  0.54070000  0.44180000  1.0 0.0420920912
H  H229  1  0.54070000  0.17870000  0.55820000  1.0 0.0420920912
H  H230  1  0.45930000  0.82130000  0.55820000  1.0 0.0420920912
H  H231  1  0.82130000  0.54070000  0.55820000  1.0 0.0420920912
H  H232  1  0.17870000  0.45930000  0.55820000  1.0 0.0420920912
H  H233  1  0.47270000  0.18050000  0.46060000  1.0 0.0498916603
H  H234  1  0.52730000  0.81950000  0.46060000  1.0 0.0498916603
H  H235  1  0.18050000  0.52730000  0.46060000  1.0 0.0498916603
H  H236  1  0.81950000  0.47270000  0.46060000  1.0 0.0498916603
H  H237  1  0.47270000  0.81950000  0.53940000  1.0 0.0498916603
H  H238  1  0.52730000  0.18050000  0.53940000  1.0 0.0498916603
H  H239  1  0.18050000  0.47270000  0.53940000  1.0 0.0498916603
H  H240  1  0.81950000  0.52730000  0.53940000  1.0 0.0498916603
H  H241  1  0.52730000  0.81950000  0.53940000  1.0 0.0498916603
H  H242  1  0.47270000  0.18050000  0.53940000  1.0 0.0498916603
H  H243  1  0.81950000  0.47270000  0.53940000  1.0 0.0498916603
H  H244  1  0.18050000  0.52730000  0.53940000  1.0 0.0498916603
H  H245  1  0.52730000  0.18050000  0.46060000  1.0 0.0498916603
H  H246  1  0.47270000  0.81950000  0.46060000  1.0 0.0498916603
H  H247  1  0.81950000  0.52730000  0.46060000  1.0 0.0498916603
H  H248  1  0.18050000  0.47270000  0.46060000  1.0 0.0498916603
H  H249  1  0.43130000  0.17490000  0.48120000  1.0 0.0604661964
H  H250  1  0.56870000  0.82510000  0.48120000  1.0 0.0687976462
H  H251  1  0.17490000  0.56870000  0.48120000  1.0 0.0604661964
H  H252  1  0.82510000  0.43130000  0.48120000  1.0 0.0687976462
H  H253  1  0.43130000  0.82510000  0.51880000  1.0 0.0687976462
H  H254  1  0.56870000  0.17490000  0.51880000  1.0 0.0604661964
H  H255  1  0.17490000  0.43130000  0.51880000  1.0 0.0604661964
H  H256  1  0.82510000  0.56870000  0.51880000  1.0 0.0687976462
H  H257  1  0.56870000  0.82510000  0.51880000  1.0 0.0687976462
H  H258  1  0.43130000  0.17490000  0.51880000  1.0 0.0604661964
H  H259  1  0.82510000  0.43130000  0.51880000  1.0 0.0687976462
H  H260  1  0.17490000  0.56870000  0.51880000  1.0 0.0604661964
H  H261  1  0.56870000  0.17490000  0.48120000  1.0 0.0604661964
H  H262  1  0.43130000  0.82510000  0.48120000  1.0 0.0687976462
H  H263  1  0.82510000  0.56870000  0.48120000  1.0 0.0687976462
H  H264  1  0.17490000  0.43130000  0.48120000  1.0 0.0604661964
H  H265  1  0.29700000  0.23240000  0.94060000  1.0 0.0216178571
H  H266  1  0.70300000  0.76760000  0.94060000  1.0 0.0216178571
H  H267  1  0.23240000  0.70300000  0.94060000  1.0 0.0216178571
H  H268  1  0.76760000  0.29700000  0.94060000  1.0 0.0216178571
H  H269  1  0.29700000  0.76760000  0.05940000  1.0 0.0216178571
H  H270  1  0.70300000  0.23240000  0.05940000  1.0 0.0216178571
H  H271  1  0.23240000  0.29700000  0.05940000  1.0 0.0216178571
H  H272  1  0.76760000  0.70300000  0.05940000  1.0 0.0216178571
H  H273  1  0.70300000  0.76760000  0.05940000  1.0 0.0216178571
H  H274  1  0.29700000  0.23240000  0.05940000  1.0 0.0216178571
H  H275  1  0.76760000  0.29700000  0.05940000  1.0 0.0216178571
H  H276  1  0.23240000  0.70300000  0.05940000  1.0 0.0216178571
H  H277  1  0.70300000  0.23240000  0.94060000  1.0 0.0216178571
H  H278  1  0.29700000  0.76760000  0.94060000  1.0 0.0216178571
H  H279  1  0.76760000  0.70300000  0.94060000  1.0 0.0216178571
H  H280  1  0.23240000  0.29700000  0.94060000  1.0 0.0216178571
H  H281  1  0.28300000  0.24700000  0.03120000  1.0 0.0498916603
H  H282  1  0.71700000  0.75300000  0.03120000  1.0 0.0498916603
H  H283  1  0.24700000  0.71700000  0.03120000  1.0 0.0498916603
H  H284  1  0.75300000  0.28300000  0.03120000  1.0 0.0498916603
H  H285  1  0.28300000  0.75300000  0.96880000  1.0 0.0498916603
H  H286  1  0.71700000  0.24700000  0.96880000  1.0 0.0498916603
H  H287  1  0.24700000  0.28300000  0.96880000  1.0 0.0498916603
H  H288  1  0.75300000  0.71700000  0.96880000  1.0 0.0498916603
H  H289  1  0.71700000  0.75300000  0.96880000  1.0 0.0498916603
H  H290  1  0.28300000  0.24700000  0.96880000  1.0 0.0498916603
H  H291  1  0.75300000  0.28300000  0.96880000  1.0 0.0498916603
H  H292  1  0.24700000  0.71700000  0.96880000  1.0 0.0498916603
H  H293  1  0.71700000  0.24700000  0.03120000  1.0 0.0498916603
H  H294  1  0.28300000  0.75300000  0.03120000  1.0 0.0498916603
H  H295  1  0.75300000  0.71700000  0.03120000  1.0 0.0498916603
H  H296  1  0.24700000  0.28300000  0.03120000  1.0 0.0498916603
H  H297  1  0.31250000  0.21620000  0.02820000  1.0 0.0604661964
H  H298  1  0.68750000  0.78380000  0.02820000  1.0 0.0687976462
H  H299  1  0.21620000  0.68750000  0.02820000  1.0 0.0687976462
H  H300  1  0.78380000  0.31250000  0.02820000  1.0 0.0687976462
H  H301  1  0.31250000  0.78380000  0.97180000  1.0 0.0687976462
H  H302  1  0.68750000  0.21620000  0.97180000  1.0 0.0687976462
H  H303  1  0.21620000  0.31250000  0.97180000  1.0 0.0604661964
H  H304  1  0.78380000  0.68750000  0.97180000  1.0 0.0687976462
H  H305  1  0.68750000  0.78380000  0.97180000  1.0 0.0687976462
H  H306  1  0.31250000  0.21620000  0.97180000  1.0 0.0604661964
H  H307  1  0.78380000  0.31250000  0.97180000  1.0 0.0687976462
H  H308  1  0.21620000  0.68750000  0.97180000  1.0 0.0687976462
H  H309  1  0.68750000  0.21620000  0.02820000  1.0 0.0687976462
H  H310  1  0.31250000  0.78380000  0.02820000  1.0 0.0687976462
H  H311  1  0.78380000  0.68750000  0.02820000  1.0 0.0687976462
H  H312  1  0.21620000  0.31250000  0.02820000  1.0 0.0604661964
C  C1  1  0.35480000  0.06580000  0.22520000  1.0 0.461824349
C  C2  1  0.64520000  0.93420000  0.22520000  1.0 0.461824349
C  C3  1  0.06580000  0.64520000  0.22520000  1.0 0.461824349
C  C4  1  0.93420000  0.35480000  0.22520000  1.0 0.461824349
C  C5  1  0.35480000  0.93420000  0.77480000  1.0 0.461824349
C  C6  1  0.64520000  0.06580000  0.77480000  1.0 0.461824349
C  C7  1  0.06580000  0.35480000  0.77480000  1.0 0.461824349
C  C8  1  0.93420000  0.64520000  0.77480000  1.0 0.461824349
C  C9  1  0.64520000  0.93420000  0.77480000  1.0 0.461824349
C  C10  1  0.35480000  0.06580000  0.77480000  1.0 0.461824349
C  C11  1  0.93420000  0.35480000  0.77480000  1.0 0.461824349
C  C12  1  0.06580000  0.64520000  0.77480000  1.0 0.461824349
C  C13  1  0.64520000  0.06580000  0.22520000  1.0 0.461824349
C  C14  1  0.35480000  0.93420000  0.22520000  1.0 0.461824349
C  C15  1  0.93420000  0.64520000  0.22520000  1.0 0.461824349
C  C16  1  0.06580000  0.35480000  0.22520000  1.0 0.461824349
C  C17  1  0.32790000  0.07480000  0.30550000  1.0 0.3409383453
C  C18  1  0.67210000  0.92520000  0.30550000  1.0 0.3409383453
C  C19  1  0.07480000  0.67210000  0.30550000  1.0 0.3409383453
C  C20  1  0.92520000  0.32790000  0.30550000  1.0 0.3409383453
C  C21  1  0.32790000  0.92520000  0.69450000  1.0 0.3409383453
C  C22  1  0.67210000  0.07480000  0.69450000  1.0 0.3409383453
C  C23  1  0.07480000  0.32790000  0.69450000  1.0 0.3409383453
C  C24  1  0.92520000  0.67210000  0.69450000  1.0 0.3409383453
C  C25  1  0.67210000  0.92520000  0.69450000  1.0 0.3409383453
C  C26  1  0.32790000  0.07480000  0.69450000  1.0 0.3409383453
C  C27  1  0.92520000  0.32790000  0.69450000  1.0 0.3409383453
C  C28  1  0.07480000  0.67210000  0.69450000  1.0 0.3409383453
C  C29  1  0.67210000  0.07480000  0.30550000  1.0 0.3409383453
C  C30  1  0.32790000  0.92520000  0.30550000  1.0 0.3409383453
C  C31  1  0.92520000  0.67210000  0.30550000  1.0 0.3409383453
C  C32  1  0.07480000  0.32790000  0.30550000  1.0 0.3409383453
C  C33  1  0.42640000  0.14320000  0.30530000  1.0 0.3409383453
C  C34  1  0.57360000  0.85680000  0.30530000  1.0 0.3409383453
C  C35  1  0.14320000  0.57360000  0.30530000  1.0 0.3409383453
C  C36  1  0.85680000  0.42640000  0.30530000  1.0 0.3409383453
C  C37  1  0.42640000  0.85680000  0.69470000  1.0 0.3409383453
C  C38  1  0.57360000  0.14320000  0.69470000  1.0 0.3409383453
C  C39  1  0.14320000  0.42640000  0.69470000  1.0 0.3409383453
C  C40  1  0.85680000  0.57360000  0.69470000  1.0 0.3409383453
C  C41  1  0.57360000  0.85680000  0.69470000  1.0 0.3409383453
C  C42  1  0.42640000  0.14320000  0.69470000  1.0 0.3409383453
C  C43  1  0.85680000  0.42640000  0.69470000  1.0 0.3409383453
C  C44  1  0.14320000  0.57360000  0.69470000  1.0 0.3409383453
C  C45  1  0.57360000  0.14320000  0.30530000  1.0 0.3409383453
C  C46  1  0.42640000  0.85680000  0.30530000  1.0 0.3409383453
C  C47  1  0.85680000  0.57360000  0.30530000  1.0 0.3409383453
C  C48  1  0.14320000  0.42640000  0.30530000  1.0 0.3409383453
C  C49  1  0.43060000  0.15720000  0.21270000  1.0 0.4520126905
C  C50  1  0.56940000  0.84280000  0.21270000  1.0 0.4520126905
C  C51  1  0.15720000  0.56940000  0.21270000  1.0 0.4520126905
C  C52  1  0.84280000  0.43060000  0.21270000  1.0 0.4520126905
C  C53  1  0.43060000  0.84280000  0.78730000  1.0 0.4520126905
C  C54  1  0.56940000  0.15720000  0.78730000  1.0 0.4520126905
C  C55  1  0.15720000  0.43060000  0.78730000  1.0 0.4520126905
C  C56  1  0.84280000  0.56940000  0.78730000  1.0 0.4520126905
C  C57  1  0.56940000  0.84280000  0.78730000  1.0 0.4520126905
C  C58  1  0.43060000  0.15720000  0.78730000  1.0 0.4520126905
C  C59  1  0.84280000  0.43060000  0.78730000  1.0 0.4520126905
C  C60  1  0.15720000  0.56940000  0.78730000  1.0 0.4520126905
C  C61  1  0.56940000  0.15720000  0.21270000  1.0 0.4520126905
C  C62  1  0.43060000  0.84280000  0.21270000  1.0 0.4520126905
C  C63  1  0.84280000  0.56940000  0.21270000  1.0 0.4520126905
C  C64  1  0.15720000  0.43060000  0.21270000  1.0 0.4520126905
C  C65  1  0.30040000  0.20640000  0.27960000  1.0 0.4520126905
C  C66  1  0.69960000  0.79360000  0.27960000  1.0 0.4520126905
C  C67  1  0.20640000  0.69960000  0.27960000  1.0 0.4520126905
C  C68  1  0.79360000  0.30040000  0.27960000  1.0 0.4520126905
C  C69  1  0.30040000  0.79360000  0.72040000  1.0 0.4520126905
C  C70  1  0.69960000  0.20640000  0.72040000  1.0 0.4520126905
C  C71  1  0.20640000  0.30040000  0.72040000  1.0 0.4520126905
C  C72  1  0.79360000  0.69960000  0.72040000  1.0 0.4520126905
C  C73  1  0.69960000  0.79360000  0.72040000  1.0 0.4520126905
C  C74  1  0.30040000  0.20640000  0.72040000  1.0 0.4520126905
C  C75  1  0.79360000  0.30040000  0.72040000  1.0 0.4520126905
C  C76  1  0.20640000  0.69960000  0.72040000  1.0 0.4520126905
C  C77  1  0.69960000  0.20640000  0.27960000  1.0 0.4520126905
C  C78  1  0.30040000  0.79360000  0.27960000  1.0 0.4520126905
C  C79  1  0.79360000  0.69960000  0.27960000  1.0 0.4520126905
C  C80  1  0.20640000  0.30040000  0.27960000  1.0 0.4520126905
C  C81  1  0.29060000  0.18770000  0.19610000  1.0 0.3244624462
C  C82  1  0.70940000  0.81230000  0.19610000  1.0 0.3244624462
C  C83  1  0.18770000  0.70940000  0.19610000  1.0 0.3244624462
C  C84  1  0.81230000  0.29060000  0.19610000  1.0 0.3244624462
C  C85  1  0.29060000  0.81230000  0.80390000  1.0 0.3244624462
C  C86  1  0.70940000  0.18770000  0.80390000  1.0 0.3244624462
C  C87  1  0.18770000  0.29060000  0.80390000  1.0 0.3244624462
C  C88  1  0.81230000  0.70940000  0.80390000  1.0 0.3244624462
C  C89  1  0.70940000  0.81230000  0.80390000  1.0 0.3244624462
C  C90  1  0.29060000  0.18770000  0.80390000  1.0 0.3244624462
C  C91  1  0.81230000  0.29060000  0.80390000  1.0 0.3244624462
C  C92  1  0.18770000  0.70940000  0.80390000  1.0 0.3244624462
C  C93  1  0.70940000  0.18770000  0.19610000  1.0 0.3244624462
C  C94  1  0.29060000  0.81230000  0.19610000  1.0 0.3244624462
C  C95  1  0.81230000  0.70940000  0.19610000  1.0 0.3244624462
C  C96  1  0.18770000  0.29060000  0.19610000  1.0 0.3244624462
C  C97  1  0.29560000  0.04400000  0.42260000  1.0 0.0687976462
C  C98  1  0.70440000  0.95600000  0.42260000  1.0 0.0687976462
C  C99  1  0.04400000  0.70440000  0.42260000  1.0 0.0687976462
C  C100  1  0.95600000  0.29560000  0.42260000  1.0 0.0687976462
C  C101  1  0.29560000  0.95600000  0.57740000  1.0 0.0687976462
C  C102  1  0.70440000  0.04400000  0.57740000  1.0 0.0687976462
C  C103  1  0.04400000  0.29560000  0.57740000  1.0 0.0687976462
C  C104  1  0.95600000  0.70440000  0.57740000  1.0 0.0687976462
C  C105  1  0.70440000  0.95600000  0.57740000  1.0 0.0687976462
C  C106  1  0.29560000  0.04400000  0.57740000  1.0 0.0687976462
C  C107  1  0.95600000  0.29560000  0.57740000  1.0 0.0687976462
C  C108  1  0.04400000  0.70440000  0.57740000  1.0 0.0687976462
C  C109  1  0.70440000  0.04400000  0.42260000  1.0 0.0687976462
C  C110  1  0.29560000  0.95600000  0.42260000  1.0 0.0687976462
C  C111  1  0.95600000  0.70440000  0.42260000  1.0 0.0687976462
C  C112  1  0.04400000  0.29560000  0.42260000  1.0 0.0687976462
C  C113  1  0.31440000  0.04610000  0.50000000  1.0 -0.0182205349
C  C114  1  0.68560000  0.95390000  0.50000000  1.0 -0.0182205349
C  C115  1  0.04610000  0.68560000  0.50000000  1.0 -0.0182205349
C  C116  1  0.95390000  0.31440000  0.50000000  1.0 -0.0182205349
C  C117  1  0.31440000  0.95390000  0.50000000  1.0 -0.0182205349
C  C118  1  0.68560000  0.04610000  0.50000000  1.0 -0.0182205349
C  C119  1  0.04610000  0.31440000  0.50000000  1.0 -0.0182205349
C  C120  1  0.95390000  0.68560000  0.50000000  1.0 -0.0182205349
C  C121  1  0.25890000  0.04870000  0.42060000  1.0 0.1186810086
C  C122  1  0.74110000  0.95130000  0.42060000  1.0 0.1186810086
C  C123  1  0.04870000  0.74110000  0.42060000  1.0 0.1186810086
C  C124  1  0.95130000  0.25890000  0.42060000  1.0 0.1186810086
C  C125  1  0.25890000  0.95130000  0.57940000  1.0 0.1186810086
C  C126  1  0.74110000  0.04870000  0.57940000  1.0 0.1186810086
C  C127  1  0.04870000  0.25890000  0.57940000  1.0 0.1186810086
C  C128  1  0.95130000  0.74110000  0.57940000  1.0 0.1186810086
C  C129  1  0.74110000  0.95130000  0.57940000  1.0 0.1186810086
C  C130  1  0.25890000  0.04870000  0.57940000  1.0 0.1186810086
C  C131  1  0.95130000  0.25890000  0.57940000  1.0 0.1186810086
C  C132  1  0.04870000  0.74110000  0.57940000  1.0 0.1186810086
C  C133  1  0.74110000  0.04870000  0.42060000  1.0 0.1186810086
C  C134  1  0.25890000  0.95130000  0.42060000  1.0 0.1186810086
C  C135  1  0.95130000  0.74110000  0.42060000  1.0 0.1186810086
C  C136  1  0.04870000  0.25890000  0.42060000  1.0 0.1186810086
C  C137  1  0.23700000  0.04790000  0.50000000  1.0 -0.262896483
C  C138  1  0.76300000  0.95210000  0.50000000  1.0 -0.262896483
C  C139  1  0.04790000  0.76300000  0.50000000  1.0 -0.262896483
C  C140  1  0.95210000  0.23700000  0.50000000  1.0 -0.262896483
C  C141  1  0.23700000  0.95210000  0.50000000  1.0 -0.262896483
C  C142  1  0.76300000  0.04790000  0.50000000  1.0 -0.262896483
C  C143  1  0.04790000  0.23700000  0.50000000  1.0 -0.262896483
C  C144  1  0.95210000  0.76300000  0.50000000  1.0 -0.262896483
C  C145  1  0.45550000  0.11300000  0.42500000  1.0 0.0604661964
C  C146  1  0.54450000  0.88700000  0.42500000  1.0 0.0604661964
C  C147  1  0.11300000  0.54450000  0.42500000  1.0 0.0604661964
C  C148  1  0.88700000  0.45550000  0.42500000  1.0 0.0604661964
C  C149  1  0.45550000  0.88700000  0.57500000  1.0 0.0604661964
C  C150  1  0.54450000  0.11300000  0.57500000  1.0 0.0604661964
C  C151  1  0.11300000  0.45550000  0.57500000  1.0 0.0604661964
C  C152  1  0.88700000  0.54450000  0.57500000  1.0 0.0604661964
C  C153  1  0.54450000  0.88700000  0.57500000  1.0 0.0604661964
C  C154  1  0.45550000  0.11300000  0.57500000  1.0 0.0604661964
C  C155  1  0.88700000  0.45550000  0.57500000  1.0 0.0604661964
C  C156  1  0.11300000  0.54450000  0.57500000  1.0 0.0604661964
C  C157  1  0.54450000  0.11300000  0.42500000  1.0 0.0604661964
C  C158  1  0.45550000  0.88700000  0.42500000  1.0 0.0604661964
C  C159  1  0.88700000  0.54450000  0.42500000  1.0 0.0604661964
C  C160  1  0.11300000  0.45550000  0.42500000  1.0 0.0604661964
C  C161  1  0.46080000  0.13050000  0.50000000  1.0 -0.08291333
C  C162  1  0.53920000  0.86950000  0.50000000  1.0 -0.08291333
C  C163  1  0.13050000  0.53920000  0.50000000  1.0 -0.08291333
C  C164  1  0.86950000  0.46080000  0.50000000  1.0 -0.08291333
C  C165  1  0.46080000  0.86950000  0.50000000  1.0 -0.08291333
C  C166  1  0.53920000  0.13050000  0.50000000  1.0 -0.08291333
C  C167  1  0.13050000  0.46080000  0.50000000  1.0 -0.08291333
C  C168  1  0.86950000  0.53920000  0.50000000  1.0 -0.08291333
C  C169  1  0.45560000  0.16940000  0.50000000  1.0 -0.1848415855
C  C170  1  0.54440000  0.83060000  0.50000000  1.0 -0.1880181008
C  C171  1  0.16940000  0.54440000  0.50000000  1.0 -0.1880181008
C  C172  1  0.83060000  0.45560000  0.50000000  1.0 -0.1880181008
C  C173  1  0.45560000  0.83060000  0.50000000  1.0 -0.1880181008
C  C174  1  0.54440000  0.16940000  0.50000000  1.0 -0.1880181008
C  C175  1  0.16940000  0.45560000  0.50000000  1.0 -0.1848415855
C  C176  1  0.83060000  0.54440000  0.50000000  1.0 -0.1880181008
C  C177  1  0.24780000  0.18270000  0.07810000  1.0 0.1804834649
C  C178  1  0.75220000  0.81730000  0.07810000  1.0 0.1804834649
C  C179  1  0.18270000  0.75220000  0.07810000  1.0 0.1804834649
C  C180  1  0.81730000  0.24780000  0.07810000  1.0 0.1804834649
C  C181  1  0.24780000  0.81730000  0.92190000  1.0 0.1804834649
C  C182  1  0.75220000  0.18270000  0.92190000  1.0 0.1804834649
C  C183  1  0.18270000  0.24780000  0.92190000  1.0 0.1804834649
C  C184  1  0.81730000  0.75220000  0.92190000  1.0 0.1804834649
C  C185  1  0.75220000  0.81730000  0.92190000  1.0 0.1804834649
C  C186  1  0.24780000  0.18270000  0.92190000  1.0 0.1804834649
C  C187  1  0.81730000  0.24780000  0.92190000  1.0 0.1804834649
C  C188  1  0.18270000  0.75220000  0.92190000  1.0 0.1804834649
C  C189  1  0.75220000  0.18270000  0.07810000  1.0 0.1804834649
C  C190  1  0.24780000  0.81730000  0.07810000  1.0 0.1804834649
C  C191  1  0.81730000  0.75220000  0.07810000  1.0 0.1804834649
C  C192  1  0.18270000  0.24780000  0.07810000  1.0 0.1804834649
C  C193  1  0.26010000  0.19590000  0.00000000  1.0 -0.0182205349
C  C194  1  0.73990000  0.80410000  0.00000000  1.0 -0.0182205349
C  C195  1  0.19590000  0.73990000  0.00000000  1.0 -0.0182205349
C  C196  1  0.80410000  0.26010000  0.00000000  1.0 -0.0182205349
C  C197  1  0.26010000  0.80410000  0.00000000  1.0 -0.0182205349
C  C198  1  0.73990000  0.19590000  0.00000000  1.0 -0.0182205349
C  C199  1  0.19590000  0.26010000  0.00000000  1.0 -0.0182205349
C  C200  1  0.80410000  0.73990000  0.00000000  1.0 -0.0182205349
C  C201  1  0.29120000  0.22580000  0.00000000  1.0 -0.2326224439
C  C202  1  0.70880000  0.77420000  0.00000000  1.0 -0.2326224439
C  C203  1  0.22580000  0.70880000  0.00000000  1.0 -0.2326224439
C  C204  1  0.77420000  0.29120000  0.00000000  1.0 -0.2326224439
C  C205  1  0.29120000  0.77420000  0.00000000  1.0 -0.2326224439
C  C206  1  0.70880000  0.22580000  0.00000000  1.0 -0.2326224439
C  C207  1  0.22580000  0.29120000  0.00000000  1.0 -0.2326224439
C  C208  1  0.77420000  0.70880000  0.00000000  1.0 -0.2326224439
C  C209  1  0.22220000  0.15160000  0.07280000  1.0 0.1314242392
C  C210  1  0.77780000  0.84840000  0.07280000  1.0 0.1314242392
C  C211  1  0.15160000  0.77780000  0.07280000  1.0 0.1314242392
C  C212  1  0.84840000  0.22220000  0.07280000  1.0 0.1314242392
C  C213  1  0.22220000  0.84840000  0.92720000  1.0 0.1314242392
C  C214  1  0.77780000  0.15160000  0.92720000  1.0 0.1314242392
C  C215  1  0.15160000  0.22220000  0.92720000  1.0 0.1314242392
C  C216  1  0.84840000  0.77780000  0.92720000  1.0 0.1314242392
C  C217  1  0.77780000  0.84840000  0.92720000  1.0 0.1314242392
C  C218  1  0.22220000  0.15160000  0.92720000  1.0 0.1314242392
C  C219  1  0.84840000  0.22220000  0.92720000  1.0 0.1314242392
C  C220  1  0.15160000  0.77780000  0.92720000  1.0 0.1314242392
C  C221  1  0.77780000  0.15160000  0.07280000  1.0 0.1314242392
C  C222  1  0.22220000  0.84840000  0.07280000  1.0 0.1314242392
C  C223  1  0.84840000  0.77780000  0.07280000  1.0 0.1314242392
C  C224  1  0.15160000  0.22220000  0.07280000  1.0 0.1314242392
C  C225  1  0.20500000  0.13910000  0.00000000  1.0 -0.3102031831
C  C226  1  0.79500000  0.86090000  0.00000000  1.0 -0.3102031831
C  C227  1  0.13910000  0.79500000  0.00000000  1.0 -0.3102031831
C  C228  1  0.86090000  0.20500000  0.00000000  1.0 -0.3102031831
C  C229  1  0.20500000  0.86090000  0.00000000  1.0 -0.3102031831
C  C230  1  0.79500000  0.13910000  0.00000000  1.0 -0.3102031831
C  C231  1  0.13910000  0.20500000  0.00000000  1.0 -0.3102031831
C  C232  1  0.86090000  0.79500000  0.00000000  1.0 -0.3102031831
C  C233  1  0.45380000  0.07980000  0.42110000  1.0 0.0498916603
C  C234  1  0.54620000  0.92020000  0.42110000  1.0 0.0498916603
C  C235  1  0.07980000  0.54620000  0.42110000  1.0 0.0498916603
C  C236  1  0.92020000  0.45380000  0.42110000  1.0 0.0498916603
C  C237  1  0.45380000  0.92020000  0.57890000  1.0 0.0498916603
C  C238  1  0.54620000  0.07980000  0.57890000  1.0 0.0498916603
C  C239  1  0.07980000  0.45380000  0.57890000  1.0 0.0498916603
C  C240  1  0.92020000  0.54620000  0.57890000  1.0 0.0498916603
C  C241  1  0.54620000  0.92020000  0.57890000  1.0 0.0498916603
C  C242  1  0.45380000  0.07980000  0.57890000  1.0 0.0498916603
C  C243  1  0.92020000  0.45380000  0.57890000  1.0 0.0498916603
C  C244  1  0.07980000  0.54620000  0.57890000  1.0 0.0498916603
C  C245  1  0.54620000  0.07980000  0.42110000  1.0 0.0498916603
C  C246  1  0.45380000  0.92020000  0.42110000  1.0 0.0498916603
C  C247  1  0.92020000  0.54620000  0.42110000  1.0 0.0498916603
C  C248  1  0.07980000  0.45380000  0.42110000  1.0 0.0498916603
C  C249  1  0.44730000  0.05520000  0.33350000  1.0 -0.4195621229
C  C250  1  0.55270000  0.94480000  0.33350000  1.0 -0.4195621229
C  C251  1  0.05520000  0.55270000  0.33350000  1.0 -0.4195621229
C  C252  1  0.94480000  0.44730000  0.33350000  1.0 -0.4195621229
C  C253  1  0.44730000  0.94480000  0.66650000  1.0 -0.4195621229
C  C254  1  0.55270000  0.05520000  0.66650000  1.0 -0.4195621229
C  C255  1  0.05520000  0.44730000  0.66650000  1.0 -0.4195621229
C  C256  1  0.94480000  0.55270000  0.66650000  1.0 -0.4195621229
C  C257  1  0.55270000  0.94480000  0.66650000  1.0 -0.4195621229
C  C258  1  0.44730000  0.05520000  0.66650000  1.0 -0.4195621229
C  C259  1  0.94480000  0.44730000  0.66650000  1.0 -0.4195621229
C  C260  1  0.05520000  0.55270000  0.66650000  1.0 -0.4195621229
C  C261  1  0.55270000  0.05520000  0.33350000  1.0 -0.4195621229
C  C262  1  0.44730000  0.94480000  0.33350000  1.0 -0.4195621229
C  C263  1  0.94480000  0.55270000  0.33350000  1.0 -0.4195621229
C  C264  1  0.05520000  0.44730000  0.33350000  1.0 -0.4195621229
C  C265  1  0.45280000  0.05970000  0.50000000  1.0 -0.1535667248
C  C266  1  0.54720000  0.94030000  0.50000000  1.0 -0.1535667248
C  C267  1  0.05970000  0.54720000  0.50000000  1.0 -0.1535667248
C  C268  1  0.94030000  0.45280000  0.50000000  1.0 -0.1535667248
C  C269  1  0.45280000  0.94030000  0.50000000  1.0 -0.1535667248
C  C270  1  0.54720000  0.05970000  0.50000000  1.0 -0.1535667248
C  C271  1  0.05970000  0.45280000  0.50000000  1.0 -0.1535667248
C  C272  1  0.94030000  0.54720000  0.50000000  1.0 -0.1535667248
C  C273  1  0.35970000  0.04790000  0.50000000  1.0 -0.3102031831
C  C274  1  0.64030000  0.95210000  0.50000000  1.0 -0.3102031831
C  C275  1  0.04790000  0.64030000  0.50000000  1.0 -0.3102031831
C  C276  1  0.95210000  0.35970000  0.50000000  1.0 -0.3102031831
C  C277  1  0.35970000  0.95210000  0.50000000  1.0 -0.3102031831
C  C278  1  0.64030000  0.04790000  0.50000000  1.0 -0.3102031831
C  C279  1  0.04790000  0.35970000  0.50000000  1.0 -0.3102031831
C  C280  1  0.95210000  0.64030000  0.50000000  1.0 -0.3102031831
C  C281  1  0.23790000  0.04790000  0.33130000  1.0 -0.4195621229
C  C282  1  0.76210000  0.95210000  0.33130000  1.0 -0.4195621229
C  C283  1  0.04790000  0.76210000  0.33130000  1.0 -0.4195621229
C  C284  1  0.95210000  0.23790000  0.33130000  1.0 -0.4195621229
C  C285  1  0.23790000  0.95210000  0.66870000  1.0 -0.4195621229
C  C286  1  0.76210000  0.04790000  0.66870000  1.0 -0.4195621229
C  C287  1  0.04790000  0.23790000  0.66870000  1.0 -0.4195621229
C  C288  1  0.95210000  0.76210000  0.66870000  1.0 -0.4195621229
C  C289  1  0.76210000  0.95210000  0.66870000  1.0 -0.4195621229
C  C290  1  0.23790000  0.04790000  0.66870000  1.0 -0.4195621229
C  C291  1  0.95210000  0.23790000  0.66870000  1.0 -0.4195621229
C  C292  1  0.04790000  0.76210000  0.66870000  1.0 -0.4195621229
C  C293  1  0.76210000  0.04790000  0.33130000  1.0 -0.4195621229
C  C294  1  0.23790000  0.95210000  0.33130000  1.0 -0.4195621229
C  C295  1  0.95210000  0.76210000  0.33130000  1.0 -0.4195621229
C  C296  1  0.04790000  0.23790000  0.33130000  1.0 -0.4195621229
C  C297  1  0.21130000  0.13440000  0.17220000  1.0 -0.4389646654
C  C298  1  0.78870000  0.86560000  0.17220000  1.0 -0.4389646654
C  C299  1  0.13440000  0.78870000  0.17220000  1.0 -0.4389646654
C  C300  1  0.86560000  0.21130000  0.17220000  1.0 -0.4389646654
C  C301  1  0.21130000  0.86560000  0.82780000  1.0 -0.4389646654
C  C302  1  0.78870000  0.13440000  0.82780000  1.0 -0.4389646654
C  C303  1  0.13440000  0.21130000  0.82780000  1.0 -0.4389646654
C  C304  1  0.86560000  0.78870000  0.82780000  1.0 -0.4389646654
C  C305  1  0.78870000  0.86560000  0.82780000  1.0 -0.4389646654
C  C306  1  0.21130000  0.13440000  0.82780000  1.0 -0.4389646654
C  C307  1  0.86560000  0.21130000  0.82780000  1.0 -0.4389646654
C  C308  1  0.13440000  0.78870000  0.82780000  1.0 -0.4389646654
C  C309  1  0.78870000  0.13440000  0.17220000  1.0 -0.4389646654
C  C310  1  0.21130000  0.86560000  0.17220000  1.0 -0.4389646654
C  C311  1  0.86560000  0.78870000  0.17220000  1.0 -0.4389646654
C  C312  1  0.13440000  0.21130000  0.17220000  1.0 -0.4389646654
N  N1  1  0.31770000  0.04820000  0.34040000  1.0 -0.3944761429
N  N2  1  0.68230000  0.95180000  0.34040000  1.0 -0.3944761429
N  N3  1  0.04820000  0.68230000  0.34040000  1.0 -0.3944761429
N  N4  1  0.95180000  0.31770000  0.34040000  1.0 -0.3944761429
N  N5  1  0.31770000  0.95180000  0.65960000  1.0 -0.3980605524
N  N6  1  0.68230000  0.04820000  0.65960000  1.0 -0.3944761429
N  N7  1  0.04820000  0.31770000  0.65960000  1.0 -0.3944761429
N  N8  1  0.95180000  0.68230000  0.65960000  1.0 -0.3944761429
N  N9  1  0.68230000  0.95180000  0.65960000  1.0 -0.3944761429
N  N10  1  0.31770000  0.04820000  0.65960000  1.0 -0.3944761429
N  N11  1  0.95180000  0.31770000  0.65960000  1.0 -0.3980605524
N  N12  1  0.04820000  0.68230000  0.65960000  1.0 -0.3944761429
N  N13  1  0.68230000  0.04820000  0.34040000  1.0 -0.3944761429
N  N14  1  0.31770000  0.95180000  0.34040000  1.0 -0.3980605524
N  N15  1  0.95180000  0.68230000  0.34040000  1.0 -0.3944761429
N  N16  1  0.04820000  0.31770000  0.34040000  1.0 -0.3944761429
N  N17  1  0.45660000  0.13430000  0.33850000  1.0 -0.3980605524
N  N18  1  0.54340000  0.86570000  0.33850000  1.0 -0.3944761429
N  N19  1  0.13430000  0.54340000  0.33850000  1.0 -0.3944761429
N  N20  1  0.86570000  0.45660000  0.33850000  1.0 -0.3944761429
N  N21  1  0.45660000  0.86570000  0.66150000  1.0 -0.3944761429
N  N22  1  0.54340000  0.13430000  0.66150000  1.0 -0.3944761429
N  N23  1  0.13430000  0.45660000  0.66150000  1.0 -0.3980605524
N  N24  1  0.86570000  0.54340000  0.66150000  1.0 -0.3944761429
N  N25  1  0.54340000  0.86570000  0.66150000  1.0 -0.3944761429
N  N26  1  0.45660000  0.13430000  0.66150000  1.0 -0.3980605524
N  N27  1  0.86570000  0.45660000  0.66150000  1.0 -0.3944761429
N  N28  1  0.13430000  0.54340000  0.66150000  1.0 -0.3944761429
N  N29  1  0.54340000  0.13430000  0.33850000  1.0 -0.3944761429
N  N30  1  0.45660000  0.86570000  0.33850000  1.0 -0.3944761429
N  N31  1  0.86570000  0.54340000  0.33850000  1.0 -0.3944761429
N  N32  1  0.13430000  0.45660000  0.33850000  1.0 -0.3980605524
N  N33  1  0.26150000  0.19890000  0.16070000  1.0 -0.4111831404
N  N34  1  0.73850000  0.80110000  0.16070000  1.0 -0.4111831404
N  N35  1  0.19890000  0.73850000  0.16070000  1.0 -0.4111831404
N  N36  1  0.80110000  0.26150000  0.16070000  1.0 -0.4111831404
N  N37  1  0.26150000  0.80110000  0.83930000  1.0 -0.4111831404
N  N38  1  0.73850000  0.19890000  0.83930000  1.0 -0.4111831404
N  N39  1  0.19890000  0.26150000  0.83930000  1.0 -0.4111831404
N  N40  1  0.80110000  0.73850000  0.83930000  1.0 -0.4111831404
N  N41  1  0.73850000  0.80110000  0.83930000  1.0 -0.4111831404
N  N42  1  0.26150000  0.19890000  0.83930000  1.0 -0.4111831404
N  N43  1  0.80110000  0.26150000  0.83930000  1.0 -0.4111831404
N  N44  1  0.19890000  0.73850000  0.83930000  1.0 -0.4111831404
N  N45  1  0.73850000  0.19890000  0.16070000  1.0 -0.4111831404
N  N46  1  0.26150000  0.80110000  0.16070000  1.0 -0.4111831404
N  N47  1  0.80110000  0.73850000  0.16070000  1.0 -0.4111831404
N  N48  1  0.19890000  0.26150000  0.16070000  1.0 -0.4111831404
O  O1  1  0.35780000  0.03410000  0.20090000  1.0 -0.4389646654
O  O2  1  0.64220000  0.96590000  0.20090000  1.0 -0.4389646654
O  O3  1  0.03410000  0.64220000  0.20090000  1.0 -0.4389646654
O  O4  1  0.96590000  0.35780000  0.20090000  1.0 -0.4389646654
O  O5  1  0.35780000  0.96590000  0.79910000  1.0 -0.4389646654
O  O6  1  0.64220000  0.03410000  0.79910000  1.0 -0.4389646654
O  O7  1  0.03410000  0.35780000  0.79910000  1.0 -0.4389646654
O  O8  1  0.96590000  0.64220000  0.79910000  1.0 -0.4389646654
O  O9  1  0.64220000  0.96590000  0.79910000  1.0 -0.4389646654
O  O10  1  0.35780000  0.03410000  0.79910000  1.0 -0.4389646654
O  O11  1  0.96590000  0.35780000  0.79910000  1.0 -0.4389646654
O  O12  1  0.03410000  0.64220000  0.79910000  1.0 -0.4389646654
O  O13  1  0.64220000  0.03410000  0.20090000  1.0 -0.4389646654
O  O14  1  0.35780000  0.96590000  0.20090000  1.0 -0.4389646654
O  O15  1  0.96590000  0.64220000  0.20090000  1.0 -0.4389646654
O  O16  1  0.03410000  0.35780000  0.20090000  1.0 -0.4389646654
O  O17  1  0.36480000  0.09580000  0.18600000  1.0 -0.4575382026
O  O18  1  0.63520000  0.90420000  0.18600000  1.0 -0.4575382026
O  O19  1  0.09580000  0.63520000  0.18600000  1.0 -0.4575382026
O  O20  1  0.90420000  0.36480000  0.18600000  1.0 -0.4575382026
O  O21  1  0.36480000  0.90420000  0.81400000  1.0 -0.4575382026
O  O22  1  0.63520000  0.09580000  0.81400000  1.0 -0.4575382026
O  O23  1  0.09580000  0.36480000  0.81400000  1.0 -0.4575382026
O  O24  1  0.90420000  0.63520000  0.81400000  1.0 -0.4575382026
O  O25  1  0.63520000  0.90420000  0.81400000  1.0 -0.4575382026
O  O26  1  0.36480000  0.09580000  0.81400000  1.0 -0.4575382026
O  O27  1  0.90420000  0.36480000  0.81400000  1.0 -0.4575382026
O  O28  1  0.09580000  0.63520000  0.81400000  1.0 -0.4575382026
O  O29  1  0.63520000  0.09580000  0.18600000  1.0 -0.4575382026
O  O30  1  0.36480000  0.90420000  0.18600000  1.0 -0.4575382026
O  O31  1  0.90420000  0.63520000  0.18600000  1.0 -0.4575382026
O  O32  1  0.09580000  0.36480000  0.18600000  1.0 -0.4575382026
O  O33  1  0.31810000  0.10620000  0.32460000  1.0 -0.4389646654
O  O34  1  0.68190000  0.89380000  0.32460000  1.0 -0.4389646654
O  O35  1  0.10620000  0.68190000  0.32460000  1.0 -0.4389646654
O  O36  1  0.89380000  0.31810000  0.32460000  1.0 -0.4389646654
O  O37  1  0.31810000  0.89380000  0.67540000  1.0 -0.4389646654
O  O38  1  0.68190000  0.10620000  0.67540000  1.0 -0.4389646654
O  O39  1  0.10620000  0.31810000  0.67540000  1.0 -0.4389646654
O  O40  1  0.89380000  0.68190000  0.67540000  1.0 -0.4389646654
O  O41  1  0.68190000  0.89380000  0.67540000  1.0 -0.4389646654
O  O42  1  0.31810000  0.10620000  0.67540000  1.0 -0.4389646654
O  O43  1  0.89380000  0.31810000  0.67540000  1.0 -0.4389646654
O  O44  1  0.10620000  0.68190000  0.67540000  1.0 -0.4389646654
O  O45  1  0.68190000  0.10620000  0.32460000  1.0 -0.4389646654
O  O46  1  0.31810000  0.89380000  0.32460000  1.0 -0.4389646654
O  O47  1  0.89380000  0.68190000  0.32460000  1.0 -0.4389646654
O  O48  1  0.10620000  0.31810000  0.32460000  1.0 -0.4389646654
O  O49  1  0.46090000  0.17220000  0.19120000  1.0 -0.4992637962
O  O50  1  0.53910000  0.82780000  0.19120000  1.0 -0.4992637962
O  O51  1  0.17220000  0.53910000  0.19120000  1.0 -0.4992637962
O  O52  1  0.82780000  0.46090000  0.19120000  1.0 -0.4992637962
O  O53  1  0.46090000  0.82780000  0.80880000  1.0 -0.4992637962
O  O54  1  0.53910000  0.17220000  0.80880000  1.0 -0.4992637962
O  O55  1  0.17220000  0.46090000  0.80880000  1.0 -0.4992637962
O  O56  1  0.82780000  0.53910000  0.80880000  1.0 -0.4992637962
O  O57  1  0.53910000  0.82780000  0.80880000  1.0 -0.4992637962
O  O58  1  0.46090000  0.17220000  0.80880000  1.0 -0.4992637962
O  O59  1  0.82780000  0.46090000  0.80880000  1.0 -0.4992637962
O  O60  1  0.17220000  0.53910000  0.80880000  1.0 -0.4992637962
O  O61  1  0.53910000  0.17220000  0.19120000  1.0 -0.4992637962
O  O62  1  0.46090000  0.82780000  0.19120000  1.0 -0.4992637962
O  O63  1  0.82780000  0.53910000  0.19120000  1.0 -0.4992637962
O  O64  1  0.17220000  0.46090000  0.19120000  1.0 -0.4992637962
O  O65  1  0.39950000  0.16960000  0.18400000  1.0 -0.4992637962
O  O66  1  0.60050000  0.83040000  0.18400000  1.0 -0.4992637962
O  O67  1  0.16960000  0.60050000  0.18400000  1.0 -0.4992637962
O  O68  1  0.83040000  0.39950000  0.18400000  1.0 -0.4992637962
O  O69  1  0.39950000  0.83040000  0.81600000  1.0 -0.4992637962
O  O70  1  0.60050000  0.16960000  0.81600000  1.0 -0.4992637962
O  O71  1  0.16960000  0.39950000  0.81600000  1.0 -0.4992637962
O  O72  1  0.83040000  0.60050000  0.81600000  1.0 -0.4992637962
O  O73  1  0.60050000  0.83040000  0.81600000  1.0 -0.4992637962
O  O74  1  0.39950000  0.16960000  0.81600000  1.0 -0.4992637962
O  O75  1  0.83040000  0.39950000  0.81600000  1.0 -0.4992637962
O  O76  1  0.16960000  0.60050000  0.81600000  1.0 -0.4992637962
O  O77  1  0.60050000  0.16960000  0.18400000  1.0 -0.4992637962
O  O78  1  0.39950000  0.83040000  0.18400000  1.0 -0.4992637962
O  O79  1  0.83040000  0.60050000  0.18400000  1.0 -0.4992637962
O  O80  1  0.16960000  0.39950000  0.18400000  1.0 -0.4992637962
O  O81  1  0.39310000  0.13750000  0.33630000  1.0 -0.486379971
O  O82  1  0.60690000  0.86250000  0.33630000  1.0 -0.486379971
O  O83  1  0.13750000  0.60690000  0.33630000  1.0 -0.486379971
O  O84  1  0.86250000  0.39310000  0.33630000  1.0 -0.486379971
O  O85  1  0.39310000  0.86250000  0.66370000  1.0 -0.486379971
O  O86  1  0.60690000  0.13750000  0.66370000  1.0 -0.486379971
O  O87  1  0.13750000  0.39310000  0.66370000  1.0 -0.486379971
O  O88  1  0.86250000  0.60690000  0.66370000  1.0 -0.486379971
O  O89  1  0.60690000  0.86250000  0.66370000  1.0 -0.486379971
O  O90  1  0.39310000  0.13750000  0.66370000  1.0 -0.486379971
O  O91  1  0.86250000  0.39310000  0.66370000  1.0 -0.486379971
O  O92  1  0.13750000  0.60690000  0.66370000  1.0 -0.486379971
O  O93  1  0.60690000  0.13750000  0.33630000  1.0 -0.486379971
O  O94  1  0.39310000  0.86250000  0.33630000  1.0 -0.486379971
O  O95  1  0.86250000  0.60690000  0.33630000  1.0 -0.486379971
O  O96  1  0.13750000  0.39310000  0.33630000  1.0 -0.486379971
O  O97  1  0.31190000  0.16090000  0.16660000  1.0 -0.4575382026
O  O98  1  0.68810000  0.83910000  0.16660000  1.0 -0.4575382026
O  O99  1  0.16090000  0.68810000  0.16660000  1.0 -0.4575382026
O  O100  1  0.83910000  0.31190000  0.16660000  1.0 -0.4575382026
O  O101  1  0.31190000  0.83910000  0.83340000  1.0 -0.4575382026
O  O102  1  0.68810000  0.16090000  0.83340000  1.0 -0.4575382026
O  O103  1  0.16090000  0.31190000  0.83340000  1.0 -0.4575382026
O  O104  1  0.83910000  0.68810000  0.83340000  1.0 -0.4575382026
O  O105  1  0.68810000  0.83910000  0.83340000  1.0 -0.4575382026
O  O106  1  0.31190000  0.16090000  0.83340000  1.0 -0.4575382026
O  O107  1  0.83910000  0.31190000  0.83340000  1.0 -0.4575382026
O  O108  1  0.16090000  0.68810000  0.83340000  1.0 -0.4575382026
O  O109  1  0.68810000  0.16090000  0.16660000  1.0 -0.4575382026
O  O110  1  0.31190000  0.83910000  0.16660000  1.0 -0.4575382026
O  O111  1  0.83910000  0.68810000  0.16660000  1.0 -0.4575382026
O  O112  1  0.16090000  0.31190000  0.16660000  1.0 -0.4575382026
O  O113  1  0.33290000  0.19450000  0.31180000  1.0 -0.4992637962
O  O114  1  0.66710000  0.80550000  0.31180000  1.0 -0.4992637962
O  O115  1  0.19450000  0.66710000  0.31180000  1.0 -0.4992637962
O  O116  1  0.80550000  0.33290000  0.31180000  1.0 -0.4992637962
O  O117  1  0.33290000  0.80550000  0.68820000  1.0 -0.4992637962
O  O118  1  0.66710000  0.19450000  0.68820000  1.0 -0.4992637962
O  O119  1  0.19450000  0.33290000  0.68820000  1.0 -0.4992637962
O  O120  1  0.80550000  0.66710000  0.68820000  1.0 -0.4992637962
O  O121  1  0.66710000  0.80550000  0.68820000  1.0 -0.4992637962
O  O122  1  0.33290000  0.19450000  0.68820000  1.0 -0.4992637962
O  O123  1  0.80550000  0.33290000  0.68820000  1.0 -0.4992637962
O  O124  1  0.19450000  0.66710000  0.68820000  1.0 -0.4992637962
O  O125  1  0.66710000  0.19450000  0.31180000  1.0 -0.4992637962
O  O126  1  0.33290000  0.80550000  0.31180000  1.0 -0.4992637962
O  O127  1  0.80550000  0.66710000  0.31180000  1.0 -0.4992637962
O  O128  1  0.19450000  0.33290000  0.31180000  1.0 -0.4992637962
O  O129  1  0.28460000  0.23330000  0.30190000  1.0 -0.3980605524
O  O130  1  0.71540000  0.76670000  0.30190000  1.0 -0.3980605524
O  O131  1  0.23330000  0.71540000  0.30190000  1.0 -0.3980605524
O  O132  1  0.76670000  0.28460000  0.30190000  1.0 -0.3980605524
O  O133  1  0.28460000  0.76670000  0.69810000  1.0 -0.3980605524
O  O134  1  0.71540000  0.23330000  0.69810000  1.0 -0.3980605524
O  O135  1  0.23330000  0.28460000  0.69810000  1.0 -0.3980605524
O  O136  1  0.76670000  0.71540000  0.69810000  1.0 -0.3980605524
O  O137  1  0.71540000  0.76670000  0.69810000  1.0 -0.3980605524
O  O138  1  0.28460000  0.23330000  0.69810000  1.0 -0.3980605524
O  O139  1  0.76670000  0.28460000  0.69810000  1.0 -0.3980605524
O  O140  1  0.23330000  0.71540000  0.69810000  1.0 -0.3980605524
O  O141  1  0.71540000  0.23330000  0.30190000  1.0 -0.3980605524
O  O142  1  0.28460000  0.76670000  0.30190000  1.0 -0.3980605524
O  O143  1  0.76670000  0.71540000  0.30190000  1.0 -0.3980605524
O  O144  1  0.23330000  0.28460000  0.30190000  1.0 -0.3980605524
O  O145  1  0.38970000  0.19000000  0.00000000  1.0 -0.7266733819
O  O146  1  0.61030000  0.81000000  0.00000000  1.0 -0.7266733819
O  O147  1  0.19000000  0.61030000  0.00000000  1.0 -0.7190551135
O  O148  1  0.81000000  0.38970000  0.00000000  1.0 -0.7266733819
O  O149  1  0.38970000  0.81000000  0.00000000  1.0 -0.7266733819
O  O150  1  0.61030000  0.19000000  0.00000000  1.0 -0.7190551135
O  O151  1  0.19000000  0.38970000  0.00000000  1.0 -0.7266733819
O  O152  1  0.81000000  0.61030000  0.00000000  1.0 -0.7266733819
O  O153  1  0.50000000  0.03870000  0.00000000  1.0 -0.1848415855
O  O154  1  0.50000000  0.96130000  0.00000000  1.0 -0.197947343
O  O155  1  0.03870000  0.50000000  0.00000000  1.0 -0.1848415855
O  O156  1  0.96130000  0.50000000  0.00000000  1.0 -0.197947343
O  O157  1  0.42950000  0.93380000  0.09810000  1.0 -0.3011704781
O  O158  1  0.57050000  0.06620000  0.09810000  1.0 -0.3011704781
O  O159  1  0.93380000  0.57050000  0.09810000  1.0 -0.3102031831
O  O160  1  0.06620000  0.42950000  0.09810000  1.0 -0.3102031831
O  O161  1  0.42950000  0.06620000  0.90190000  1.0 -0.3011704781
O  O162  1  0.57050000  0.93380000  0.90190000  1.0 -0.3011704781
O  O163  1  0.93380000  0.42950000  0.90190000  1.0 -0.3011704781
O  O164  1  0.06620000  0.57050000  0.90190000  1.0 -0.3011704781
O  O165  1  0.57050000  0.06620000  0.90190000  1.0 -0.3011704781
O  O166  1  0.42950000  0.93380000  0.90190000  1.0 -0.3011704781
O  O167  1  0.06620000  0.42950000  0.90190000  1.0 -0.3011704781
O  O168  1  0.93380000  0.57050000  0.90190000  1.0 -0.3011704781
O  O169  1  0.57050000  0.93380000  0.09810000  1.0 -0.3102031831
O  O170  1  0.42950000  0.06620000  0.09810000  1.0 -0.3102031831
O  O171  1  0.06620000  0.57050000  0.09810000  1.0 -0.3011704781
O  O172  1  0.93380000  0.42950000  0.09810000  1.0 -0.3011704781
