# DDEC6 charges by PACMAN v1.1 (https://github.com/mtap-research/PACMAN-charge/)
data_EBAVAH_ASR_pacman
_symmetry_space_group_name_H-M   'P 1'
_cell_length_a   18.82760000
_cell_length_b   18.82760000
_cell_length_c   54.14900000
_cell_angle_alpha   90.00000000
_cell_angle_beta   90.00000000
_cell_angle_gamma   120.00000000
_symmetry_Int_Tables_number   1
_chemical_formula_structural   Cu2H8C26S(NO4)2
_chemical_formula_sum   'Cu18 H72 C234 S9 N18 O72'
_cell_volume   16623.06099010
_cell_formula_units_Z   9
loop_
 _symmetry_equiv_pos_site_id
 _symmetry_equiv_pos_as_xyz
  1  'x, y, z'
loop_
 _atom_site_type_symbol
 _atom_site_label
 _atom_site_symmetry_multiplicity
 _atom_site_fract_x
 _atom_site_fract_y
 _atom_site_fract_z
 _atom_site_occupancy
 _atom_site_charge
Cu  Cu1  1  0.90676000  0.42729000  0.93644000  1.0 0.9528913043
Cu  Cu2  1  0.00904000  0.47832000  0.98486000  1.0 0.9558961254
Cu  Cu3  1  0.57568000  0.76216000  0.26990000  1.0 0.9528913043
Cu  Cu4  1  0.67717000  0.81288000  0.31844000  1.0 0.9528913043
Cu  Cu5  1  0.24155000  0.09573000  0.60292000  1.0 0.9528913043
Cu  Cu6  1  0.34378000  0.14672000  0.65134000  1.0 0.9558961254
Cu  Cu7  1  0.43223000  0.47857000  0.98484000  1.0 0.9558961254
Cu  Cu8  1  0.48325000  0.42708000  0.93649000  1.0 0.9528913043
Cu  Cu9  1  0.14977000  0.76037000  0.27007000  1.0 0.9177502534
Cu  Cu10  1  0.09905000  0.80993000  0.31814000  1.0 0.9148838263
Cu  Cu11  1  0.76724000  0.14708000  0.65123000  1.0 0.9528913043
Cu  Cu12  1  0.81824000  0.09560000  0.60288000  1.0 0.9528913043
Cu  Cu13  1  0.43245000  0.90176000  0.98502000  1.0 0.9558961254
Cu  Cu14  1  0.48335000  0.00420000  0.93665000  1.0 0.9558961254
Cu  Cu15  1  0.09916000  0.23795000  0.31824000  1.0 0.9177502534
Cu  Cu16  1  0.14985000  0.33822000  0.27016000  1.0 0.9177502534
Cu  Cu17  1  0.76732000  0.57012000  0.65128000  1.0 0.9528913043
Cu  Cu18  1  0.81816000  0.67252000  0.60290000  1.0 0.9528913043
H  H1  1  0.22253000  0.97216000  0.23063000  1.0 0.1304494863
H  H2  1  0.15318000  0.05096000  0.29672000  1.0 0.1304494863
H  H3  1  0.22265000  0.19940000  0.23068000  1.0 0.1304494863
H  H4  1  0.88748000  0.53241000  0.56270000  1.0 0.1304494863
H  H5  1  0.82229000  0.38607000  0.62909000  1.0 0.1304494863
H  H6  1  0.88753000  0.30516000  0.56266000  1.0 0.1304494863
H  H7  1  0.55302000  0.63708000  0.89640000  1.0 0.1304494863
H  H8  1  0.48732000  0.71759000  0.96283000  1.0 0.1304494863
H  H9  1  0.55317000  0.86442000  0.89654000  1.0 0.1304494863
H  H10  1  0.71398000  0.97351000  0.23063000  1.0 0.1304494863
H  H11  1  0.86171000  0.05302000  0.29676000  1.0 0.1415207453
H  H12  1  0.94001000  0.20179000  0.23079000  1.0 0.1304494863
H  H13  1  0.38118000  0.30558000  0.56311000  1.0 0.1304494863
H  H14  1  0.52783000  0.38616000  0.62945000  1.0 0.1304494863
H  H15  1  0.60827000  0.53288000  0.56312000  1.0 0.1304494863
H  H16  1  0.04697000  0.63710000  0.89660000  1.0 0.1304494863
H  H17  1  0.19281000  0.71787000  0.96310000  1.0 0.1304494863
H  H18  1  0.27396000  0.86449000  0.89677000  1.0 0.1304494863
H  H19  1  0.93927000  0.68569000  0.23078000  1.0 0.1304494863
H  H20  1  0.86189000  0.75776000  0.29663000  1.0 0.1304494863
H  H21  1  0.71315000  0.68780000  0.23069000  1.0 0.1304494863
H  H22  1  0.38082000  0.02481000  0.56309000  1.0 0.1304494863
H  H23  1  0.52797000  0.09179000  0.62934000  1.0 0.1304494863
H  H24  1  0.60794000  0.02461000  0.56309000  1.0 0.1304494863
H  H25  1  0.04628000  0.35688000  0.89651000  1.0 0.1304494863
H  H26  1  0.19289000  0.42298000  0.96286000  1.0 0.1304494863
H  H27  1  0.27338000  0.35662000  0.89656000  1.0 0.1304494863
H  H28  1  0.20464000  0.21811000  0.69113000  1.0 0.1304494863
H  H29  1  0.05737000  0.15059000  0.62490000  1.0 0.1304494863
H  H30  1  0.97761000  0.21852000  0.69104000  1.0 0.1304494863
H  H31  1  0.86878000  0.54759000  0.02481000  1.0 0.1304494863
H  H32  1  0.72283000  0.48285000  0.95835000  1.0 0.1304494863
H  H33  1  0.64176000  0.54796000  0.02477000  1.0 0.1304494863
H  H34  1  0.30999000  0.88317000  0.35791000  1.0 0.1304494863
H  H35  1  0.38985000  0.81519000  0.29179000  1.0 0.1304494863
H  H36  1  0.53785000  0.88453000  0.35790000  1.0 0.1304494863
H  H37  1  0.20579000  0.93531000  0.69082000  1.0 0.1304494863
H  H38  1  0.05720000  0.85679000  0.62484000  1.0 0.1304494863
H  H39  1  0.97865000  0.70801000  0.69078000  1.0 0.1304494863
H  H40  1  0.86985000  0.26847000  0.02469000  1.0 0.1304494863
H  H41  1  0.72276000  0.18794000  0.95844000  1.0 0.1304494863
H  H42  1  0.64269000  0.04122000  0.02478000  1.0 0.1304494863
H  H43  1  0.53841000  0.60175000  0.35784000  1.0 0.1304494863
H  H44  1  0.38986000  0.52336000  0.29184000  1.0 0.1304494863
H  H45  1  0.31048000  0.37532000  0.35793000  1.0 0.1304494863
H  H46  1  0.69538000  0.70909000  0.69118000  1.0 0.1304494863
H  H47  1  0.76386000  0.85686000  0.62505000  1.0 0.1304494863
H  H48  1  0.69525000  0.93631000  0.69111000  1.0 0.1304494863
H  H49  1  0.36342000  0.04225000  0.02523000  1.0 0.1304494863
H  H50  1  0.42807000  0.18799000  0.95872000  1.0 0.1304494863
H  H51  1  0.36320000  0.26941000  0.02511000  1.0 0.1304494863
H  H52  1  0.02867000  0.60218000  0.35737000  1.0 0.1304494863
H  H53  1  0.09810000  0.52339000  0.29113000  1.0 0.1304494863
H  H54  1  0.02879000  0.37559000  0.35746000  1.0 0.1304494863
H  H55  1  0.23984000  0.42016000  0.80980000  1.0 0.117809684
H  H56  1  0.22642000  0.39336000  0.76486000  1.0 0.117809684
H  H57  1  0.55900000  0.06027000  0.43139000  1.0 0.117809684
H  H58  1  0.57285000  0.08759000  0.47630000  1.0 0.117809684
H  H59  1  0.80872000  0.72489000  0.09889000  1.0 0.117809684
H  H60  1  0.82238000  0.75154000  0.14369000  1.0 0.117809684
H  H61  1  0.02117000  0.81351000  0.77781000  1.0 0.117809684
H  H62  1  0.03429000  0.80003000  0.82250000  1.0 0.117809684
H  H63  1  0.35493000  0.48538000  0.44476000  1.0 0.117809684
H  H64  1  0.36875000  0.47216000  0.48968000  1.0 0.117809684
H  H65  1  0.78575000  0.22085000  0.15645000  1.0 0.117809684
H  H66  1  0.77219000  0.23364000  0.11162000  1.0 0.117809684
H  H67  1  0.76060000  0.89240000  0.77829000  1.0 0.117809684
H  H68  1  0.73281000  0.87814000  0.82317000  1.0 0.117809684
H  H69  1  0.09519000  0.55767000  0.44437000  1.0 0.117809684
H  H70  1  0.06758000  0.54391000  0.48926000  1.0 0.117809684
H  H71  1  0.15679000  0.01648000  0.14358000  1.0 0.117809684
H  H72  1  0.18425000  0.03023000  0.09868000  1.0 0.117809684
C  C1  1  0.22642000  0.08770000  0.22827000  1.0 0.1464196224
C  C2  1  0.21402000  0.01711000  0.24069000  1.0 -0.1367921371
C  C3  1  0.18790000  0.00260000  0.26553000  1.0 -0.0292713997
C  C4  1  0.17519000  0.06200000  0.27785000  1.0 -0.1059697751
C  C5  1  0.18796000  0.13418000  0.26556000  1.0 -0.0292713997
C  C6  1  0.21409000  0.14588000  0.24073000  1.0 -0.1367921371
C  C7  1  0.89121000  0.42065000  0.56025000  1.0 0.1464196224
C  C8  1  0.87957000  0.47918000  0.57277000  1.0 -0.1320956803
C  C9  1  0.85499000  0.46814000  0.59775000  1.0 -0.0292713997
C  C10  1  0.84308000  0.39649000  0.61010000  1.0 -0.1001836723
C  C11  1  0.85505000  0.33682000  0.59773000  1.0 -0.0292713997
C  C12  1  0.87961000  0.35044000  0.57275000  1.0 -0.1320956803
C  C13  1  0.55681000  0.75264000  0.89405000  1.0 0.1415207453
C  C14  1  0.54506000  0.68231000  0.90651000  1.0 -0.1320956803
C  C15  1  0.52028000  0.66851000  0.93146000  1.0 -0.0292713997
C  C16  1  0.50827000  0.72814000  0.94386000  1.0 -0.1001836723
C  C17  1  0.52034000  0.79990000  0.93154000  1.0 -0.0292713997
C  C18  1  0.54514000  0.81111000  0.90659000  1.0 -0.1320956803
C  C19  1  0.82498000  0.08961000  0.22836000  1.0 0.1415207453
C  C20  1  0.76716000  0.01878000  0.24073000  1.0 -0.1367921371
C  C21  1  0.77893000  0.00441000  0.26555000  1.0 -0.0292713997
C  C22  1  0.85063000  0.06410000  0.27791000  1.0 -0.1001836723
C  C23  1  0.90971000  0.13648000  0.26565000  1.0 -0.0292713997
C  C24  1  0.89520000  0.14816000  0.24083000  1.0 -0.1320956803
C  C25  1  0.49286000  0.42110000  0.56072000  1.0 0.1464196224
C  C26  1  0.43440000  0.35085000  0.57319000  1.0 -0.1320956803
C  C27  1  0.44558000  0.33709000  0.59813000  1.0 -0.0292713997
C  C28  1  0.51726000  0.39672000  0.61049000  1.0 -0.1001836723
C  C29  1  0.57682000  0.46846000  0.59813000  1.0 -0.0292713997
C  C30  1  0.56305000  0.47962000  0.57320000  1.0 -0.1320956803
C  C31  1  0.15862000  0.75268000  0.89430000  1.0 0.1464196224
C  C32  1  0.10003000  0.68242000  0.90674000  1.0 -0.1320956803
C  C33  1  0.11091000  0.66872000  0.93170000  1.0 -0.0292713997
C  C34  1  0.18244000  0.72839000  0.94412000  1.0 -0.1001836723
C  C35  1  0.24211000  0.80014000  0.93180000  1.0 -0.0292713997
C  C36  1  0.22862000  0.81125000  0.90684000  1.0 -0.1320956803
C  C37  1  0.82417000  0.68273000  0.22839000  1.0 0.1415207453
C  C38  1  0.89462000  0.69479000  0.24081000  1.0 -0.1320956803
C  C39  1  0.90949000  0.72161000  0.26558000  1.0 -0.0292713997
C  C40  1  0.85056000  0.73517000  0.27782000  1.0 -0.1001836723
C  C41  1  0.77868000  0.72284000  0.26550000  1.0 -0.0292713997
C  C42  1  0.76653000  0.69606000  0.24075000  1.0 -0.1367921371
C  C43  1  0.49247000  0.02091000  0.56070000  1.0 0.1464196224
C  C44  1  0.43412000  0.03292000  0.57316000  1.0 -0.1320956803
C  C45  1  0.44550000  0.05821000  0.59806000  1.0 -0.0292713997
C  C46  1  0.51727000  0.07042000  0.61040000  1.0 -0.1001836723
C  C47  1  0.57675000  0.05808000  0.59806000  1.0 -0.0292713997
C  C48  1  0.56279000  0.03279000  0.57316000  1.0 -0.1320956803
C  C49  1  0.15794000  0.35297000  0.89413000  1.0 0.1464196224
C  C50  1  0.09950000  0.36483000  0.90660000  1.0 -0.1320956803
C  C51  1  0.11067000  0.38980000  0.93153000  1.0 -0.0292713997
C  C52  1  0.18234000  0.40184000  0.94390000  1.0 -0.1001836723
C  C53  1  0.24190000  0.38964000  0.93156000  1.0 -0.0292713997
C  C54  1  0.22814000  0.36466000  0.90663000  1.0 -0.1320956803
C  C55  1  0.09304000  0.22215000  0.69348000  1.0 0.1464196224
C  C56  1  0.15132000  0.20994000  0.68105000  1.0 -0.1320956803
C  C57  1  0.13989000  0.18439000  0.65617000  1.0 -0.0292713997
C  C58  1  0.06811000  0.17212000  0.64382000  1.0 -0.1001836723
C  C59  1  0.00868000  0.18464000  0.65612000  1.0 -0.0292713997
C  C60  1  0.02271000  0.21018000  0.68100000  1.0 -0.1320956803
C  C61  1  0.75713000  0.55150000  0.02719000  1.0 0.1415207453
C  C62  1  0.81570000  0.53989000  0.01470000  1.0 -0.1320956803
C  C63  1  0.80478000  0.51543000  0.98973000  1.0 -0.0292713997
C  C64  1  0.73322000  0.50363000  0.97734000  1.0 -0.1001836723
C  C65  1  0.67355000  0.51563000  0.98971000  1.0 -0.0292713997
C  C66  1  0.68708000  0.54011000  0.01468000  1.0 -0.1320956803
C  C67  1  0.42582000  0.88768000  0.36028000  1.0 0.1464196224
C  C68  1  0.35519000  0.87504000  0.34785000  1.0 -0.1320956803
C  C69  1  0.34104000  0.84917000  0.32301000  1.0 -0.0292713997
C  C70  1  0.40067000  0.83699000  0.31068000  1.0 -0.1001836723
C  C71  1  0.47277000  0.84994000  0.32300000  1.0 -0.0292713997
C  C72  1  0.48429000  0.87581000  0.34785000  1.0 -0.1320956803
C  C73  1  0.09419000  0.81969000  0.69317000  1.0 0.1464196224
C  C74  1  0.15226000  0.89037000  0.68078000  1.0 -0.1320956803
C  C75  1  0.14033000  0.90491000  0.65599000  1.0 -0.0292713997
C  C76  1  0.06830000  0.84566000  0.64369000  1.0 -0.1001836723
C  C77  1  0.00908000  0.77356000  0.65596000  1.0 -0.0292713997
C  C78  1  0.02358000  0.76159000  0.68075000  1.0 -0.1320956803
C  C79  1  0.75817000  0.15298000  0.02712000  1.0 0.1464196224
C  C80  1  0.81655000  0.22321000  0.01463000  1.0 -0.1320956803
C  C81  1  0.80521000  0.23698000  0.98971000  1.0 -0.0292713997
C  C82  1  0.73344000  0.17737000  0.97739000  1.0 -0.1001836723
C  C83  1  0.67394000  0.10565000  0.98976000  1.0 -0.0292713997
C  C84  1  0.68787000  0.09447000  0.01468000  1.0 -0.1320956803
C  C85  1  0.42639000  0.48658000  0.36025000  1.0 0.1464196224
C  C86  1  0.48477000  0.55694000  0.34781000  1.0 -0.1320956803
C  C87  1  0.47304000  0.57139000  0.32299000  1.0 -0.0292713997
C  C88  1  0.40083000  0.51230000  0.31071000  1.0 -0.1001836723
C  C89  1  0.34128000  0.44048000  0.32304000  1.0 -0.0292713997
C  C90  1  0.35563000  0.42866000  0.34786000  1.0 -0.1320956803
C  C91  1  0.69143000  0.82077000  0.69355000  1.0 0.1415207453
C  C92  1  0.70377000  0.76253000  0.68113000  1.0 -0.1320956803
C  C93  1  0.72963000  0.77411000  0.65627000  1.0 -0.0292713997
C  C94  1  0.74212000  0.84602000  0.64394000  1.0 -0.1001836723
C  C95  1  0.72956000  0.90544000  0.65623000  1.0 -0.0292713997
C  C96  1  0.70369000  0.89125000  0.68109000  1.0 -0.1367921371
C  C97  1  0.35963000  0.15400000  0.02761000  1.0 0.1464196224
C  C98  1  0.37121000  0.09537000  0.01512000  1.0 -0.1320956803
C  C99  1  0.39561000  0.10619000  0.99013000  1.0 -0.0292713997
C  C100  1  0.40741000  0.17772000  0.97772000  1.0 -0.1001836723
C  C101  1  0.39549000  0.23747000  0.99006000  1.0 -0.0292713997
C  C102  1  0.37108000  0.22406000  0.01505000  1.0 -0.1320956803
C  C103  1  0.02525000  0.48716000  0.35964000  1.0 0.1304494863
C  C104  1  0.03758000  0.55763000  0.34720000  1.0 -0.1001836723
C  C105  1  0.06399000  0.57246000  0.32234000  1.0 -0.0842369977
C  C106  1  0.07646000  0.51262000  0.31004000  1.0 -0.0614631942
C  C107  1  0.06404000  0.44039000  0.32239000  1.0 -0.0842369977
C  C108  1  0.03765000  0.42896000  0.34725000  1.0 -0.1001836723
C  C109  1  0.05081000  0.40973000  0.94351000  1.0 0.612314586
C  C110  1  0.86476000  0.49569000  0.97774000  1.0 0.612314586
C  C111  1  0.05096000  0.58892000  0.94365000  1.0 0.612314586
C  C112  1  0.86502000  0.31676000  0.97773000  1.0 0.612314586
C  C113  1  0.53287000  0.83016000  0.31110000  1.0 0.612314586
C  C114  1  0.71936000  0.74394000  0.27731000  1.0 0.612314586
C  C115  1  0.53302000  0.65130000  0.31110000  1.0 0.612314586
C  C116  1  0.71950000  0.92405000  0.27735000  1.0 0.612314586
C  C117  1  0.38568000  0.07823000  0.61003000  1.0 0.612314586
C  C118  1  0.19967000  0.16428000  0.64423000  1.0 0.612314586
C  C119  1  0.38569000  0.25730000  0.61009000  1.0 0.612314586
C  C120  1  0.19989000  0.98499000  0.64411000  1.0 0.612314586
C  C121  1  0.32166000  0.40951000  0.94355000  1.0 0.612314586
C  C122  1  0.59386000  0.49596000  0.97771000  1.0 0.612314586
C  C123  1  0.50059000  0.58878000  0.94347000  1.0 0.612314586
C  C124  1  0.41496000  0.31702000  0.97797000  1.0 0.612314586
C  C125  1  0.16776000  0.92233000  0.27736000  1.0 0.612314586
C  C126  1  0.08250000  0.64825000  0.31100000  1.0 0.5929006379
C  C127  1  0.98996000  0.74257000  0.27738000  1.0 0.5929006379
C  C128  1  0.26096000  0.82871000  0.31111000  1.0 0.612314586
C  C129  1  0.65658000  0.07806000  0.61002000  1.0 0.612314586
C  C130  1  0.92885000  0.16463000  0.64415000  1.0 0.612314586
C  C131  1  0.83550000  0.25718000  0.60978000  1.0 0.612314586
C  C132  1  0.74965000  0.98531000  0.64425000  1.0 0.612314586
C  C133  1  0.50068000  0.85988000  0.94360000  1.0 0.612314586
C  C134  1  0.41517000  0.04610000  0.97809000  1.0 0.612314586
C  C135  1  0.32179000  0.86007000  0.94380000  1.0 0.612314586
C  C136  1  0.59410000  0.04580000  0.97783000  1.0 0.612314586
C  C137  1  0.16784000  0.19429000  0.27742000  1.0 0.612314586
C  C138  1  0.08258000  0.38309000  0.31109000  1.0 0.5929006379
C  C139  1  0.99008000  0.19609000  0.27749000  1.0 0.5929006379
C  C140  1  0.26110000  0.38097000  0.31118000  1.0 0.612314586
C  C141  1  0.74975000  0.71432000  0.64430000  1.0 0.612314586
C  C142  1  0.83541000  0.52818000  0.60981000  1.0 0.612314586
C  C143  1  0.92902000  0.71398000  0.64407000  1.0 0.612314586
C  C144  1  0.65658000  0.52838000  0.61009000  1.0 0.612314586
C  C145  1  0.14845000  0.33390000  0.86795000  1.0 -0.1001836723
C  C146  1  0.14140000  0.31964000  0.84597000  1.0 -0.0419362047
C  C147  1  0.13369000  0.30386000  0.81959000  1.0 0.0782961314
C  C148  1  0.19004000  0.36263000  0.80297000  1.0 -0.1367921371
C  C149  1  0.18236000  0.34736000  0.77730000  1.0 -0.1320956803
C  C150  1  0.11818000  0.27313000  0.76790000  1.0 0.0702570122
C  C151  1  0.06290000  0.21570000  0.78482000  1.0 0.0889421743
C  C152  1  0.07036000  0.23052000  0.80975000  1.0 0.0889421743
C  C153  1  0.11018000  0.25678000  0.74155000  1.0 -0.0419362047
C  C154  1  0.10286000  0.24194000  0.71961000  1.0 -0.1001836723
C  C155  1  0.43580000  0.90780000  0.38637000  1.0 -0.1001836723
C  C156  1  0.44329000  0.92291000  0.40829000  1.0 -0.0419362047
C  C157  1  0.45152000  0.93957000  0.43461000  1.0 0.0702570122
C  C158  1  0.51538000  0.01420000  0.44390000  1.0 -0.1320956803
C  C159  1  0.52331000  0.02976000  0.46955000  1.0 -0.1367921371
C  C160  1  0.46753000  0.97089000  0.48625000  1.0 0.0782961314
C  C161  1  0.40451000  0.89715000  0.47652000  1.0 0.0889421743
C  C162  1  0.39680000  0.88205000  0.45162000  1.0 0.0889421743
C  C163  1  0.47550000  0.98697000  0.51260000  1.0 -0.0419362047
C  C164  1  0.48275000  0.00150000  0.53455000  1.0 -0.1001836723
C  C165  1  0.76634000  0.56995000  0.05339000  1.0 -0.1001836723
C  C166  1  0.77326000  0.58373000  0.07539000  1.0 -0.0419362047
C  C167  1  0.78105000  0.59900000  0.10178000  1.0 0.0702570122
C  C168  1  0.79989000  0.67611000  0.11135000  1.0 -0.1367921371
C  C169  1  0.80770000  0.69139000  0.13709000  1.0 -0.1367921371
C  C170  1  0.79690000  0.63007000  0.15411000  1.0 0.0702570122
C  C171  1  0.77807000  0.55357000  0.14465000  1.0 0.117809684
C  C172  1  0.77017000  0.53813000  0.11863000  1.0 0.1119856801
C  C173  1  0.80573000  0.64676000  0.18042000  1.0 -0.0481272814
C  C174  1  0.81370000  0.66210000  0.20233000  1.0 -0.1001836723
C  C175  1  0.10445000  0.80937000  0.71923000  1.0 -0.0921331863
C  C176  1  0.11204000  0.80160000  0.74112000  1.0 -0.0614631942
C  C177  1  0.12023000  0.79301000  0.76742000  1.0 0.0969803636
C  C178  1  0.06818000  0.80108000  0.78442000  1.0 -0.1367921371
C  C179  1  0.07575000  0.79340000  0.81009000  1.0 -0.1367921371
C  C180  1  0.13572000  0.77744000  0.81975000  1.0 0.0969803636
C  C181  1  0.19068000  0.76886000  0.80210000  1.0 0.0889421743
C  C182  1  0.18336000  0.77623000  0.77733000  1.0 0.0889421743
C  C183  1  0.14293000  0.76935000  0.84612000  1.0 -0.0481272814
C  C184  1  0.14956000  0.76214000  0.86810000  1.0 -0.0921331863
C  C185  1  0.48331000  0.43064000  0.53456000  1.0 -0.1001836723
C  C186  1  0.47608000  0.43783000  0.51261000  1.0 -0.0481272814
C  C187  1  0.46790000  0.44587000  0.48627000  1.0 0.0782961314
C  C188  1  0.51804000  0.43572000  0.46915000  1.0 0.0889421743
C  C189  1  0.51035000  0.44300000  0.44423000  1.0 0.0782961314
C  C190  1  0.45193000  0.46092000  0.43462000  1.0 0.0782961314
C  C191  1  0.40082000  0.47140000  0.45143000  1.0 -0.1320956803
C  C192  1  0.40872000  0.46390000  0.47708000  1.0 -0.1320956803
C  C193  1  0.44394000  0.46905000  0.40827000  1.0 -0.0481272814
C  C194  1  0.43647000  0.47651000  0.38634000  1.0 -0.1001836723
C  C195  1  0.76788000  0.14349000  0.05328000  1.0 -0.1001836723
C  C196  1  0.77524000  0.13640000  0.07523000  1.0 -0.0419362047
C  C197  1  0.78350000  0.12848000  0.10157000  1.0 0.0649868664
C  C198  1  0.79425000  0.06572000  0.11124000  1.0 0.117809684
C  C199  1  0.80204000  0.05827000  0.13727000  1.0 0.117809684
C  C200  1  0.79916000  0.11346000  0.15392000  1.0 0.0702570122
C  C201  1  0.78827000  0.17679000  0.14415000  1.0 -0.1367921371
C  C202  1  0.78054000  0.18415000  0.11839000  1.0 -0.1367921371
C  C203  1  0.80752000  0.10630000  0.18029000  1.0 -0.0481272814
C  C204  1  0.81504000  0.09937000  0.20224000  1.0 -0.0921331863
C  C205  1  0.57615000  0.76251000  0.86789000  1.0 -0.1001836723
C  C206  1  0.59086000  0.77015000  0.84593000  1.0 -0.0419362047
C  C207  1  0.60747000  0.77884000  0.81958000  1.0 0.0782961314
C  C208  1  0.54751000  0.72886000  0.80236000  1.0 0.0889421743
C  C209  1  0.56290000  0.73678000  0.77746000  1.0 0.0889421743
C  C210  1  0.63939000  0.79530000  0.76794000  1.0 0.0782961314
C  C211  1  0.70064000  0.84638000  0.78486000  1.0 -0.1367921371
C  C212  1  0.68479000  0.83822000  0.81050000  1.0 -0.1320956803
C  C213  1  0.65599000  0.80332000  0.74159000  1.0 -0.0419362047
C  C214  1  0.67117000  0.81074000  0.71966000  1.0 -0.1001836723
C  C215  1  0.00487000  0.47714000  0.38575000  1.0 -0.0921331863
C  C216  1  0.98971000  0.46985000  0.40769000  1.0 -0.0614631942
C  C217  1  0.97321000  0.46206000  0.43406000  1.0 0.0782961314
C  C218  1  0.03493000  0.51242000  0.45096000  1.0 -0.1367921371
C  C219  1  0.01918000  0.50455000  0.47661000  1.0 -0.1320956803
C  C220  1  0.94148000  0.44617000  0.48573000  1.0 0.0782961314
C  C221  1  0.88106000  0.39689000  0.46852000  1.0 0.0782961314
C  C222  1  0.89636000  0.40454000  0.44360000  1.0 0.0889421743
C  C223  1  0.92498000  0.43776000  0.51209000  1.0 -0.0419362047
C  C224  1  0.91038000  0.43033000  0.53406000  1.0 -0.1001836723
C  C225  1  0.24669000  0.09789000  0.20215000  1.0 -0.1001836723
C  C226  1  0.26178000  0.10540000  0.18021000  1.0 -0.0481272814
C  C227  1  0.27816000  0.11342000  0.15383000  1.0 0.0782961314
C  C228  1  0.21674000  0.06233000  0.13696000  1.0 -0.1320956803
C  C229  1  0.23240000  0.07021000  0.11131000  1.0 -0.1320956803
C  C230  1  0.30971000  0.12932000  0.10215000  1.0 0.0782961314
C  C231  1  0.36982000  0.17943000  0.11933000  1.0 0.0889421743
C  C232  1  0.35460000  0.17177000  0.14425000  1.0 0.0782961314
C  C233  1  0.32617000  0.13748000  0.07578000  1.0 -0.0481272814
C  C234  1  0.34065000  0.14462000  0.05381000  1.0 -0.1001836723
S  S1  1  0.41683000  0.62249000  0.78211000  1.0 0.4031925094
S  S2  1  0.94626000  0.09038000  0.80446000  1.0 0.6489278716
S  S3  1  0.30000000  0.74841000  0.78234000  1.0 0.411450122
S  S4  1  0.28118000  0.75637000  0.47143000  1.0 0.6383399707
S  S5  1  0.62437000  0.41095000  0.44910000  1.0 0.470170055
S  S6  1  0.74947000  0.29213000  0.44831000  1.0 0.4031925094
S  S7  1  0.81197000  0.94254000  0.11721000  1.0 0.6489278716
S  S8  1  0.74447000  0.40691000  0.13908000  1.0 0.3786208075
S  S9  1  0.50077000  0.28571000  0.13947000  1.0 0.4284682911
N  N1  1  0.99872000  0.14239000  0.77895000  1.0 -0.400255964
N  N2  1  0.01188000  0.16856000  0.82293000  1.0 -0.400255964
N  N3  1  0.34657000  0.83505000  0.48980000  1.0 -0.400255964
N  N4  1  0.33299000  0.80837000  0.44585000  1.0 -0.4094287264
N  N5  1  0.76570000  0.48791000  0.15769000  1.0 -0.3603926756
N  N6  1  0.75216000  0.46148000  0.11321000  1.0 -0.3603926756
N  N7  1  0.25101000  0.75370000  0.80794000  1.0 -0.3603926756
N  N8  1  0.23802000  0.76682000  0.76397000  1.0 -0.35129841
N  N9  1  0.57711000  0.41844000  0.47480000  1.0 -0.3665785897
N  N10  1  0.56356000  0.43132000  0.43084000  1.0 -0.3603926756
N  N11  1  0.79854000  0.00718000  0.09840000  1.0 -0.4094287264
N  N12  1  0.81192000  0.99445000  0.14289000  1.0 -0.4171180982
N  N13  1  0.47110000  0.66963000  0.80789000  1.0 -0.3603926756
N  N14  1  0.49827000  0.68358000  0.76397000  1.0 -0.3603926756
N  N15  1  0.80425000  0.33865000  0.47407000  1.0 -0.3665785897
N  N16  1  0.83125000  0.35212000  0.43014000  1.0 -0.35129841
N  N17  1  0.44625000  0.23846000  0.11373000  1.0 -0.35129841
N  N18  1  0.41940000  0.22497000  0.15768000  1.0 -0.35129841
O  O1  1  0.98954000  0.40125000  0.93105000  1.0 -0.546612013
O  O2  1  0.85217000  0.46766000  0.95580000  1.0 -0.5407620397
O  O3  1  0.98971000  0.53616000  0.93116000  1.0 -0.546612013
O  O4  1  0.85232000  0.33230000  0.95582000  1.0 -0.5407620397
O  O5  1  0.92630000  0.36952000  0.99019000  1.0 -0.546612013
O  O6  1  0.06356000  0.57337000  0.96556000  1.0 -0.5407620397
O  O7  1  0.92604000  0.50415000  0.99020000  1.0 -0.546612013
O  O8  1  0.06348000  0.43790000  0.96543000  1.0 -0.5407620397
O  O9  1  0.52059000  0.80222000  0.28916000  1.0 -0.5407620397
O  O10  1  0.65843000  0.73587000  0.26474000  1.0 -0.546612013
O  O11  1  0.52066000  0.66701000  0.28917000  1.0 -0.5407620397
O  O12  1  0.65856000  0.87120000  0.26478000  1.0 -0.546612013
O  O13  1  0.73201000  0.90825000  0.29925000  1.0 -0.5407620397
O  O14  1  0.59416000  0.70399000  0.32364000  1.0 -0.546612013
O  O15  1  0.73195000  0.77234000  0.29920000  1.0 -0.5407620397
O  O16  1  0.59402000  0.83862000  0.32364000  1.0 -0.546612013
O  O17  1  0.32443000  0.06979000  0.59756000  1.0 -0.546612013
O  O18  1  0.18704000  0.13613000  0.62231000  1.0 -0.5407620397
O  O19  1  0.32443000  0.20455000  0.59761000  1.0 -0.546612013
O  O20  1  0.18715000  0.00066000  0.62223000  1.0 -0.5407620397
O  O21  1  0.26106000  0.03779000  0.65661000  1.0 -0.5407620397
O  O22  1  0.39831000  0.24175000  0.63201000  1.0 -0.5407620397
O  O23  1  0.26089000  0.17267000  0.65671000  1.0 -0.546612013
O  O24  1  0.39834000  0.10638000  0.63195000  1.0 -0.5407620397
O  O25  1  0.33722000  0.43783000  0.96546000  1.0 -0.5407620397
O  O26  1  0.54111000  0.50455000  0.99015000  1.0 -0.546612013
O  O27  1  0.47257000  0.57339000  0.96541000  1.0 -0.5407620397
O  O28  1  0.40635000  0.36985000  0.99037000  1.0 -0.546612013
O  O29  1  0.44297000  0.33235000  0.95603000  1.0 -0.5407620397
O  O30  1  0.50910000  0.53593000  0.93104000  1.0 -0.546612013
O  O31  1  0.57834000  0.46775000  0.95580000  1.0 -0.5407620397
O  O32  1  0.37441000  0.40091000  0.93111000  1.0 -0.546612013
O  O33  1  0.17624000  0.86966000  0.26480000  1.0 -0.546612013
O  O34  1  0.11022000  0.66427000  0.28902000  1.0 -0.5339687127
O  O35  1  0.04080000  0.73524000  0.26526000  1.0 -0.4855256188
O  O36  1  0.24529000  0.80063000  0.28919000  1.0 -0.5339687127
O  O37  1  0.20803000  0.83675000  0.32362000  1.0 -0.5407620397
O  O38  1  0.00490000  0.76970000  0.29839000  1.0 -0.4792286861
O  O39  1  0.07375000  0.70104000  0.32344000  1.0 -0.5407620397
O  O40  1  0.13939000  0.90616000  0.29926000  1.0 -0.5407620397
O  O41  1  0.67217000  0.10640000  0.63191000  1.0 -0.5407620397
O  O42  1  0.87609000  0.17319000  0.65660000  1.0 -0.546612013
O  O43  1  0.80751000  0.24182000  0.63172000  1.0 -0.5407620397
O  O44  1  0.74123000  0.03821000  0.65668000  1.0 -0.546612013
O  O45  1  0.77783000  0.00075000  0.62233000  1.0 -0.5407620397
O  O46  1  0.84408000  0.20436000  0.59736000  1.0 -0.546612013
O  O47  1  0.91328000  0.13631000  0.62225000  1.0 -0.5407620397
O  O48  1  0.70934000  0.06950000  0.59756000  1.0 -0.546612013
O  O49  1  0.47269000  0.84722000  0.96554000  1.0 -0.5407620397
O  O50  1  0.40664000  0.98473000  0.99052000  1.0 -0.546612013
O  O51  1  0.33735000  0.84736000  0.96571000  1.0 -0.5407620397
O  O52  1  0.54137000  0.98451000  0.99030000  1.0 -0.546612013
O  O53  1  0.57846000  0.05853000  0.95594000  1.0 -0.5407620397
O  O54  1  0.37452000  0.92141000  0.93135000  1.0 -0.546612013
O  O55  1  0.44312000  0.05870000  0.95615000  1.0 -0.5407620397
O  O56  1  0.50918000  0.92126000  0.93118000  1.0 -0.546612013
O  O57  1  0.13948000  0.18207000  0.29932000  1.0 -0.5407620397
O  O58  1  0.07387000  0.32159000  0.32354000  1.0 -0.5407620397
O  O59  1  0.00499000  0.18395000  0.29850000  1.0 -0.4792286861
O  O60  1  0.20817000  0.32003000  0.32370000  1.0 -0.5407620397
O  O61  1  0.24537000  0.39341000  0.28927000  1.0 -0.5339687127
O  O62  1  0.04091000  0.25428000  0.26538000  1.0 -0.4855256188
O  O63  1  0.11028000  0.39474000  0.28910000  1.0 -0.5339687127
O  O64  1  0.17634000  0.25546000  0.26487000  1.0 -0.546612013
O  O65  1  0.74138000  0.65304000  0.65675000  1.0 -0.546612013
O  O66  1  0.80747000  0.51556000  0.63176000  1.0 -0.5407620397
O  O67  1  0.87626000  0.65276000  0.65656000  1.0 -0.546612013
O  O68  1  0.67220000  0.51569000  0.63199000  1.0 -0.5407620397
O  O69  1  0.70929000  0.58969000  0.59763000  1.0 -0.546612013
O  O70  1  0.91331000  0.72680000  0.62220000  1.0 -0.5407620397
O  O71  1  0.84395000  0.58957000  0.59739000  1.0 -0.546612013
O  O72  1  0.77785000  0.72700000  0.62237000  1.0 -0.5407620397
