# DDEC6 charges by PACMAN v1.1 (https://github.com/mtap-research/PACMAN-charge/)
data_EBAWIQ_ASR_pacman
_symmetry_space_group_name_H-M   'P 1'
_cell_length_a   8.36610000
_cell_length_b   29.13900000
_cell_length_c   18.85830000
_cell_angle_alpha   90.00000000
_cell_angle_beta   94.30700000
_cell_angle_gamma   90.00000000
_symmetry_Int_Tables_number   1
_chemical_formula_structural   NiH18C28(NO)4
_chemical_formula_sum   'Ni6 H108 C168 N24 O24'
_cell_volume   4584.28951930
_cell_formula_units_Z   6
loop_
 _symmetry_equiv_pos_site_id
 _symmetry_equiv_pos_as_xyz
  1  'x, y, z'
loop_
 _atom_site_type_symbol
 _atom_site_label
 _atom_site_symmetry_multiplicity
 _atom_site_fract_x
 _atom_site_fract_y
 _atom_site_fract_z
 _atom_site_occupancy
 _atom_site_charge
Ni  Ni1  1  0.00000000  0.50000000  0.50000000  1.0 0.5947156708
Ni  Ni2  1  0.00000000  0.00000000  0.00000000  1.0 0.6074463885
Ni  Ni3  1  0.97903000  0.25646000  0.27612000  1.0 0.6986852895
Ni  Ni4  1  0.02097000  0.75646000  0.22388000  1.0 0.6986852895
Ni  Ni5  1  0.02097000  0.74354000  0.72388000  1.0 0.6986852895
Ni  Ni6  1  0.97903000  0.24354000  0.77612000  1.0 0.6986852895
H  H1  1  0.41800000  0.41510000  0.45220000  1.0 0.1312002544
H  H2  1  0.58200000  0.91510000  0.04780000  1.0 0.1312002544
H  H3  1  0.58200000  0.58490000  0.54780000  1.0 0.140634994
H  H4  1  0.41800000  0.08490000  0.95220000  1.0 0.1312002544
H  H5  1  0.49410000  0.38330000  0.65960000  1.0 0.140634994
H  H6  1  0.50590000  0.88330000  0.84040000  1.0 0.140634994
H  H7  1  0.50590000  0.61670000  0.34040000  1.0 0.140634994
H  H8  1  0.49410000  0.11670000  0.15960000  1.0 0.140634994
H  H9  1  0.21490000  0.30240000  0.52970000  1.0 0.140634994
H  H10  1  0.78510000  0.80240000  0.97030000  1.0 0.140634994
H  H11  1  0.78510000  0.69760000  0.47030000  1.0 0.140634994
H  H12  1  0.21490000  0.19760000  0.02970000  1.0 0.140634994
H  H13  1  0.69200000  0.44100000  0.47460000  1.0 0.1194217206
H  H14  1  0.30800000  0.94100000  0.02540000  1.0 0.1194217206
H  H15  1  0.30800000  0.55900000  0.52540000  1.0 0.1194217206
H  H16  1  0.69200000  0.05900000  0.97460000  1.0 0.1194217206
H  H17  1  0.79400000  0.51480000  0.64440000  1.0 0.1194217206
H  H18  1  0.20600000  0.01480000  0.85560000  1.0 0.1194217206
H  H19  1  0.20600000  0.48520000  0.35560000  1.0 0.1194217206
H  H20  1  0.79400000  0.98520000  0.14440000  1.0 0.1194217206
H  H21  1  0.56100000  0.46820000  0.66740000  1.0 0.140634994
H  H22  1  0.43900000  0.96820000  0.83260000  1.0 0.140634994
H  H23  1  0.43900000  0.53180000  0.33260000  1.0 0.140634994
H  H24  1  0.56100000  0.03180000  0.16740000  1.0 0.140634994
H  H25  1  0.07490000  0.30140000  0.64710000  1.0 0.1312002544
H  H26  1  0.92510000  0.80140000  0.85290000  1.0 0.1312002544
H  H27  1  0.92510000  0.69860000  0.35290000  1.0 0.1312002544
H  H28  1  0.07490000  0.19860000  0.14710000  1.0 0.1312002544
H  H29  1  0.53040000  0.30090000  0.72110000  1.0 0.1451618384
H  H30  1  0.46960000  0.80090000  0.77890000  1.0 0.1451618384
H  H31  1  0.46960000  0.69910000  0.27890000  1.0 0.1451618384
H  H32  1  0.53040000  0.19910000  0.22110000  1.0 0.1451618384
H  H33  1  0.37240000  0.25720000  0.80150000  1.0 0.1312002544
H  H34  1  0.62760000  0.75720000  0.69850000  1.0 0.1312002544
H  H35  1  0.62760000  0.74280000  0.19850000  1.0 0.1312002544
H  H36  1  0.37240000  0.24280000  0.30150000  1.0 0.1312002544
H  H37  1  0.12470000  0.28660000  0.42360000  1.0 0.1312002544
H  H38  1  0.87530000  0.78660000  0.07640000  1.0 0.1312002544
H  H39  1  0.87530000  0.71340000  0.57640000  1.0 0.1312002544
H  H40  1  0.12470000  0.21340000  0.92360000  1.0 0.1312002544
H  H41  1  0.14720000  0.35690000  0.25090000  1.0 0.1312002544
H  H42  1  0.85280000  0.85690000  0.24910000  1.0 0.1312002544
H  H43  1  0.85280000  0.64310000  0.74910000  1.0 0.1312002544
H  H44  1  0.14720000  0.14310000  0.75090000  1.0 0.1312002544
H  H45  1  0.29000000  0.39960000  0.34530000  1.0 0.1312002544
H  H46  1  0.71000000  0.89960000  0.15470000  1.0 0.1312002544
H  H47  1  0.71000000  0.60040000  0.65470000  1.0 0.1312002544
H  H48  1  0.29000000  0.10040000  0.84530000  1.0 0.1312002544
H  H49  1  0.20690000  0.52340000  0.71120000  1.0 0.1194217206
H  H50  1  0.79310000  0.02340000  0.78880000  1.0 0.1194217206
H  H51  1  0.79310000  0.47660000  0.28880000  1.0 0.1194217206
H  H52  1  0.20690000  0.97660000  0.21120000  1.0 0.1194217206
H  H53  1  0.27270000  0.52930000  0.83180000  1.0 0.1124914112
H  H54  1  0.72730000  0.02930000  0.66820000  1.0 0.1124914112
H  H55  1  0.72730000  0.47070000  0.16820000  1.0 0.1124914112
H  H56  1  0.27270000  0.97070000  0.33180000  1.0 0.1124914112
H  H57  1  0.22670000  0.39360000  0.85160000  1.0 0.1194217206
H  H58  1  0.77330000  0.89360000  0.64840000  1.0 0.1194217206
H  H59  1  0.77330000  0.60640000  0.14840000  1.0 0.1194217206
H  H60  1  0.22670000  0.10640000  0.35160000  1.0 0.1194217206
H  H61  1  0.16120000  0.38780000  0.73160000  1.0 0.1124914112
H  H62  1  0.83880000  0.88780000  0.76840000  1.0 0.1124914112
H  H63  1  0.83880000  0.61220000  0.26840000  1.0 0.1124914112
H  H64  1  0.16120000  0.11220000  0.23160000  1.0 0.1124914112
H  H65  1  0.18340000  0.52980000  0.94160000  1.0 0.1124914112
H  H66  1  0.81660000  0.02980000  0.55840000  1.0 0.1124914112
H  H67  1  0.81660000  0.47020000  0.05840000  1.0 0.1124914112
H  H68  1  0.18340000  0.97020000  0.44160000  1.0 0.1124914112
H  H69  1  0.34840000  0.47870000  0.13000000  1.0 0.1124914112
H  H70  1  0.65160000  0.97870000  0.37000000  1.0 0.1124914112
H  H71  1  0.65160000  0.52130000  0.87000000  1.0 0.1124914112
H  H72  1  0.34840000  0.02130000  0.63000000  1.0 0.1124914112
H  H73  1  0.38560000  0.40510000  0.95280000  1.0 0.1124914112
H  H74  1  0.61440000  0.90510000  0.54720000  1.0 0.1124914112
H  H75  1  0.61440000  0.59490000  0.04720000  1.0 0.1124914112
H  H76  1  0.38560000  0.09490000  0.45280000  1.0 0.1124914112
H  H77  1  0.36760000  0.40740000  0.18280000  1.0 0.1124914112
H  H78  1  0.63240000  0.90740000  0.31720000  1.0 0.1124914112
H  H79  1  0.63240000  0.59260000  0.81720000  1.0 0.1124914112
H  H80  1  0.36760000  0.09260000  0.68280000  1.0 0.1124914112
H  H81  1  0.52780000  0.35620000  0.24870000  1.0 0.1124914112
H  H82  1  0.47220000  0.85620000  0.25130000  1.0 0.1124914112
H  H83  1  0.47220000  0.64380000  0.75130000  1.0 0.1124914112
H  H84  1  0.52780000  0.14380000  0.74870000  1.0 0.1124914112
H  H85  1  0.77350000  0.33070000  0.07940000  1.0 0.1194217206
H  H86  1  0.22650000  0.83070000  0.42060000  1.0 0.1194217206
H  H87  1  0.22650000  0.66930000  0.92060000  1.0 0.1194217206
H  H88  1  0.77350000  0.16930000  0.57940000  1.0 0.1194217206
H  H89  1  0.61240000  0.38080000  0.01330000  1.0 0.1124914112
H  H90  1  0.38760000  0.88080000  0.48670000  1.0 0.1124914112
H  H91  1  0.38760000  0.61920000  0.98670000  1.0 0.1124914112
H  H92  1  0.61240000  0.11920000  0.51330000  1.0 0.1124914112
H  H93  1  0.38240000  0.55240000  0.15900000  1.0 0.1124914112
H  H94  1  0.61760000  0.05240000  0.34100000  1.0 0.1124914112
H  H95  1  0.61760000  0.44760000  0.84100000  1.0 0.1124914112
H  H96  1  0.38240000  0.94760000  0.65900000  1.0 0.1124914112
H  H97  1  0.32420000  0.62180000  0.20930000  1.0 0.1194217206
H  H98  1  0.67580000  0.12180000  0.29070000  1.0 0.1194217206
H  H99  1  0.67580000  0.37820000  0.79070000  1.0 0.1194217206
H  H100  1  0.32420000  0.87820000  0.70930000  1.0 0.1194217206
H  H101  1  0.98380000  0.64430000  0.05290000  1.0 0.1194217206
H  H102  1  0.01620000  0.14430000  0.44710000  1.0 0.1194217206
H  H103  1  0.01620000  0.35570000  0.94710000  1.0 0.1194217206
H  H104  1  0.98380000  0.85570000  0.55290000  1.0 0.1194217206
H  H105  1  0.03520000  0.57370000  0.00470000  1.0 0.1124914112
H  H106  1  0.96480000  0.07370000  0.49530000  1.0 0.1124914112
H  H107  1  0.96480000  0.42630000  0.99530000  1.0 0.1124914112
H  H108  1  0.03520000  0.92630000  0.50470000  1.0 0.1124914112
C  C1  1  0.40170000  0.39556000  0.49000000  1.0 -0.2590941143
C  C2  1  0.59830000  0.89556000  0.01000000  1.0 -0.2590941143
C  C3  1  0.59830000  0.60444000  0.51000000  1.0 -0.2590941143
C  C4  1  0.40170000  0.10444000  0.99000000  1.0 -0.2590941143
C  C5  1  0.47200000  0.40462000  0.55687000  1.0 0.2114938223
C  C6  1  0.52800000  0.90462000  0.94313000  1.0 0.2114938223
C  C7  1  0.52800000  0.59538000  0.44313000  1.0 0.2114938223
C  C8  1  0.47200000  0.09538000  0.05687000  1.0 0.2114938223
C  C9  1  0.44650000  0.37687000  0.61456000  1.0 -0.2359062274
C  C10  1  0.55350000  0.87687000  0.88544000  1.0 -0.2359062274
C  C11  1  0.55350000  0.62313000  0.38544000  1.0 -0.2359062274
C  C12  1  0.44650000  0.12313000  0.11456000  1.0 -0.2359062274
C  C13  1  0.34780000  0.33934000  0.60263000  1.0 0.2114938223
C  C14  1  0.65220000  0.83934000  0.89737000  1.0 0.2114938223
C  C15  1  0.65220000  0.66066000  0.39737000  1.0 0.2114938223
C  C16  1  0.34780000  0.16066000  0.10263000  1.0 0.2114938223
C  C17  1  0.27870000  0.32837000  0.53636000  1.0 -0.2520666409
C  C18  1  0.72130000  0.82837000  0.96364000  1.0 -0.2520666409
C  C19  1  0.72130000  0.67163000  0.46364000  1.0 -0.2520666409
C  C20  1  0.27870000  0.17163000  0.03636000  1.0 -0.2520666409
C  C21  1  0.30610000  0.35692000  0.47977000  1.0 0.2114938223
C  C22  1  0.69390000  0.85692000  0.02023000  1.0 0.2114938223
C  C23  1  0.69390000  0.64308000  0.52023000  1.0 0.2114938223
C  C24  1  0.30610000  0.14308000  0.97977000  1.0 0.2114938223
C  C25  1  0.68880000  0.45373000  0.51965000  1.0 0.1124914112
C  C26  1  0.31120000  0.95373000  0.98035000  1.0 0.1124914112
C  C27  1  0.31120000  0.54627000  0.48035000  1.0 0.1124914112
C  C28  1  0.68880000  0.04627000  0.01965000  1.0 0.1124914112
C  C29  1  0.74360000  0.49394000  0.61280000  1.0 -0.0438009751
C  C30  1  0.25640000  0.99394000  0.88720000  1.0 -0.0438009751
C  C31  1  0.25640000  0.50606000  0.38720000  1.0 -0.0438009751
C  C32  1  0.74360000  0.00606000  0.11280000  1.0 -0.0438009751
C  C33  1  0.61490000  0.46834000  0.62600000  1.0 -0.1096170507
C  C34  1  0.38510000  0.96834000  0.87400000  1.0 -0.1096170507
C  C35  1  0.38510000  0.53166000  0.37400000  1.0 -0.1096170507
C  C36  1  0.61490000  0.03166000  0.12600000  1.0 -0.1096170507
C  C37  1  0.16810000  0.29587000  0.67590000  1.0 0.1194217206
C  C38  1  0.83190000  0.79587000  0.82410000  1.0 0.1194217206
C  C39  1  0.83190000  0.70413000  0.32410000  1.0 0.1194217206
C  C40  1  0.16810000  0.20413000  0.17590000  1.0 0.1194217206
C  C41  1  0.42040000  0.29576000  0.71600000  1.0 -0.1010638465
C  C42  1  0.57960000  0.79576000  0.78400000  1.0 -0.1010638465
C  C43  1  0.57960000  0.70424000  0.28400000  1.0 -0.1010638465
C  C44  1  0.42040000  0.20424000  0.21600000  1.0 -0.1010638465
C  C45  1  0.33190000  0.27188000  0.76020000  1.0 -0.0282740126
C  C46  1  0.66810000  0.77188000  0.73980000  1.0 -0.0282740126
C  C47  1  0.66810000  0.72812000  0.23980000  1.0 -0.0282740126
C  C48  1  0.33190000  0.22812000  0.26020000  1.0 -0.0282740126
C  C49  1  0.14990000  0.30944000  0.39183000  1.0 0.1124914112
C  C50  1  0.85010000  0.80944000  0.10817000  1.0 0.1124914112
C  C51  1  0.85010000  0.69056000  0.60817000  1.0 0.1124914112
C  C52  1  0.14990000  0.19056000  0.89183000  1.0 0.1124914112
C  C53  1  0.16120000  0.34772000  0.29820000  1.0 -0.0206699101
C  C54  1  0.83880000  0.84772000  0.20180000  1.0 -0.0206699101
C  C55  1  0.83880000  0.65228000  0.70180000  1.0 -0.0206699101
C  C56  1  0.16120000  0.15228000  0.79820000  1.0 -0.0206699101
C  C57  1  0.24060000  0.37124000  0.34990000  1.0 -0.1096170507
C  C58  1  0.75940000  0.87124000  0.15010000  1.0 -0.1096170507
C  C59  1  0.75940000  0.62876000  0.65010000  1.0 -0.1096170507
C  C60  1  0.24060000  0.12876000  0.84990000  1.0 -0.1096170507
C  C61  1  0.17320000  0.45493000  0.70860000  1.0 -0.0206699101
C  C62  1  0.82680000  0.95493000  0.79140000  1.0 -0.0206699101
C  C63  1  0.82680000  0.54507000  0.29140000  1.0 -0.0206699101
C  C64  1  0.17320000  0.04507000  0.20860000  1.0 -0.0206699101
C  C65  1  0.20890000  0.49718000  0.73937000  1.0 -0.1096170507
C  C66  1  0.79110000  0.99718000  0.76063000  1.0 -0.1096170507
C  C67  1  0.79110000  0.50282000  0.26063000  1.0 -0.1096170507
C  C68  1  0.20890000  0.00282000  0.23937000  1.0 -0.1096170507
C  C69  1  0.24770000  0.50074000  0.81201000  1.0 -0.1512942564
C  C70  1  0.75230000  0.00074000  0.68799000  1.0 -0.1512942564
C  C71  1  0.75230000  0.49926000  0.18799000  1.0 -0.1512942564
C  C72  1  0.24770000  0.99926000  0.31201000  1.0 -0.1512942564
C  C73  1  0.24980000  0.46231000  0.85569000  1.0 0.0699837063
C  C74  1  0.75020000  0.96231000  0.64431000  1.0 0.0648842092
C  C75  1  0.75020000  0.53769000  0.14431000  1.0 0.0699837063
C  C76  1  0.24980000  0.03769000  0.35569000  1.0 0.0699837063
C  C77  1  0.22040000  0.42007000  0.82387000  1.0 -0.1439320472
C  C78  1  0.77960000  0.92007000  0.67613000  1.0 -0.1439320472
C  C79  1  0.77960000  0.57993000  0.17613000  1.0 -0.1439320472
C  C80  1  0.22040000  0.07993000  0.32387000  1.0 -0.1439320472
C  C81  1  0.18180000  0.41653000  0.75162000  1.0 -0.1096170507
C  C82  1  0.81820000  0.91653000  0.74838000  1.0 -0.1096170507
C  C83  1  0.81820000  0.58347000  0.24838000  1.0 -0.1096170507
C  C84  1  0.18180000  0.08347000  0.25162000  1.0 -0.1096170507
C  C85  1  0.28050000  0.46668000  0.93407000  1.0 0.080772016
C  C86  1  0.71950000  0.96668000  0.56593000  1.0 0.080772016
C  C87  1  0.71950000  0.53332000  0.06593000  1.0 0.080772016
C  C88  1  0.28050000  0.03332000  0.43407000  1.0 0.080772016
C  C89  1  0.23310000  0.50629000  0.96839000  1.0 -0.1886929759
C  C90  1  0.76690000  0.00629000  0.53161000  1.0 -0.1886929759
C  C91  1  0.76690000  0.49371000  0.03161000  1.0 -0.1886929759
C  C92  1  0.23310000  0.99371000  0.46839000  1.0 -0.1886929759
C  C93  1  0.25840000  0.51158000  0.04174000  1.0 0.080772016
C  C94  1  0.74160000  0.01158000  0.45826000  1.0 0.080772016
C  C95  1  0.74160000  0.48842000  0.95826000  1.0 0.080772016
C  C96  1  0.25840000  0.98842000  0.54174000  1.0 0.080772016
C  C97  1  0.33210000  0.47583000  0.08085000  1.0 -0.1886929759
C  C98  1  0.66790000  0.97583000  0.41915000  1.0 -0.1886929759
C  C99  1  0.66790000  0.52417000  0.91915000  1.0 -0.1886929759
C  C100  1  0.33210000  0.02417000  0.58085000  1.0 -0.1886929759
C  C101  1  0.38170000  0.43618000  0.04845000  1.0 0.080772016
C  C102  1  0.61830000  0.93618000  0.45155000  1.0 0.080772016
C  C103  1  0.61830000  0.56382000  0.95155000  1.0 0.080772016
C  C104  1  0.38170000  0.06382000  0.54845000  1.0 0.080772016
C  C105  1  0.35420000  0.43181000  0.97494000  1.0 -0.1886929759
C  C106  1  0.64580000  0.93181000  0.52506000  1.0 -0.1886929759
C  C107  1  0.64580000  0.56819000  0.02506000  1.0 -0.1886929759
C  C108  1  0.35420000  0.06819000  0.47494000  1.0 -0.1886929759
C  C109  1  0.47450000  0.40067000  0.09072000  1.0 0.0699837063
C  C110  1  0.52550000  0.90067000  0.40928000  1.0 0.0699837063
C  C111  1  0.52550000  0.59933000  0.90928000  1.0 0.0699837063
C  C112  1  0.47450000  0.09933000  0.59072000  1.0 0.0699837063
C  C113  1  0.44960000  0.39218000  0.16170000  1.0 -0.1592916929
C  C114  1  0.55040000  0.89218000  0.33830000  1.0 -0.1592916929
C  C115  1  0.55040000  0.60782000  0.83830000  1.0 -0.1592916929
C  C116  1  0.44960000  0.10782000  0.66170000  1.0 -0.1592916929
C  C117  1  0.54570000  0.36135000  0.20128000  1.0 -0.1010638465
C  C118  1  0.45430000  0.86135000  0.29872000  1.0 -0.1010638465
C  C119  1  0.45430000  0.63865000  0.79872000  1.0 -0.1010638465
C  C120  1  0.54570000  0.13865000  0.70128000  1.0 -0.1010638465
C  C121  1  0.66810000  0.33811000  0.17119000  1.0 -0.0206699101
C  C122  1  0.33190000  0.83811000  0.32881000  1.0 -0.0206699101
C  C123  1  0.33190000  0.66189000  0.82881000  1.0 -0.0206699101
C  C124  1  0.66810000  0.16189000  0.67119000  1.0 -0.0206699101
C  C125  1  0.69190000  0.34602000  0.10050000  1.0 -0.093393809
C  C126  1  0.30810000  0.84602000  0.39950000  1.0 -0.093393809
C  C127  1  0.30810000  0.65398000  0.89950000  1.0 -0.093393809
C  C128  1  0.69190000  0.15398000  0.60050000  1.0 -0.093393809
C  C129  1  0.59580000  0.37639000  0.06106000  1.0 -0.1512942564
C  C130  1  0.40420000  0.87639000  0.43894000  1.0 -0.1512942564
C  C131  1  0.40420000  0.62361000  0.93894000  1.0 -0.1512942564
C  C132  1  0.59580000  0.12361000  0.56106000  1.0 -0.1512942564
C  C133  1  0.77770000  0.30683000  0.21449000  1.0 0.5373080533
C  C134  1  0.22230000  0.80683000  0.28551000  1.0 0.5373080533
C  C135  1  0.22230000  0.69317000  0.78551000  1.0 0.5373080533
C  C136  1  0.77770000  0.19317000  0.71449000  1.0 0.5344090025
C  C137  1  0.21610000  0.55522000  0.07567000  1.0 0.0699837063
C  C138  1  0.78390000  0.05522000  0.42433000  1.0 0.0699837063
C  C139  1  0.78390000  0.44478000  0.92433000  1.0 0.0699837063
C  C140  1  0.21610000  0.94478000  0.57567000  1.0 0.0699837063
C  C141  1  0.30110000  0.57055000  0.13760000  1.0 -0.1592916929
C  C142  1  0.69890000  0.07055000  0.36240000  1.0 -0.1592916929
C  C143  1  0.69890000  0.42945000  0.86240000  1.0 -0.1592916929
C  C144  1  0.30110000  0.92945000  0.63760000  1.0 -0.1592916929
C  C145  1  0.26640000  0.61234000  0.16780000  1.0 -0.1010638465
C  C146  1  0.73360000  0.11234000  0.33220000  1.0 -0.1010638465
C  C147  1  0.73360000  0.38766000  0.83220000  1.0 -0.1010638465
C  C148  1  0.26640000  0.88766000  0.66780000  1.0 -0.1010638465
C  C149  1  0.14700000  0.64019000  0.13709000  1.0 -0.0206699101
C  C150  1  0.85300000  0.14019000  0.36291000  1.0 -0.0206699101
C  C151  1  0.85300000  0.35981000  0.86291000  1.0 -0.0206699101
C  C152  1  0.14700000  0.85981000  0.63709000  1.0 -0.0206699101
C  C153  1  0.06270000  0.62562000  0.07493000  1.0 -0.1010638465
C  C154  1  0.93730000  0.12562000  0.42507000  1.0 -0.1096170507
C  C155  1  0.93730000  0.37438000  0.92507000  1.0 -0.1096170507
C  C156  1  0.06270000  0.87438000  0.57493000  1.0 -0.1096170507
C  C157  1  0.09530000  0.58335000  0.04547000  1.0 -0.1512942564
C  C158  1  0.90470000  0.08335000  0.45453000  1.0 -0.1512942564
C  C159  1  0.90470000  0.41665000  0.95453000  1.0 -0.1512942564
C  C160  1  0.09530000  0.91665000  0.54547000  1.0 -0.1512942564
C  C161  1  0.10680000  0.68459000  0.17024000  1.0 0.5373080533
C  C162  1  0.89320000  0.18459000  0.32976000  1.0 0.5373080533
C  C163  1  0.89320000  0.31541000  0.82976000  1.0 0.5373080533
C  C164  1  0.10680000  0.81541000  0.67024000  1.0 0.5373080533
C  C165  1  0.11860000  0.45164000  0.63068000  1.0 0.5457422893
C  C166  1  0.88140000  0.95164000  0.86932000  1.0 0.5457422893
C  C167  1  0.88140000  0.54836000  0.36932000  1.0 0.5457422893
C  C168  1  0.11860000  0.04836000  0.13068000  1.0 0.5457422893
N  N1  1  0.78960000  0.48475000  0.54591000  1.0 -0.2590941143
N  N2  1  0.21040000  0.98475000  0.95409000  1.0 -0.2590941143
N  N3  1  0.21040000  0.51525000  0.45409000  1.0 -0.2590941143
N  N4  1  0.78960000  0.01525000  0.04591000  1.0 -0.2590941143
N  N5  1  0.57960000  0.44247000  0.56602000  1.0 0.0078291327
N  N6  1  0.42040000  0.94247000  0.93398000  1.0 0.0078291327
N  N7  1  0.42040000  0.55753000  0.43398000  1.0 0.0078291327
N  N8  1  0.57960000  0.05753000  0.06602000  1.0 0.0078291327
N  N9  1  0.17340000  0.27233000  0.73525000  1.0 -0.2723120887
N  N10  1  0.82660000  0.77233000  0.76475000  1.0 -0.2723120887
N  N11  1  0.82660000  0.72767000  0.26475000  1.0 -0.2723120887
N  N12  1  0.17340000  0.22767000  0.23525000  1.0 -0.2723120887
N  N13  1  0.31420000  0.31097000  0.66178000  1.0 -0.0012430235
N  N14  1  0.68580000  0.81097000  0.83822000  1.0 -0.0012430235
N  N15  1  0.68580000  0.68903000  0.33822000  1.0 -0.0012430235
N  N16  1  0.31420000  0.18903000  0.16178000  1.0 -0.0012430235
N  N17  1  0.10420000  0.30850000  0.32450000  1.0 -0.2520666409
N  N18  1  0.89580000  0.80850000  0.17550000  1.0 -0.2520666409
N  N19  1  0.89580000  0.69150000  0.67550000  1.0 -0.2520666409
N  N20  1  0.10420000  0.19150000  0.82450000  1.0 -0.2520666409
N  N21  1  0.23640000  0.34639000  0.41075000  1.0 0.0078291327
N  N22  1  0.76360000  0.84639000  0.08925000  1.0 0.0078291327
N  N23  1  0.76360000  0.65361000  0.58925000  1.0 0.0078291327
N  N24  1  0.23640000  0.15361000  0.91075000  1.0 0.0078291327
O  O1  1  0.12760000  0.48786000  0.59468000  1.0 -0.5705714662
O  O2  1  0.87240000  0.98786000  0.90532000  1.0 -0.5705714662
O  O3  1  0.87240000  0.51214000  0.40532000  1.0 -0.5705714662
O  O4  1  0.12760000  0.01214000  0.09468000  1.0 -0.5705714662
O  O5  1  0.06720000  0.41381000  0.60742000  1.0 -0.5705714662
O  O6  1  0.93280000  0.91381000  0.89258000  1.0 -0.5705714662
O  O7  1  0.93280000  0.58619000  0.39258000  1.0 -0.5705714662
O  O8  1  0.06720000  0.08619000  0.10742000  1.0 -0.5705714662
O  O9  1  0.89600000  0.28960000  0.18591000  1.0 -0.5325449396
O  O10  1  0.10400000  0.78960000  0.31409000  1.0 -0.5325449396
O  O11  1  0.10400000  0.71040000  0.81409000  1.0 -0.5325449396
O  O12  1  0.89600000  0.21040000  0.68591000  1.0 -0.5325449396
O  O13  1  0.75480000  0.29794000  0.27826000  1.0 -0.5325449396
O  O14  1  0.24520000  0.79794000  0.22174000  1.0 -0.5325449396
O  O15  1  0.24520000  0.70206000  0.72174000  1.0 -0.5325449396
O  O16  1  0.75480000  0.20206000  0.77826000  1.0 -0.5325449396
O  O17  1  0.01780000  0.71340000  0.13558000  1.0 -0.5393043596
O  O18  1  0.98220000  0.21340000  0.36442000  1.0 -0.5393043596
O  O19  1  0.98220000  0.28660000  0.86442000  1.0 -0.5393043596
O  O20  1  0.01780000  0.78660000  0.63558000  1.0 -0.5393043596
O  O21  1  0.15780000  0.69387000  0.23342000  1.0 -0.5248051126
O  O22  1  0.84220000  0.19387000  0.26658000  1.0 -0.5248051126
O  O23  1  0.84220000  0.30613000  0.76658000  1.0 -0.5248051126
O  O24  1  0.15780000  0.80613000  0.73342000  1.0 -0.5248051126
