# DDEC6 charges by PACMAN v1.1 (https://github.com/mtap-research/PACMAN-charge/)
data_EBELUU_ASR_pacman
_symmetry_space_group_name_H-M   'P 1'
_cell_length_a   7.36200000
_cell_length_b   12.94600000
_cell_length_c   13.62800000
_cell_angle_alpha   90.00000000
_cell_angle_beta   91.31200000
_cell_angle_gamma   90.00000000
_symmetry_Int_Tables_number   1
_chemical_formula_structural   ZnNiH8C15N7O
_chemical_formula_sum   'Zn2 Ni2 H16 C30 N14 O2'
_cell_volume   1298.52306829
_cell_formula_units_Z   2
loop_
 _symmetry_equiv_pos_site_id
 _symmetry_equiv_pos_as_xyz
  1  'x, y, z'
loop_
 _atom_site_type_symbol
 _atom_site_label
 _atom_site_symmetry_multiplicity
 _atom_site_fract_x
 _atom_site_fract_y
 _atom_site_fract_z
 _atom_site_occupancy
 _atom_site_charge
Zn  Zn1  1  0.50024000  0.25000000  0.08624000  1.0 0.8142399735
Zn  Zn2  1  0.49976000  0.75000000  0.91376000  1.0 0.8142399735
Ni  Ni1  1  0.00000000  0.00000000  0.00000000  1.0 0.1187503732
Ni  Ni2  1  0.00000000  0.50000000  0.00000000  1.0 0.1187503732
H  H1  1  0.52110000  0.40440000  0.90970000  1.0 0.1187503732
H  H2  1  0.47890000  0.90440000  0.09030000  1.0 0.1187503732
H  H3  1  0.47890000  0.59560000  0.09030000  1.0 0.1187503732
H  H4  1  0.52110000  0.09560000  0.90970000  1.0 0.1187503732
H  H5  1  0.56360000  0.40350000  0.74120000  1.0 0.1376905165
H  H6  1  0.43640000  0.90350000  0.25880000  1.0 0.1376905165
H  H7  1  0.43640000  0.59650000  0.25880000  1.0 0.1376905165
H  H8  1  0.56360000  0.09650000  0.74120000  1.0 0.1376905165
H  H9  1  0.45870000  0.40480000  0.43370000  1.0 0.1506017691
H  H10  1  0.54130000  0.90480000  0.56630000  1.0 0.1506017691
H  H11  1  0.54130000  0.59520000  0.56630000  1.0 0.1506017691
H  H12  1  0.45870000  0.09520000  0.43370000  1.0 0.1506017691
H  H13  1  0.50470000  0.40270000  0.26510000  1.0 0.1083111288
H  H14  1  0.49530000  0.90270000  0.73490000  1.0 0.1083111288
H  H15  1  0.49530000  0.59730000  0.73490000  1.0 0.1083111288
H  H16  1  0.50470000  0.09730000  0.26510000  1.0 0.1083111288
C  C1  1  0.82770000  0.07820000  0.04640000  1.0 0.0452349729
C  C2  1  0.17230000  0.57820000  0.95360000  1.0 0.0452349729
C  C3  1  0.17230000  0.92180000  0.95360000  1.0 0.0452349729
C  C4  1  0.82770000  0.42180000  0.04640000  1.0 0.0452349729
C  C5  1  0.19950000  0.09170000  0.03780000  1.0 0.1083111288
C  C6  1  0.80050000  0.59170000  0.96220000  1.0 0.1083111288
C  C7  1  0.80050000  0.90830000  0.96220000  1.0 0.1083111288
C  C8  1  0.19950000  0.40830000  0.03780000  1.0 0.1083111288
C  C9  1  0.53060000  0.34180000  0.87670000  1.0 0.0990691579
C  C10  1  0.46940000  0.84180000  0.12330000  1.0 0.0990691579
C  C11  1  0.46940000  0.65820000  0.12330000  1.0 0.0990691579
C  C12  1  0.53060000  0.15820000  0.87670000  1.0 0.0990691579
C  C13  1  0.55170000  0.34140000  0.77470000  1.0 -0.1497473621
C  C14  1  0.44830000  0.84140000  0.22530000  1.0 -0.1497473621
C  C15  1  0.44830000  0.65860000  0.22530000  1.0 -0.1497473621
C  C16  1  0.55170000  0.15860000  0.77470000  1.0 -0.1497473621
C  C17  1  0.55470000  0.25000000  0.72390000  1.0 0.0437980949
C  C18  1  0.44530000  0.75000000  0.27610000  1.0 0.0437980949
C  C19  1  0.57580000  0.25000000  0.61500000  1.0 0.419886554
C  C20  1  0.42420000  0.75000000  0.38500000  1.0 0.419886554
C  C21  1  0.45930000  0.25000000  0.44870000  1.0 0.2646516508
C  C22  1  0.54070000  0.75000000  0.55130000  1.0 0.2646516508
C  C23  1  0.46900000  0.34250000  0.40020000  1.0 -0.1919474655
C  C24  1  0.53100000  0.84250000  0.59980000  1.0 -0.1919474655
C  C25  1  0.53100000  0.65750000  0.59980000  1.0 -0.1919474655
C  C26  1  0.46900000  0.15750000  0.40020000  1.0 -0.1919474655
C  C27  1  0.49480000  0.34070000  0.29900000  1.0 0.1083111288
C  C28  1  0.50520000  0.84070000  0.70100000  1.0 0.1083111288
C  C29  1  0.50520000  0.65930000  0.70100000  1.0 0.1083111288
C  C30  1  0.49480000  0.15930000  0.29900000  1.0 0.1083111288
N  N1  1  0.30550000  0.13980000  0.07650000  1.0 -0.3603980892
N  N2  1  0.69450000  0.63980000  0.92350000  1.0 -0.3603980892
N  N3  1  0.69450000  0.86020000  0.92350000  1.0 -0.3603980892
N  N4  1  0.30550000  0.36020000  0.07650000  1.0 -0.3603980892
N  N5  1  0.71030000  0.13360000  0.07770000  1.0 -0.3797456973
N  N6  1  0.28970000  0.63360000  0.92230000  1.0 -0.3797456973
N  N7  1  0.28970000  0.86640000  0.92230000  1.0 -0.3797456973
N  N8  1  0.71030000  0.36640000  0.07770000  1.0 -0.3797456973
N  N9  1  0.52380000  0.25000000  0.92900000  1.0 -0.2047755473
N  N10  1  0.47620000  0.75000000  0.07100000  1.0 -0.2047755473
N  N11  1  0.43970000  0.25000000  0.55900000  1.0 -0.3797456973
N  N12  1  0.56030000  0.75000000  0.44100000  1.0 -0.3797456973
N  N13  1  0.50570000  0.25000000  0.24890000  1.0 -0.208446955
N  N14  1  0.49430000  0.75000000  0.75110000  1.0 -0.208446955
O  O1  1  0.73120000  0.25000000  0.57740000  1.0 -0.4572415703
O  O2  1  0.26880000  0.75000000  0.42260000  1.0 -0.4572415703
