# DDEC6 charges by PACMAN v1.1 (https://github.com/mtap-research/PACMAN-charge/)
data_EBIJAC_ASR_pacman
_symmetry_space_group_name_H-M   'P 1'
_cell_length_a   16.61440000
_cell_length_b   17.86620000
_cell_length_c   32.78200000
_cell_angle_alpha   90.00000000
_cell_angle_beta   90.00000000
_cell_angle_gamma   90.00000000
_symmetry_Int_Tables_number   1
_chemical_formula_structural   Cd2H35C43N3O11
_chemical_formula_sum   'Cd16 H280 C344 N24 O88'
_cell_volume   9730.88408810
_cell_formula_units_Z   8
loop_
 _symmetry_equiv_pos_site_id
 _symmetry_equiv_pos_as_xyz
  1  'x, y, z'
loop_
 _atom_site_type_symbol
 _atom_site_label
 _atom_site_symmetry_multiplicity
 _atom_site_fract_x
 _atom_site_fract_y
 _atom_site_fract_z
 _atom_site_occupancy
 _atom_site_charge
Cd  Cd1  1  0.79506000  0.29701000  0.83744000  1.0 0.9758199982
Cd  Cd2  1  0.20494000  0.29701000  0.66256000  1.0 0.9758199982
Cd  Cd3  1  0.20494000  0.20299000  0.33744000  1.0 0.9748544506
Cd  Cd4  1  0.79506000  0.20299000  0.16256000  1.0 0.9758199982
Cd  Cd5  1  0.20494000  0.70299000  0.16256000  1.0 0.9748544506
Cd  Cd6  1  0.79506000  0.70299000  0.33744000  1.0 0.9748544506
Cd  Cd7  1  0.79506000  0.79701000  0.66256000  1.0 0.9758199982
Cd  Cd8  1  0.20494000  0.79701000  0.83744000  1.0 0.9758199982
Cd  Cd9  1  0.70278000  0.47252000  0.86935000  1.0 1.0782600604
Cd  Cd10  1  0.29722000  0.47252000  0.63065000  1.0 1.0782600604
Cd  Cd11  1  0.29722000  0.02748000  0.36935000  1.0 1.0782600604
Cd  Cd12  1  0.70278000  0.02748000  0.13065000  1.0 1.0782600604
Cd  Cd13  1  0.29722000  0.52748000  0.13065000  1.0 1.0782600604
Cd  Cd14  1  0.70278000  0.52748000  0.36935000  1.0 1.0782600604
Cd  Cd15  1  0.70278000  0.97252000  0.63065000  1.0 1.0782600604
Cd  Cd16  1  0.29722000  0.97252000  0.86935000  1.0 1.0782600604
H  H1  1  0.11700000  0.22030000  0.75970000  1.0 0.1305094833
H  H2  1  0.88300000  0.22030000  0.74030000  1.0 0.1305094833
H  H3  1  0.88300000  0.27970000  0.25970000  1.0 0.1305094833
H  H4  1  0.11700000  0.27970000  0.24030000  1.0 0.1305094833
H  H5  1  0.88300000  0.77970000  0.24030000  1.0 0.1305094833
H  H6  1  0.11700000  0.77970000  0.25970000  1.0 0.1305094833
H  H7  1  0.11700000  0.72030000  0.74030000  1.0 0.1305094833
H  H8  1  0.88300000  0.72030000  0.75970000  1.0 0.1305094833
H  H9  1  0.18110000  0.10670000  0.75920000  1.0 0.1595805965
H  H10  1  0.81890000  0.10670000  0.74080000  1.0 0.1595805965
H  H11  1  0.81890000  0.39330000  0.25920000  1.0 0.1595805965
H  H12  1  0.18110000  0.39330000  0.24080000  1.0 0.1595805965
H  H13  1  0.81890000  0.89330000  0.24080000  1.0 0.1595805965
H  H14  1  0.18110000  0.89330000  0.25920000  1.0 0.1595805965
H  H15  1  0.18110000  0.60670000  0.74080000  1.0 0.1595805965
H  H16  1  0.81890000  0.60670000  0.75920000  1.0 0.1595805965
H  H17  1  0.26020000  0.14360000  0.87350000  1.0 0.1520149782
H  H18  1  0.73980000  0.14360000  0.62650000  1.0 0.1520149782
H  H19  1  0.73980000  0.35640000  0.37350000  1.0 0.1520149782
H  H20  1  0.26020000  0.35640000  0.12650000  1.0 0.1520149782
H  H21  1  0.73980000  0.85640000  0.12650000  1.0 0.1520149782
H  H22  1  0.26020000  0.85640000  0.37350000  1.0 0.1520149782
H  H23  1  0.26020000  0.64360000  0.62650000  1.0 0.1520149782
H  H24  1  0.73980000  0.64360000  0.87350000  1.0 0.1520149782
H  H25  1  0.19280000  0.25550000  0.87450000  1.0 0.1305094833
H  H26  1  0.80720000  0.25550000  0.62550000  1.0 0.1305094833
H  H27  1  0.80720000  0.24450000  0.37450000  1.0 0.1305094833
H  H28  1  0.19280000  0.24450000  0.12550000  1.0 0.1305094833
H  H29  1  0.80720000  0.74450000  0.12550000  1.0 0.1305094833
H  H30  1  0.19280000  0.74450000  0.37450000  1.0 0.1305094833
H  H31  1  0.19280000  0.75550000  0.62550000  1.0 0.1305094833
H  H32  1  0.80720000  0.75550000  0.87450000  1.0 0.1305094833
H  H33  1  0.04410000  0.31050000  0.82730000  1.0 0.1305094833
H  H34  1  0.95590000  0.31050000  0.67270000  1.0 0.1305094833
H  H35  1  0.95590000  0.18950000  0.32730000  1.0 0.1305094833
H  H36  1  0.04410000  0.18950000  0.17270000  1.0 0.1305094833
H  H37  1  0.95590000  0.68950000  0.17270000  1.0 0.1305094833
H  H38  1  0.04410000  0.68950000  0.32730000  1.0 0.1305094833
H  H39  1  0.04410000  0.81050000  0.67270000  1.0 0.1305094833
H  H40  1  0.95590000  0.81050000  0.82730000  1.0 0.1305094833
H  H41  1  0.08790000  0.33490000  0.78710000  1.0 0.1305094833
H  H42  1  0.91210000  0.33490000  0.71290000  1.0 0.1305094833
H  H43  1  0.91210000  0.16510000  0.28710000  1.0 0.1305094833
H  H44  1  0.08790000  0.16510000  0.21290000  1.0 0.1305094833
H  H45  1  0.91210000  0.66510000  0.21290000  1.0 0.1305094833
H  H46  1  0.08790000  0.66510000  0.28710000  1.0 0.1305094833
H  H47  1  0.08790000  0.83490000  0.71290000  1.0 0.1305094833
H  H48  1  0.91210000  0.83490000  0.78710000  1.0 0.1305094833
H  H49  1  0.20330000  0.43100000  0.75420000  1.0 0.1520149782
H  H50  1  0.79670000  0.43100000  0.74580000  1.0 0.1520149782
H  H51  1  0.79670000  0.06900000  0.25420000  1.0 0.1520149782
H  H52  1  0.20330000  0.06900000  0.24580000  1.0 0.1520149782
H  H53  1  0.79670000  0.56900000  0.24580000  1.0 0.1520149782
H  H54  1  0.20330000  0.56900000  0.25420000  1.0 0.1520149782
H  H55  1  0.20330000  0.93100000  0.74580000  1.0 0.1520149782
H  H56  1  0.79670000  0.93100000  0.75420000  1.0 0.1520149782
H  H57  1  0.28330000  0.40630000  0.77570000  1.0 0.1305094833
H  H58  1  0.71670000  0.40630000  0.72430000  1.0 0.1305094833
H  H59  1  0.71670000  0.09370000  0.27570000  1.0 0.1305094833
H  H60  1  0.28330000  0.09370000  0.22430000  1.0 0.1305094833
H  H61  1  0.71670000  0.59370000  0.22430000  1.0 0.1305094833
H  H62  1  0.28330000  0.59370000  0.27570000  1.0 0.1305094833
H  H63  1  0.28330000  0.90630000  0.72430000  1.0 0.1305094833
H  H64  1  0.71670000  0.90630000  0.77570000  1.0 0.1305094833
H  H65  1  0.21190000  0.34950000  0.77140000  1.0 0.1305094833
H  H66  1  0.78810000  0.34950000  0.72860000  1.0 0.1305094833
H  H67  1  0.78810000  0.15050000  0.27140000  1.0 0.1305094833
H  H68  1  0.21190000  0.15050000  0.22860000  1.0 0.1305094833
H  H69  1  0.78810000  0.65050000  0.22860000  1.0 0.1305094833
H  H70  1  0.21190000  0.65050000  0.27140000  1.0 0.1305094833
H  H71  1  0.21190000  0.84950000  0.72860000  1.0 0.1305094833
H  H72  1  0.78810000  0.84950000  0.77140000  1.0 0.1305094833
H  H73  1  0.04970000  0.30470000  0.88900000  1.0 0.1364609115
H  H74  1  0.95030000  0.30470000  0.61100000  1.0 0.1364609115
H  H75  1  0.95030000  0.19530000  0.38900000  1.0 0.1364609115
H  H76  1  0.04970000  0.19530000  0.11100000  1.0 0.1364609115
H  H77  1  0.95030000  0.69530000  0.11100000  1.0 0.1364609115
H  H78  1  0.04970000  0.69530000  0.38900000  1.0 0.1364609115
H  H79  1  0.04970000  0.80470000  0.61100000  1.0 0.1364609115
H  H80  1  0.95030000  0.80470000  0.88900000  1.0 0.1364609115
H  H81  1  0.04780000  0.36170000  0.92540000  1.0 0.1305094833
H  H82  1  0.95220000  0.36170000  0.57460000  1.0 0.1305094833
H  H83  1  0.95220000  0.13830000  0.42540000  1.0 0.1305094833
H  H84  1  0.04780000  0.13830000  0.07460000  1.0 0.1305094833
H  H85  1  0.95220000  0.63830000  0.07460000  1.0 0.1305094833
H  H86  1  0.04780000  0.63830000  0.42540000  1.0 0.1305094833
H  H87  1  0.04780000  0.86170000  0.57460000  1.0 0.1305094833
H  H88  1  0.95220000  0.86170000  0.92540000  1.0 0.1305094833
H  H89  1  0.98990000  0.37260000  0.88810000  1.0 0.1520149782
H  H90  1  0.01010000  0.37260000  0.61190000  1.0 0.1520149782
H  H91  1  0.01010000  0.12740000  0.38810000  1.0 0.1520149782
H  H92  1  0.98990000  0.12740000  0.11190000  1.0 0.1520149782
H  H93  1  0.01010000  0.62740000  0.11190000  1.0 0.1520149782
H  H94  1  0.98990000  0.62740000  0.38810000  1.0 0.1520149782
H  H95  1  0.98990000  0.87260000  0.61190000  1.0 0.1520149782
H  H96  1  0.01010000  0.87260000  0.88810000  1.0 0.1520149782
H  H97  1  0.28140000  0.58590000  0.89160000  1.0 0.1305094833
H  H98  1  0.71860000  0.58590000  0.60840000  1.0 0.1305094833
H  H99  1  0.71860000  0.91410000  0.39160000  1.0 0.1305094833
H  H100  1  0.28140000  0.91410000  0.10840000  1.0 0.1305094833
H  H101  1  0.71860000  0.41410000  0.10840000  1.0 0.1305094833
H  H102  1  0.28140000  0.41410000  0.39160000  1.0 0.1305094833
H  H103  1  0.28140000  0.08590000  0.60840000  1.0 0.1305094833
H  H104  1  0.71860000  0.08590000  0.89160000  1.0 0.1305094833
H  H105  1  0.20270000  0.62930000  0.87980000  1.0 0.1520149782
H  H106  1  0.79730000  0.62930000  0.62020000  1.0 0.1520149782
H  H107  1  0.79730000  0.87070000  0.37980000  1.0 0.1520149782
H  H108  1  0.20270000  0.87070000  0.12020000  1.0 0.1520149782
H  H109  1  0.79730000  0.37070000  0.12020000  1.0 0.1520149782
H  H110  1  0.20270000  0.37070000  0.37980000  1.0 0.1520149782
H  H111  1  0.20270000  0.12930000  0.62020000  1.0 0.1520149782
H  H112  1  0.79730000  0.12930000  0.87980000  1.0 0.1520149782
H  H113  1  0.20840000  0.58780000  0.92190000  1.0 0.1305094833
H  H114  1  0.79160000  0.58780000  0.57810000  1.0 0.1305094833
H  H115  1  0.79160000  0.91220000  0.42190000  1.0 0.1305094833
H  H116  1  0.20840000  0.91220000  0.07810000  1.0 0.1305094833
H  H117  1  0.79160000  0.41220000  0.07810000  1.0 0.1305094833
H  H118  1  0.20840000  0.41220000  0.42190000  1.0 0.1305094833
H  H119  1  0.20840000  0.08780000  0.57810000  1.0 0.1305094833
H  H120  1  0.79160000  0.08780000  0.92190000  1.0 0.1305094833
H  H121  1  0.25760000  0.59290000  0.81430000  1.0 0.1305094833
H  H122  1  0.74240000  0.59290000  0.68570000  1.0 0.1305094833
H  H123  1  0.74240000  0.90710000  0.31430000  1.0 0.1305094833
H  H124  1  0.25760000  0.90710000  0.18570000  1.0 0.1305094833
H  H125  1  0.74240000  0.40710000  0.18570000  1.0 0.1305094833
H  H126  1  0.25760000  0.40710000  0.31430000  1.0 0.1305094833
H  H127  1  0.25760000  0.09290000  0.68570000  1.0 0.1305094833
H  H128  1  0.74240000  0.09290000  0.81430000  1.0 0.1305094833
H  H129  1  0.27800000  0.52750000  0.78420000  1.0 0.1209187229
H  H130  1  0.72200000  0.52750000  0.71580000  1.0 0.1209187229
H  H131  1  0.72200000  0.97250000  0.28420000  1.0 0.1305094833
H  H132  1  0.27800000  0.97250000  0.21580000  1.0 0.1305094833
H  H133  1  0.72200000  0.47250000  0.21580000  1.0 0.1209187229
H  H134  1  0.27800000  0.47250000  0.28420000  1.0 0.1209187229
H  H135  1  0.27800000  0.02750000  0.71580000  1.0 0.1209187229
H  H136  1  0.72200000  0.02750000  0.78420000  1.0 0.1209187229
H  H137  1  0.38030000  0.64870000  0.81400000  1.0 0.1305094833
H  H138  1  0.61970000  0.64870000  0.68600000  1.0 0.1305094833
H  H139  1  0.61970000  0.85130000  0.31400000  1.0 0.1305094833
H  H140  1  0.38030000  0.85130000  0.18600000  1.0 0.1305094833
H  H141  1  0.61970000  0.35130000  0.18600000  1.0 0.1305094833
H  H142  1  0.38030000  0.35130000  0.31400000  1.0 0.1305094833
H  H143  1  0.38030000  0.14870000  0.68600000  1.0 0.1305094833
H  H144  1  0.61970000  0.14870000  0.81400000  1.0 0.1305094833
H  H145  1  0.51580000  0.64510000  0.83320000  1.0 0.1595805965
H  H146  1  0.48420000  0.64510000  0.66680000  1.0 0.1595805965
H  H147  1  0.48420000  0.85490000  0.33320000  1.0 0.1595805965
H  H148  1  0.51580000  0.85490000  0.16680000  1.0 0.1595805965
H  H149  1  0.48420000  0.35490000  0.16680000  1.0 0.1595805965
H  H150  1  0.51580000  0.35490000  0.33320000  1.0 0.1595805965
H  H151  1  0.51580000  0.14510000  0.66680000  1.0 0.1595805965
H  H152  1  0.48420000  0.14510000  0.83320000  1.0 0.1595805965
H  H153  1  0.49750000  0.44470000  0.87440000  1.0 0.1595805965
H  H154  1  0.50250000  0.44470000  0.62560000  1.0 0.1595805965
H  H155  1  0.50250000  0.05530000  0.37440000  1.0 0.1595805965
H  H156  1  0.49750000  0.05530000  0.12560000  1.0 0.1595805965
H  H157  1  0.50250000  0.55530000  0.12560000  1.0 0.1595805965
H  H158  1  0.49750000  0.55530000  0.37440000  1.0 0.1595805965
H  H159  1  0.49750000  0.94470000  0.62560000  1.0 0.1595805965
H  H160  1  0.50250000  0.94470000  0.87440000  1.0 0.1595805965
H  H161  1  0.36950000  0.42980000  0.84470000  1.0 0.1209187229
H  H162  1  0.63050000  0.42980000  0.65530000  1.0 0.1209187229
H  H163  1  0.63050000  0.07020000  0.34470000  1.0 0.1209187229
H  H164  1  0.36950000  0.07020000  0.15530000  1.0 0.1209187229
H  H165  1  0.63050000  0.57020000  0.15530000  1.0 0.1209187229
H  H166  1  0.36950000  0.57020000  0.34470000  1.0 0.1209187229
H  H167  1  0.36950000  0.92980000  0.65530000  1.0 0.1209187229
H  H168  1  0.63050000  0.92980000  0.84470000  1.0 0.1209187229
H  H169  1  0.04110000  0.47980000  0.93730000  1.0 0.1209187229
H  H170  1  0.95890000  0.47980000  0.56270000  1.0 0.1209187229
H  H171  1  0.95890000  0.02020000  0.43730000  1.0 0.1209187229
H  H172  1  0.04110000  0.02020000  0.06270000  1.0 0.1209187229
H  H173  1  0.95890000  0.52020000  0.06270000  1.0 0.1209187229
H  H174  1  0.04110000  0.52020000  0.43730000  1.0 0.1209187229
H  H175  1  0.04110000  0.97980000  0.56270000  1.0 0.1209187229
H  H176  1  0.95890000  0.97980000  0.93730000  1.0 0.1209187229
H  H177  1  0.08580000  0.55550000  0.92850000  1.0 0.1209187229
H  H178  1  0.91420000  0.55550000  0.57150000  1.0 0.1209187229
H  H179  1  0.91420000  0.94450000  0.42850000  1.0 0.1209187229
H  H180  1  0.08580000  0.94450000  0.07150000  1.0 0.1209187229
H  H181  1  0.91420000  0.44450000  0.07150000  1.0 0.1209187229
H  H182  1  0.08580000  0.44450000  0.42850000  1.0 0.1209187229
H  H183  1  0.08580000  0.05550000  0.57150000  1.0 0.1209187229
H  H184  1  0.91420000  0.05550000  0.92850000  1.0 0.1209187229
H  H185  1  0.21040000  0.40250000  0.95050000  1.0 0.1305094833
H  H186  1  0.78960000  0.40250000  0.54950000  1.0 0.1305094833
H  H187  1  0.78960000  0.09750000  0.45050000  1.0 0.1305094833
H  H188  1  0.21040000  0.09750000  0.04950000  1.0 0.1305094833
H  H189  1  0.78960000  0.59750000  0.04950000  1.0 0.1305094833
H  H190  1  0.21040000  0.59750000  0.45050000  1.0 0.1305094833
H  H191  1  0.21040000  0.90250000  0.54950000  1.0 0.1305094833
H  H192  1  0.78960000  0.90250000  0.95050000  1.0 0.1305094833
H  H193  1  0.28140000  0.38400000  0.00820000  1.0 0.1595805965
H  H194  1  0.71860000  0.38400000  0.49180000  1.0 0.1595805965
H  H195  1  0.71860000  0.11600000  0.50820000  1.0 0.1595805965
H  H196  1  0.28140000  0.11600000  0.99180000  1.0 0.1595805965
H  H197  1  0.71860000  0.61600000  0.99180000  1.0 0.1595805965
H  H198  1  0.28140000  0.61600000  0.50820000  1.0 0.1595805965
H  H199  1  0.28140000  0.88400000  0.49180000  1.0 0.1595805965
H  H200  1  0.71860000  0.88400000  0.00820000  1.0 0.1595805965
H  H201  1  0.16020000  0.55430000  0.06100000  1.0 0.1595805965
H  H202  1  0.83980000  0.55430000  0.43900000  1.0 0.1595805965
H  H203  1  0.83980000  0.94570000  0.56100000  1.0 0.1595805965
H  H204  1  0.16020000  0.94570000  0.93900000  1.0 0.1595805965
H  H205  1  0.83980000  0.44570000  0.93900000  1.0 0.1595805965
H  H206  1  0.16020000  0.44570000  0.56100000  1.0 0.1595805965
H  H207  1  0.16020000  0.05430000  0.43900000  1.0 0.1595805965
H  H208  1  0.83980000  0.05430000  0.06100000  1.0 0.1595805965
H  H209  1  0.09240000  0.57140000  0.99900000  1.0 0.1209187229
H  H210  1  0.90760000  0.57140000  0.50100000  1.0 0.1209187229
H  H211  1  0.90760000  0.92860000  0.49900000  1.0 0.1209187229
H  H212  1  0.09240000  0.92860000  0.00100000  1.0 0.1209187229
H  H213  1  0.90760000  0.42860000  0.00100000  1.0 0.1209187229
H  H214  1  0.09240000  0.42860000  0.49900000  1.0 0.1209187229
H  H215  1  0.09240000  0.07140000  0.50100000  1.0 0.1209187229
H  H216  1  0.90760000  0.07140000  0.99900000  1.0 0.1209187229
H  H217  1  0.99060000  0.47460000  0.78240000  1.0 0.1209187229
H  H218  1  0.00940000  0.47460000  0.71760000  1.0 0.1209187229
H  H219  1  0.00940000  0.02540000  0.28240000  1.0 0.1209187229
H  H220  1  0.99060000  0.02540000  0.21760000  1.0 0.1209187229
H  H221  1  0.00940000  0.52540000  0.21760000  1.0 0.1209187229
H  H222  1  0.99060000  0.52540000  0.28240000  1.0 0.1209187229
H  H223  1  0.99060000  0.97460000  0.71760000  1.0 0.1209187229
H  H224  1  0.00940000  0.97460000  0.78240000  1.0 0.1209187229
H  H225  1  0.07750000  0.57420000  0.78450000  1.0 0.1209187229
H  H226  1  0.92250000  0.57420000  0.71550000  1.0 0.1209187229
H  H227  1  0.92250000  0.92580000  0.28450000  1.0 0.1209187229
H  H228  1  0.07750000  0.92580000  0.21550000  1.0 0.1209187229
H  H229  1  0.92250000  0.42580000  0.21550000  1.0 0.1209187229
H  H230  1  0.07750000  0.42580000  0.28450000  1.0 0.1209187229
H  H231  1  0.07750000  0.07420000  0.71550000  1.0 0.1209187229
H  H232  1  0.92250000  0.07420000  0.78450000  1.0 0.1209187229
H  H233  1  0.97500000  0.64450000  0.88820000  1.0 0.1209187229
H  H234  1  0.02500000  0.64450000  0.61180000  1.0 0.1209187229
H  H235  1  0.02500000  0.85550000  0.38820000  1.0 0.1209187229
H  H236  1  0.97500000  0.85550000  0.11180000  1.0 0.1209187229
H  H237  1  0.02500000  0.35550000  0.11180000  1.0 0.1209187229
H  H238  1  0.97500000  0.35550000  0.38820000  1.0 0.1209187229
H  H239  1  0.97500000  0.14450000  0.61180000  1.0 0.1209187229
H  H240  1  0.02500000  0.14450000  0.88820000  1.0 0.1209187229
H  H241  1  0.89050000  0.53710000  0.88690000  1.0 0.1209187229
H  H242  1  0.10950000  0.53710000  0.61310000  1.0 0.1209187229
H  H243  1  0.10950000  0.96290000  0.38690000  1.0 0.1209187229
H  H244  1  0.89050000  0.96290000  0.11310000  1.0 0.1209187229
H  H245  1  0.10950000  0.46290000  0.11310000  1.0 0.1209187229
H  H246  1  0.89050000  0.46290000  0.38690000  1.0 0.1209187229
H  H247  1  0.89050000  0.03710000  0.61310000  1.0 0.1209187229
H  H248  1  0.10950000  0.03710000  0.88690000  1.0 0.1209187229
H  H249  1  0.66940000  0.37870000  0.98990000  1.0 0.1209187229
H  H250  1  0.33060000  0.37870000  0.51010000  1.0 0.1209187229
H  H251  1  0.33060000  0.12130000  0.48990000  1.0 0.1209187229
H  H252  1  0.66940000  0.12130000  0.01010000  1.0 0.1209187229
H  H253  1  0.33060000  0.62130000  0.01010000  1.0 0.1209187229
H  H254  1  0.66940000  0.62130000  0.48990000  1.0 0.1209187229
H  H255  1  0.66940000  0.87870000  0.51010000  1.0 0.1209187229
H  H256  1  0.33060000  0.87870000  0.98990000  1.0 0.1209187229
H  H257  1  0.68620000  0.16830000  0.94410000  1.0 0.1209187229
H  H258  1  0.31380000  0.16830000  0.55590000  1.0 0.1209187229
H  H259  1  0.31380000  0.33170000  0.44410000  1.0 0.1209187229
H  H260  1  0.68620000  0.33170000  0.05590000  1.0 0.1209187229
H  H261  1  0.31380000  0.83170000  0.05590000  1.0 0.1209187229
H  H262  1  0.68620000  0.83170000  0.44410000  1.0 0.1209187229
H  H263  1  0.68620000  0.66830000  0.55590000  1.0 0.1209187229
H  H264  1  0.31380000  0.66830000  0.94410000  1.0 0.1209187229
H  H265  1  0.55750000  0.45140000  0.76900000  1.0 0.1305094833
H  H266  1  0.44250000  0.45140000  0.73100000  1.0 0.1305094833
H  H267  1  0.44250000  0.04860000  0.26900000  1.0 0.1305094833
H  H268  1  0.55750000  0.04860000  0.23100000  1.0 0.1305094833
H  H269  1  0.44250000  0.54860000  0.23100000  1.0 0.1305094833
H  H270  1  0.55750000  0.54860000  0.26900000  1.0 0.1305094833
H  H271  1  0.55750000  0.95140000  0.73100000  1.0 0.1305094833
H  H272  1  0.44250000  0.95140000  0.76900000  1.0 0.1305094833
H  H273  1  0.55780000  0.22830000  0.76790000  1.0 0.1209187229
H  H274  1  0.44220000  0.22830000  0.73210000  1.0 0.1209187229
H  H275  1  0.44220000  0.27170000  0.26790000  1.0 0.1209187229
H  H276  1  0.55780000  0.27170000  0.23210000  1.0 0.1209187229
H  H277  1  0.44220000  0.77170000  0.23210000  1.0 0.1209187229
H  H278  1  0.55780000  0.77170000  0.26790000  1.0 0.1209187229
H  H279  1  0.55780000  0.72830000  0.73210000  1.0 0.1209187229
H  H280  1  0.44220000  0.72830000  0.76790000  1.0 0.1209187229
C  C1  1  0.14520000  0.20450000  0.78264000  1.0 0.0133476837
C  C2  1  0.85480000  0.20450000  0.71736000  1.0 0.0133476837
C  C3  1  0.85480000  0.29550000  0.28264000  1.0 0.0133476837
C  C4  1  0.14520000  0.29550000  0.21736000  1.0 0.0133476837
C  C5  1  0.85480000  0.79550000  0.21736000  1.0 0.0133476837
C  C6  1  0.14520000  0.79550000  0.28264000  1.0 0.0133476837
C  C7  1  0.14520000  0.70450000  0.71736000  1.0 0.0133476837
C  C8  1  0.85480000  0.70450000  0.78264000  1.0 0.0133476837
C  C9  1  0.18370000  0.13670000  0.78231000  1.0 -0.2583278418
C  C10  1  0.81630000  0.13670000  0.71769000  1.0 -0.2583278418
C  C11  1  0.81630000  0.36330000  0.28231000  1.0 -0.2583278418
C  C12  1  0.18370000  0.36330000  0.21769000  1.0 -0.2583278418
C  C13  1  0.81630000  0.86330000  0.21769000  1.0 -0.2583278418
C  C14  1  0.18370000  0.86330000  0.28231000  1.0 -0.2583278418
C  C15  1  0.18370000  0.63670000  0.71769000  1.0 -0.2583278418
C  C16  1  0.81630000  0.63670000  0.78231000  1.0 -0.2583278418
C  C17  1  0.22670000  0.11230000  0.81635000  1.0 0.3782565929
C  C18  1  0.77330000  0.11230000  0.68365000  1.0 0.3782565929
C  C19  1  0.77330000  0.38770000  0.31635000  1.0 0.3782565929
C  C20  1  0.22670000  0.38770000  0.18365000  1.0 0.3782565929
C  C21  1  0.77330000  0.88770000  0.18365000  1.0 0.3782565929
C  C22  1  0.22670000  0.88770000  0.31635000  1.0 0.3782565929
C  C23  1  0.22670000  0.61230000  0.68365000  1.0 0.3782565929
C  C24  1  0.77330000  0.61230000  0.81635000  1.0 0.3782565929
C  C25  1  0.23060000  0.15860000  0.85080000  1.0 -0.2739675529
C  C26  1  0.76940000  0.15860000  0.64920000  1.0 -0.2739675529
C  C27  1  0.76940000  0.34140000  0.35080000  1.0 -0.2739675529
C  C28  1  0.23060000  0.34140000  0.14920000  1.0 -0.2739675529
C  C29  1  0.76940000  0.84140000  0.14920000  1.0 -0.2739675529
C  C30  1  0.23060000  0.84140000  0.35080000  1.0 -0.2739675529
C  C31  1  0.23060000  0.65860000  0.64920000  1.0 -0.2739675529
C  C32  1  0.76940000  0.65860000  0.85080000  1.0 -0.2739675529
C  C33  1  0.19110000  0.22570000  0.85120000  1.0 -0.0121863584
C  C34  1  0.80890000  0.22570000  0.64880000  1.0 -0.0121863584
C  C35  1  0.80890000  0.27430000  0.35120000  1.0 -0.0121863584
C  C36  1  0.19110000  0.27430000  0.14880000  1.0 -0.0121863584
C  C37  1  0.80890000  0.77430000  0.14880000  1.0 -0.0121863584
C  C38  1  0.19110000  0.77430000  0.35120000  1.0 -0.0121863584
C  C39  1  0.19110000  0.72570000  0.64880000  1.0 -0.0121863584
C  C40  1  0.80890000  0.72570000  0.85120000  1.0 -0.0121863584
C  C41  1  0.09630000  0.32100000  0.81536000  1.0 -0.1582603194
C  C42  1  0.90370000  0.32100000  0.68464000  1.0 -0.1582603194
C  C43  1  0.90370000  0.17900000  0.31536000  1.0 -0.1582603194
C  C44  1  0.09630000  0.17900000  0.18464000  1.0 -0.1582603194
C  C45  1  0.90370000  0.67900000  0.18464000  1.0 -0.1582603194
C  C46  1  0.09630000  0.67900000  0.31536000  1.0 -0.1582603194
C  C47  1  0.09630000  0.82100000  0.68464000  1.0 -0.1582603194
C  C48  1  0.90370000  0.82100000  0.81536000  1.0 -0.1582603194
C  C49  1  0.13380000  0.38460000  0.83731000  1.0 -0.0328569971
C  C50  1  0.86620000  0.38460000  0.66269000  1.0 -0.0328569971
C  C51  1  0.86620000  0.11540000  0.33731000  1.0 -0.0328569971
C  C52  1  0.13380000  0.11540000  0.16269000  1.0 -0.0328569971
C  C53  1  0.86620000  0.61540000  0.16269000  1.0 -0.0328569971
C  C54  1  0.13380000  0.61540000  0.33731000  1.0 -0.0328569971
C  C55  1  0.13380000  0.88460000  0.66269000  1.0 -0.0328569971
C  C56  1  0.86620000  0.88460000  0.83731000  1.0 -0.0328569971
C  C57  1  0.10520000  0.40300000  0.87547000  1.0 0.0694135688
C  C58  1  0.89480000  0.40300000  0.62453000  1.0 0.0694135688
C  C59  1  0.89480000  0.09700000  0.37547000  1.0 0.0694135688
C  C60  1  0.10520000  0.09700000  0.12453000  1.0 0.0694135688
C  C61  1  0.89480000  0.59700000  0.12453000  1.0 0.0694135688
C  C62  1  0.10520000  0.59700000  0.37547000  1.0 0.0694135688
C  C63  1  0.10520000  0.90300000  0.62453000  1.0 0.0694135688
C  C64  1  0.89480000  0.90300000  0.87547000  1.0 0.0694135688
C  C65  1  0.13290000  0.46710000  0.89395000  1.0 -0.0328569971
C  C66  1  0.86710000  0.46710000  0.60605000  1.0 -0.0328569971
C  C67  1  0.86710000  0.03290000  0.39395000  1.0 -0.0328569971
C  C68  1  0.13290000  0.03290000  0.10605000  1.0 -0.0328569971
C  C69  1  0.86710000  0.53290000  0.10605000  1.0 -0.0328569971
C  C70  1  0.13290000  0.53290000  0.39395000  1.0 -0.0328569971
C  C71  1  0.13290000  0.96710000  0.60605000  1.0 -0.0328569971
C  C72  1  0.86710000  0.96710000  0.89395000  1.0 -0.0328569971
C  C73  1  0.19020000  0.51580000  0.87420000  1.0 0.0873577981
C  C74  1  0.80980000  0.51580000  0.62580000  1.0 0.0873577981
C  C75  1  0.80980000  0.98420000  0.37420000  1.0 0.0873577981
C  C76  1  0.19020000  0.98420000  0.12580000  1.0 0.0873577981
C  C77  1  0.80980000  0.48420000  0.12580000  1.0 0.0873577981
C  C78  1  0.19020000  0.48420000  0.37420000  1.0 0.0873577981
C  C79  1  0.19020000  0.01580000  0.62580000  1.0 0.0873577981
C  C80  1  0.80980000  0.01580000  0.87420000  1.0 0.0873577981
C  C81  1  0.21910000  0.49050000  0.83585000  1.0 -0.0484187268
C  C82  1  0.78090000  0.49050000  0.66415000  1.0 -0.0484187268
C  C83  1  0.78090000  0.00950000  0.33585000  1.0 -0.0484187268
C  C84  1  0.21910000  0.00950000  0.16415000  1.0 -0.0484187268
C  C85  1  0.78090000  0.50950000  0.16415000  1.0 -0.0484187268
C  C86  1  0.21910000  0.50950000  0.33585000  1.0 -0.0484187268
C  C87  1  0.21910000  0.99050000  0.66415000  1.0 -0.0484187268
C  C88  1  0.78090000  0.99050000  0.83585000  1.0 -0.0484187268
C  C89  1  0.19100000  0.42820000  0.81820000  1.0 0.080051774
C  C90  1  0.80900000  0.42820000  0.68180000  1.0 0.080051774
C  C91  1  0.80900000  0.07180000  0.31820000  1.0 0.080051774
C  C92  1  0.19100000  0.07180000  0.18180000  1.0 0.080051774
C  C93  1  0.80900000  0.57180000  0.18180000  1.0 0.080051774
C  C94  1  0.19100000  0.57180000  0.31820000  1.0 0.080051774
C  C95  1  0.19100000  0.92820000  0.68180000  1.0 0.080051774
C  C96  1  0.80900000  0.92820000  0.81820000  1.0 0.080051774
C  C97  1  0.22580000  0.40110000  0.77566000  1.0 -0.4445580431
C  C98  1  0.77420000  0.40110000  0.72434000  1.0 -0.4445580431
C  C99  1  0.77420000  0.09890000  0.27566000  1.0 -0.4465312846
C  C100  1  0.22580000  0.09890000  0.22434000  1.0 -0.4465312846
C  C101  1  0.77420000  0.59890000  0.22434000  1.0 -0.4465312846
C  C102  1  0.22580000  0.59890000  0.27566000  1.0 -0.4465312846
C  C103  1  0.22580000  0.90110000  0.72434000  1.0 -0.4465312846
C  C104  1  0.77420000  0.90110000  0.77566000  1.0 -0.4465312846
C  C105  1  0.04250000  0.35630000  0.89637000  1.0 -0.4465312846
C  C106  1  0.95750000  0.35630000  0.60363000  1.0 -0.4465312846
C  C107  1  0.95750000  0.14370000  0.39637000  1.0 -0.4465312846
C  C108  1  0.04250000  0.14370000  0.10363000  1.0 -0.4465312846
C  C109  1  0.95750000  0.64370000  0.10363000  1.0 -0.4465312846
C  C110  1  0.04250000  0.64370000  0.39637000  1.0 -0.4465312846
C  C111  1  0.04250000  0.85630000  0.60363000  1.0 -0.4465312846
C  C112  1  0.95750000  0.85630000  0.89637000  1.0 -0.4465312846
C  C113  1  0.22370000  0.58620000  0.89365000  1.0 -0.4715524204
C  C114  1  0.77630000  0.58620000  0.60635000  1.0 -0.4715524204
C  C115  1  0.77630000  0.91380000  0.39365000  1.0 -0.4715524204
C  C116  1  0.22370000  0.91380000  0.10635000  1.0 -0.4715524204
C  C117  1  0.77630000  0.41380000  0.10635000  1.0 -0.4715524204
C  C118  1  0.22370000  0.41380000  0.39365000  1.0 -0.4715524204
C  C119  1  0.22370000  0.08620000  0.60635000  1.0 -0.4715524204
C  C120  1  0.77630000  0.08620000  0.89365000  1.0 -0.4715524204
C  C121  1  0.27750000  0.54190000  0.81275000  1.0 -0.1465986744
C  C122  1  0.72250000  0.54190000  0.68725000  1.0 -0.1465986744
C  C123  1  0.72250000  0.95810000  0.31275000  1.0 -0.1465986744
C  C124  1  0.27750000  0.95810000  0.18725000  1.0 -0.1465986744
C  C125  1  0.72250000  0.45810000  0.18725000  1.0 -0.1465986744
C  C126  1  0.27750000  0.45810000  0.31275000  1.0 -0.1465986744
C  C127  1  0.27750000  0.04190000  0.68725000  1.0 -0.1465986744
C  C128  1  0.72250000  0.04190000  0.81275000  1.0 -0.1465986744
C  C129  1  0.40290000  0.60500000  0.82440000  1.0 0.021262974
C  C130  1  0.59710000  0.60500000  0.67560000  1.0 0.021262974
C  C131  1  0.59710000  0.89500000  0.32440000  1.0 0.021262974
C  C132  1  0.40290000  0.89500000  0.17560000  1.0 0.021262974
C  C133  1  0.59710000  0.39500000  0.17560000  1.0 0.021262974
C  C134  1  0.40290000  0.39500000  0.32440000  1.0 0.021262974
C  C135  1  0.40290000  0.10500000  0.67560000  1.0 0.021262974
C  C136  1  0.59710000  0.10500000  0.82440000  1.0 0.021262974
C  C137  1  0.48420000  0.60270000  0.83690000  1.0 -0.3002848613
C  C138  1  0.51580000  0.60270000  0.66310000  1.0 -0.3002848613
C  C139  1  0.51580000  0.89730000  0.33690000  1.0 -0.3062039502
C  C140  1  0.48420000  0.89730000  0.16310000  1.0 -0.3062039502
C  C141  1  0.51580000  0.39730000  0.16310000  1.0 -0.3002848613
C  C142  1  0.48420000  0.39730000  0.33690000  1.0 -0.3002848613
C  C143  1  0.48420000  0.10270000  0.66310000  1.0 -0.3002848613
C  C144  1  0.51580000  0.10270000  0.83690000  1.0 -0.3002848613
C  C145  1  0.51780000  0.54190000  0.85400000  1.0 0.3274498395
C  C146  1  0.48220000  0.54190000  0.64600000  1.0 0.3274498395
C  C147  1  0.48220000  0.95810000  0.35400000  1.0 0.3274498395
C  C148  1  0.51780000  0.95810000  0.14600000  1.0 0.3274498395
C  C149  1  0.48220000  0.45810000  0.14600000  1.0 0.3274498395
C  C150  1  0.51780000  0.45810000  0.35400000  1.0 0.3274498395
C  C151  1  0.51780000  0.04190000  0.64600000  1.0 0.3274498395
C  C152  1  0.48220000  0.04190000  0.85400000  1.0 0.3274498395
C  C153  1  0.47550000  0.48400000  0.85950000  1.0 -0.3002848613
C  C154  1  0.52450000  0.48400000  0.64050000  1.0 -0.3002848613
C  C155  1  0.52450000  0.01600000  0.35950000  1.0 -0.2947916873
C  C156  1  0.47550000  0.01600000  0.14050000  1.0 -0.2947916873
C  C157  1  0.52450000  0.51600000  0.14050000  1.0 -0.3002848613
C  C158  1  0.47550000  0.51600000  0.35950000  1.0 -0.3002848613
C  C159  1  0.47550000  0.98400000  0.64050000  1.0 -0.3002848613
C  C160  1  0.52450000  0.98400000  0.85950000  1.0 -0.3002848613
C  C161  1  0.39570000  0.47580000  0.84410000  1.0 -0.0031660104
C  C162  1  0.60430000  0.47580000  0.65590000  1.0 -0.0031660104
C  C163  1  0.60430000  0.02420000  0.34410000  1.0 -0.0031660104
C  C164  1  0.39570000  0.02420000  0.15590000  1.0 -0.0031660104
C  C165  1  0.60430000  0.52420000  0.15590000  1.0 -0.0031660104
C  C166  1  0.39570000  0.52420000  0.34410000  1.0 -0.0031660104
C  C167  1  0.39570000  0.97580000  0.65590000  1.0 -0.0031660104
C  C168  1  0.60430000  0.97580000  0.84410000  1.0 -0.0031660104
C  C169  1  0.09350000  0.50220000  0.93277000  1.0 -0.1686252989
C  C170  1  0.90650000  0.50220000  0.56723000  1.0 -0.1686252989
C  C171  1  0.90650000  0.99780000  0.43277000  1.0 -0.1686252989
C  C172  1  0.09350000  0.99780000  0.06723000  1.0 -0.1686252989
C  C173  1  0.90650000  0.49780000  0.06723000  1.0 -0.1686252989
C  C174  1  0.09350000  0.49780000  0.43277000  1.0 -0.1686252989
C  C175  1  0.09350000  0.00220000  0.56723000  1.0 -0.1686252989
C  C176  1  0.90650000  0.00220000  0.93277000  1.0 -0.1686252989
C  C177  1  0.20140000  0.43330000  0.97290000  1.0 -0.0328569971
C  C178  1  0.79860000  0.43330000  0.52710000  1.0 -0.0328569971
C  C179  1  0.79860000  0.06670000  0.47290000  1.0 -0.0328569971
C  C180  1  0.20140000  0.06670000  0.02710000  1.0 -0.0328569971
C  C181  1  0.79860000  0.56670000  0.02710000  1.0 -0.0328569971
C  C182  1  0.20140000  0.56670000  0.47290000  1.0 -0.0328569971
C  C183  1  0.20140000  0.93330000  0.52710000  1.0 -0.0328569971
C  C184  1  0.79860000  0.93330000  0.97290000  1.0 -0.0328569971
C  C185  1  0.24280000  0.42170000  0.00744000  1.0 -0.2583278418
C  C186  1  0.75720000  0.42170000  0.49256000  1.0 -0.2583278418
C  C187  1  0.75720000  0.07830000  0.50744000  1.0 -0.2583278418
C  C188  1  0.24280000  0.07830000  0.99256000  1.0 -0.2583278418
C  C189  1  0.75720000  0.57830000  0.99256000  1.0 -0.2583278418
C  C190  1  0.24280000  0.57830000  0.50744000  1.0 -0.2583278418
C  C191  1  0.24280000  0.92170000  0.49256000  1.0 -0.2583278418
C  C192  1  0.75720000  0.92170000  0.00744000  1.0 -0.2583278418
C  C193  1  0.22890000  0.46600000  0.04319000  1.0 0.4101770557
C  C194  1  0.77110000  0.46600000  0.45681000  1.0 0.4101770557
C  C195  1  0.77110000  0.03400000  0.54319000  1.0 0.4101770557
C  C196  1  0.22890000  0.03400000  0.95681000  1.0 0.4101770557
C  C197  1  0.77110000  0.53400000  0.95681000  1.0 0.4101770557
C  C198  1  0.22890000  0.53400000  0.54319000  1.0 0.4101770557
C  C199  1  0.22890000  0.96600000  0.45681000  1.0 0.4101770557
C  C200  1  0.77110000  0.96600000  0.04319000  1.0 0.4101770557
C  C201  1  0.17150000  0.52310000  0.03900000  1.0 -0.3474901654
C  C202  1  0.82850000  0.52310000  0.46100000  1.0 -0.3474901654
C  C203  1  0.82850000  0.97690000  0.53900000  1.0 -0.3474901654
C  C204  1  0.17150000  0.97690000  0.96100000  1.0 -0.3474901654
C  C205  1  0.82850000  0.47690000  0.96100000  1.0 -0.3474901654
C  C206  1  0.17150000  0.47690000  0.53900000  1.0 -0.3474901654
C  C207  1  0.17150000  0.02310000  0.46100000  1.0 -0.3474901654
C  C208  1  0.82850000  0.02310000  0.03900000  1.0 -0.3474901654
C  C209  1  0.13050000  0.53350000  0.00149000  1.0 0.0133476837
C  C210  1  0.86950000  0.53350000  0.49851000  1.0 0.0133476837
C  C211  1  0.86950000  0.96650000  0.50149000  1.0 0.0133476837
C  C212  1  0.13050000  0.96650000  0.99851000  1.0 0.0133476837
C  C213  1  0.86950000  0.46650000  0.99851000  1.0 0.0133476837
C  C214  1  0.13050000  0.46650000  0.50149000  1.0 0.0133476837
C  C215  1  0.13050000  0.03350000  0.49851000  1.0 0.0133476837
C  C216  1  0.86950000  0.03350000  0.00149000  1.0 0.021262974
C  C217  1  0.88180000  0.42650000  0.83379000  1.0 0.550435368
C  C218  1  0.11820000  0.42650000  0.66621000  1.0 0.550435368
C  C219  1  0.11820000  0.07350000  0.33379000  1.0 0.550435368
C  C220  1  0.88180000  0.07350000  0.16621000  1.0 0.550435368
C  C221  1  0.11820000  0.57350000  0.16621000  1.0 0.550435368
C  C222  1  0.88180000  0.57350000  0.33379000  1.0 0.550435368
C  C223  1  0.88180000  0.92650000  0.66621000  1.0 0.550435368
C  C224  1  0.11820000  0.92650000  0.83379000  1.0 0.550435368
C  C225  1  0.93360000  0.49500000  0.83490000  1.0 -0.0121863584
C  C226  1  0.06640000  0.49500000  0.66510000  1.0 -0.0121863584
C  C227  1  0.06640000  0.00500000  0.33490000  1.0 -0.0121863584
C  C228  1  0.93360000  0.00500000  0.16510000  1.0 -0.0121863584
C  C229  1  0.06640000  0.50500000  0.16510000  1.0 -0.0121863584
C  C230  1  0.93360000  0.50500000  0.33490000  1.0 -0.0121863584
C  C231  1  0.93360000  0.99500000  0.66510000  1.0 -0.0121863584
C  C232  1  0.06640000  0.99500000  0.83490000  1.0 -0.0121863584
C  C233  1  0.98830000  0.50770000  0.80431000  1.0 -0.1109115714
C  C234  1  0.01170000  0.50770000  0.69569000  1.0 -0.1109115714
C  C235  1  0.01170000  0.99230000  0.30431000  1.0 -0.1109115714
C  C236  1  0.98830000  0.99230000  0.19569000  1.0 -0.1109115714
C  C237  1  0.01170000  0.49230000  0.19569000  1.0 -0.1109115714
C  C238  1  0.98830000  0.49230000  0.30431000  1.0 -0.1109115714
C  C239  1  0.98830000  0.00770000  0.69569000  1.0 -0.1109115714
C  C240  1  0.01170000  0.00770000  0.80431000  1.0 -0.1109115714
C  C241  1  0.03960000  0.56770000  0.80504000  1.0 -0.1029978059
C  C242  1  0.96040000  0.56770000  0.69496000  1.0 -0.1029978059
C  C243  1  0.96040000  0.93230000  0.30504000  1.0 -0.1029978059
C  C244  1  0.03960000  0.93230000  0.19496000  1.0 -0.1029978059
C  C245  1  0.96040000  0.43230000  0.19496000  1.0 -0.1029978059
C  C246  1  0.03960000  0.43230000  0.30504000  1.0 -0.1029978059
C  C247  1  0.03960000  0.06770000  0.69496000  1.0 -0.1029978059
C  C248  1  0.96040000  0.06770000  0.80504000  1.0 -0.1029978059
C  C249  1  0.03430000  0.61780000  0.83630000  1.0 -0.0223800316
C  C250  1  0.96570000  0.61780000  0.66370000  1.0 -0.0223800316
C  C251  1  0.96570000  0.88220000  0.33630000  1.0 -0.0223800316
C  C252  1  0.03430000  0.88220000  0.16370000  1.0 -0.0223800316
C  C253  1  0.96570000  0.38220000  0.16370000  1.0 -0.0223800316
C  C254  1  0.03430000  0.38220000  0.33630000  1.0 -0.0223800316
C  C255  1  0.03430000  0.11780000  0.66370000  1.0 -0.0223800316
C  C256  1  0.96570000  0.11780000  0.83630000  1.0 -0.0223800316
C  C257  1  0.97900000  0.60950000  0.86734000  1.0 -0.1192999715
C  C258  1  0.02100000  0.60950000  0.63266000  1.0 -0.1192999715
C  C259  1  0.02100000  0.89050000  0.36734000  1.0 -0.1192999715
C  C260  1  0.97900000  0.89050000  0.13266000  1.0 -0.1192999715
C  C261  1  0.02100000  0.39050000  0.13266000  1.0 -0.1192999715
C  C262  1  0.97900000  0.39050000  0.36734000  1.0 -0.1192999715
C  C263  1  0.97900000  0.10950000  0.63266000  1.0 -0.1192999715
C  C264  1  0.02100000  0.10950000  0.86734000  1.0 -0.1192999715
C  C265  1  0.92780000  0.54500000  0.86620000  1.0 -0.1109115714
C  C266  1  0.07220000  0.54500000  0.63380000  1.0 -0.1109115714
C  C267  1  0.07220000  0.95500000  0.36620000  1.0 -0.1109115714
C  C268  1  0.92780000  0.95500000  0.13380000  1.0 -0.1109115714
C  C269  1  0.07220000  0.45500000  0.13380000  1.0 -0.1109115714
C  C270  1  0.92780000  0.45500000  0.36620000  1.0 -0.1109115714
C  C271  1  0.92780000  0.04500000  0.63380000  1.0 -0.1109115714
C  C272  1  0.07220000  0.04500000  0.86620000  1.0 -0.1109115714
C  C273  1  0.09170000  0.68270000  0.83908000  1.0 0.550435368
C  C274  1  0.90830000  0.68270000  0.66092000  1.0 0.550435368
C  C275  1  0.90830000  0.81730000  0.33908000  1.0 0.550435368
C  C276  1  0.09170000  0.81730000  0.16092000  1.0 0.550435368
C  C277  1  0.90830000  0.31730000  0.16092000  1.0 0.550435368
C  C278  1  0.09170000  0.31730000  0.33908000  1.0 0.550435368
C  C279  1  0.09170000  0.18270000  0.66092000  1.0 0.550435368
C  C280  1  0.90830000  0.18270000  0.83908000  1.0 0.550435368
C  C281  1  0.69360000  0.32160000  0.92220000  1.0 0.5886530094
C  C282  1  0.30640000  0.32160000  0.57780000  1.0 0.5886530094
C  C283  1  0.30640000  0.17840000  0.42220000  1.0 0.5886530094
C  C284  1  0.69360000  0.17840000  0.07780000  1.0 0.5886530094
C  C285  1  0.30640000  0.67840000  0.07780000  1.0 0.5886530094
C  C286  1  0.69360000  0.67840000  0.42220000  1.0 0.5886530094
C  C287  1  0.69360000  0.82160000  0.57780000  1.0 0.5886530094
C  C288  1  0.30640000  0.82160000  0.92220000  1.0 0.5886530094
C  C289  1  0.68320000  0.27910000  0.96126000  1.0 -0.0223800316
C  C290  1  0.31680000  0.27910000  0.53874000  1.0 -0.0223800316
C  C291  1  0.31680000  0.22090000  0.46126000  1.0 -0.0223800316
C  C292  1  0.68320000  0.22090000  0.03874000  1.0 -0.0223800316
C  C293  1  0.31680000  0.72090000  0.03874000  1.0 -0.0223800316
C  C294  1  0.68320000  0.72090000  0.46126000  1.0 -0.0223800316
C  C295  1  0.68320000  0.77910000  0.53874000  1.0 -0.0223800316
C  C296  1  0.31680000  0.77910000  0.96126000  1.0 -0.0223800316
C  C297  1  0.67710000  0.32780000  0.99420000  1.0 -0.1266135573
C  C298  1  0.32290000  0.32780000  0.50580000  1.0 -0.1266135573
C  C299  1  0.32290000  0.17220000  0.49420000  1.0 -0.1266135573
C  C300  1  0.67710000  0.17220000  0.00580000  1.0 -0.1266135573
C  C301  1  0.32290000  0.67220000  0.00580000  1.0 -0.1266135573
C  C302  1  0.67710000  0.67220000  0.49420000  1.0 -0.1266135573
C  C303  1  0.67710000  0.82780000  0.50580000  1.0 -0.1266135573
C  C304  1  0.32290000  0.82780000  0.99420000  1.0 -0.1266135573
C  C305  1  0.68280000  0.20030000  0.96639000  1.0 -0.1109115714
C  C306  1  0.31720000  0.20030000  0.53361000  1.0 -0.1109115714
C  C307  1  0.31720000  0.29970000  0.46639000  1.0 -0.1109115714
C  C308  1  0.68280000  0.29970000  0.03361000  1.0 -0.1109115714
C  C309  1  0.31720000  0.79970000  0.03361000  1.0 -0.1109115714
C  C310  1  0.68280000  0.79970000  0.46639000  1.0 -0.1109115714
C  C311  1  0.68280000  0.70030000  0.53361000  1.0 -0.1109115714
C  C312  1  0.31720000  0.70030000  0.96639000  1.0 -0.1109115714
C  C313  1  0.64720000  0.34060000  0.79748000  1.0 0.5662708543
C  C314  1  0.35280000  0.34060000  0.70252000  1.0 0.5662708543
C  C315  1  0.35280000  0.15940000  0.29748000  1.0 0.5662708543
C  C316  1  0.64720000  0.15940000  0.20252000  1.0 0.5662708543
C  C317  1  0.35280000  0.65940000  0.20252000  1.0 0.5662708543
C  C318  1  0.64720000  0.65940000  0.29748000  1.0 0.5662708543
C  C319  1  0.64720000  0.84060000  0.70252000  1.0 0.5662708543
C  C320  1  0.35280000  0.84060000  0.79748000  1.0 0.5662708543
C  C321  1  0.53470000  0.40590000  0.76128000  1.0 -0.1192999715
C  C322  1  0.46530000  0.40590000  0.73872000  1.0 -0.1192999715
C  C323  1  0.46530000  0.09410000  0.26128000  1.0 -0.1192999715
C  C324  1  0.53470000  0.09410000  0.23872000  1.0 -0.1192999715
C  C325  1  0.46530000  0.59410000  0.23872000  1.0 -0.1192999715
C  C326  1  0.53470000  0.59410000  0.26128000  1.0 -0.1192999715
C  C327  1  0.53470000  0.90590000  0.73872000  1.0 -0.1192999715
C  C328  1  0.46530000  0.90590000  0.76128000  1.0 -0.1192999715
C  C329  1  0.57170000  0.34030000  0.77287000  1.0 -0.0121863584
C  C330  1  0.42830000  0.34030000  0.72713000  1.0 -0.0121863584
C  C331  1  0.42830000  0.15970000  0.27287000  1.0 -0.0121863584
C  C332  1  0.57170000  0.15970000  0.22713000  1.0 -0.0121863584
C  C333  1  0.42830000  0.65970000  0.22713000  1.0 -0.0121863584
C  C334  1  0.57170000  0.65970000  0.27287000  1.0 -0.0121863584
C  C335  1  0.57170000  0.84030000  0.72713000  1.0 -0.0121863584
C  C336  1  0.42830000  0.84030000  0.77287000  1.0 -0.0121863584
C  C337  1  0.53440000  0.27380000  0.76080000  1.0 -0.1109115714
C  C338  1  0.46560000  0.27380000  0.73920000  1.0 -0.1109115714
C  C339  1  0.46560000  0.22620000  0.26080000  1.0 -0.1109115714
C  C340  1  0.53440000  0.22620000  0.23920000  1.0 -0.1109115714
C  C341  1  0.46560000  0.72620000  0.23920000  1.0 -0.1109115714
C  C342  1  0.53440000  0.72620000  0.26080000  1.0 -0.1109115714
C  C343  1  0.53440000  0.77380000  0.73920000  1.0 -0.1109115714
C  C344  1  0.46560000  0.77380000  0.76080000  1.0 -0.1109115714
N  N1  1  0.14810000  0.25010000  0.81707000  1.0 0.0539644956
N  N2  1  0.85190000  0.25010000  0.68293000  1.0 0.0539644956
N  N3  1  0.85190000  0.24990000  0.31707000  1.0 0.0539644956
N  N4  1  0.14810000  0.24990000  0.18293000  1.0 0.0539644956
N  N5  1  0.85190000  0.74990000  0.18293000  1.0 0.0554585829
N  N6  1  0.14810000  0.74990000  0.31707000  1.0 0.0554585829
N  N7  1  0.14810000  0.75010000  0.68293000  1.0 0.0539644956
N  N8  1  0.85190000  0.75010000  0.81707000  1.0 0.0539644956
N  N9  1  0.35810000  0.54010000  0.82795000  1.0 0.0694135688
N  N10  1  0.64190000  0.54010000  0.67205000  1.0 0.0694135688
N  N11  1  0.64190000  0.95990000  0.32795000  1.0 0.0694135688
N  N12  1  0.35810000  0.95990000  0.17205000  1.0 0.0694135688
N  N13  1  0.64190000  0.45990000  0.17205000  1.0 0.0694135688
N  N14  1  0.35810000  0.45990000  0.32795000  1.0 0.0694135688
N  N15  1  0.35810000  0.04010000  0.67205000  1.0 0.0694135688
N  N16  1  0.64190000  0.04010000  0.82795000  1.0 0.0694135688
N  N17  1  0.14620000  0.48980000  0.97028000  1.0 0.0873577981
N  N18  1  0.85380000  0.48980000  0.52972000  1.0 0.0873577981
N  N19  1  0.85380000  0.01020000  0.47028000  1.0 0.080051774
N  N20  1  0.14620000  0.01020000  0.02972000  1.0 0.0873577981
N  N21  1  0.85380000  0.51020000  0.02972000  1.0 0.080051774
N  N22  1  0.14620000  0.51020000  0.47028000  1.0 0.080051774
N  N23  1  0.14620000  0.98980000  0.52972000  1.0 0.0873577981
N  N24  1  0.85380000  0.98980000  0.97028000  1.0 0.0873577981
O  O1  1  0.25670000  0.04620000  0.81896000  1.0 -0.5173238553
O  O2  1  0.74330000  0.04620000  0.68104000  1.0 -0.5173238553
O  O3  1  0.74330000  0.45380000  0.31896000  1.0 -0.5173238553
O  O4  1  0.25670000  0.45380000  0.18104000  1.0 -0.5173238553
O  O5  1  0.74330000  0.95380000  0.18104000  1.0 -0.5173238553
O  O6  1  0.25670000  0.95380000  0.31896000  1.0 -0.5173238553
O  O7  1  0.25670000  0.54620000  0.68104000  1.0 -0.5173238553
O  O8  1  0.74330000  0.54620000  0.81896000  1.0 -0.5173238553
O  O9  1  0.59020000  0.54350000  0.87018000  1.0 -0.5038722344
O  O10  1  0.40980000  0.54350000  0.62982000  1.0 -0.5038722344
O  O11  1  0.40980000  0.95650000  0.37018000  1.0 -0.5038722344
O  O12  1  0.59020000  0.95650000  0.12982000  1.0 -0.5038722344
O  O13  1  0.40980000  0.45650000  0.12982000  1.0 -0.5038722344
O  O14  1  0.59020000  0.45650000  0.37018000  1.0 -0.5038722344
O  O15  1  0.59020000  0.04350000  0.62982000  1.0 -0.5038722344
O  O16  1  0.40980000  0.04350000  0.87018000  1.0 -0.5038722344
O  O17  1  0.26280000  0.45650000  0.07636000  1.0 -0.4715524204
O  O18  1  0.73720000  0.45650000  0.42364000  1.0 -0.4715524204
O  O19  1  0.73720000  0.04350000  0.57636000  1.0 -0.4715524204
O  O20  1  0.26280000  0.04350000  0.92364000  1.0 -0.4715524204
O  O21  1  0.73720000  0.54350000  0.92364000  1.0 -0.4715524204
O  O22  1  0.26280000  0.54350000  0.57636000  1.0 -0.4715524204
O  O23  1  0.26280000  0.95650000  0.42364000  1.0 -0.4715524204
O  O24  1  0.73720000  0.95650000  0.07636000  1.0 -0.4715524204
O  O25  1  0.83290000  0.41850000  0.86362000  1.0 -0.5931664296
O  O26  1  0.16710000  0.41850000  0.63638000  1.0 -0.5931664296
O  O27  1  0.16710000  0.08150000  0.36362000  1.0 -0.5931664296
O  O28  1  0.83290000  0.08150000  0.13638000  1.0 -0.5931664296
O  O29  1  0.16710000  0.58150000  0.13638000  1.0 -0.5931664296
O  O30  1  0.83290000  0.58150000  0.36362000  1.0 -0.5931664296
O  O31  1  0.83290000  0.91850000  0.63638000  1.0 -0.5931664296
O  O32  1  0.16710000  0.91850000  0.86362000  1.0 -0.5931664296
O  O33  1  0.88930000  0.38040000  0.80696000  1.0 -0.4787192233
O  O34  1  0.11070000  0.38040000  0.69304000  1.0 -0.4787192233
O  O35  1  0.11070000  0.11960000  0.30696000  1.0 -0.4787192233
O  O36  1  0.88930000  0.11960000  0.19304000  1.0 -0.4787192233
O  O37  1  0.11070000  0.61960000  0.19304000  1.0 -0.4787192233
O  O38  1  0.88930000  0.61960000  0.30696000  1.0 -0.4787192233
O  O39  1  0.88930000  0.88040000  0.69304000  1.0 -0.4787192233
O  O40  1  0.11070000  0.88040000  0.80696000  1.0 -0.4787192233
O  O41  1  0.08610000  0.73210000  0.86740000  1.0 -0.5543019213
O  O42  1  0.91390000  0.73210000  0.63260000  1.0 -0.5543019213
O  O43  1  0.91390000  0.76790000  0.36740000  1.0 -0.5543019213
O  O44  1  0.08610000  0.76790000  0.13260000  1.0 -0.5543019213
O  O45  1  0.91390000  0.26790000  0.13260000  1.0 -0.5543019213
O  O46  1  0.08610000  0.26790000  0.36740000  1.0 -0.5543019213
O  O47  1  0.08610000  0.23210000  0.63260000  1.0 -0.5543019213
O  O48  1  0.91390000  0.23210000  0.86740000  1.0 -0.5543019213
O  O49  1  0.14660000  0.69100000  0.81182000  1.0 -0.5686764308
O  O50  1  0.85340000  0.69100000  0.68818000  1.0 -0.5686764308
O  O51  1  0.85340000  0.80900000  0.31182000  1.0 -0.5686764308
O  O52  1  0.14660000  0.80900000  0.18818000  1.0 -0.5686764308
O  O53  1  0.85340000  0.30900000  0.18818000  1.0 -0.5686764308
O  O54  1  0.14660000  0.30900000  0.31182000  1.0 -0.5686764308
O  O55  1  0.14660000  0.19100000  0.68818000  1.0 -0.5686764308
O  O56  1  0.85340000  0.19100000  0.81182000  1.0 -0.5686764308
O  O57  1  0.67330000  0.38510000  0.91382000  1.0 -0.5308719116
O  O58  1  0.32670000  0.38510000  0.58618000  1.0 -0.5308719116
O  O59  1  0.32670000  0.11490000  0.41382000  1.0 -0.5308719116
O  O60  1  0.67330000  0.11490000  0.08618000  1.0 -0.5308719116
O  O61  1  0.32670000  0.61490000  0.08618000  1.0 -0.5308719116
O  O62  1  0.67330000  0.61490000  0.41382000  1.0 -0.5308719116
O  O63  1  0.67330000  0.88510000  0.58618000  1.0 -0.5308719116
O  O64  1  0.32670000  0.88510000  0.91382000  1.0 -0.5308719116
O  O65  1  0.72390000  0.27440000  0.89283000  1.0 -0.6120497547
O  O66  1  0.27610000  0.27440000  0.60717000  1.0 -0.6120497547
O  O67  1  0.27610000  0.22560000  0.39283000  1.0 -0.6120497547
O  O68  1  0.72390000  0.22560000  0.10717000  1.0 -0.6120497547
O  O69  1  0.27610000  0.72560000  0.10717000  1.0 -0.6120497547
O  O70  1  0.72390000  0.72560000  0.39283000  1.0 -0.6120497547
O  O71  1  0.72390000  0.77440000  0.60717000  1.0 -0.6120497547
O  O72  1  0.27610000  0.77440000  0.89283000  1.0 -0.6120497547
O  O73  1  0.66570000  0.39580000  0.81647000  1.0 -0.5308719116
O  O74  1  0.33430000  0.39580000  0.68353000  1.0 -0.5308719116
O  O75  1  0.33430000  0.10420000  0.31647000  1.0 -0.5308719116
O  O76  1  0.66570000  0.10420000  0.18353000  1.0 -0.5308719116
O  O77  1  0.33430000  0.60420000  0.18353000  1.0 -0.5308719116
O  O78  1  0.66570000  0.60420000  0.31647000  1.0 -0.5308719116
O  O79  1  0.66570000  0.89580000  0.68353000  1.0 -0.5308719116
O  O80  1  0.33430000  0.89580000  0.81647000  1.0 -0.5308719116
O  O81  1  0.68620000  0.27980000  0.79813000  1.0 -0.5308719116
O  O82  1  0.31380000  0.27980000  0.70187000  1.0 -0.5308719116
O  O83  1  0.31380000  0.22020000  0.29813000  1.0 -0.5308719116
O  O84  1  0.68620000  0.22020000  0.20187000  1.0 -0.5308719116
O  O85  1  0.31380000  0.72020000  0.20187000  1.0 -0.5308719116
O  O86  1  0.68620000  0.72020000  0.29813000  1.0 -0.5308719116
O  O87  1  0.68620000  0.77980000  0.70187000  1.0 -0.5308719116
O  O88  1  0.31380000  0.77980000  0.79813000  1.0 -0.5308719116
