# DDEC6 charges by PACMAN v1.1 (https://github.com/mtap-research/PACMAN-charge/)
data_EBITAL01_ASR_pacman
_symmetry_space_group_name_H-M   'P 1'
_cell_length_a   8.60320000
_cell_length_b   13.22300000
_cell_length_c   13.48100000
_cell_angle_alpha   90.00000000
_cell_angle_beta   92.38600000
_cell_angle_gamma   90.00000000
_symmetry_Int_Tables_number   1
_chemical_formula_structural   Be3P4(HO3)4
_chemical_formula_sum   'Be12 P16 H16 O48'
_cell_volume   1532.27050989
_cell_formula_units_Z   4
loop_
 _symmetry_equiv_pos_site_id
 _symmetry_equiv_pos_as_xyz
  1  'x, y, z'
loop_
 _atom_site_type_symbol
 _atom_site_label
 _atom_site_symmetry_multiplicity
 _atom_site_fract_x
 _atom_site_fract_y
 _atom_site_fract_z
 _atom_site_occupancy
 _atom_site_charge
Be  Be1  1  0.57970000  0.88040000  0.24990000  1.0 0.9629957298
Be  Be2  1  0.42030000  0.38040000  0.25010000  1.0 0.9527049879
Be  Be3  1  0.42030000  0.11960000  0.75010000  1.0 0.9629957298
Be  Be4  1  0.57970000  0.61960000  0.74990000  1.0 0.9629957298
Be  Be5  1  0.32320000  0.67370000  0.09590000  1.0 1.0000056843
Be  Be6  1  0.67680000  0.17370000  0.40410000  1.0 1.0000056843
Be  Be7  1  0.67680000  0.32630000  0.90410000  1.0 1.0000056843
Be  Be8  1  0.32320000  0.82630000  0.59590000  1.0 1.0000056843
Be  Be9  1  0.15820000  0.49610000  0.74160000  1.0 1.03055378
Be  Be10  1  0.84180000  0.99610000  0.75840000  1.0 1.03055378
Be  Be11  1  0.84180000  0.50390000  0.25840000  1.0 1.0184325794
Be  Be12  1  0.15820000  0.00390000  0.24160000  1.0 1.0377975325
P  P1  1  0.34119000  0.89924000  0.09403000  1.0 0.8217769186
P  P2  1  0.65881000  0.39924000  0.40597000  1.0 0.8217769186
P  P3  1  0.65881000  0.10076000  0.90597000  1.0 0.8217769186
P  P4  1  0.34119000  0.60076000  0.59403000  1.0 0.8217769186
P  P5  1  0.60536000  0.65991000  0.22875000  1.0 0.8512979667
P  P6  1  0.39464000  0.15991000  0.27125000  1.0 0.8512979667
P  P7  1  0.39464000  0.34009000  0.77125000  1.0 0.8512979667
P  P8  1  0.60536000  0.84009000  0.72875000  1.0 0.8512979667
P  P9  1  0.18644000  0.54604000  0.24954000  1.0 0.8964456837
P  P10  1  0.81356000  0.04604000  0.25046000  1.0 0.8933170358
P  P11  1  0.81356000  0.45396000  0.75046000  1.0 0.8933170358
P  P12  1  0.18644000  0.95396000  0.74954000  1.0 0.8964456837
P  P13  1  0.30970000  0.63771000  0.87667000  1.0 0.8292339266
P  P14  1  0.69030000  0.13771000  0.62333000  1.0 0.8292339266
P  P15  1  0.69030000  0.36229000  0.12333000  1.0 0.8353659133
P  P16  1  0.30970000  0.86229000  0.37667000  1.0 0.8292339266
H  H1  1  0.35730000  0.92500000  0.99910000  1.0 -0.0990358633
H  H2  1  0.64270000  0.42500000  0.50090000  1.0 -0.0990358633
H  H3  1  0.64270000  0.07500000  0.00090000  1.0 -0.0990358633
H  H4  1  0.35730000  0.57500000  0.49910000  1.0 -0.0990358633
H  H5  1  0.53400000  0.61540000  0.30150000  1.0 -0.149097689
H  H6  1  0.46600000  0.11540000  0.19850000  1.0 -0.149097689
H  H7  1  0.46600000  0.38460000  0.69850000  1.0 -0.149097689
H  H8  1  0.53400000  0.88460000  0.80150000  1.0 -0.149097689
H  H9  1  0.26230000  0.58480000  0.32660000  1.0 -0.1148090442
H  H10  1  0.73770000  0.08480000  0.17340000  1.0 -0.1148090442
H  H11  1  0.73770000  0.41520000  0.67340000  1.0 -0.1148090442
H  H12  1  0.26230000  0.91520000  0.82660000  1.0 -0.1148090442
H  H13  1  0.30160000  0.73550000  0.86140000  1.0 -0.1302136858
H  H14  1  0.69840000  0.23550000  0.63860000  1.0 -0.1302136858
H  H15  1  0.69840000  0.26450000  0.13860000  1.0 -0.1302136858
H  H16  1  0.30160000  0.76450000  0.36140000  1.0 -0.1302136858
O  O1  1  0.22420000  0.97200000  0.13490000  1.0 -0.5086928503
O  O2  1  0.77580000  0.47200000  0.36510000  1.0 -0.5086928503
O  O3  1  0.77580000  0.02800000  0.86510000  1.0 -0.5086928503
O  O4  1  0.22420000  0.52800000  0.63490000  1.0 -0.5086928503
O  O5  1  0.50190000  0.90630000  0.14350000  1.0 -0.5086928503
O  O6  1  0.49810000  0.40630000  0.35650000  1.0 -0.5086928503
O  O7  1  0.49810000  0.09370000  0.85650000  1.0 -0.5086928503
O  O8  1  0.50190000  0.59370000  0.64350000  1.0 -0.5086928503
O  O9  1  0.27650000  0.79240000  0.09150000  1.0 -0.5086928503
O  O10  1  0.72350000  0.29240000  0.40850000  1.0 -0.5086928503
O  O11  1  0.72350000  0.20760000  0.90850000  1.0 -0.5086928503
O  O12  1  0.27650000  0.70760000  0.59150000  1.0 -0.5086928503
O  O13  1  0.64230000  0.76630000  0.25980000  1.0 -0.4800401335
O  O14  1  0.35770000  0.26630000  0.24020000  1.0 -0.4800401335
O  O15  1  0.35770000  0.23370000  0.74020000  1.0 -0.4800401335
O  O16  1  0.64230000  0.73370000  0.75980000  1.0 -0.4800401335
O  O17  1  0.50200000  0.65540000  0.13540000  1.0 -0.5198349287
O  O18  1  0.49800000  0.15540000  0.36460000  1.0 -0.5198349287
O  O19  1  0.49800000  0.34460000  0.86460000  1.0 -0.5198349287
O  O20  1  0.50200000  0.84460000  0.63540000  1.0 -0.5198349287
O  O21  1  0.75620000  0.60410000  0.21260000  1.0 -0.4612079193
O  O22  1  0.24380000  0.10410000  0.28740000  1.0 -0.4612079193
O  O23  1  0.24380000  0.39590000  0.78740000  1.0 -0.4612079193
O  O24  1  0.75620000  0.89590000  0.71260000  1.0 -0.4612079193
O  O25  1  0.26510000  0.44720000  0.22870000  1.0 -0.4862515261
O  O26  1  0.73490000  0.94720000  0.27130000  1.0 -0.4862515261
O  O27  1  0.73490000  0.55280000  0.77130000  1.0 -0.4862515261
O  O28  1  0.26510000  0.05280000  0.72870000  1.0 -0.4862515261
O  O29  1  0.02310000  0.53000000  0.27910000  1.0 -0.4612079193
O  O30  1  0.97690000  0.03000000  0.22090000  1.0 -0.4612079193
O  O31  1  0.97690000  0.47000000  0.72090000  1.0 -0.4612079193
O  O32  1  0.02310000  0.97000000  0.77910000  1.0 -0.4612079193
O  O33  1  0.19660000  0.62120000  0.16690000  1.0 -0.5086928503
O  O34  1  0.80340000  0.12120000  0.33310000  1.0 -0.5086928503
O  O35  1  0.80340000  0.37880000  0.83310000  1.0 -0.5086928503
O  O36  1  0.19660000  0.87880000  0.66690000  1.0 -0.5086928503
O  O37  1  0.30010000  0.62060000  0.98770000  1.0 -0.4657217641
O  O38  1  0.69990000  0.12060000  0.51230000  1.0 -0.4657217641
O  O39  1  0.69990000  0.37940000  0.01230000  1.0 -0.4657217641
O  O40  1  0.30010000  0.87940000  0.48770000  1.0 -0.4657217641
O  O41  1  0.17320000  0.58960000  0.82020000  1.0 -0.4800401335
O  O42  1  0.82680000  0.08960000  0.67980000  1.0 -0.4800401335
O  O43  1  0.82680000  0.41040000  0.17980000  1.0 -0.4800401335
O  O44  1  0.17320000  0.91040000  0.32020000  1.0 -0.4800401335
O  O45  1  0.46540000  0.60140000  0.84100000  1.0 -0.5086928503
O  O46  1  0.53460000  0.10140000  0.65900000  1.0 -0.5038157631
O  O47  1  0.53460000  0.39860000  0.15900000  1.0 -0.5038157631
O  O48  1  0.46540000  0.89860000  0.34100000  1.0 -0.5086928503
