# DDEC6 charges by PACMAN v1.1 (https://github.com/mtap-research/PACMAN-charge/)
data_EBUQOH_ASR_pacman
_symmetry_space_group_name_H-M   'P 1'
_cell_length_a   30.71500000
_cell_length_b   13.79600000
_cell_length_c   33.55500000
_cell_angle_alpha   90.00000000
_cell_angle_beta   92.79900000
_cell_angle_gamma   90.00000000
_symmetry_Int_Tables_number   1
_chemical_formula_structural   Na2ZnH30C53N5O9
_chemical_formula_sum   'Na16 Zn8 H240 C424 N40 O72'
_cell_volume   14201.77152197
_cell_formula_units_Z   8
loop_
 _symmetry_equiv_pos_site_id
 _symmetry_equiv_pos_as_xyz
  1  'x, y, z'
loop_
 _atom_site_type_symbol
 _atom_site_label
 _atom_site_symmetry_multiplicity
 _atom_site_fract_x
 _atom_site_fract_y
 _atom_site_fract_z
 _atom_site_occupancy
 _atom_site_charge
Na  Na1  1  0.26280000  0.93283000  0.72614000  1.0 0.8721455
Na  Na2  1  0.26280000  0.06717000  0.22614000  1.0 0.8721455
Na  Na3  1  0.73720000  0.06717000  0.27386000  1.0 0.8721455
Na  Na4  1  0.73720000  0.93283000  0.77386000  1.0 0.8721455
Na  Na5  1  0.26927000  0.71675000  0.75179000  1.0 0.8823868659
Na  Na6  1  0.26927000  0.28325000  0.25179000  1.0 0.8823868659
Na  Na7  1  0.73073000  0.28325000  0.24821000  1.0 0.8823868659
Na  Na8  1  0.73073000  0.71675000  0.74821000  1.0 0.8823868659
Na  Na9  1  0.24065000  0.11195000  0.77887000  1.0 0.8721455
Na  Na10  1  0.24065000  0.88805000  0.27887000  1.0 0.8721455
Na  Na11  1  0.75935000  0.88805000  0.22113000  1.0 0.8721455
Na  Na12  1  0.75935000  0.11195000  0.72113000  1.0 0.8721455
Na  Na13  1  0.76567000  0.32794000  0.74535000  1.0 0.8862228505
Na  Na14  1  0.76567000  0.67206000  0.24535000  1.0 0.8823868659
Na  Na15  1  0.23433000  0.67206000  0.25465000  1.0 0.8823868659
Na  Na16  1  0.23433000  0.32794000  0.75465000  1.0 0.8823868659
Zn  Zn1  1  0.99608000  0.80898000  0.96830000  1.0 0.5988382884
Zn  Zn2  1  0.99608000  0.19102000  0.46830000  1.0 0.5988382884
Zn  Zn3  1  0.00392000  0.19102000  0.03170000  1.0 0.5988382884
Zn  Zn4  1  0.00392000  0.80898000  0.53170000  1.0 0.5988382884
Zn  Zn5  1  0.50301000  0.20141000  0.52937000  1.0 0.6196990572
Zn  Zn6  1  0.50301000  0.79859000  0.02937000  1.0 0.6196990572
Zn  Zn7  1  0.49699000  0.79859000  0.47063000  1.0 0.6196990572
Zn  Zn8  1  0.49699000  0.20141000  0.97063000  1.0 0.6196990572
H  H1  1  0.01770000  0.80130000  0.81740000  1.0 0.1312396555
H  H2  1  0.01770000  0.19870000  0.31740000  1.0 0.1312396555
H  H3  1  0.98230000  0.19870000  0.18260000  1.0 0.1312396555
H  H4  1  0.98230000  0.80130000  0.68260000  1.0 0.1312396555
H  H5  1  0.94510000  0.72870000  0.82320000  1.0 0.1392310016
H  H6  1  0.94510000  0.27130000  0.32320000  1.0 0.1392310016
H  H7  1  0.05490000  0.27130000  0.17680000  1.0 0.1392310016
H  H8  1  0.05490000  0.72870000  0.67680000  1.0 0.1392310016
H  H9  1  0.84260000  0.66420000  0.94440000  1.0 0.1392310016
H  H10  1  0.84260000  0.33580000  0.44440000  1.0 0.1392310016
H  H11  1  0.15740000  0.33580000  0.05560000  1.0 0.1392310016
H  H12  1  0.15740000  0.66420000  0.55560000  1.0 0.1392310016
H  H13  1  0.84620000  0.70220000  0.01630000  1.0 0.1312396555
H  H14  1  0.84620000  0.29780000  0.51630000  1.0 0.1312396555
H  H15  1  0.15380000  0.29780000  0.98370000  1.0 0.1312396555
H  H16  1  0.15380000  0.70220000  0.48370000  1.0 0.1312396555
H  H17  1  0.96250000  0.88000000  0.11480000  1.0 0.1312396555
H  H18  1  0.96250000  0.12000000  0.61480000  1.0 0.1312396555
H  H19  1  0.03750000  0.12000000  0.88520000  1.0 0.1312396555
H  H20  1  0.03750000  0.88000000  0.38520000  1.0 0.1312396555
H  H21  1  0.03570000  0.94780000  0.10780000  1.0 0.1392310016
H  H22  1  0.03570000  0.05220000  0.60780000  1.0 0.1392310016
H  H23  1  0.96430000  0.05220000  0.89220000  1.0 0.1392310016
H  H24  1  0.96430000  0.94780000  0.39220000  1.0 0.1392310016
H  H25  1  0.14510000  0.97240000  0.99030000  1.0 0.1312396555
H  H26  1  0.14510000  0.02760000  0.49030000  1.0 0.1312396555
H  H27  1  0.85490000  0.02760000  0.00970000  1.0 0.1312396555
H  H28  1  0.85490000  0.97240000  0.50970000  1.0 0.1312396555
H  H29  1  0.14010000  0.93830000  0.91880000  1.0 0.1392310016
H  H30  1  0.14010000  0.06170000  0.41880000  1.0 0.1392310016
H  H31  1  0.85990000  0.06170000  0.08120000  1.0 0.1392310016
H  H32  1  0.85990000  0.93830000  0.58120000  1.0 0.1392310016
H  H33  1  0.09360000  0.01440000  0.85370000  1.0 0.1201060696
H  H34  1  0.09360000  0.98560000  0.35370000  1.0 0.1201060696
H  H35  1  0.90640000  0.98560000  0.14630000  1.0 0.1201060696
H  H36  1  0.90640000  0.01440000  0.64630000  1.0 0.1201060696
H  H37  1  0.14900000  0.02420000  0.81110000  1.0 0.1312396555
H  H38  1  0.14900000  0.97580000  0.31110000  1.0 0.1312396555
H  H39  1  0.85100000  0.97580000  0.18890000  1.0 0.1312396555
H  H40  1  0.85100000  0.02420000  0.68890000  1.0 0.1312396555
H  H41  1  0.15280000  0.73560000  0.80300000  1.0 0.1392310016
H  H42  1  0.15280000  0.26440000  0.30300000  1.0 0.1392310016
H  H43  1  0.84720000  0.26440000  0.19700000  1.0 0.1392310016
H  H44  1  0.84720000  0.73560000  0.69700000  1.0 0.1392310016
H  H45  1  0.09910000  0.72500000  0.84810000  1.0 0.1201060696
H  H46  1  0.09910000  0.27500000  0.34810000  1.0 0.1201060696
H  H47  1  0.90090000  0.27500000  0.15190000  1.0 0.1201060696
H  H48  1  0.90090000  0.72500000  0.65190000  1.0 0.1201060696
H  H49  1  0.86400000  0.78800000  0.84180000  1.0 0.1312396555
H  H50  1  0.86400000  0.21200000  0.34180000  1.0 0.1312396555
H  H51  1  0.13600000  0.21200000  0.15820000  1.0 0.1312396555
H  H52  1  0.13600000  0.78800000  0.65820000  1.0 0.1312396555
H  H53  1  0.81510000  0.71160000  0.79870000  1.0 0.1312396555
H  H54  1  0.81510000  0.28840000  0.29870000  1.0 0.1312396555
H  H55  1  0.18490000  0.28840000  0.20130000  1.0 0.1312396555
H  H56  1  0.18490000  0.71160000  0.70130000  1.0 0.1312396555
H  H57  1  0.84070000  0.45960000  0.85440000  1.0 0.1201060696
H  H58  1  0.84070000  0.54040000  0.35440000  1.0 0.1201060696
H  H59  1  0.15930000  0.54040000  0.14560000  1.0 0.1201060696
H  H60  1  0.15930000  0.45960000  0.64560000  1.0 0.1201060696
H  H61  1  0.89040000  0.53720000  0.89690000  1.0 0.1097981073
H  H62  1  0.89040000  0.46280000  0.39690000  1.0 0.1097981073
H  H63  1  0.10960000  0.46280000  0.10310000  1.0 0.1097981073
H  H64  1  0.10960000  0.53720000  0.60310000  1.0 0.1097981073
H  H65  1  0.84760000  0.86710000  0.06160000  1.0 0.1201060696
H  H66  1  0.84760000  0.13290000  0.56160000  1.0 0.1201060696
H  H67  1  0.15240000  0.13290000  0.93840000  1.0 0.1201060696
H  H68  1  0.15240000  0.86710000  0.43840000  1.0 0.1201060696
H  H69  1  0.80410000  0.84260000  0.11450000  1.0 0.1392310016
H  H70  1  0.80410000  0.15740000  0.61450000  1.0 0.1392310016
H  H71  1  0.19590000  0.15740000  0.88550000  1.0 0.1392310016
H  H72  1  0.19590000  0.84260000  0.38550000  1.0 0.1392310016
H  H73  1  0.89050000  0.65330000  0.16030000  1.0 0.1312396555
H  H74  1  0.89050000  0.34670000  0.66030000  1.0 0.1312396555
H  H75  1  0.10950000  0.34670000  0.83970000  1.0 0.1312396555
H  H76  1  0.10950000  0.65330000  0.33970000  1.0 0.1312396555
H  H77  1  0.93360000  0.67880000  0.10830000  1.0 0.1201060696
H  H78  1  0.93360000  0.32120000  0.60830000  1.0 0.1201060696
H  H79  1  0.06640000  0.32120000  0.89170000  1.0 0.1201060696
H  H80  1  0.06640000  0.67880000  0.39170000  1.0 0.1201060696
H  H81  1  0.11630000  0.08860000  0.03650000  1.0 0.1097981073
H  H82  1  0.11630000  0.91140000  0.53650000  1.0 0.1097981073
H  H83  1  0.88370000  0.91140000  0.96350000  1.0 0.1097981073
H  H84  1  0.88370000  0.08860000  0.46350000  1.0 0.1097981073
H  H85  1  0.17310000  0.13470000  0.07900000  1.0 0.1201060696
H  H86  1  0.17310000  0.86530000  0.57900000  1.0 0.1201060696
H  H87  1  0.82690000  0.86530000  0.92100000  1.0 0.1201060696
H  H88  1  0.82690000  0.13470000  0.42100000  1.0 0.1201060696
H  H89  1  0.16320000  0.88630000  0.13930000  1.0 0.1392310016
H  H90  1  0.16320000  0.11370000  0.63930000  1.0 0.1392310016
H  H91  1  0.83680000  0.11370000  0.86070000  1.0 0.1392310016
H  H92  1  0.83680000  0.88630000  0.36070000  1.0 0.1392310016
H  H93  1  0.10800000  0.83660000  0.09520000  1.0 0.1201060696
H  H94  1  0.10800000  0.16340000  0.59520000  1.0 0.1201060696
H  H95  1  0.89200000  0.16340000  0.90480000  1.0 0.1201060696
H  H96  1  0.89200000  0.83660000  0.40480000  1.0 0.1201060696
H  H97  1  0.01970000  0.61820000  0.92270000  1.0 0.1097981073
H  H98  1  0.01970000  0.38180000  0.42270000  1.0 0.1097981073
H  H99  1  0.98030000  0.38180000  0.07730000  1.0 0.1097981073
H  H100  1  0.98030000  0.61820000  0.57730000  1.0 0.1097981073
H  H101  1  0.04930000  0.46640000  0.93660000  1.0 0.1392310016
H  H102  1  0.04930000  0.53360000  0.43660000  1.0 0.1392310016
H  H103  1  0.95070000  0.53360000  0.06340000  1.0 0.1392310016
H  H104  1  0.95070000  0.46640000  0.56340000  1.0 0.1392310016
H  H105  1  0.07450000  0.43390000  0.99990000  1.0 0.1201060696
H  H106  1  0.07450000  0.56610000  0.49990000  1.0 0.1201060696
H  H107  1  0.92550000  0.56610000  0.00010000  1.0 0.1201060696
H  H108  1  0.92550000  0.43390000  0.50010000  1.0 0.1201060696
H  H109  1  0.06850000  0.54320000  0.04980000  1.0 0.1392310016
H  H110  1  0.06850000  0.45680000  0.54980000  1.0 0.1392310016
H  H111  1  0.93150000  0.45680000  0.95020000  1.0 0.1392310016
H  H112  1  0.93150000  0.54320000  0.45020000  1.0 0.1392310016
H  H113  1  0.03900000  0.69110000  0.03390000  1.0 0.1097981073
H  H114  1  0.03900000  0.30890000  0.53390000  1.0 0.1097981073
H  H115  1  0.96100000  0.30890000  0.96610000  1.0 0.1097981073
H  H116  1  0.96100000  0.69110000  0.46610000  1.0 0.1097981073
H  H117  1  0.42710000  0.56820000  0.48970000  1.0 0.1097981073
H  H118  1  0.42710000  0.43180000  0.98970000  1.0 0.1097981073
H  H119  1  0.57290000  0.43180000  0.51030000  1.0 0.1097981073
H  H120  1  0.57290000  0.56820000  0.01030000  1.0 0.1097981073
H  H121  1  0.43280000  0.51550000  0.55540000  1.0 0.1312396555
H  H122  1  0.43280000  0.48450000  0.05540000  1.0 0.1312396555
H  H123  1  0.56720000  0.48450000  0.44460000  1.0 0.1312396555
H  H124  1  0.56720000  0.51550000  0.94460000  1.0 0.1312396555
H  H125  1  0.46280000  0.36490000  0.57060000  1.0 0.1097981073
H  H126  1  0.46280000  0.63510000  0.07060000  1.0 0.1097981073
H  H127  1  0.53720000  0.63510000  0.42940000  1.0 0.1097981073
H  H128  1  0.53720000  0.36490000  0.92940000  1.0 0.1097981073
H  H129  1  0.48140000  0.31950000  0.45440000  1.0 0.1097981073
H  H130  1  0.48140000  0.68050000  0.95440000  1.0 0.1097981073
H  H131  1  0.51860000  0.68050000  0.54560000  1.0 0.1097981073
H  H132  1  0.51860000  0.31950000  0.04560000  1.0 0.1097981073
H  H133  1  0.45140000  0.47020000  0.43920000  1.0 0.1201060696
H  H134  1  0.45140000  0.52980000  0.93920000  1.0 0.1201060696
H  H135  1  0.54860000  0.52980000  0.56080000  1.0 0.1201060696
H  H136  1  0.54860000  0.47020000  0.06080000  1.0 0.1201060696
H  H137  1  0.55010000  0.30640000  0.67170000  1.0 0.1458098106
H  H138  1  0.55010000  0.69360000  0.17170000  1.0 0.1458098106
H  H139  1  0.44990000  0.69360000  0.32830000  1.0 0.1458098106
H  H140  1  0.44990000  0.30640000  0.82830000  1.0 0.1458098106
H  H141  1  0.47840000  0.23600000  0.67930000  1.0 0.1312396555
H  H142  1  0.47840000  0.76400000  0.17930000  1.0 0.1312396555
H  H143  1  0.52160000  0.76400000  0.32070000  1.0 0.1312396555
H  H144  1  0.52160000  0.23600000  0.82070000  1.0 0.1312396555
H  H145  1  0.35150000  0.11760000  0.57450000  1.0 0.1392310016
H  H146  1  0.35150000  0.88240000  0.07450000  1.0 0.1392310016
H  H147  1  0.64850000  0.88240000  0.42550000  1.0 0.1392310016
H  H148  1  0.64850000  0.11760000  0.92550000  1.0 0.1392310016
H  H149  1  0.34910000  0.06610000  0.50470000  1.0 0.1312396555
H  H150  1  0.34910000  0.93390000  0.00470000  1.0 0.1312396555
H  H151  1  0.65090000  0.93390000  0.49530000  1.0 0.1312396555
H  H152  1  0.65090000  0.06610000  0.99530000  1.0 0.1312396555
H  H153  1  0.47310000  0.01930000  0.39750000  1.0 0.1312396555
H  H154  1  0.47310000  0.98070000  0.89750000  1.0 0.1312396555
H  H155  1  0.52690000  0.98070000  0.60250000  1.0 0.1312396555
H  H156  1  0.52690000  0.01930000  0.10250000  1.0 0.1312396555
H  H157  1  0.54590000  0.08720000  0.39140000  1.0 0.1312396555
H  H158  1  0.54590000  0.91280000  0.89140000  1.0 0.1312396555
H  H159  1  0.45410000  0.91280000  0.60860000  1.0 0.1312396555
H  H160  1  0.45410000  0.08720000  0.10860000  1.0 0.1312396555
H  H161  1  0.65210000  0.30790000  0.48120000  1.0 0.1392310016
H  H162  1  0.65210000  0.69210000  0.98120000  1.0 0.1392310016
H  H163  1  0.34790000  0.69210000  0.51880000  1.0 0.1392310016
H  H164  1  0.34790000  0.30790000  0.01880000  1.0 0.1392310016
H  H165  1  0.65440000  0.35970000  0.55130000  1.0 0.1392310016
H  H166  1  0.65440000  0.64030000  0.05130000  1.0 0.1392310016
H  H167  1  0.34560000  0.64030000  0.44870000  1.0 0.1392310016
H  H168  1  0.34560000  0.35970000  0.94870000  1.0 0.1392310016
H  H169  1  0.58980000  0.49050000  0.60840000  1.0 0.1097981073
H  H170  1  0.58980000  0.50950000  0.10840000  1.0 0.1097981073
H  H171  1  0.41020000  0.50950000  0.39160000  1.0 0.1097981073
H  H172  1  0.41020000  0.49050000  0.89160000  1.0 0.1097981073
H  H173  1  0.63830000  0.57520000  0.65140000  1.0 0.1201060696
H  H174  1  0.63830000  0.42480000  0.15140000  1.0 0.1201060696
H  H175  1  0.36170000  0.42480000  0.34860000  1.0 0.1201060696
H  H176  1  0.36170000  0.57520000  0.84860000  1.0 0.1201060696
H  H177  1  0.69210000  0.32920000  0.68500000  1.0 0.1392310016
H  H178  1  0.69210000  0.67080000  0.18500000  1.0 0.1392310016
H  H179  1  0.30790000  0.67080000  0.31500000  1.0 0.1392310016
H  H180  1  0.30790000  0.32920000  0.81500000  1.0 0.1392310016
H  H181  1  0.64760000  0.24970000  0.64080000  1.0 0.1312396555
H  H182  1  0.64760000  0.75030000  0.14080000  1.0 0.1312396555
H  H183  1  0.35240000  0.75030000  0.35920000  1.0 0.1312396555
H  H184  1  0.35240000  0.24970000  0.85920000  1.0 0.1312396555
H  H185  1  0.39750000  0.02640000  0.64130000  1.0 0.1201060696
H  H186  1  0.39750000  0.97360000  0.14130000  1.0 0.1201060696
H  H187  1  0.60250000  0.97360000  0.35870000  1.0 0.1201060696
H  H188  1  0.60250000  0.02640000  0.85870000  1.0 0.1201060696
H  H189  1  0.34780000  0.01700000  0.69060000  1.0 0.1312396555
H  H190  1  0.34780000  0.98300000  0.19060000  1.0 0.1312396555
H  H191  1  0.65220000  0.98300000  0.30940000  1.0 0.1312396555
H  H192  1  0.65220000  0.01700000  0.80940000  1.0 0.1312396555
H  H193  1  0.34820000  0.30560000  0.69720000  1.0 0.1392310016
H  H194  1  0.34820000  0.69440000  0.19720000  1.0 0.1392310016
H  H195  1  0.65180000  0.69440000  0.30280000  1.0 0.1392310016
H  H196  1  0.65180000  0.30560000  0.80280000  1.0 0.1392310016
H  H197  1  0.39670000  0.31400000  0.64770000  1.0 0.1201060696
H  H198  1  0.39670000  0.68600000  0.14770000  1.0 0.1201060696
H  H199  1  0.60330000  0.68600000  0.35230000  1.0 0.1201060696
H  H200  1  0.60330000  0.31400000  0.85230000  1.0 0.1201060696
H  H201  1  0.40360000  0.12140000  0.39450000  1.0 0.1201060696
H  H202  1  0.40360000  0.87860000  0.89450000  1.0 0.1201060696
H  H203  1  0.59640000  0.87860000  0.60550000  1.0 0.1201060696
H  H204  1  0.59640000  0.12140000  0.10550000  1.0 0.1201060696
H  H205  1  0.35000000  0.05870000  0.35320000  1.0 0.1392310016
H  H206  1  0.35000000  0.94130000  0.85320000  1.0 0.1392310016
H  H207  1  0.65000000  0.94130000  0.64680000  1.0 0.1392310016
H  H208  1  0.65000000  0.05870000  0.14680000  1.0 0.1392310016
H  H209  1  0.32590000  0.85390000  0.43280000  1.0 0.1201060696
H  H210  1  0.32590000  0.14610000  0.93280000  1.0 0.1201060696
H  H211  1  0.67410000  0.14610000  0.56720000  1.0 0.1201060696
H  H212  1  0.67410000  0.85390000  0.06720000  1.0 0.1201060696
H  H213  1  0.38110000  0.91390000  0.47480000  1.0 0.1097981073
H  H214  1  0.38110000  0.08610000  0.97480000  1.0 0.1097981073
H  H215  1  0.61890000  0.08610000  0.52520000  1.0 0.1097981073
H  H216  1  0.61890000  0.91390000  0.02520000  1.0 0.1097981073
H  H217  1  0.64090000  0.09180000  0.42940000  1.0 0.1201060696
H  H218  1  0.64090000  0.90820000  0.92940000  1.0 0.1201060696
H  H219  1  0.35910000  0.90820000  0.57060000  1.0 0.1201060696
H  H220  1  0.35910000  0.09180000  0.07060000  1.0 0.1201060696
H  H221  1  0.68290000  0.10650000  0.37530000  1.0 0.1312396555
H  H222  1  0.68290000  0.89350000  0.87530000  1.0 0.1312396555
H  H223  1  0.31710000  0.89350000  0.62470000  1.0 0.1312396555
H  H224  1  0.31710000  0.10650000  0.12470000  1.0 0.1312396555
H  H225  1  0.62370000  0.35480000  0.34940000  1.0 0.1312396555
H  H226  1  0.62370000  0.64520000  0.84940000  1.0 0.1312396555
H  H227  1  0.37630000  0.64520000  0.65060000  1.0 0.1312396555
H  H228  1  0.37630000  0.35480000  0.15060000  1.0 0.1312396555
H  H229  1  0.58120000  0.33600000  0.40180000  1.0 0.1201060696
H  H230  1  0.58120000  0.66400000  0.90180000  1.0 0.1201060696
H  H231  1  0.41880000  0.66400000  0.59820000  1.0 0.1201060696
H  H232  1  0.41880000  0.33600000  0.09820000  1.0 0.1201060696
H  H233  1  0.34290000  0.85400000  0.78010000  1.0 0.4615430571
H  H234  1  0.34290000  0.14600000  0.28010000  1.0 0.4615430571
H  H235  1  0.65710000  0.14600000  0.21990000  1.0 0.4615430571
H  H236  1  0.65710000  0.85400000  0.71990000  1.0 0.4615430571
H  H237  1  0.15640000  0.17550000  0.72470000  1.0 0.479716342
H  H238  1  0.15640000  0.82450000  0.22470000  1.0 0.479716342
H  H239  1  0.84360000  0.82450000  0.27530000  1.0 0.479716342
H  H240  1  0.84360000  0.17550000  0.77530000  1.0 0.479716342
C  C1  1  0.07486000  0.89150000  0.92735000  1.0 0.1962628327
C  C2  1  0.07486000  0.10850000  0.42735000  1.0 0.1962628327
C  C3  1  0.92514000  0.10850000  0.07265000  1.0 0.1962628327
C  C4  1  0.92514000  0.89150000  0.57265000  1.0 0.1962628327
C  C5  1  0.05956000  0.86180000  0.88979000  1.0 -0.0712634474
C  C6  1  0.05956000  0.13820000  0.38979000  1.0 -0.0712634474
C  C7  1  0.94044000  0.13820000  0.11021000  1.0 -0.0712634474
C  C8  1  0.94044000  0.86180000  0.61021000  1.0 -0.0712634474
C  C9  1  0.01805000  0.82170000  0.88024000  1.0 0.1885886267
C  C10  1  0.01805000  0.17830000  0.38024000  1.0 0.1885886267
C  C11  1  0.98195000  0.17830000  0.11976000  1.0 0.1885886267
C  C12  1  0.98195000  0.82170000  0.61976000  1.0 0.1885886267
C  C13  1  0.00284000  0.79370000  0.84071000  1.0 -0.1884142976
C  C14  1  0.00284000  0.20630000  0.34071000  1.0 -0.1884142976
C  C15  1  0.99716000  0.20630000  0.15929000  1.0 -0.1884142976
C  C16  1  0.99716000  0.79370000  0.65929000  1.0 -0.1884142976
C  C17  1  0.96285000  0.75410000  0.84385000  1.0 -0.1812814442
C  C18  1  0.96285000  0.24590000  0.34385000  1.0 -0.1812814442
C  C19  1  0.03715000  0.24590000  0.15615000  1.0 -0.1812814442
C  C20  1  0.03715000  0.75410000  0.65615000  1.0 -0.1812814442
C  C21  1  0.95271000  0.75880000  0.88654000  1.0 0.1885886267
C  C22  1  0.95271000  0.24120000  0.38654000  1.0 0.1885886267
C  C23  1  0.04729000  0.24120000  0.11346000  1.0 0.1885886267
C  C24  1  0.04729000  0.75880000  0.61346000  1.0 0.1885886267
C  C25  1  0.91510000  0.72190000  0.90225000  1.0 -0.0781271982
C  C26  1  0.91510000  0.27810000  0.40225000  1.0 -0.0712634474
C  C27  1  0.08490000  0.27810000  0.09775000  1.0 -0.0712634474
C  C28  1  0.08490000  0.72190000  0.59775000  1.0 -0.0781271982
C  C29  1  0.90520000  0.72510000  0.94241000  1.0 0.1701919608
C  C30  1  0.90520000  0.27490000  0.44241000  1.0 0.1701919608
C  C31  1  0.09480000  0.27490000  0.05759000  1.0 0.1701919608
C  C32  1  0.09480000  0.72510000  0.55759000  1.0 0.1701919608
C  C33  1  0.86573000  0.69380000  0.95849000  1.0 -0.1884142976
C  C34  1  0.86573000  0.30620000  0.45849000  1.0 -0.1884142976
C  C35  1  0.13427000  0.30620000  0.04151000  1.0 -0.1884142976
C  C36  1  0.13427000  0.69380000  0.54151000  1.0 -0.1884142976
C  C37  1  0.86764000  0.71470000  0.99837000  1.0 -0.1954184882
C  C38  1  0.86764000  0.28530000  0.49837000  1.0 -0.1954184882
C  C39  1  0.13236000  0.28530000  0.00163000  1.0 -0.1954184882
C  C40  1  0.13236000  0.71470000  0.50163000  1.0 -0.1954184882
C  C41  1  0.90894000  0.75950000  0.00706000  1.0 0.1609619223
C  C42  1  0.90894000  0.24050000  0.50706000  1.0 0.1609619223
C  C43  1  0.09106000  0.24050000  0.99294000  1.0 0.1609619223
C  C44  1  0.09106000  0.75950000  0.49294000  1.0 0.1609619223
C  C45  1  0.92382000  0.79270000  0.04462000  1.0 -0.0712634474
C  C46  1  0.92382000  0.20730000  0.54462000  1.0 -0.0712634474
C  C47  1  0.07618000  0.20730000  0.95538000  1.0 -0.0712634474
C  C48  1  0.07618000  0.79270000  0.45538000  1.0 -0.0712634474
C  C49  1  0.96449000  0.84010000  0.05317000  1.0 0.1885886267
C  C50  1  0.96449000  0.15990000  0.55317000  1.0 0.1885886267
C  C51  1  0.03551000  0.15990000  0.94683000  1.0 0.1885886267
C  C52  1  0.03551000  0.84010000  0.44683000  1.0 0.1885886267
C  C53  1  0.97833000  0.88000000  0.09190000  1.0 -0.1812814442
C  C54  1  0.97833000  0.12000000  0.59190000  1.0 -0.1812814442
C  C55  1  0.02167000  0.12000000  0.90810000  1.0 -0.1812814442
C  C56  1  0.02167000  0.88000000  0.40810000  1.0 -0.1812814442
C  C57  1  0.01862000  0.91690000  0.08797000  1.0 -0.1884142976
C  C58  1  0.01862000  0.08310000  0.58797000  1.0 -0.1884142976
C  C59  1  0.98138000  0.08310000  0.91203000  1.0 -0.1812814442
C  C60  1  0.98138000  0.91690000  0.41203000  1.0 -0.1812814442
C  C61  1  0.03024000  0.90000000  0.04803000  1.0 0.1701919608
C  C62  1  0.03024000  0.10000000  0.54803000  1.0 0.1701919608
C  C63  1  0.96976000  0.10000000  0.95197000  1.0 0.1701919608
C  C64  1  0.96976000  0.90000000  0.45197000  1.0 0.1701919608
C  C65  1  0.06980000  0.92490000  0.03212000  1.0 -0.0595713965
C  C66  1  0.06980000  0.07510000  0.53212000  1.0 -0.0595713965
C  C67  1  0.93020000  0.07510000  0.96788000  1.0 -0.0595713965
C  C68  1  0.93020000  0.92490000  0.46788000  1.0 -0.0595713965
C  C69  1  0.08007000  0.92040000  0.99184000  1.0 0.1885886267
C  C70  1  0.08007000  0.07960000  0.49184000  1.0 0.1885886267
C  C71  1  0.91993000  0.07960000  0.00816000  1.0 0.1885886267
C  C72  1  0.91993000  0.92040000  0.50816000  1.0 0.1885886267
C  C73  1  0.12108000  0.94710000  0.97594000  1.0 -0.1812814442
C  C74  1  0.12108000  0.05290000  0.47594000  1.0 -0.1812814442
C  C75  1  0.87892000  0.05290000  0.02406000  1.0 -0.1812814442
C  C76  1  0.87892000  0.94710000  0.52406000  1.0 -0.1812814442
C  C77  1  0.11833000  0.92880000  0.93665000  1.0 -0.1812814442
C  C78  1  0.11833000  0.07120000  0.43665000  1.0 -0.1812814442
C  C79  1  0.88167000  0.07120000  0.06335000  1.0 -0.1812814442
C  C80  1  0.88167000  0.92880000  0.56335000  1.0 -0.1812814442
C  C81  1  0.09122000  0.86860000  0.85672000  1.0 0.0792449632
C  C82  1  0.09122000  0.13140000  0.35672000  1.0 0.0792449632
C  C83  1  0.90878000  0.13140000  0.14328000  1.0 0.0792449632
C  C84  1  0.90878000  0.86860000  0.64328000  1.0 0.0792449632
C  C85  1  0.10602000  0.95790000  0.84426000  1.0 -0.1505388083
C  C86  1  0.10602000  0.04210000  0.34426000  1.0 -0.1505388083
C  C87  1  0.89398000  0.04210000  0.15574000  1.0 -0.1505388083
C  C88  1  0.89398000  0.95790000  0.65574000  1.0 -0.1505388083
C  C89  1  0.13875000  0.96350000  0.81826000  1.0 -0.0781271982
C  C90  1  0.13875000  0.03650000  0.31826000  1.0 -0.0781271982
C  C91  1  0.86125000  0.03650000  0.18174000  1.0 -0.0781271982
C  C92  1  0.86125000  0.96350000  0.68174000  1.0 -0.0781271982
C  C93  1  0.15729000  0.88100000  0.80217000  1.0 -0.0107397305
C  C94  1  0.15729000  0.11900000  0.30217000  1.0 -0.0107397305
C  C95  1  0.84271000  0.11900000  0.19783000  1.0 -0.0107397305
C  C96  1  0.84271000  0.88100000  0.69783000  1.0 -0.0107397305
C  C97  1  0.14146000  0.79190000  0.81360000  1.0 -0.0781271982
C  C98  1  0.14146000  0.20810000  0.31360000  1.0 -0.0781271982
C  C99  1  0.85854000  0.20810000  0.18640000  1.0 -0.0781271982
C  C100  1  0.85854000  0.79190000  0.68640000  1.0 -0.0781271982
C  C101  1  0.10910000  0.78560000  0.84059000  1.0 -0.1505388083
C  C102  1  0.10910000  0.21440000  0.34059000  1.0 -0.1505388083
C  C103  1  0.89090000  0.21440000  0.15941000  1.0 -0.1505388083
C  C104  1  0.89090000  0.78560000  0.65941000  1.0 -0.1505388083
C  C105  1  0.19409000  0.88780000  0.77403000  1.0 0.5923356675
C  C106  1  0.19409000  0.11220000  0.27403000  1.0 0.5923356675
C  C107  1  0.80591000  0.11220000  0.22597000  1.0 0.5923356675
C  C108  1  0.80591000  0.88780000  0.72597000  1.0 0.5923356675
C  C109  1  0.88238000  0.67110000  0.87511000  1.0 0.0738029978
C  C110  1  0.88238000  0.32890000  0.37511000  1.0 0.0738029978
C  C111  1  0.11762000  0.32890000  0.12489000  1.0 0.0738029978
C  C112  1  0.11762000  0.67110000  0.62489000  1.0 0.0738029978
C  C113  1  0.85935000  0.72170000  0.84450000  1.0 -0.1212119944
C  C114  1  0.85935000  0.27830000  0.34450000  1.0 -0.1212119944
C  C115  1  0.14065000  0.27830000  0.15550000  1.0 -0.1212119944
C  C116  1  0.14065000  0.72170000  0.65550000  1.0 -0.1212119944
C  C117  1  0.83022000  0.67610000  0.81847000  1.0 -0.0712634474
C  C118  1  0.83022000  0.32390000  0.31847000  1.0 -0.0712634474
C  C119  1  0.16978000  0.32390000  0.18153000  1.0 -0.0712634474
C  C120  1  0.16978000  0.67610000  0.68153000  1.0 -0.0712634474
C  C121  1  0.82327000  0.57800000  0.82155000  1.0 0.0020906418
C  C122  1  0.82327000  0.42200000  0.32155000  1.0 0.0020906418
C  C123  1  0.17673000  0.42200000  0.17845000  1.0 0.0020906418
C  C124  1  0.17673000  0.57800000  0.67845000  1.0 0.0020906418
C  C125  1  0.84559000  0.52580000  0.85162000  1.0 -0.0925870828
C  C126  1  0.84559000  0.47420000  0.35162000  1.0 -0.0925870828
C  C127  1  0.15441000  0.47420000  0.14838000  1.0 -0.0925870828
C  C128  1  0.15441000  0.52580000  0.64838000  1.0 -0.0925870828
C  C129  1  0.87507000  0.57300000  0.87742000  1.0 -0.170676545
C  C130  1  0.87507000  0.42700000  0.37742000  1.0 -0.170676545
C  C131  1  0.12493000  0.42700000  0.12258000  1.0 -0.170676545
C  C132  1  0.12493000  0.57300000  0.62258000  1.0 -0.170676545
C  C133  1  0.79291000  0.52200000  0.79306000  1.0 0.5687946888
C  C134  1  0.79291000  0.47800000  0.29306000  1.0 0.5687946888
C  C135  1  0.20709000  0.47800000  0.20694000  1.0 0.5687946888
C  C136  1  0.20709000  0.52200000  0.70694000  1.0 0.5687946888
C  C137  1  0.89554000  0.77630000  0.07938000  1.0 0.0792449632
C  C138  1  0.89554000  0.22370000  0.57938000  1.0 0.0792449632
C  C139  1  0.10446000  0.22370000  0.92062000  1.0 0.0792449632
C  C140  1  0.10446000  0.77630000  0.42062000  1.0 0.0792449632
C  C141  1  0.85642000  0.82380000  0.08167000  1.0 -0.1505388083
C  C142  1  0.85642000  0.17620000  0.58167000  1.0 -0.1505388083
C  C143  1  0.14358000  0.17620000  0.91833000  1.0 -0.1505388083
C  C144  1  0.14358000  0.82380000  0.41833000  1.0 -0.1505388083
C  C145  1  0.83004000  0.80830000  0.11314000  1.0 -0.0712634474
C  C146  1  0.83004000  0.19170000  0.61314000  1.0 -0.0712634474
C  C147  1  0.16996000  0.19170000  0.88686000  1.0 -0.0712634474
C  C148  1  0.16996000  0.80830000  0.38686000  1.0 -0.0712634474
C  C149  1  0.84164000  0.74270000  0.14240000  1.0 -0.0153784882
C  C150  1  0.84164000  0.25730000  0.64240000  1.0 -0.0153784882
C  C151  1  0.15836000  0.25730000  0.85760000  1.0 -0.0153784882
C  C152  1  0.15836000  0.74270000  0.35760000  1.0 -0.0153784882
C  C153  1  0.88141000  0.69620000  0.14023000  1.0 -0.0925870828
C  C154  1  0.88141000  0.30380000  0.64023000  1.0 -0.0925870828
C  C155  1  0.11859000  0.30380000  0.85977000  1.0 -0.0925870828
C  C156  1  0.11859000  0.69620000  0.35977000  1.0 -0.0925870828
C  C157  1  0.90738000  0.71200000  0.10929000  1.0 -0.1588534182
C  C158  1  0.90738000  0.28800000  0.60929000  1.0 -0.1588534182
C  C159  1  0.09262000  0.28800000  0.89071000  1.0 -0.1588534182
C  C160  1  0.09262000  0.71200000  0.39071000  1.0 -0.1588534182
C  C161  1  0.81342000  0.72280000  0.17668000  1.0 0.5603032895
C  C162  1  0.81342000  0.27720000  0.67668000  1.0 0.5603032895
C  C163  1  0.18658000  0.27720000  0.82332000  1.0 0.5603032895
C  C164  1  0.18658000  0.72280000  0.32332000  1.0 0.5603032895
C  C165  1  0.10559000  0.95750000  0.06158000  1.0 0.0792449632
C  C166  1  0.10559000  0.04250000  0.56158000  1.0 0.0792449632
C  C167  1  0.89441000  0.04250000  0.93842000  1.0 0.0792449632
C  C168  1  0.89441000  0.95750000  0.43842000  1.0 0.0792449632
C  C169  1  0.12583000  0.04740000  0.05706000  1.0 -0.1505388083
C  C170  1  0.12583000  0.95260000  0.55706000  1.0 -0.1505388083
C  C171  1  0.87417000  0.95260000  0.94294000  1.0 -0.1505388083
C  C172  1  0.87417000  0.04740000  0.44294000  1.0 -0.1505388083
C  C173  1  0.15962000  0.07510000  0.08262000  1.0 -0.0992247574
C  C174  1  0.15962000  0.92490000  0.58262000  1.0 -0.0992247574
C  C175  1  0.84038000  0.92490000  0.91738000  1.0 -0.0992247574
C  C176  1  0.84038000  0.07510000  0.41738000  1.0 -0.0992247574
C  C177  1  0.17400000  0.01620000  0.11363000  1.0 -0.0107397305
C  C178  1  0.17400000  0.98380000  0.61363000  1.0 -0.0107397305
C  C179  1  0.82600000  0.98380000  0.88637000  1.0 -0.0107397305
C  C180  1  0.82600000  0.01620000  0.38637000  1.0 -0.0107397305
C  C181  1  0.15393000  0.92660000  0.11831000  1.0 -0.0781271982
C  C182  1  0.15393000  0.07340000  0.61831000  1.0 -0.0781271982
C  C183  1  0.84607000  0.07340000  0.88169000  1.0 -0.0781271982
C  C184  1  0.84607000  0.92660000  0.38169000  1.0 -0.0781271982
C  C185  1  0.12057000  0.89730000  0.09223000  1.0 -0.1588534182
C  C186  1  0.12057000  0.10270000  0.59223000  1.0 -0.1588534182
C  C187  1  0.87943000  0.10270000  0.90777000  1.0 -0.1588534182
C  C188  1  0.87943000  0.89730000  0.40777000  1.0 -0.1588534182
C  C189  1  0.21095000  0.04820000  0.14191000  1.0 0.5603032895
C  C190  1  0.21095000  0.95180000  0.64191000  1.0 0.5603032895
C  C191  1  0.78905000  0.95180000  0.85809000  1.0 0.5603032895
C  C192  1  0.78905000  0.04820000  0.35809000  1.0 0.5603032895
C  C193  1  0.02945000  0.60310000  0.94866000  1.0 0.0792449632
C  C194  1  0.02945000  0.39690000  0.44866000  1.0 0.0792449632
C  C195  1  0.97055000  0.39690000  0.05134000  1.0 0.0792449632
C  C196  1  0.97055000  0.60310000  0.55134000  1.0 0.0792449632
C  C197  1  0.04740000  0.51260000  0.95660000  1.0 -0.1419729553
C  C198  1  0.04740000  0.48740000  0.45660000  1.0 -0.1419729553
C  C199  1  0.95260000  0.48740000  0.04340000  1.0 -0.1419729553
C  C200  1  0.95260000  0.51260000  0.54340000  1.0 -0.1419729553
C  C201  1  0.06180000  0.49390000  0.99420000  1.0 -0.0430646576
C  C202  1  0.06180000  0.50610000  0.49420000  1.0 -0.0430646576
C  C203  1  0.93820000  0.50610000  0.00580000  1.0 -0.0430646576
C  C204  1  0.93820000  0.49390000  0.50580000  1.0 -0.0430646576
C  C205  1  0.05880000  0.55770000  0.02380000  1.0 -0.1303113978
C  C206  1  0.05880000  0.44230000  0.52380000  1.0 -0.1303113978
C  C207  1  0.94120000  0.44230000  0.97620000  1.0 -0.1303113978
C  C208  1  0.94120000  0.55770000  0.47620000  1.0 -0.1303113978
C  C209  1  0.04093000  0.64500000  0.01380000  1.0 0.063659478
C  C210  1  0.04093000  0.35500000  0.51380000  1.0 0.063659478
C  C211  1  0.95907000  0.35500000  0.98620000  1.0 0.063659478
C  C212  1  0.95907000  0.64500000  0.48620000  1.0 0.063659478
C  C213  1  0.43913000  0.50780000  0.49579000  1.0 -0.0266555334
C  C214  1  0.43913000  0.49220000  0.99579000  1.0 -0.0266555334
C  C215  1  0.56087000  0.49220000  0.50421000  1.0 -0.0266555334
C  C216  1  0.56087000  0.50780000  0.00421000  1.0 -0.0266555334
C  C217  1  0.44255000  0.47620000  0.53516000  1.0 -0.1505388083
C  C218  1  0.44255000  0.52380000  0.03516000  1.0 -0.1505388083
C  C219  1  0.55745000  0.52380000  0.46484000  1.0 -0.1505388083
C  C220  1  0.55745000  0.47620000  0.96484000  1.0 -0.1505388083
C  C221  1  0.46051000  0.38600000  0.54426000  1.0 0.0738029978
C  C222  1  0.46051000  0.61400000  0.04426000  1.0 0.0738029978
C  C223  1  0.53949000  0.61400000  0.45574000  1.0 0.0738029978
C  C224  1  0.53949000  0.38600000  0.95574000  1.0 0.0738029978
C  C225  1  0.47164000  0.35880000  0.47461000  1.0 0.0792449632
C  C226  1  0.47164000  0.64120000  0.97461000  1.0 0.0792449632
C  C227  1  0.52836000  0.64120000  0.52539000  1.0 0.0792449632
C  C228  1  0.52836000  0.35880000  0.02539000  1.0 0.0792449632
C  C229  1  0.45368000  0.44910000  0.46552000  1.0 -0.1419729553
C  C230  1  0.45368000  0.55090000  0.96552000  1.0 -0.1419729553
C  C231  1  0.54632000  0.55090000  0.53448000  1.0 -0.1419729553
C  C232  1  0.54632000  0.44910000  0.03448000  1.0 -0.1419729553
C  C233  1  0.59209000  0.29270000  0.55470000  1.0 0.1609619223
C  C234  1  0.59209000  0.70730000  0.05470000  1.0 0.1609619223
C  C235  1  0.40791000  0.70730000  0.44530000  1.0 0.1609619223
C  C236  1  0.40791000  0.29270000  0.94530000  1.0 0.1609619223
C  C237  1  0.58070000  0.30290000  0.59346000  1.0 -0.0712634474
C  C238  1  0.58070000  0.69710000  0.09346000  1.0 -0.0712634474
C  C239  1  0.41930000  0.69710000  0.40654000  1.0 -0.0712634474
C  C240  1  0.41930000  0.30290000  0.90654000  1.0 -0.0712634474
C  C241  1  0.54265000  0.26990000  0.61032000  1.0 0.1885886267
C  C242  1  0.54265000  0.73010000  0.11032000  1.0 0.1885886267
C  C243  1  0.45735000  0.73010000  0.38968000  1.0 0.1885886267
C  C244  1  0.45735000  0.26990000  0.88968000  1.0 0.1885886267
C  C245  1  0.53232000  0.27900000  0.65151000  1.0 -0.170676545
C  C246  1  0.53232000  0.72100000  0.15151000  1.0 -0.170676545
C  C247  1  0.46768000  0.72100000  0.34849000  1.0 -0.170676545
C  C248  1  0.46768000  0.27900000  0.84849000  1.0 -0.1812814442
C  C249  1  0.49286000  0.24140000  0.65574000  1.0 -0.1812814442
C  C250  1  0.49286000  0.75860000  0.15574000  1.0 -0.1812814442
C  C251  1  0.50714000  0.75860000  0.34426000  1.0 -0.1812814442
C  C252  1  0.50714000  0.24140000  0.84426000  1.0 -0.1812814442
C  C253  1  0.47696000  0.21030000  0.61646000  1.0 0.1701919608
C  C254  1  0.47696000  0.78970000  0.11646000  1.0 0.1701919608
C  C255  1  0.52304000  0.78970000  0.38354000  1.0 0.1701919608
C  C256  1  0.52304000  0.21030000  0.88354000  1.0 0.1701919608
C  C257  1  0.43464000  0.17330000  0.60685000  1.0 -0.0712634474
C  C258  1  0.43464000  0.82670000  0.10685000  1.0 -0.0781271982
C  C259  1  0.56536000  0.82670000  0.39315000  1.0 -0.0781271982
C  C260  1  0.56536000  0.17330000  0.89315000  1.0 -0.0712634474
C  C261  1  0.41976000  0.14100000  0.56937000  1.0 0.1885886267
C  C262  1  0.41976000  0.85900000  0.06937000  1.0 0.1885886267
C  C263  1  0.58024000  0.85900000  0.43063000  1.0 0.1885886267
C  C264  1  0.58024000  0.14100000  0.93063000  1.0 0.1885886267
C  C265  1  0.37504000  0.11520000  0.55811000  1.0 -0.1812814442
C  C266  1  0.37504000  0.88480000  0.05811000  1.0 -0.1812814442
C  C267  1  0.62496000  0.88480000  0.44189000  1.0 -0.1812814442
C  C268  1  0.62496000  0.11520000  0.94189000  1.0 -0.1812814442
C  C269  1  0.37360000  0.08720000  0.51963000  1.0 -0.1812814442
C  C270  1  0.37360000  0.91280000  0.01963000  1.0 -0.1812814442
C  C271  1  0.62640000  0.91280000  0.48037000  1.0 -0.1812814442
C  C272  1  0.62640000  0.08720000  0.98037000  1.0 -0.1812814442
C  C273  1  0.41740000  0.09570000  0.50570000  1.0 0.1885886267
C  C274  1  0.41740000  0.90430000  0.00570000  1.0 0.1885886267
C  C275  1  0.58260000  0.90430000  0.49430000  1.0 0.1885886267
C  C276  1  0.58260000  0.09570000  0.99430000  1.0 0.1885886267
C  C277  1  0.43146000  0.07210000  0.46795000  1.0 -0.0781271982
C  C278  1  0.43146000  0.92790000  0.96795000  1.0 -0.0781271982
C  C279  1  0.56854000  0.92790000  0.53205000  1.0 -0.0781271982
C  C280  1  0.56854000  0.07210000  0.03205000  1.0 -0.0781271982
C  C281  1  0.47224000  0.08790000  0.45414000  1.0 0.1701919608
C  C282  1  0.47224000  0.91210000  0.95414000  1.0 0.1701919608
C  C283  1  0.52776000  0.91210000  0.54586000  1.0 0.1701919608
C  C284  1  0.52776000  0.08790000  0.04586000  1.0 0.1701919608
C  C285  1  0.48811000  0.05780000  0.41633000  1.0 -0.1812814442
C  C286  1  0.48811000  0.94220000  0.91633000  1.0 -0.1812814442
C  C287  1  0.51189000  0.94220000  0.58367000  1.0 -0.1812814442
C  C288  1  0.51189000  0.05780000  0.08367000  1.0 -0.1812814442
C  C289  1  0.52821000  0.09480000  0.41291000  1.0 -0.1812814442
C  C290  1  0.52821000  0.90520000  0.91291000  1.0 -0.1812814442
C  C291  1  0.47179000  0.90520000  0.58709000  1.0 -0.1812814442
C  C292  1  0.47179000  0.09480000  0.08709000  1.0 -0.1812814442
C  C293  1  0.53844000  0.14750000  0.44816000  1.0 0.1845011823
C  C294  1  0.53844000  0.85250000  0.94816000  1.0 0.1845011823
C  C295  1  0.46156000  0.85250000  0.55184000  1.0 0.1845011823
C  C296  1  0.46156000  0.14750000  0.05184000  1.0 0.1845011823
C  C297  1  0.57749000  0.20030000  0.45570000  1.0 -0.0781271982
C  C298  1  0.57749000  0.79970000  0.95570000  1.0 -0.0781271982
C  C299  1  0.42251000  0.79970000  0.54430000  1.0 -0.0781271982
C  C300  1  0.42251000  0.20030000  0.04430000  1.0 -0.0781271982
C  C301  1  0.59010000  0.24610000  0.49162000  1.0 0.1701919608
C  C302  1  0.59010000  0.75390000  0.99162000  1.0 0.1701919608
C  C303  1  0.40990000  0.75390000  0.50838000  1.0 0.1701919608
C  C304  1  0.40990000  0.24610000  0.00838000  1.0 0.1701919608
C  C305  1  0.63072000  0.29690000  0.49939000  1.0 -0.1884142976
C  C306  1  0.63072000  0.70310000  0.99939000  1.0 -0.1884142976
C  C307  1  0.36928000  0.70310000  0.50061000  1.0 -0.1884142976
C  C308  1  0.36928000  0.29690000  0.00061000  1.0 -0.1884142976
C  C309  1  0.63200000  0.32540000  0.53796000  1.0 -0.170676545
C  C310  1  0.63200000  0.67460000  0.03796000  1.0 -0.170676545
C  C311  1  0.36800000  0.67460000  0.46204000  1.0 -0.170676545
C  C312  1  0.36800000  0.32540000  0.96204000  1.0 -0.170676545
C  C313  1  0.61283000  0.35920000  0.62194000  1.0 0.0792449632
C  C314  1  0.61283000  0.64080000  0.12194000  1.0 0.0792449632
C  C315  1  0.38717000  0.64080000  0.37806000  1.0 0.0792449632
C  C316  1  0.38717000  0.35920000  0.87806000  1.0 0.0792449632
C  C317  1  0.61050000  0.45690000  0.62410000  1.0 -0.170676545
C  C318  1  0.61050000  0.54310000  0.12410000  1.0 -0.170676545
C  C319  1  0.38950000  0.54310000  0.37590000  1.0 -0.170676545
C  C320  1  0.38950000  0.45690000  0.87590000  1.0 -0.170676545
C  C321  1  0.63980000  0.50790000  0.65049000  1.0 -0.0925870828
C  C322  1  0.63980000  0.49210000  0.15049000  1.0 -0.0925870828
C  C323  1  0.36020000  0.49210000  0.34951000  1.0 -0.0925870828
C  C324  1  0.36020000  0.50790000  0.84951000  1.0 -0.0925870828
C  C325  1  0.66904000  0.46320000  0.67379000  1.0 -0.0107397305
C  C326  1  0.66904000  0.53680000  0.17379000  1.0 -0.0107397305
C  C327  1  0.33096000  0.53680000  0.32621000  1.0 -0.0107397305
C  C328  1  0.33096000  0.46320000  0.82621000  1.0 -0.0107397305
C  C329  1  0.67140000  0.36390000  0.66960000  1.0 -0.0595713965
C  C330  1  0.67140000  0.63610000  0.16960000  1.0 -0.0595713965
C  C331  1  0.32860000  0.63610000  0.33040000  1.0 -0.0595713965
C  C332  1  0.32860000  0.36390000  0.83040000  1.0 -0.0595713965
C  C333  1  0.64410000  0.31620000  0.64360000  1.0 -0.1303113978
C  C334  1  0.64410000  0.68380000  0.14360000  1.0 -0.1303113978
C  C335  1  0.35590000  0.68380000  0.35640000  1.0 -0.1303113978
C  C336  1  0.35590000  0.31620000  0.85640000  1.0 -0.1303113978
C  C337  1  0.69867000  0.52160000  0.70081000  1.0 0.5687946888
C  C338  1  0.69867000  0.47840000  0.20081000  1.0 0.5687946888
C  C339  1  0.30133000  0.47840000  0.29919000  1.0 0.5687946888
C  C340  1  0.30133000  0.52160000  0.79919000  1.0 0.5687946888
C  C341  1  0.40378000  0.17010000  0.63903000  1.0 0.0738029978
C  C342  1  0.40378000  0.82990000  0.13903000  1.0 0.0738029978
C  C343  1  0.59622000  0.82990000  0.36097000  1.0 0.0738029978
C  C344  1  0.59622000  0.17010000  0.86097000  1.0 0.0738029978
C  C345  1  0.38764000  0.08350000  0.65252000  1.0 -0.1505388083
C  C346  1  0.38764000  0.91650000  0.15252000  1.0 -0.1505388083
C  C347  1  0.61236000  0.91650000  0.34748000  1.0 -0.1505388083
C  C348  1  0.61236000  0.08350000  0.84748000  1.0 -0.1505388083
C  C349  1  0.35740000  0.07700000  0.68199000  1.0 -0.0712634474
C  C350  1  0.35740000  0.92300000  0.18199000  1.0 -0.0712634474
C  C351  1  0.64260000  0.92300000  0.31801000  1.0 -0.0712634474
C  C352  1  0.64260000  0.07700000  0.81801000  1.0 -0.0712634474
C  C353  1  0.34202000  0.16160000  0.69814000  1.0 -0.0107397305
C  C354  1  0.34202000  0.83840000  0.19814000  1.0 -0.0107397305
C  C355  1  0.65798000  0.83840000  0.30186000  1.0 -0.0107397305
C  C356  1  0.65798000  0.16160000  0.80186000  1.0 -0.0107397305
C  C357  1  0.35773000  0.24860000  0.68561000  1.0 -0.0781271982
C  C358  1  0.35773000  0.75140000  0.18561000  1.0 -0.0781271982
C  C359  1  0.64227000  0.75140000  0.31439000  1.0 -0.0781271982
C  C360  1  0.64227000  0.24860000  0.81439000  1.0 -0.0781271982
C  C361  1  0.38739000  0.25360000  0.65623000  1.0 -0.1505388083
C  C362  1  0.38739000  0.74640000  0.15623000  1.0 -0.1505388083
C  C363  1  0.61261000  0.74640000  0.34377000  1.0 -0.1505388083
C  C364  1  0.61261000  0.25360000  0.84377000  1.0 -0.1505388083
C  C365  1  0.30795000  0.15600000  0.72953000  1.0 0.5988382884
C  C366  1  0.30795000  0.84400000  0.22953000  1.0 0.5988382884
C  C367  1  0.69205000  0.84400000  0.27047000  1.0 0.5988382884
C  C368  1  0.69205000  0.15600000  0.77047000  1.0 0.5988382884
C  C369  1  0.39705000  0.02810000  0.43968000  1.0 0.0872313641
C  C370  1  0.39705000  0.97190000  0.93968000  1.0 0.0872313641
C  C371  1  0.60295000  0.97190000  0.56032000  1.0 0.0872313641
C  C372  1  0.60295000  0.02810000  0.06032000  1.0 0.0872313641
C  C373  1  0.38778000  0.06810000  0.40269000  1.0 -0.1505388083
C  C374  1  0.38778000  0.93190000  0.90269000  1.0 -0.1505388083
C  C375  1  0.61222000  0.93190000  0.59731000  1.0 -0.1505388083
C  C376  1  0.61222000  0.06810000  0.09731000  1.0 -0.1505388083
C  C377  1  0.35582000  0.03040000  0.37801000  1.0 -0.0712634474
C  C378  1  0.35582000  0.96960000  0.87801000  1.0 -0.0712634474
C  C379  1  0.64418000  0.96960000  0.62199000  1.0 -0.0712634474
C  C380  1  0.64418000  0.03040000  0.12199000  1.0 -0.0712634474
C  C381  1  0.33188000  0.95110000  0.38887000  1.0 -0.0266555334
C  C382  1  0.33188000  0.04890000  0.88887000  1.0 -0.0266555334
C  C383  1  0.66812000  0.04890000  0.61113000  1.0 -0.0266555334
C  C384  1  0.66812000  0.95110000  0.11113000  1.0 -0.0266555334
C  C385  1  0.34156000  0.90800000  0.42529000  1.0 -0.0925870828
C  C386  1  0.34156000  0.09200000  0.92529000  1.0 -0.0925870828
C  C387  1  0.65844000  0.09200000  0.57471000  1.0 -0.0925870828
C  C388  1  0.65844000  0.90800000  0.07471000  1.0 -0.0925870828
C  C389  1  0.37419000  0.94440000  0.45057000  1.0 -0.1505388083
C  C390  1  0.37419000  0.05560000  0.95057000  1.0 -0.1505388083
C  C391  1  0.62581000  0.05560000  0.54943000  1.0 -0.1505388083
C  C392  1  0.62581000  0.94440000  0.04943000  1.0 -0.1505388083
C  C393  1  0.29589000  0.91270000  0.36207000  1.0 0.5508621447
C  C394  1  0.29589000  0.08730000  0.86207000  1.0 0.5508621447
C  C395  1  0.70411000  0.08730000  0.63793000  1.0 0.5508621447
C  C396  1  0.70411000  0.91270000  0.13793000  1.0 0.5508621447
C  C397  1  0.60639000  0.21210000  0.42173000  1.0 0.0738029978
C  C398  1  0.60639000  0.78790000  0.92173000  1.0 0.0738029978
C  C399  1  0.39361000  0.78790000  0.57827000  1.0 0.0738029978
C  C400  1  0.39361000  0.21210000  0.07827000  1.0 0.0738029978
C  C401  1  0.63690000  0.14550000  0.41281000  1.0 -0.1588534182
C  C402  1  0.63690000  0.85450000  0.91281000  1.0 -0.1588534182
C  C403  1  0.36310000  0.85450000  0.58719000  1.0 -0.1588534182
C  C404  1  0.36310000  0.14550000  0.08719000  1.0 -0.1588534182
C  C405  1  0.66236000  0.15400000  0.38021000  1.0 -0.0712634474
C  C406  1  0.66236000  0.84600000  0.88021000  1.0 -0.0712634474
C  C407  1  0.33764000  0.84600000  0.61979000  1.0 -0.0712634474
C  C408  1  0.33764000  0.15400000  0.11979000  1.0 -0.0712634474
C  C409  1  0.65757000  0.23210000  0.35501000  1.0 -0.0107397305
C  C410  1  0.65757000  0.76790000  0.85501000  1.0 -0.0107397305
C  C411  1  0.34243000  0.76790000  0.64499000  1.0 -0.0107397305
C  C412  1  0.34243000  0.23210000  0.14499000  1.0 -0.0107397305
C  C413  1  0.62719000  0.29950000  0.36509000  1.0 -0.0925870828
C  C414  1  0.62719000  0.70050000  0.86509000  1.0 -0.0925870828
C  C415  1  0.37281000  0.70050000  0.63491000  1.0 -0.0925870828
C  C416  1  0.37281000  0.29950000  0.13491000  1.0 -0.0925870828
C  C417  1  0.60197000  0.28910000  0.39695000  1.0 -0.1588534182
C  C418  1  0.60197000  0.71090000  0.89695000  1.0 -0.1588534182
C  C419  1  0.39803000  0.71090000  0.60305000  1.0 -0.1588534182
C  C420  1  0.39803000  0.28910000  0.10305000  1.0 -0.1588534182
C  C421  1  0.68422000  0.24430000  0.31913000  1.0 0.5687946888
C  C422  1  0.68422000  0.75570000  0.81913000  1.0 0.5687946888
C  C423  1  0.31578000  0.75570000  0.68087000  1.0 0.5687946888
C  C424  1  0.31578000  0.24430000  0.18087000  1.0 0.5687946888
N  N1  1  0.98739000  0.80170000  0.90692000  1.0 -0.360115651
N  N2  1  0.98739000  0.19830000  0.40692000  1.0 -0.360115651
N  N3  1  0.01261000  0.19830000  0.09308000  1.0 -0.360115651
N  N4  1  0.01261000  0.80170000  0.59308000  1.0 -0.360115651
N  N5  1  0.93197000  0.76470000  0.97288000  1.0 -0.4112533219
N  N6  1  0.93197000  0.23530000  0.47288000  1.0 -0.4112533219
N  N7  1  0.06803000  0.23530000  0.02712000  1.0 -0.4112533219
N  N8  1  0.06803000  0.76470000  0.52712000  1.0 -0.4112533219
N  N9  1  0.99628000  0.85530000  0.02715000  1.0 -0.3675683029
N  N10  1  0.99628000  0.14470000  0.52715000  1.0 -0.3675683029
N  N11  1  0.00372000  0.14470000  0.97285000  1.0 -0.3675683029
N  N12  1  0.00372000  0.85530000  0.47285000  1.0 -0.3675683029
N  N13  1  0.05263000  0.88761000  0.96111000  1.0 -0.360115651
N  N14  1  0.05263000  0.11239000  0.46111000  1.0 -0.360115651
N  N15  1  0.94737000  0.11239000  0.03889000  1.0 -0.360115651
N  N16  1  0.94737000  0.88761000  0.53889000  1.0 -0.360115651
N  N17  1  0.02595000  0.66890000  0.97728000  1.0 -0.1884142976
N  N18  1  0.02595000  0.33110000  0.47728000  1.0 -0.1884142976
N  N19  1  0.97405000  0.33110000  0.02272000  1.0 -0.1884142976
N  N20  1  0.97405000  0.66890000  0.52272000  1.0 -0.1884142976
N  N21  1  0.47506000  0.32720000  0.51398000  1.0 -0.2359947599
N  N22  1  0.47506000  0.67280000  0.01398000  1.0 -0.2359947599
N  N23  1  0.52494000  0.67280000  0.48602000  1.0 -0.2359947599
N  N24  1  0.52494000  0.32720000  0.98602000  1.0 -0.2349000908
N  N25  1  0.50847000  0.22680000  0.58962000  1.0 -0.3793300378
N  N26  1  0.50847000  0.77320000  0.08962000  1.0 -0.3793300378
N  N27  1  0.49153000  0.77320000  0.41038000  1.0 -0.3793300378
N  N28  1  0.49153000  0.22680000  0.91038000  1.0 -0.3793300378
N  N29  1  0.44438000  0.13070000  0.53666000  1.0 -0.360115651
N  N30  1  0.44438000  0.86930000  0.03666000  1.0 -0.360115651
N  N31  1  0.55562000  0.86930000  0.46334000  1.0 -0.360115651
N  N32  1  0.55562000  0.13070000  0.96334000  1.0 -0.360115651
N  N33  1  0.50552000  0.14030000  0.47369000  1.0 -0.3793300378
N  N34  1  0.50552000  0.85970000  0.97369000  1.0 -0.3793300378
N  N35  1  0.49448000  0.85970000  0.52631000  1.0 -0.3793300378
N  N36  1  0.49448000  0.14030000  0.02631000  1.0 -0.3793300378
N  N37  1  0.56690000  0.24590000  0.52522000  1.0 -0.3793300378
N  N38  1  0.56690000  0.75410000  0.02522000  1.0 -0.3793300378
N  N39  1  0.43310000  0.75410000  0.47478000  1.0 -0.3793300378
N  N40  1  0.43310000  0.24590000  0.97478000  1.0 -0.3793300378
O  O1  1  0.20921000  0.81188000  0.76039000  1.0 -0.5471223704
O  O2  1  0.20921000  0.18812000  0.26039000  1.0 -0.5471223704
O  O3  1  0.79079000  0.18812000  0.23961000  1.0 -0.5471223704
O  O4  1  0.79079000  0.81188000  0.73961000  1.0 -0.5471223704
O  O5  1  0.20752000  0.97200000  0.76667000  1.0 -0.59272765
O  O6  1  0.20752000  0.02800000  0.26667000  1.0 -0.59272765
O  O7  1  0.79248000  0.02800000  0.23333000  1.0 -0.59272765
O  O8  1  0.79248000  0.97200000  0.73333000  1.0 -0.59272765
O  O9  1  0.78955000  0.43473000  0.79491000  1.0 -0.4492776208
O  O10  1  0.78955000  0.56527000  0.29491000  1.0 -0.4492776208
O  O11  1  0.21045000  0.56527000  0.20509000  1.0 -0.4492776208
O  O12  1  0.21045000  0.43473000  0.70509000  1.0 -0.4492776208
O  O13  1  0.77221000  0.57579000  0.76663000  1.0 -0.4886475243
O  O14  1  0.77221000  0.42421000  0.26663000  1.0 -0.5009066649
O  O15  1  0.22779000  0.42421000  0.23337000  1.0 -0.5009066649
O  O16  1  0.22779000  0.57579000  0.73337000  1.0 -0.5009066649
O  O17  1  0.77716000  0.76602000  0.17857000  1.0 -0.5574382432
O  O18  1  0.77716000  0.23398000  0.67857000  1.0 -0.5574382432
O  O19  1  0.22284000  0.23398000  0.82143000  1.0 -0.5574382432
O  O20  1  0.22284000  0.76602000  0.32143000  1.0 -0.5574382432
O  O21  1  0.82601000  0.66250000  0.20295000  1.0 -0.5009066649
O  O22  1  0.82601000  0.33750000  0.70295000  1.0 -0.5009066649
O  O23  1  0.17399000  0.33750000  0.79705000  1.0 -0.5009066649
O  O24  1  0.17399000  0.66250000  0.29705000  1.0 -0.5071795769
O  O25  1  0.22930000  0.12820000  0.13140000  1.0 -0.5071795769
O  O26  1  0.22930000  0.87180000  0.63140000  1.0 -0.5071795769
O  O27  1  0.77070000  0.87180000  0.86860000  1.0 -0.5071795769
O  O28  1  0.77070000  0.12820000  0.36860000  1.0 -0.5071795769
O  O29  1  0.22221000  0.00060000  0.17188000  1.0 -0.5009066649
O  O30  1  0.22221000  0.99940000  0.67188000  1.0 -0.5071795769
O  O31  1  0.77779000  0.99940000  0.82812000  1.0 -0.5071795769
O  O32  1  0.77779000  0.00060000  0.32812000  1.0 -0.5071795769
O  O33  1  0.69561000  0.60747000  0.70373000  1.0 -0.4235654511
O  O34  1  0.69561000  0.39253000  0.20373000  1.0 -0.4259868302
O  O35  1  0.30439000  0.39253000  0.29627000  1.0 -0.4259868302
O  O36  1  0.30439000  0.60747000  0.79627000  1.0 -0.4235654511
O  O37  1  0.72785000  0.47060000  0.72091000  1.0 -0.4825848646
O  O38  1  0.72785000  0.52940000  0.22091000  1.0 -0.4825848646
O  O39  1  0.27215000  0.52940000  0.27909000  1.0 -0.4825848646
O  O40  1  0.27215000  0.47060000  0.77909000  1.0 -0.4825848646
O  O41  1  0.29193000  0.23113000  0.74241000  1.0 -0.5471223704
O  O42  1  0.29193000  0.76887000  0.24241000  1.0 -0.5471223704
O  O43  1  0.70807000  0.76887000  0.25759000  1.0 -0.5440444835
O  O44  1  0.70807000  0.23113000  0.75759000  1.0 -0.5440444835
O  O45  1  0.29753000  0.07180000  0.73999000  1.0 -0.5836245306
O  O46  1  0.29753000  0.92820000  0.23999000  1.0 -0.5836245306
O  O47  1  0.70247000  0.92820000  0.26001000  1.0 -0.5836245306
O  O48  1  0.70247000  0.07180000  0.76001000  1.0 -0.5836245306
O  O49  1  0.27723000  0.83280000  0.37502000  1.0 -0.5270757862
O  O50  1  0.27723000  0.16720000  0.87502000  1.0 -0.5270757862
O  O51  1  0.72277000  0.16720000  0.62498000  1.0 -0.5270757862
O  O52  1  0.72277000  0.83280000  0.12498000  1.0 -0.5270757862
O  O53  1  0.28387000  0.95280000  0.33115000  1.0 -0.4687122889
O  O54  1  0.28387000  0.04720000  0.83115000  1.0 -0.4687122889
O  O55  1  0.71613000  0.04720000  0.66885000  1.0 -0.4687122889
O  O56  1  0.71613000  0.95280000  0.16885000  1.0 -0.4687122889
O  O57  1  0.71676000  0.18899000  0.31540000  1.0 -0.5471223704
O  O58  1  0.71676000  0.81101000  0.81540000  1.0 -0.5440444835
O  O59  1  0.28324000  0.81101000  0.68460000  1.0 -0.5440444835
O  O60  1  0.28324000  0.18899000  0.18460000  1.0 -0.5471223704
O  O61  1  0.67413000  0.30620000  0.29335000  1.0 -0.4825848646
O  O62  1  0.67413000  0.69380000  0.79335000  1.0 -0.4886475243
O  O63  1  0.32587000  0.69380000  0.70665000  1.0 -0.4886475243
O  O64  1  0.32587000  0.30620000  0.20665000  1.0 -0.4886475243
O  O65  1  0.30567000  0.86160000  0.78098000  1.0 -0.9017263539
O  O66  1  0.30567000  0.13840000  0.28098000  1.0 -0.9017263539
O  O67  1  0.69433000  0.13840000  0.21902000  1.0 -0.9017263539
O  O68  1  0.69433000  0.86160000  0.71902000  1.0 -0.9017263539
O  O69  1  0.19482000  0.18090000  0.72670000  1.0 -0.9102806933
O  O70  1  0.19482000  0.81910000  0.22670000  1.0 -0.9102806933
O  O71  1  0.80518000  0.81910000  0.27330000  1.0 -0.9102806933
O  O72  1  0.80518000  0.18090000  0.77330000  1.0 -0.9102806933
