# DDEC6 charges by PACMAN v1.1 (https://github.com/mtap-research/PACMAN-charge/)
data_EBUQEX_ASR_pacman
_symmetry_space_group_name_H-M   'P 1'
_cell_length_a   16.26680000
_cell_length_b   16.26680000
_cell_length_c   24.01600000
_cell_angle_alpha   88.68640000
_cell_angle_beta   91.31360000
_cell_angle_gamma   72.64650000
_symmetry_Int_Tables_number   1
_chemical_formula_structural   NaH29C48(NO2)4
_chemical_formula_sum   'Na4 H116 C192 N16 O32'
_cell_volume   6061.04489513
_cell_formula_units_Z   4
loop_
 _symmetry_equiv_pos_site_id
 _symmetry_equiv_pos_as_xyz
  1  'x, y, z'
loop_
 _atom_site_type_symbol
 _atom_site_label
 _atom_site_symmetry_multiplicity
 _atom_site_fract_x
 _atom_site_fract_y
 _atom_site_fract_z
 _atom_site_occupancy
 _atom_site_charge
Na  Na1  1  0.07430000  0.06712000  0.00995000  1.0 0.8699683979
Na  Na2  1  0.93288000  0.92570000  0.50995000  1.0 0.8699683979
Na  Na3  1  0.92570000  0.93288000  0.99005000  1.0 0.8699683979
Na  Na4  1  0.06712000  0.07430000  0.49005000  1.0 0.8699683979
H  H1  1  0.35450000  0.54050000  0.84870000  1.0 0.2788199693
H  H2  1  0.45950000  0.64550000  0.34870000  1.0 0.2788199693
H  H3  1  0.64550000  0.45950000  0.15130000  1.0 0.2788199693
H  H4  1  0.54050000  0.35450000  0.65130000  1.0 0.2788199693
H  H5  1  0.49240000  0.53780000  0.89540000  1.0 0.2715180203
H  H6  1  0.46220000  0.50760000  0.39540000  1.0 0.2715180203
H  H7  1  0.50760000  0.46220000  0.10460000  1.0 0.2715180203
H  H8  1  0.53780000  0.49240000  0.60460000  1.0 0.2715180203
H  H9  1  0.55070000  0.22230000  0.93760000  1.0 0.1289766022
H  H10  1  0.77770000  0.44930000  0.43760000  1.0 0.1289766022
H  H11  1  0.44930000  0.77770000  0.06240000  1.0 0.1289766022
H  H12  1  0.22230000  0.55070000  0.56240000  1.0 0.1289766022
H  H13  1  0.40680000  0.22900000  0.90170000  1.0 0.1208366868
H  H14  1  0.77100000  0.59320000  0.40170000  1.0 0.1208366868
H  H15  1  0.59320000  0.77100000  0.09830000  1.0 0.1208366868
H  H16  1  0.22900000  0.40680000  0.59830000  1.0 0.1208366868
H  H17  1  0.13600000  0.48380000  0.81810000  1.0 0.1289766022
H  H18  1  0.51620000  0.86400000  0.31810000  1.0 0.1289766022
H  H19  1  0.86400000  0.51620000  0.18190000  1.0 0.1289766022
H  H20  1  0.48380000  0.13600000  0.68190000  1.0 0.1289766022
H  H21  1  0.12260000  0.62700000  0.77810000  1.0 0.1289766022
H  H22  1  0.37300000  0.87740000  0.27810000  1.0 0.1289766022
H  H23  1  0.87740000  0.37300000  0.22190000  1.0 0.1289766022
H  H24  1  0.62700000  0.12260000  0.72190000  1.0 0.1289766022
H  H25  1  0.33430000  0.82410000  0.76230000  1.0 0.1289766022
H  H26  1  0.17590000  0.66570000  0.26230000  1.0 0.1289766022
H  H27  1  0.66570000  0.17590000  0.23770000  1.0 0.1289766022
H  H28  1  0.82410000  0.33430000  0.73770000  1.0 0.1289766022
H  H29  1  0.46480000  0.82580000  0.81500000  1.0 0.1289766022
H  H30  1  0.17420000  0.53520000  0.31500000  1.0 0.1289766022
H  H31  1  0.53520000  0.17420000  0.18500000  1.0 0.1289766022
H  H32  1  0.82580000  0.46480000  0.68500000  1.0 0.1289766022
H  H33  1  0.67940000  0.61060000  0.96180000  1.0 0.1289766022
H  H34  1  0.38940000  0.32060000  0.46180000  1.0 0.1289766022
H  H35  1  0.32060000  0.38940000  0.03820000  1.0 0.1289766022
H  H36  1  0.61060000  0.67940000  0.53820000  1.0 0.1289766022
H  H37  1  0.70390000  0.45930000  0.98910000  1.0 0.1289766022
H  H38  1  0.54070000  0.29610000  0.48910000  1.0 0.1289766022
H  H39  1  0.29610000  0.54070000  0.01090000  1.0 0.1289766022
H  H40  1  0.45930000  0.70390000  0.51090000  1.0 0.1289766022
H  H41  1  0.61860000  0.33400000  0.05130000  1.0 0.1208366868
H  H42  1  0.66600000  0.38140000  0.55130000  1.0 0.1208366868
H  H43  1  0.38140000  0.66600000  0.94870000  1.0 0.1208366868
H  H44  1  0.33400000  0.61860000  0.44870000  1.0 0.1208366868
H  H45  1  0.73180000  0.22880000  0.09330000  1.0 0.1208366868
H  H46  1  0.77120000  0.26820000  0.59330000  1.0 0.1208366868
H  H47  1  0.26820000  0.77120000  0.90670000  1.0 0.1208366868
H  H48  1  0.22880000  0.73180000  0.40670000  1.0 0.1208366868
H  H49  1  0.83160000  0.16560000  0.94460000  1.0 0.1208366868
H  H50  1  0.83440000  0.16840000  0.44460000  1.0 0.1208366868
H  H51  1  0.16840000  0.83440000  0.05540000  1.0 0.1208366868
H  H52  1  0.16560000  0.83160000  0.55540000  1.0 0.1208366868
H  H53  1  0.71980000  0.27280000  0.90290000  1.0 0.1208366868
H  H54  1  0.72720000  0.28020000  0.40290000  1.0 0.1208366868
H  H55  1  0.28020000  0.72720000  0.09710000  1.0 0.1208366868
H  H56  1  0.27280000  0.71980000  0.59710000  1.0 0.1208366868
H  H57  1  0.91320000  0.06580000  0.12140000  1.0 0.3698047682
H  H58  1  0.93420000  0.08680000  0.62140000  1.0 0.3698047682
H  H59  1  0.08680000  0.93420000  0.87860000  1.0 0.3698047682
H  H60  1  0.06580000  0.91320000  0.37860000  1.0 0.3698047682
H  H61  1  0.22540000  0.32980000  0.78550000  1.0 0.1208366868
H  H62  1  0.67020000  0.77460000  0.28550000  1.0 0.1208366868
H  H63  1  0.77460000  0.67020000  0.21450000  1.0 0.1208366868
H  H64  1  0.32980000  0.22540000  0.71450000  1.0 0.1208366868
H  H65  1  0.14760000  0.23220000  0.79070000  1.0 0.1208366868
H  H66  1  0.76780000  0.85240000  0.29070000  1.0 0.1208366868
H  H67  1  0.85240000  0.76780000  0.20930000  1.0 0.1208366868
H  H68  1  0.23220000  0.14760000  0.70930000  1.0 0.1208366868
H  H69  1  0.17430000  0.22170000  0.95690000  1.0 0.1208366868
H  H70  1  0.77830000  0.82570000  0.45690000  1.0 0.1208366868
H  H71  1  0.82570000  0.77830000  0.04310000  1.0 0.1208366868
H  H72  1  0.22170000  0.17430000  0.54310000  1.0 0.1208366868
H  H73  1  0.25290000  0.31790000  0.95210000  1.0 0.1208366868
H  H74  1  0.68210000  0.74710000  0.45210000  1.0 0.1208366868
H  H75  1  0.74710000  0.68210000  0.04790000  1.0 0.1208366868
H  H76  1  0.31790000  0.25290000  0.54790000  1.0 0.1208366868
H  H77  1  0.05810000  0.08230000  0.83570000  1.0 0.357996425
H  H78  1  0.91770000  0.94190000  0.33570000  1.0 0.357996425
H  H79  1  0.94190000  0.91770000  0.16430000  1.0 0.357996425
H  H80  1  0.08230000  0.05810000  0.66430000  1.0 0.357996425
H  H81  1  0.18580000  0.84980000  0.80150000  1.0 0.1208366868
H  H82  1  0.15020000  0.81420000  0.30150000  1.0 0.1208366868
H  H83  1  0.81420000  0.15020000  0.19850000  1.0 0.1208366868
H  H84  1  0.84980000  0.18580000  0.69850000  1.0 0.1208366868
H  H85  1  0.09120000  0.94860000  0.74200000  1.0 0.1208366868
H  H86  1  0.05140000  0.90880000  0.24200000  1.0 0.1208366868
H  H87  1  0.90880000  0.05140000  0.25800000  1.0 0.1208366868
H  H88  1  0.94860000  0.09120000  0.75800000  1.0 0.1208366868
H  H89  1  0.10240000  0.76380000  0.63300000  1.0 0.1137715078
H  H90  1  0.23620000  0.89760000  0.13300000  1.0 0.1137715078
H  H91  1  0.89760000  0.23620000  0.36700000  1.0 0.1137715078
H  H92  1  0.76380000  0.10240000  0.86700000  1.0 0.1137715078
H  H93  1  0.19980000  0.66560000  0.69110000  1.0 0.1208366868
H  H94  1  0.33440000  0.80020000  0.19110000  1.0 0.1208366868
H  H95  1  0.80020000  0.33440000  0.30890000  1.0 0.1208366868
H  H96  1  0.66560000  0.19980000  0.80890000  1.0 0.1208366868
H  H97  1  0.54620000  0.78300000  0.97290000  1.0 0.1208366868
H  H98  1  0.21700000  0.45380000  0.47290000  1.0 0.1208366868
H  H99  1  0.45380000  0.21700000  0.02710000  1.0 0.1208366868
H  H100  1  0.78300000  0.54620000  0.52710000  1.0 0.1208366868
H  H101  1  0.63710000  0.86550000  0.98870000  1.0 0.1208366868
H  H102  1  0.13450000  0.36290000  0.48870000  1.0 0.1208366868
H  H103  1  0.36290000  0.13450000  0.01130000  1.0 0.1208366868
H  H104  1  0.86550000  0.63710000  0.51130000  1.0 0.1208366868
H  H105  1  0.72780000  0.81680000  0.83650000  1.0 0.1208366868
H  H106  1  0.18320000  0.27220000  0.33650000  1.0 0.1208366868
H  H107  1  0.27220000  0.18320000  0.16350000  1.0 0.1208366868
H  H108  1  0.81680000  0.72780000  0.66350000  1.0 0.1208366868
H  H109  1  0.64190000  0.72910000  0.82210000  1.0 0.1208366868
H  H110  1  0.27090000  0.35810000  0.32210000  1.0 0.1208366868
H  H111  1  0.35810000  0.27090000  0.17790000  1.0 0.1208366868
H  H112  1  0.72910000  0.64190000  0.67790000  1.0 0.1208366868
H  H113  1  0.82760000  0.94780000  0.88480000  1.0 0.357996425
H  H114  1  0.05220000  0.17240000  0.38480000  1.0 0.357996425
H  H115  1  0.17240000  0.05220000  0.11520000  1.0 0.357996425
H  H116  1  0.94780000  0.82760000  0.61520000  1.0 0.357996425
C  C1  1  0.58903000  0.46617000  0.94353000  1.0 0.1696392718
C  C2  1  0.53383000  0.41097000  0.44353000  1.0 0.1696392718
C  C3  1  0.41097000  0.53383000  0.05647000  1.0 0.1696392718
C  C4  1  0.46617000  0.58903000  0.55647000  1.0 0.1696392718
C  C5  1  0.58295000  0.38271000  0.94501000  1.0 -0.0807643133
C  C6  1  0.61729000  0.41705000  0.44501000  1.0 -0.0807643133
C  C7  1  0.41705000  0.61729000  0.05499000  1.0 -0.0807643133
C  C8  1  0.38271000  0.58295000  0.55499000  1.0 -0.0807643133
C  C9  1  0.51435000  0.35783000  0.92337000  1.0 0.1794553776
C  C10  1  0.64217000  0.48565000  0.42337000  1.0 0.1794553776
C  C11  1  0.48565000  0.64217000  0.07663000  1.0 0.1794553776
C  C12  1  0.35783000  0.51435000  0.57663000  1.0 0.1794553776
C  C13  1  0.50798000  0.27168000  0.92499000  1.0 -0.197226347
C  C14  1  0.72832000  0.49202000  0.42499000  1.0 -0.197226347
C  C15  1  0.49202000  0.72832000  0.07501000  1.0 -0.197226347
C  C16  1  0.27168000  0.50798000  0.57501000  1.0 -0.197226347
C  C17  1  0.42893000  0.27519000  0.90492000  1.0 -0.197226347
C  C18  1  0.72481000  0.57107000  0.40492000  1.0 -0.197226347
C  C19  1  0.57107000  0.72481000  0.09508000  1.0 -0.197226347
C  C20  1  0.27519000  0.42893000  0.59508000  1.0 -0.197226347
C  C21  1  0.38488000  0.36458000  0.88931000  1.0 0.1794553776
C  C22  1  0.63542000  0.61512000  0.38931000  1.0 0.1794553776
C  C23  1  0.61512000  0.63542000  0.11069000  1.0 0.1794553776
C  C24  1  0.36458000  0.38488000  0.61069000  1.0 0.1794553776
C  C25  1  0.30083000  0.39565000  0.86679000  1.0 -0.0890130522
C  C26  1  0.60435000  0.69917000  0.36679000  1.0 -0.0890130522
C  C27  1  0.69917000  0.60435000  0.13321000  1.0 -0.0890130522
C  C28  1  0.39565000  0.30083000  0.63321000  1.0 -0.0890130522
C  C29  1  0.26397000  0.47789000  0.84308000  1.0 0.1794553776
C  C30  1  0.52211000  0.73603000  0.34308000  1.0 0.1794553776
C  C31  1  0.73603000  0.52211000  0.15692000  1.0 0.1696392718
C  C32  1  0.47789000  0.26397000  0.65692000  1.0 0.1794553776
C  C33  1  0.17843000  0.51143000  0.81859000  1.0 -0.190479979
C  C34  1  0.48857000  0.82157000  0.31859000  1.0 -0.190479979
C  C35  1  0.82157000  0.48857000  0.18141000  1.0 -0.190479979
C  C36  1  0.51143000  0.17843000  0.68141000  1.0 -0.190479979
C  C37  1  0.17128000  0.59058000  0.79648000  1.0 -0.190479979
C  C38  1  0.40942000  0.82872000  0.29648000  1.0 -0.190479979
C  C39  1  0.82872000  0.40942000  0.20352000  1.0 -0.190479979
C  C40  1  0.59058000  0.17128000  0.70352000  1.0 -0.190479979
C  C41  1  0.25121000  0.60903000  0.80614000  1.0 0.1696392718
C  C42  1  0.39097000  0.74879000  0.30614000  1.0 0.1696392718
C  C43  1  0.74879000  0.39097000  0.19386000  1.0 0.1696392718
C  C44  1  0.60903000  0.25121000  0.69386000  1.0 0.1696392718
C  C45  1  0.27003000  0.68429000  0.78938000  1.0 -0.0890130522
C  C46  1  0.31571000  0.72997000  0.28938000  1.0 -0.0890130522
C  C47  1  0.72997000  0.31571000  0.21062000  1.0 -0.0807643133
C  C48  1  0.68429000  0.27003000  0.71062000  1.0 -0.0807643133
C  C49  1  0.34456000  0.70522000  0.80539000  1.0 0.1794553776
C  C50  1  0.29478000  0.65544000  0.30539000  1.0 0.1794553776
C  C51  1  0.65544000  0.29478000  0.19461000  1.0 0.1794553776
C  C52  1  0.70522000  0.34456000  0.69461000  1.0 0.1794553776
C  C53  1  0.36522000  0.78248000  0.78835000  1.0 -0.190479979
C  C54  1  0.21752000  0.63478000  0.28835000  1.0 -0.190479979
C  C55  1  0.63478000  0.21752000  0.21165000  1.0 -0.190479979
C  C56  1  0.78248000  0.36522000  0.71165000  1.0 -0.190479979
C  C57  1  0.43731000  0.78335000  0.81704000  1.0 -0.190479979
C  C58  1  0.21665000  0.56269000  0.31704000  1.0 -0.190479979
C  C59  1  0.56269000  0.21665000  0.18296000  1.0 -0.190479979
C  C60  1  0.78335000  0.43731000  0.68296000  1.0 -0.190479979
C  C61  1  0.46345000  0.70551000  0.85155000  1.0 0.1794553776
C  C62  1  0.29449000  0.53655000  0.35155000  1.0 0.1794553776
C  C63  1  0.53655000  0.29449000  0.14845000  1.0 0.1794553776
C  C64  1  0.70551000  0.46345000  0.64845000  1.0 0.1794553776
C  C65  1  0.53478000  0.68282000  0.88908000  1.0 -0.0807643133
C  C66  1  0.31718000  0.46522000  0.38908000  1.0 -0.0807643133
C  C67  1  0.46522000  0.31718000  0.11092000  1.0 -0.0807643133
C  C68  1  0.68282000  0.53478000  0.61092000  1.0 -0.0807643133
C  C69  1  0.56645000  0.60407000  0.91857000  1.0 0.1696392718
C  C70  1  0.39593000  0.43355000  0.41857000  1.0 0.1696392718
C  C71  1  0.43355000  0.39593000  0.08143000  1.0 0.1696392718
C  C72  1  0.60407000  0.56645000  0.58143000  1.0 0.1696392718
C  C73  1  0.64446000  0.57686000  0.95213000  1.0 -0.190479979
C  C74  1  0.42314000  0.35554000  0.45213000  1.0 -0.190479979
C  C75  1  0.35554000  0.42314000  0.04787000  1.0 -0.190479979
C  C76  1  0.57686000  0.64446000  0.54787000  1.0 -0.190479979
C  C77  1  0.65792000  0.49330000  0.96719000  1.0 -0.1838921138
C  C78  1  0.50670000  0.34208000  0.46719000  1.0 -0.1838921138
C  C79  1  0.34208000  0.50670000  0.03281000  1.0 -0.1838921138
C  C80  1  0.49330000  0.65792000  0.53281000  1.0 -0.1838921138
C  C81  1  0.65659000  0.31407000  0.97207000  1.0 0.0916581946
C  C82  1  0.68593000  0.34341000  0.47207000  1.0 0.0916581946
C  C83  1  0.34341000  0.68593000  0.02793000  1.0 0.0916581946
C  C84  1  0.31407000  0.65659000  0.52793000  1.0 0.0916581946
C  C85  1  0.66151000  0.30007000  0.02953000  1.0 -0.1401243697
C  C86  1  0.69993000  0.33849000  0.52953000  1.0 -0.1401243697
C  C87  1  0.33849000  0.69993000  0.97047000  1.0 -0.1401243697
C  C88  1  0.30007000  0.66151000  0.47047000  1.0 -0.1401243697
C  C89  1  0.72909000  0.23671000  0.05474000  1.0 -0.0890130522
C  C90  1  0.76329000  0.27091000  0.55474000  1.0 -0.0890130522
C  C91  1  0.27091000  0.76329000  0.94526000  1.0 -0.0890130522
C  C92  1  0.23671000  0.72909000  0.44526000  1.0 -0.0890130522
C  C93  1  0.79279000  0.18497000  0.02308000  1.0 -0.046454651
C  C94  1  0.81503000  0.20721000  0.52308000  1.0 -0.046454651
C  C95  1  0.20721000  0.81503000  0.97692000  1.0 -0.046454651
C  C96  1  0.18497000  0.79279000  0.47692000  1.0 -0.046454651
C  C97  1  0.78863000  0.19945000  0.96639000  1.0 -0.0807643133
C  C98  1  0.80055000  0.21137000  0.46639000  1.0 -0.0807643133
C  C99  1  0.21137000  0.80055000  0.03361000  1.0 -0.0807643133
C  C100  1  0.19945000  0.78863000  0.53361000  1.0 -0.0807643133
C  C101  1  0.72125000  0.26369000  0.94131000  1.0 -0.1401243697
C  C102  1  0.73631000  0.27875000  0.44131000  1.0 -0.1401243697
C  C103  1  0.27875000  0.73631000  0.05869000  1.0 -0.1401243697
C  C104  1  0.26369000  0.72125000  0.55869000  1.0 -0.1401243697
C  C105  1  0.86740000  0.11724000  0.04847000  1.0 0.5909135326
C  C106  1  0.88276000  0.13260000  0.54847000  1.0 0.5909135326
C  C107  1  0.13260000  0.88276000  0.95153000  1.0 0.5909135326
C  C108  1  0.11724000  0.86740000  0.45153000  1.0 0.5909135326
C  C109  1  0.24705000  0.33505000  0.86839000  1.0 0.0974512346
C  C110  1  0.66495000  0.75295000  0.36839000  1.0 0.0974512346
C  C111  1  0.75295000  0.66495000  0.13161000  1.0 0.0974512346
C  C112  1  0.33505000  0.24705000  0.63161000  1.0 0.0974512346
C  C113  1  0.21533000  0.30823000  0.82008000  1.0 -0.1484955878
C  C114  1  0.69177000  0.78467000  0.32008000  1.0 -0.1484955878
C  C115  1  0.78467000  0.69177000  0.17992000  1.0 -0.1484955878
C  C116  1  0.30823000  0.21533000  0.67992000  1.0 -0.1484955878
C  C117  1  0.16888000  0.24956000  0.82320000  1.0 -0.0890130522
C  C118  1  0.75044000  0.83112000  0.32320000  1.0 -0.0890130522
C  C119  1  0.83112000  0.75044000  0.17680000  1.0 -0.0890130522
C  C120  1  0.24956000  0.16888000  0.67680000  1.0 -0.0890130522
C  C121  1  0.15369000  0.21625000  0.87436000  1.0 -0.038911025
C  C122  1  0.78375000  0.84631000  0.37436000  1.0 -0.038911025
C  C123  1  0.84631000  0.78375000  0.12564000  1.0 -0.038911025
C  C124  1  0.21625000  0.15369000  0.62564000  1.0 -0.038911025
C  C125  1  0.18482000  0.24292000  0.92243000  1.0 -0.0807643133
C  C126  1  0.75708000  0.81518000  0.42243000  1.0 -0.0807643133
C  C127  1  0.81518000  0.75708000  0.07757000  1.0 -0.0807643133
C  C128  1  0.24292000  0.18482000  0.57757000  1.0 -0.0807643133
C  C129  1  0.23147000  0.30109000  0.91941000  1.0 -0.1484955878
C  C130  1  0.69891000  0.76853000  0.41941000  1.0 -0.1484955878
C  C131  1  0.76853000  0.69891000  0.08059000  1.0 -0.1484955878
C  C132  1  0.30109000  0.23147000  0.58059000  1.0 -0.1484955878
C  C133  1  0.10535000  0.15193000  0.87910000  1.0 0.5909135326
C  C134  1  0.84807000  0.89465000  0.37910000  1.0 0.5909135326
C  C135  1  0.89465000  0.84807000  0.12090000  1.0 0.5909135326
C  C136  1  0.15193000  0.10535000  0.62090000  1.0 0.5909135326
C  C137  1  0.20536000  0.74706000  0.75225000  1.0 0.0916581946
C  C138  1  0.25294000  0.79464000  0.25225000  1.0 0.0916581946
C  C139  1  0.79464000  0.25294000  0.24775000  1.0 0.0916581946
C  C140  1  0.74706000  0.20536000  0.74775000  1.0 0.0916581946
C  C141  1  0.17036000  0.83238000  0.76725000  1.0 -0.1401243697
C  C142  1  0.16762000  0.82964000  0.26725000  1.0 -0.1401243697
C  C143  1  0.82964000  0.16762000  0.23275000  1.0 -0.1401243697
C  C144  1  0.83238000  0.17036000  0.73275000  1.0 -0.1401243697
C  C145  1  0.11281000  0.89155000  0.73169000  1.0 -0.0890130522
C  C146  1  0.10845000  0.88719000  0.23169000  1.0 -0.0890130522
C  C147  1  0.88719000  0.10845000  0.26831000  1.0 -0.0807643133
C  C148  1  0.89155000  0.11281000  0.76831000  1.0 -0.0890130522
C  C149  1  0.08730000  0.86704000  0.68143000  1.0 -0.038911025
C  C150  1  0.13296000  0.91270000  0.18143000  1.0 -0.038911025
C  C151  1  0.91270000  0.13296000  0.31857000  1.0 -0.038911025
C  C152  1  0.86704000  0.08730000  0.81857000  1.0 -0.038911025
C  C153  1  0.11996000  0.78144000  0.66659000  1.0 -0.0982317287
C  C154  1  0.21856000  0.88004000  0.16659000  1.0 -0.0982317287
C  C155  1  0.88004000  0.21856000  0.33341000  1.0 -0.0982317287
C  C156  1  0.78144000  0.11996000  0.83341000  1.0 -0.0982317287
C  C157  1  0.17831000  0.72249000  0.70160000  1.0 -0.1484955878
C  C158  1  0.27751000  0.82169000  0.20160000  1.0 -0.1484955878
C  C159  1  0.82169000  0.27751000  0.29840000  1.0 -0.1484955878
C  C160  1  0.72249000  0.17831000  0.79840000  1.0 -0.1484955878
C  C161  1  0.02333000  0.93075000  0.64311000  1.0 0.6118884816
C  C162  1  0.06925000  0.97667000  0.14311000  1.0 0.6118884816
C  C163  1  0.97667000  0.06925000  0.35689000  1.0 0.6118884816
C  C164  1  0.93075000  0.02333000  0.85689000  1.0 0.6118884816
C  C165  1  0.58574000  0.74460000  0.89656000  1.0 0.0916581946
C  C166  1  0.25540000  0.41426000  0.39656000  1.0 0.0916581946
C  C167  1  0.41426000  0.25540000  0.10344000  1.0 0.0916581946
C  C168  1  0.74460000  0.58574000  0.60344000  1.0 0.0916581946
C  C169  1  0.58408000  0.78806000  0.94553000  1.0 -0.1484955878
C  C170  1  0.21194000  0.41592000  0.44553000  1.0 -0.1484955878
C  C171  1  0.41592000  0.21194000  0.05447000  1.0 -0.1484955878
C  C172  1  0.78806000  0.58408000  0.55447000  1.0 -0.1484955878
C  C173  1  0.63763000  0.83891000  0.95473000  1.0 -0.0807643133
C  C174  1  0.16109000  0.36237000  0.45473000  1.0 -0.0807643133
C  C175  1  0.36237000  0.16109000  0.04527000  1.0 -0.0807643133
C  C176  1  0.83891000  0.63763000  0.54527000  1.0 -0.0807643133
C  C177  1  0.69097000  0.85013000  0.91424000  1.0 -0.038911025
C  C178  1  0.14987000  0.30903000  0.41424000  1.0 -0.038911025
C  C179  1  0.30903000  0.14987000  0.08576000  1.0 -0.038911025
C  C180  1  0.85013000  0.69097000  0.58576000  1.0 -0.038911025
C  C181  1  0.69195000  0.80911000  0.86443000  1.0 -0.0890130522
C  C182  1  0.19089000  0.30805000  0.36443000  1.0 -0.0890130522
C  C183  1  0.30805000  0.19089000  0.13557000  1.0 -0.0890130522
C  C184  1  0.80911000  0.69195000  0.63557000  1.0 -0.0890130522
C  C185  1  0.64015000  0.75665000  0.85576000  1.0 -0.1484955878
C  C186  1  0.24335000  0.35985000  0.35576000  1.0 -0.1484955878
C  C187  1  0.35985000  0.24335000  0.14424000  1.0 -0.1484955878
C  C188  1  0.75665000  0.64015000  0.64424000  1.0 -0.1484955878
C  C189  1  0.75049000  0.90261000  0.92426000  1.0 0.5732798412
C  C190  1  0.09739000  0.24951000  0.42426000  1.0 0.5732798412
C  C191  1  0.24951000  0.09739000  0.07574000  1.0 0.5732798412
C  C192  1  0.90261000  0.75049000  0.57574000  1.0 0.5732798412
N  N1  1  0.43962000  0.41328000  0.89967000  1.0 -0.4390664042
N  N2  1  0.58672000  0.56038000  0.39967000  1.0 -0.4390664042
N  N3  1  0.56038000  0.58672000  0.10033000  1.0 -0.4390664042
N  N4  1  0.41328000  0.43962000  0.60033000  1.0 -0.4390664042
N  N5  1  0.30495000  0.53915000  0.83561000  1.0 -0.2686690517
N  N6  1  0.46085000  0.69505000  0.33561000  1.0 -0.2686690517
N  N7  1  0.69505000  0.46085000  0.16439000  1.0 -0.2686690517
N  N8  1  0.53915000  0.30495000  0.66439000  1.0 -0.2686690517
N  N9  1  0.40739000  0.65853000  0.84312000  1.0 -0.433528626
N  N10  1  0.34147000  0.59261000  0.34312000  1.0 -0.433528626
N  N11  1  0.59261000  0.34147000  0.15688000  1.0 -0.433528626
N  N12  1  0.65853000  0.40739000  0.65688000  1.0 -0.433528626
N  N13  1  0.53378000  0.53602000  0.91556000  1.0 -0.2686690517
N  N14  1  0.46398000  0.46622000  0.41556000  1.0 -0.2686690517
N  N15  1  0.46622000  0.46398000  0.08444000  1.0 -0.2686690517
N  N16  1  0.53602000  0.53378000  0.58444000  1.0 -0.2686690517
O  O1  1  0.92470000  0.07254000  0.02006000  1.0 -0.6066587881
O  O2  1  0.92746000  0.07530000  0.52006000  1.0 -0.6066587881
O  O3  1  0.07530000  0.92746000  0.97994000  1.0 -0.6066587881
O  O4  1  0.07254000  0.92470000  0.47994000  1.0 -0.6066587881
O  O5  1  0.86767000  0.10815000  0.10231000  1.0 -0.4709993691
O  O6  1  0.89185000  0.13233000  0.60231000  1.0 -0.4709993691
O  O7  1  0.13233000  0.89185000  0.89769000  1.0 -0.4709993691
O  O8  1  0.10815000  0.86767000  0.39769000  1.0 -0.4709993691
O  O9  1  0.08549000  0.12561000  0.82991000  1.0 -0.480956135
O  O10  1  0.87439000  0.91451000  0.32991000  1.0 -0.480956135
O  O11  1  0.91451000  0.87439000  0.17009000  1.0 -0.480956135
O  O12  1  0.12561000  0.08549000  0.67009000  1.0 -0.480956135
O  O13  1  0.08607000  0.12519000  0.92311000  1.0 -0.5744265035
O  O14  1  0.87481000  0.91393000  0.42311000  1.0 -0.5744265035
O  O15  1  0.91393000  0.87481000  0.07689000  1.0 -0.5752775386
O  O16  1  0.12519000  0.08607000  0.57689000  1.0 -0.5744265035
O  O17  1  0.00595000  0.01009000  0.65391000  1.0 -0.5553843692
O  O18  1  0.98991000  0.99405000  0.15391000  1.0 -0.5553843692
O  O19  1  0.99405000  0.98991000  0.34609000  1.0 -0.5553843692
O  O20  1  0.01009000  0.00595000  0.84609000  1.0 -0.5553843692
O  O21  1  0.98944000  0.90330000  0.60305000  1.0 -0.598676236
O  O22  1  0.09670000  0.01056000  0.10305000  1.0 -0.598676236
O  O23  1  0.01056000  0.09670000  0.39695000  1.0 -0.598676236
O  O24  1  0.90330000  0.98944000  0.89695000  1.0 -0.598676236
O  O25  1  0.77050000  0.92322000  0.96957000  1.0 -0.534328641
O  O26  1  0.07678000  0.22950000  0.46957000  1.0 -0.534328641
O  O27  1  0.22950000  0.07678000  0.03043000  1.0 -0.534328641
O  O28  1  0.92322000  0.77050000  0.53043000  1.0 -0.534328641
O  O29  1  0.78280000  0.92282000  0.87763000  1.0 -0.480956135
O  O30  1  0.07718000  0.21720000  0.37763000  1.0 -0.480956135
O  O31  1  0.21720000  0.07718000  0.12237000  1.0 -0.480956135
O  O32  1  0.92282000  0.78280000  0.62237000  1.0 -0.480956135
