# DDEC6 charges by PACMAN v1.1 (https://github.com/mtap-research/PACMAN-charge/)
data_EBUQIB_ASR_pacman
_symmetry_space_group_name_H-M   'P 1'
_cell_length_a   10.86400000
_cell_length_b   21.56200000
_cell_length_c   45.73700000
_cell_angle_alpha   90.00000000
_cell_angle_beta   99.85120000
_cell_angle_gamma   90.00000000
_symmetry_Int_Tables_number   1
_chemical_formula_structural   NaZnH27C48(NO2)4
_chemical_formula_sum   'Na8 Zn8 H216 C384 N32 O64'
_cell_volume   10555.90077435
_cell_formula_units_Z   8
loop_
 _symmetry_equiv_pos_site_id
 _symmetry_equiv_pos_as_xyz
  1  'x, y, z'
loop_
 _atom_site_type_symbol
 _atom_site_label
 _atom_site_symmetry_multiplicity
 _atom_site_fract_x
 _atom_site_fract_y
 _atom_site_fract_z
 _atom_site_occupancy
 _atom_site_charge
Na  Na1  1  0.24214000  0.71613000  0.86892000  1.0 0.8516216436
Na  Na2  1  0.24214000  0.78387000  0.36892000  1.0 0.8516216436
Na  Na3  1  0.75786000  0.28387000  0.13108000  1.0 0.8516216436
Na  Na4  1  0.75786000  0.21613000  0.63108000  1.0 0.8516216436
Na  Na5  1  0.24563000  0.22647000  0.62235000  1.0 0.8516216436
Na  Na6  1  0.24563000  0.27353000  0.12235000  1.0 0.8516216436
Na  Na7  1  0.75437000  0.77353000  0.37765000  1.0 0.8516216436
Na  Na8  1  0.75437000  0.72647000  0.87765000  1.0 0.8516216436
Zn  Zn1  1  0.77107000  0.22489000  0.86946000  1.0 0.6492340425
Zn  Zn2  1  0.77107000  0.27511000  0.36946000  1.0 0.6492340425
Zn  Zn3  1  0.22893000  0.77511000  0.13054000  1.0 0.6492340425
Zn  Zn4  1  0.22893000  0.72489000  0.63054000  1.0 0.6492340425
Zn  Zn5  1  0.25390000  0.22471000  0.88553000  1.0 0.6492340425
Zn  Zn6  1  0.25390000  0.27529000  0.38553000  1.0 0.6492340425
Zn  Zn7  1  0.74610000  0.77529000  0.11447000  1.0 0.6492340425
Zn  Zn8  1  0.74610000  0.72471000  0.61447000  1.0 0.6492340425
H  H1  1  0.47460000  0.31580000  0.78090000  1.0 0.129348473
H  H2  1  0.47460000  0.18420000  0.28090000  1.0 0.129348473
H  H3  1  0.52540000  0.68420000  0.21910000  1.0 0.129348473
H  H4  1  0.52540000  0.81580000  0.71910000  1.0 0.129348473
H  H5  1  0.52490000  0.40420000  0.81390000  1.0 0.129348473
H  H6  1  0.52490000  0.09580000  0.31390000  1.0 0.129348473
H  H7  1  0.47510000  0.59580000  0.18610000  1.0 0.129348473
H  H8  1  0.47510000  0.90420000  0.68610000  1.0 0.129348473
H  H9  1  0.76950000  0.42890000  0.92490000  1.0 0.129348473
H  H10  1  0.76950000  0.07110000  0.42490000  1.0 0.129348473
H  H11  1  0.23050000  0.57110000  0.07510000  1.0 0.129348473
H  H12  1  0.23050000  0.92890000  0.57510000  1.0 0.129348473
H  H13  1  0.91580000  0.36530000  0.95810000  1.0 0.129348473
H  H14  1  0.91580000  0.13470000  0.45810000  1.0 0.129348473
H  H15  1  0.08420000  0.63470000  0.04190000  1.0 0.129348473
H  H16  1  0.08420000  0.86530000  0.54190000  1.0 0.129348473
H  H17  1  0.12060000  0.14220000  0.94920000  1.0 0.129348473
H  H18  1  0.12060000  0.35780000  0.44920000  1.0 0.129348473
H  H19  1  0.87940000  0.85780000  0.05080000  1.0 0.129348473
H  H20  1  0.87940000  0.64220000  0.55080000  1.0 0.129348473
H  H21  1  0.06830000  0.05320000  0.91640000  1.0 0.129348473
H  H22  1  0.06830000  0.44680000  0.41640000  1.0 0.129348473
H  H23  1  0.93170000  0.94680000  0.08360000  1.0 0.129348473
H  H24  1  0.93170000  0.55320000  0.58360000  1.0 0.129348473
H  H25  1  0.72730000  0.01120000  0.81930000  1.0 0.129348473
H  H26  1  0.72730000  0.48880000  0.31930000  1.0 0.129348473
H  H27  1  0.27270000  0.98880000  0.18070000  1.0 0.129348473
H  H28  1  0.27270000  0.51120000  0.68070000  1.0 0.129348473
H  H29  1  0.58040000  0.07760000  0.78620000  1.0 0.129348473
H  H30  1  0.58040000  0.42240000  0.28620000  1.0 0.129348473
H  H31  1  0.41960000  0.92240000  0.21380000  1.0 0.129348473
H  H32  1  0.41960000  0.57760000  0.71380000  1.0 0.129348473
H  H33  1  0.60630000  0.22140000  0.74540000  1.0 0.1201296543
H  H34  1  0.60630000  0.27860000  0.24540000  1.0 0.1201296543
H  H35  1  0.39370000  0.77860000  0.25460000  1.0 0.1201296543
H  H36  1  0.39370000  0.72140000  0.75460000  1.0 0.1201296543
H  H37  1  0.46620000  0.20920000  0.70130000  1.0 0.129348473
H  H38  1  0.46620000  0.29080000  0.20130000  1.0 0.129348473
H  H39  1  0.53380000  0.79080000  0.29870000  1.0 0.129348473
H  H40  1  0.53380000  0.70920000  0.79870000  1.0 0.129348473
H  H41  1  0.20540000  0.15230000  0.74670000  1.0 0.1201296543
H  H42  1  0.20540000  0.34770000  0.24670000  1.0 0.1201296543
H  H43  1  0.79460000  0.84770000  0.25330000  1.0 0.1201296543
H  H44  1  0.79460000  0.65230000  0.75330000  1.0 0.1201296543
H  H45  1  0.34610000  0.16350000  0.79060000  1.0 0.1201296543
H  H46  1  0.34610000  0.33650000  0.29060000  1.0 0.1201296543
H  H47  1  0.65390000  0.83650000  0.20940000  1.0 0.1201296543
H  H48  1  0.65390000  0.66350000  0.70940000  1.0 0.1201296543
H  H49  1  0.06830000  0.16320000  0.67590000  1.0 0.368030169
H  H50  1  0.06830000  0.33680000  0.17590000  1.0 0.368030169
H  H51  1  0.93170000  0.83680000  0.32410000  1.0 0.368030169
H  H52  1  0.93170000  0.66320000  0.82410000  1.0 0.368030169
H  H53  1  0.79960000  0.48720000  0.87320000  1.0 0.1146579841
H  H54  1  0.79960000  0.01280000  0.37320000  1.0 0.1146579841
H  H55  1  0.20040000  0.51280000  0.12680000  1.0 0.1146579841
H  H56  1  0.20040000  0.98720000  0.62680000  1.0 0.1146579841
H  H57  1  0.72580000  0.58630000  0.87690000  1.0 0.1201296543
H  H58  1  0.72580000  0.91370000  0.37690000  1.0 0.1201296543
H  H59  1  0.27420000  0.41370000  0.12310000  1.0 0.1201296543
H  H60  1  0.27420000  0.08630000  0.62310000  1.0 0.1201296543
H  H61  1  0.37640000  0.52140000  0.86590000  1.0 0.1146579841
H  H62  1  0.37640000  0.97860000  0.36590000  1.0 0.1146579841
H  H63  1  0.62360000  0.47860000  0.13410000  1.0 0.1146579841
H  H64  1  0.62360000  0.02140000  0.63410000  1.0 0.1146579841
H  H65  1  0.44620000  0.42240000  0.86670000  1.0 0.1201296543
H  H66  1  0.44620000  0.07760000  0.36670000  1.0 0.1201296543
H  H67  1  0.55380000  0.57760000  0.13330000  1.0 0.1201296543
H  H68  1  0.55380000  0.92240000  0.63330000  1.0 0.1201296543
H  H69  1  0.97120000  0.18420000  0.98450000  1.0 0.1201296543
H  H70  1  0.97120000  0.31580000  0.48450000  1.0 0.1201296543
H  H71  1  0.02880000  0.81580000  0.01550000  1.0 0.1201296543
H  H72  1  0.02880000  0.68420000  0.51550000  1.0 0.1201296543
H  H73  1  0.08770000  0.19570000  0.03170000  1.0 0.1201296543
H  H74  1  0.08770000  0.30430000  0.53170000  1.0 0.1201296543
H  H75  1  0.91230000  0.80430000  0.96830000  1.0 0.1201296543
H  H76  1  0.91230000  0.69570000  0.46830000  1.0 0.1201296543
H  H77  1  0.24950000  0.34670000  0.00400000  1.0 0.1201296543
H  H78  1  0.24950000  0.15330000  0.50400000  1.0 0.1201296543
H  H79  1  0.75050000  0.65330000  0.99600000  1.0 0.1201296543
H  H80  1  0.75050000  0.84670000  0.49600000  1.0 0.1201296543
H  H81  1  0.14460000  0.33260000  0.95690000  1.0 0.1201296543
H  H82  1  0.14460000  0.16740000  0.45690000  1.0 0.1201296543
H  H83  1  0.85540000  0.66740000  0.04310000  1.0 0.1201296543
H  H84  1  0.85540000  0.83260000  0.54310000  1.0 0.1201296543
H  H85  1  0.36070000  0.33210000  0.07690000  1.0 0.3615841949
H  H86  1  0.36070000  0.16790000  0.57690000  1.0 0.3615841949
H  H87  1  0.63930000  0.66790000  0.92310000  1.0 0.3615841949
H  H88  1  0.63930000  0.83210000  0.42310000  1.0 0.3615841949
H  H89  1  0.76290000  0.97060000  0.88500000  1.0 0.1201296543
H  H90  1  0.76290000  0.52940000  0.38500000  1.0 0.1201296543
H  H91  1  0.23710000  0.02940000  0.11500000  1.0 0.1201296543
H  H92  1  0.23710000  0.47060000  0.61500000  1.0 0.1201296543
H  H93  1  0.82250000  0.86930000  0.88280000  1.0 0.129348473
H  H94  1  0.82250000  0.63070000  0.38280000  1.0 0.129348473
H  H95  1  0.17750000  0.13070000  0.11720000  1.0 0.129348473
H  H96  1  0.17750000  0.36930000  0.61720000  1.0 0.129348473
H  H97  1  0.12820000  0.91800000  0.85510000  1.0 0.1146579841
H  H98  1  0.12820000  0.58200000  0.35510000  1.0 0.1146579841
H  H99  1  0.87180000  0.08200000  0.14490000  1.0 0.1146579841
H  H100  1  0.87180000  0.41800000  0.64490000  1.0 0.1146579841
H  H101  1  0.06310000  0.01980000  0.85440000  1.0 0.1201296543
H  H102  1  0.06310000  0.48020000  0.35440000  1.0 0.1201296543
H  H103  1  0.93690000  0.98020000  0.14560000  1.0 0.1201296543
H  H104  1  0.93690000  0.51980000  0.64560000  1.0 0.1201296543
H  H105  1  0.97280000  0.73660000  0.86430000  1.0 0.3413262451
H  H106  1  0.97280000  0.76340000  0.36430000  1.0 0.3413262451
H  H107  1  0.02720000  0.26340000  0.13570000  1.0 0.3413262451
H  H108  1  0.02720000  0.23660000  0.63570000  1.0 0.3413262451
H  H109  1  0.31440000  0.43880000  0.93240000  1.0 0.129348473
H  H110  1  0.31440000  0.06120000  0.43240000  1.0 0.129348473
H  H111  1  0.68560000  0.56120000  0.06760000  1.0 0.129348473
H  H112  1  0.68560000  0.93880000  0.56760000  1.0 0.129348473
H  H113  1  0.45690000  0.37550000  0.96650000  1.0 0.129348473
H  H114  1  0.45690000  0.12450000  0.46650000  1.0 0.129348473
H  H115  1  0.54310000  0.62450000  0.03350000  1.0 0.129348473
H  H116  1  0.54310000  0.87550000  0.53350000  1.0 0.129348473
H  H117  1  0.55430000  0.13230000  0.97390000  1.0 0.1201296543
H  H118  1  0.55430000  0.36770000  0.47390000  1.0 0.1201296543
H  H119  1  0.44570000  0.86770000  0.02610000  1.0 0.129348473
H  H120  1  0.44570000  0.63230000  0.52610000  1.0 0.1201296543
H  H121  1  0.50080000  0.04150000  0.93980000  1.0 0.1201296543
H  H122  1  0.50080000  0.45850000  0.43980000  1.0 0.1201296543
H  H123  1  0.49920000  0.95850000  0.06020000  1.0 0.1201296543
H  H124  1  0.49920000  0.54150000  0.56020000  1.0 0.1201296543
H  H125  1  0.27670000  0.02600000  0.82680000  1.0 0.129348473
H  H126  1  0.27670000  0.47400000  0.32680000  1.0 0.129348473
H  H127  1  0.72330000  0.97400000  0.17320000  1.0 0.129348473
H  H128  1  0.72330000  0.52600000  0.67320000  1.0 0.129348473
H  H129  1  0.12250000  0.08760000  0.79440000  1.0 0.129348473
H  H130  1  0.12250000  0.41240000  0.29440000  1.0 0.129348473
H  H131  1  0.87750000  0.91240000  0.20560000  1.0 0.129348473
H  H132  1  0.87750000  0.58760000  0.70560000  1.0 0.129348473
H  H133  1  0.89170000  0.30500000  0.80770000  1.0 0.129348473
H  H134  1  0.89170000  0.19500000  0.30770000  1.0 0.129348473
H  H135  1  0.10830000  0.69500000  0.19230000  1.0 0.129348473
H  H136  1  0.10830000  0.80500000  0.69230000  1.0 0.129348473
H  H137  1  0.94290000  0.39270000  0.84120000  1.0 0.129348473
H  H138  1  0.94290000  0.10730000  0.34120000  1.0 0.129348473
H  H139  1  0.05710000  0.60730000  0.15880000  1.0 0.129348473
H  H140  1  0.05710000  0.89270000  0.65880000  1.0 0.129348473
H  H141  1  0.15760000  0.46020000  0.84560000  1.0 0.1201296543
H  H142  1  0.15760000  0.03980000  0.34560000  1.0 0.1201296543
H  H143  1  0.84240000  0.53980000  0.15440000  1.0 0.1201296543
H  H144  1  0.84240000  0.96020000  0.65440000  1.0 0.1201296543
H  H145  1  0.10320000  0.56320000  0.84340000  1.0 0.1201296543
H  H146  1  0.10320000  0.93680000  0.34340000  1.0 0.1201296543
H  H147  1  0.89680000  0.43680000  0.15660000  1.0 0.1201296543
H  H148  1  0.89680000  0.06320000  0.65660000  1.0 0.1201296543
H  H149  1  0.99790000  0.55060000  0.92280000  1.0 0.1201296543
H  H150  1  0.99790000  0.94940000  0.42280000  1.0 0.1201296543
H  H151  1  0.00210000  0.44940000  0.07720000  1.0 0.1201296543
H  H152  1  0.00210000  0.05060000  0.57720000  1.0 0.1201296543
H  H153  1  0.05930000  0.44700000  0.92570000  1.0 0.1201296543
H  H154  1  0.05930000  0.05300000  0.42570000  1.0 0.1201296543
H  H155  1  0.94070000  0.55300000  0.07430000  1.0 0.1201296543
H  H156  1  0.94070000  0.94700000  0.57430000  1.0 0.1201296543
H  H157  1  0.42800000  0.23360000  0.00970000  1.0 0.1201296543
H  H158  1  0.42800000  0.26640000  0.50970000  1.0 0.1201296543
H  H159  1  0.57200000  0.76640000  0.99030000  1.0 0.1201296543
H  H160  1  0.57200000  0.73360000  0.49030000  1.0 0.1201296543
H  H161  1  0.57800000  0.24960000  0.05190000  1.0 0.1201296543
H  H162  1  0.57800000  0.25040000  0.55190000  1.0 0.1201296543
H  H163  1  0.42200000  0.75040000  0.94810000  1.0 0.1201296543
H  H164  1  0.42200000  0.74960000  0.44810000  1.0 0.1201296543
H  H165  1  0.82380000  0.30310000  0.00090000  1.0 0.1201296543
H  H166  1  0.82380000  0.19690000  0.50090000  1.0 0.1201296543
H  H167  1  0.17620000  0.69690000  0.99910000  1.0 0.1201296543
H  H168  1  0.17620000  0.80310000  0.49910000  1.0 0.1201296543
H  H169  1  0.67560000  0.28330000  0.95930000  1.0 0.1201296543
H  H170  1  0.67560000  0.21670000  0.45930000  1.0 0.1201296543
H  H171  1  0.32440000  0.71670000  0.04070000  1.0 0.1201296543
H  H172  1  0.32440000  0.78330000  0.54070000  1.0 0.1201296543
H  H173  1  0.97350000  0.32330000  0.07020000  1.0 0.368030169
H  H174  1  0.97350000  0.17670000  0.57020000  1.0 0.368030169
H  H175  1  0.02650000  0.67670000  0.92980000  1.0 0.368030169
H  H176  1  0.02650000  0.82330000  0.42980000  1.0 0.368030169
H  H177  1  0.28640000  0.96980000  0.91040000  1.0 0.1201296543
H  H178  1  0.28640000  0.53020000  0.41040000  1.0 0.1201296543
H  H179  1  0.71360000  0.03020000  0.08960000  1.0 0.1201296543
H  H180  1  0.71360000  0.46980000  0.58960000  1.0 0.1201296543
H  H181  1  0.34760000  0.86530000  0.90580000  1.0 0.129348473
H  H182  1  0.34760000  0.63470000  0.40580000  1.0 0.129348473
H  H183  1  0.65240000  0.13470000  0.09420000  1.0 0.129348473
H  H184  1  0.65240000  0.36530000  0.59420000  1.0 0.129348473
H  H185  1  0.58020000  0.92050000  0.85160000  1.0 0.1146579841
H  H186  1  0.58020000  0.57950000  0.35160000  1.0 0.1146579841
H  H187  1  0.41980000  0.07950000  0.14840000  1.0 0.1146579841
H  H188  1  0.41980000  0.42050000  0.64840000  1.0 0.1146579841
H  H189  1  0.51510000  0.02200000  0.85560000  1.0 0.1201296543
H  H190  1  0.51510000  0.47800000  0.35560000  1.0 0.1201296543
H  H191  1  0.48490000  0.97800000  0.14440000  1.0 0.1201296543
H  H192  1  0.48490000  0.52200000  0.64440000  1.0 0.1201296543
H  H193  1  0.49460000  0.73760000  0.88760000  1.0 0.3505525672
H  H194  1  0.49460000  0.76240000  0.38760000  1.0 0.3505525672
H  H195  1  0.50540000  0.26240000  0.11240000  1.0 0.3505525672
H  H196  1  0.50540000  0.23760000  0.61240000  1.0 0.3505525672
H  H197  1  0.04520000  0.27110000  0.77200000  1.0 0.1201296543
H  H198  1  0.04520000  0.22890000  0.27200000  1.0 0.1201296543
H  H199  1  0.95480000  0.72890000  0.22800000  1.0 0.1201296543
H  H200  1  0.95480000  0.77110000  0.72800000  1.0 0.1201296543
H  H201  1  0.93820000  0.25680000  0.72390000  1.0 0.1201296543
H  H202  1  0.93820000  0.24320000  0.22390000  1.0 0.1201296543
H  H203  1  0.06180000  0.74320000  0.27610000  1.0 0.1201296543
H  H204  1  0.06180000  0.75680000  0.77610000  1.0 0.1201296543
H  H205  1  0.78740000  0.10040000  0.74920000  1.0 0.1201296543
H  H206  1  0.78740000  0.39960000  0.24920000  1.0 0.1201296543
H  H207  1  0.21260000  0.89960000  0.25080000  1.0 0.1201296543
H  H208  1  0.21260000  0.60040000  0.75080000  1.0 0.1201296543
H  H209  1  0.89940000  0.11220000  0.79620000  1.0 0.1201296543
H  H210  1  0.89940000  0.38780000  0.29620000  1.0 0.1201296543
H  H211  1  0.10060000  0.88780000  0.20380000  1.0 0.1201296543
H  H212  1  0.10060000  0.61220000  0.70380000  1.0 0.1201296543
H  H213  1  0.68600000  0.12610000  0.67400000  1.0 0.3615841949
H  H214  1  0.68600000  0.37390000  0.17400000  1.0 0.3615841949
H  H215  1  0.31400000  0.87390000  0.32600000  1.0 0.3615841949
H  H216  1  0.31400000  0.62610000  0.82600000  1.0 0.3615841949
C  C1  1  0.64399000  0.15094000  0.81569000  1.0 0.187804153
C  C2  1  0.64399000  0.34906000  0.31569000  1.0 0.187804153
C  C3  1  0.35601000  0.84906000  0.18431000  1.0 0.187804153
C  C4  1  0.35601000  0.65094000  0.68431000  1.0 0.187804153
C  C5  1  0.58214000  0.20258000  0.80184000  1.0 -0.0615472752
C  C6  1  0.58214000  0.29742000  0.30184000  1.0 -0.0615472752
C  C7  1  0.41786000  0.79742000  0.19816000  1.0 -0.0615472752
C  C8  1  0.41786000  0.70258000  0.69816000  1.0 -0.0615472752
C  C9  1  0.59219000  0.26361000  0.81269000  1.0 0.1706359097
C  C10  1  0.59219000  0.23639000  0.31269000  1.0 0.1706359097
C  C11  1  0.40781000  0.73639000  0.18731000  1.0 0.1706359097
C  C12  1  0.40781000  0.76361000  0.68731000  1.0 0.1706359097
C  C13  1  0.52726000  0.31538000  0.79926000  1.0 -0.1810639737
C  C14  1  0.52726000  0.18462000  0.29926000  1.0 -0.1810639737
C  C15  1  0.47274000  0.68462000  0.20074000  1.0 -0.1810639737
C  C16  1  0.47274000  0.81538000  0.70074000  1.0 -0.1810639737
C  C17  1  0.55415000  0.36390000  0.81735000  1.0 -0.1890634577
C  C18  1  0.55415000  0.13610000  0.31735000  1.0 -0.1890634577
C  C19  1  0.44585000  0.63610000  0.18265000  1.0 -0.1890634577
C  C20  1  0.44585000  0.86390000  0.68265000  1.0 -0.1890634577
C  C21  1  0.63631000  0.34215000  0.84301000  1.0 0.1815300611
C  C22  1  0.63631000  0.15785000  0.34301000  1.0 0.1815300611
C  C23  1  0.36369000  0.65785000  0.15699000  1.0 0.1815300611
C  C24  1  0.36369000  0.84215000  0.65699000  1.0 0.1815300611
C  C25  1  0.67885000  0.37707000  0.86865000  1.0 -0.0740129505
C  C26  1  0.67885000  0.12293000  0.36865000  1.0 -0.0740129505
C  C27  1  0.32115000  0.62293000  0.13135000  1.0 -0.0740129505
C  C28  1  0.32115000  0.87707000  0.63135000  1.0 -0.0740129505
C  C29  1  0.76226000  0.35650000  0.89336000  1.0 0.1706359097
C  C30  1  0.76226000  0.14350000  0.39336000  1.0 0.1706359097
C  C31  1  0.23774000  0.64350000  0.10664000  1.0 0.1706359097
C  C32  1  0.23774000  0.85650000  0.60664000  1.0 0.1706359097
C  C33  1  0.79774000  0.38976000  0.92064000  1.0 -0.1890634577
C  C34  1  0.79774000  0.11024000  0.42064000  1.0 -0.1890634577
C  C35  1  0.20226000  0.61024000  0.07936000  1.0 -0.1890634577
C  C36  1  0.20226000  0.88976000  0.57936000  1.0 -0.1890634577
C  C37  1  0.87810000  0.35501000  0.93890000  1.0 -0.1968397713
C  C38  1  0.87810000  0.14499000  0.43890000  1.0 -0.1968397713
C  C39  1  0.12190000  0.64499000  0.06110000  1.0 -0.1968397713
C  C40  1  0.12190000  0.85501000  0.56110000  1.0 -0.1968397713
C  C41  1  0.89568000  0.29821000  0.92328000  1.0 0.1815300611
C  C42  1  0.89568000  0.20179000  0.42328000  1.0 0.1815300611
C  C43  1  0.10432000  0.70179000  0.07672000  1.0 0.1815300611
C  C44  1  0.10432000  0.79821000  0.57672000  1.0 0.1815300611
C  C45  1  0.97352000  0.24823000  0.93512000  1.0 -0.0740129505
C  C46  1  0.97352000  0.25177000  0.43512000  1.0 -0.0740129505
C  C47  1  0.02648000  0.75177000  0.06488000  1.0 -0.0740129505
C  C48  1  0.02648000  0.74823000  0.56488000  1.0 -0.0740129505
C  C49  1  0.97753000  0.19112000  0.92113000  1.0 0.1815300611
C  C50  1  0.97753000  0.30888000  0.42113000  1.0 0.1815300611
C  C51  1  0.02247000  0.80888000  0.07887000  1.0 0.1815300611
C  C52  1  0.02247000  0.69112000  0.57887000  1.0 0.1815300611
C  C53  1  0.05894000  0.14097000  0.93234000  1.0 -0.1968397713
C  C54  1  0.05894000  0.35903000  0.43234000  1.0 -0.1968397713
C  C55  1  0.94106000  0.85903000  0.06766000  1.0 -0.1968397713
C  C56  1  0.94106000  0.64097000  0.56766000  1.0 -0.1968397713
C  C57  1  0.03052000  0.09208000  0.91432000  1.0 -0.1733365422
C  C58  1  0.03052000  0.40792000  0.41432000  1.0 -0.1733365422
C  C59  1  0.96948000  0.90792000  0.08568000  1.0 -0.1733365422
C  C60  1  0.96948000  0.59208000  0.58568000  1.0 -0.1733365422
C  C61  1  0.93094000  0.11107000  0.89124000  1.0 0.1706359097
C  C62  1  0.93094000  0.38893000  0.39124000  1.0 0.1706359097
C  C63  1  0.06906000  0.88893000  0.10876000  1.0 0.1706359097
C  C64  1  0.06906000  0.61107000  0.60876000  1.0 0.1706359097
C  C65  1  0.87127000  0.07302000  0.86837000  1.0 -0.0615472752
C  C66  1  0.87127000  0.42698000  0.36837000  1.0 -0.0615472752
C  C67  1  0.12873000  0.92698000  0.13163000  1.0 -0.0615472752
C  C68  1  0.12873000  0.57302000  0.63163000  1.0 -0.0615472752
C  C69  1  0.77335000  0.09243000  0.84555000  1.0 0.1616026507
C  C70  1  0.77335000  0.40757000  0.34555000  1.0 0.1616026507
C  C71  1  0.22665000  0.90757000  0.15445000  1.0 0.1616026507
C  C72  1  0.22665000  0.59243000  0.65445000  1.0 0.1616026507
C  C73  1  0.71338000  0.05336000  0.82168000  1.0 -0.1890634577
C  C74  1  0.71338000  0.44664000  0.32168000  1.0 -0.1890634577
C  C75  1  0.28662000  0.94664000  0.17832000  1.0 -0.1890634577
C  C76  1  0.28662000  0.55336000  0.67832000  1.0 -0.1890634577
C  C77  1  0.63292000  0.08991000  0.80342000  1.0 -0.1968397713
C  C78  1  0.63292000  0.41009000  0.30342000  1.0 -0.1968397713
C  C79  1  0.36708000  0.91009000  0.19658000  1.0 -0.1968397713
C  C80  1  0.36708000  0.58991000  0.69658000  1.0 -0.1968397713
C  C81  1  0.49103000  0.19313000  0.77293000  1.0 0.0909866629
C  C82  1  0.49103000  0.30687000  0.27293000  1.0 0.0909866629
C  C83  1  0.50897000  0.80687000  0.22707000  1.0 0.0909866629
C  C84  1  0.50897000  0.69313000  0.72707000  1.0 0.0909866629
C  C85  1  0.52592000  0.20715000  0.74592000  1.0 -0.1497068713
C  C86  1  0.52592000  0.29285000  0.24592000  1.0 -0.1497068713
C  C87  1  0.47408000  0.79285000  0.25408000  1.0 -0.1497068713
C  C88  1  0.47408000  0.70715000  0.75408000  1.0 -0.1497068713
C  C89  1  0.44130000  0.20009000  0.71930000  1.0 -0.0805320768
C  C90  1  0.44130000  0.29991000  0.21930000  1.0 -0.0805320768
C  C91  1  0.55870000  0.79991000  0.28070000  1.0 -0.0805320768
C  C92  1  0.55870000  0.70009000  0.78070000  1.0 -0.0805320768
C  C93  1  0.32386000  0.18021000  0.71966000  1.0 -0.031263818
C  C94  1  0.32386000  0.31979000  0.21966000  1.0 -0.031263818
C  C95  1  0.67614000  0.81979000  0.28034000  1.0 -0.031263818
C  C96  1  0.67614000  0.68021000  0.78034000  1.0 -0.031263818
C  C97  1  0.28622000  0.16610000  0.74632000  1.0 -0.098772962
C  C98  1  0.28622000  0.33390000  0.24632000  1.0 -0.098772962
C  C99  1  0.71378000  0.83390000  0.25368000  1.0 -0.098772962
C  C100  1  0.71378000  0.66610000  0.75368000  1.0 -0.098772962
C  C101  1  0.37137000  0.17290000  0.77267000  1.0 -0.1497068713
C  C102  1  0.37137000  0.32710000  0.27267000  1.0 -0.1497068713
C  C103  1  0.62863000  0.82710000  0.22733000  1.0 -0.1497068713
C  C104  1  0.62863000  0.67290000  0.72733000  1.0 -0.1497068713
C  C105  1  0.23293000  0.17501000  0.69113000  1.0 0.5790104092
C  C106  1  0.23293000  0.32499000  0.19113000  1.0 0.5790104092
C  C107  1  0.76707000  0.82499000  0.30887000  1.0 0.5790104092
C  C108  1  0.76707000  0.67501000  0.80887000  1.0 0.5790104092
C  C109  1  0.63184000  0.44313000  0.86934000  1.0 0.0975289354
C  C110  1  0.63184000  0.05687000  0.36934000  1.0 0.0975289354
C  C111  1  0.36816000  0.55687000  0.13066000  1.0 0.0975289354
C  C112  1  0.36816000  0.94313000  0.63066000  1.0 0.0975289354
C  C113  1  0.71450000  0.49391000  0.87240000  1.0 -0.1497068713
C  C114  1  0.71450000  0.00609000  0.37240000  1.0 -0.1497068713
C  C115  1  0.28550000  0.50609000  0.12760000  1.0 -0.1497068713
C  C116  1  0.28550000  0.99391000  0.62760000  1.0 -0.1497068713
C  C117  1  0.67047000  0.55312000  0.87427000  1.0 -0.098772962
C  C118  1  0.67047000  0.94688000  0.37427000  1.0 -0.098772962
C  C119  1  0.32953000  0.44688000  0.12573000  1.0 -0.089862231
C  C120  1  0.32953000  0.05312000  0.62573000  1.0 -0.089862231
C  C121  1  0.54431000  0.56329000  0.87221000  1.0 -0.0419170661
C  C122  1  0.54431000  0.93671000  0.37221000  1.0 -0.0419170661
C  C123  1  0.45569000  0.43671000  0.12779000  1.0 -0.0419170661
C  C124  1  0.45569000  0.06329000  0.62779000  1.0 -0.0419170661
C  C125  1  0.46169000  0.51381000  0.86829000  1.0 -0.089862231
C  C126  1  0.46169000  0.98619000  0.36829000  1.0 -0.098772962
C  C127  1  0.53831000  0.48619000  0.13171000  1.0 -0.089862231
C  C128  1  0.53831000  0.01381000  0.63171000  1.0 -0.089862231
C  C129  1  0.50260000  0.45512000  0.86790000  1.0 -0.1497068713
C  C130  1  0.50260000  0.04488000  0.36790000  1.0 -0.1497068713
C  C131  1  0.49740000  0.54488000  0.13210000  1.0 -0.1497068713
C  C132  1  0.49740000  0.95512000  0.63210000  1.0 -0.1497068713
C  C133  1  0.49606000  0.62867000  0.87316000  1.0 0.6214500153
C  C134  1  0.49606000  0.87133000  0.37316000  1.0 0.6214500153
C  C135  1  0.50394000  0.37133000  0.12684000  1.0 0.6214500153
C  C136  1  0.50394000  0.12867000  0.62684000  1.0 0.6214500153
C  C137  1  0.04821000  0.25717000  0.96511000  1.0 0.0909866629
C  C138  1  0.04821000  0.24283000  0.46511000  1.0 0.0909866629
C  C139  1  0.95179000  0.74283000  0.03489000  1.0 0.0909866629
C  C140  1  0.95179000  0.75717000  0.53489000  1.0 0.0909866629
C  C141  1  0.02934000  0.21610000  0.98834000  1.0 -0.1556595605
C  C142  1  0.02934000  0.28390000  0.48834000  1.0 -0.1556595605
C  C143  1  0.97066000  0.78390000  0.01166000  1.0 -0.1556595605
C  C144  1  0.97066000  0.71610000  0.51166000  1.0 -0.1556595605
C  C145  1  0.09764000  0.22345000  0.01674000  1.0 -0.089862231
C  C146  1  0.09764000  0.27655000  0.51674000  1.0 -0.089862231
C  C147  1  0.90236000  0.77655000  0.98326000  1.0 -0.089862231
C  C148  1  0.90236000  0.72345000  0.48326000  1.0 -0.089862231
C  C149  1  0.18050000  0.27241000  0.02250000  1.0 -0.0419170661
C  C150  1  0.18050000  0.22759000  0.52250000  1.0 -0.0419170661
C  C151  1  0.81950000  0.72759000  0.97750000  1.0 -0.0419170661
C  C152  1  0.81950000  0.77241000  0.47750000  1.0 -0.0419170661
C  C153  1  0.19532000  0.31324000  0.99992000  1.0 -0.098772962
C  C154  1  0.19532000  0.18676000  0.49992000  1.0 -0.098772962
C  C155  1  0.80468000  0.68676000  0.00008000  1.0 -0.098772962
C  C156  1  0.80468000  0.81324000  0.50008000  1.0 -0.098772962
C  C157  1  0.13155000  0.30530000  0.97175000  1.0 -0.1416292716
C  C158  1  0.13155000  0.19470000  0.47175000  1.0 -0.1416292716
C  C159  1  0.86845000  0.69470000  0.02825000  1.0 -0.1416292716
C  C160  1  0.86845000  0.80530000  0.52825000  1.0 -0.1416292716
C  C161  1  0.24769000  0.28185000  0.05339000  1.0 0.5730750644
C  C162  1  0.24769000  0.21815000  0.55339000  1.0 0.5730750644
C  C163  1  0.75231000  0.71815000  0.94661000  1.0 0.5730750644
C  C164  1  0.75231000  0.78185000  0.44661000  1.0 0.5730750644
C  C165  1  0.90604000  0.00732000  0.86904000  1.0 0.0830452228
C  C166  1  0.90604000  0.49268000  0.36904000  1.0 0.0830452228
C  C167  1  0.09396000  0.99268000  0.13096000  1.0 0.0830452228
C  C168  1  0.09396000  0.50732000  0.63096000  1.0 0.0830452228
C  C169  1  0.83625000  0.96108000  0.87805000  1.0 -0.1497068713
C  C170  1  0.83625000  0.53892000  0.37805000  1.0 -0.1497068713
C  C171  1  0.16375000  0.03892000  0.12195000  1.0 -0.1497068713
C  C172  1  0.16375000  0.46108000  0.62195000  1.0 -0.1497068713
C  C173  1  0.87350000  0.89990000  0.87700000  1.0 -0.098772962
C  C174  1  0.87350000  0.60010000  0.37700000  1.0 -0.098772962
C  C175  1  0.12650000  0.10010000  0.12300000  1.0 -0.098772962
C  C176  1  0.12650000  0.39990000  0.62300000  1.0 -0.098772962
C  C177  1  0.97782000  0.88282000  0.86812000  1.0 -0.031263818
C  C178  1  0.97782000  0.61718000  0.36812000  1.0 -0.031263818
C  C179  1  0.02218000  0.11718000  0.13188000  1.0 -0.031263818
C  C180  1  0.02218000  0.38282000  0.63188000  1.0 -0.031263818
C  C181  1  0.05162000  0.92782000  0.86042000  1.0 -0.1059864676
C  C182  1  0.05162000  0.57218000  0.36042000  1.0 -0.1059864676
C  C183  1  0.94838000  0.07218000  0.13958000  1.0 -0.1059864676
C  C184  1  0.94838000  0.42782000  0.63958000  1.0 -0.1059864676
C  C185  1  0.01245000  0.98950000  0.86055000  1.0 -0.1556595605
C  C186  1  0.01245000  0.51050000  0.36055000  1.0 -0.1556595605
C  C187  1  0.98755000  0.01050000  0.13945000  1.0 -0.1556595605
C  C188  1  0.98755000  0.48950000  0.63945000  1.0 -0.1556595605
C  C189  1  0.02662000  0.81854000  0.86602000  1.0 0.600459286
C  C190  1  0.02662000  0.68146000  0.36602000  1.0 0.600459286
C  C191  1  0.97338000  0.18146000  0.13398000  1.0 0.600459286
C  C192  1  0.97338000  0.31854000  0.63398000  1.0 0.600459286
C  C193  1  0.09123000  0.33790000  0.86483000  1.0 0.187804153
C  C194  1  0.09123000  0.16210000  0.36483000  1.0 0.187804153
C  C195  1  0.90877000  0.66210000  0.13517000  1.0 0.187804153
C  C196  1  0.90877000  0.83790000  0.63517000  1.0 0.187804153
C  C197  1  0.15289000  0.37506000  0.88739000  1.0 -0.0805320768
C  C198  1  0.15289000  0.12494000  0.38739000  1.0 -0.0805320768
C  C199  1  0.84711000  0.62494000  0.11261000  1.0 -0.0805320768
C  C200  1  0.84711000  0.87506000  0.61261000  1.0 -0.0805320768
C  C201  1  0.24980000  0.35766000  0.90960000  1.0 0.1616026507
C  C202  1  0.24980000  0.14234000  0.40960000  1.0 0.1616026507
C  C203  1  0.75020000  0.64234000  0.09040000  1.0 0.1616026507
C  C204  1  0.75020000  0.85766000  0.59040000  1.0 0.1616026507
C  C205  1  0.32183000  0.39589000  0.93133000  1.0 -0.1890634577
C  C206  1  0.32183000  0.10411000  0.43133000  1.0 -0.1890634577
C  C207  1  0.67817000  0.60411000  0.06867000  1.0 -0.1890634577
C  C208  1  0.67817000  0.89589000  0.56867000  1.0 -0.1890634577
C  C209  1  0.40159000  0.36177000  0.94999000  1.0 -0.1810639737
C  C210  1  0.40159000  0.13823000  0.44999000  1.0 -0.1810639737
C  C211  1  0.59841000  0.63823000  0.05001000  1.0 -0.1810639737
C  C212  1  0.59841000  0.86177000  0.55001000  1.0 -0.1810639737
C  C213  1  0.38391000  0.29829000  0.93901000  1.0 0.187804153
C  C214  1  0.38391000  0.20171000  0.43901000  1.0 0.187804153
C  C215  1  0.61609000  0.70171000  0.06099000  1.0 0.187804153
C  C216  1  0.61609000  0.79829000  0.56099000  1.0 0.187804153
C  C217  1  0.44528000  0.24440000  0.95288000  1.0 -0.0805320768
C  C218  1  0.44528000  0.25560000  0.45288000  1.0 -0.0805320768
C  C219  1  0.55472000  0.75560000  0.04712000  1.0 -0.0805320768
C  C220  1  0.55472000  0.74440000  0.54712000  1.0 -0.0805320768
C  C221  1  0.43053000  0.18399000  0.94233000  1.0 0.187804153
C  C222  1  0.43053000  0.31601000  0.44233000  1.0 0.187804153
C  C223  1  0.56947000  0.81601000  0.05767000  1.0 0.187804153
C  C224  1  0.56947000  0.68399000  0.55767000  1.0 0.187804153
C  C225  1  0.50005000  0.13234000  0.95585000  1.0 -0.1890634577
C  C226  1  0.50005000  0.36766000  0.45585000  1.0 -0.1890634577
C  C227  1  0.49995000  0.86766000  0.04415000  1.0 -0.1890634577
C  C228  1  0.49995000  0.63234000  0.54415000  1.0 -0.1890634577
C  C229  1  0.47102000  0.08182000  0.93682000  1.0 -0.1810639737
C  C230  1  0.47102000  0.41818000  0.43682000  1.0 -0.1810639737
C  C231  1  0.52898000  0.91818000  0.06318000  1.0 -0.1810639737
C  C232  1  0.52898000  0.58182000  0.56318000  1.0 -0.1810639737
C  C233  1  0.38546000  0.10521000  0.91166000  1.0 0.1815300611
C  C234  1  0.38546000  0.39479000  0.41166000  1.0 0.1815300611
C  C235  1  0.61454000  0.89479000  0.08834000  1.0 0.1815300611
C  C236  1  0.61454000  0.60521000  0.58834000  1.0 0.1815300611
C  C237  1  0.34977000  0.07331000  0.88517000  1.0 -0.0740129505
C  C238  1  0.34977000  0.42669000  0.38517000  1.0 -0.0740129505
C  C239  1  0.65023000  0.92669000  0.11483000  1.0 -0.0740129505
C  C240  1  0.65023000  0.57331000  0.61483000  1.0 -0.0740129505
C  C241  1  0.27025000  0.09521000  0.85965000  1.0 0.1706359097
C  C242  1  0.27025000  0.40479000  0.35965000  1.0 0.1706359097
C  C243  1  0.72975000  0.90479000  0.14035000  1.0 0.1706359097
C  C244  1  0.72975000  0.59521000  0.64035000  1.0 0.1706359097
C  C245  1  0.24262000  0.06350000  0.83152000  1.0 -0.1810639737
C  C246  1  0.24262000  0.43650000  0.33152000  1.0 -0.1810639737
C  C247  1  0.75738000  0.93650000  0.16848000  1.0 -0.1810639737
C  C248  1  0.75738000  0.56350000  0.66848000  1.0 -0.1810639737
C  C249  1  0.15996000  0.09751000  0.81366000  1.0 -0.1890634577
C  C250  1  0.15996000  0.40249000  0.31366000  1.0 -0.1890634577
C  C251  1  0.84004000  0.90249000  0.18634000  1.0 -0.1890634577
C  C252  1  0.84004000  0.59751000  0.68634000  1.0 -0.1890634577
C  C253  1  0.13905000  0.15307000  0.82995000  1.0 0.1706359097
C  C254  1  0.13905000  0.34693000  0.32995000  1.0 0.1706359097
C  C255  1  0.86095000  0.84693000  0.17005000  1.0 0.1706359097
C  C256  1  0.86095000  0.65307000  0.67005000  1.0 0.1706359097
C  C257  1  0.05797000  0.20053000  0.81987000  1.0 -0.0740129505
C  C258  1  0.05797000  0.29947000  0.31987000  1.0 -0.0740129505
C  C259  1  0.94203000  0.79947000  0.18013000  1.0 -0.0740129505
C  C260  1  0.94203000  0.70053000  0.68013000  1.0 -0.0740129505
C  C261  1  0.04540000  0.25864000  0.83460000  1.0 0.187804153
C  C262  1  0.04540000  0.24136000  0.33460000  1.0 0.187804153
C  C263  1  0.95460000  0.74136000  0.16540000  1.0 0.187804153
C  C264  1  0.95460000  0.75864000  0.66540000  1.0 0.187804153
C  C265  1  0.95593000  0.30697000  0.82403000  1.0 -0.1890634577
C  C266  1  0.95593000  0.19303000  0.32403000  1.0 -0.1890634577
C  C267  1  0.04407000  0.69303000  0.17597000  1.0 -0.1890634577
C  C268  1  0.04407000  0.80697000  0.67597000  1.0 -0.1890634577
C  C269  1  0.98434000  0.35485000  0.84244000  1.0 -0.1810639737
C  C270  1  0.98434000  0.14515000  0.34244000  1.0 -0.1810639737
C  C271  1  0.01566000  0.64515000  0.15756000  1.0 -0.1810639737
C  C272  1  0.01566000  0.85485000  0.65756000  1.0 -0.1810639737
C  C273  1  0.11751000  0.44244000  0.88641000  1.0 0.0975289354
C  C274  1  0.11751000  0.05756000  0.38641000  1.0 0.0975289354
C  C275  1  0.88249000  0.55756000  0.11359000  1.0 0.0909866629
C  C276  1  0.88249000  0.94244000  0.61359000  1.0 0.0975289354
C  C277  1  0.12715000  0.47822000  0.86145000  1.0 -0.1497068713
C  C278  1  0.12715000  0.02178000  0.36145000  1.0 -0.1497068713
C  C279  1  0.87285000  0.52178000  0.13855000  1.0 -0.1497068713
C  C280  1  0.87285000  0.97822000  0.63855000  1.0 -0.1497068713
C  C281  1  0.09239000  0.53971000  0.85979000  1.0 -0.089862231
C  C282  1  0.09239000  0.96029000  0.35979000  1.0 -0.089862231
C  C283  1  0.90761000  0.46029000  0.14021000  1.0 -0.089862231
C  C284  1  0.90761000  0.03971000  0.64021000  1.0 -0.089862231
C  C285  1  0.04205000  0.56650000  0.88225000  1.0 -0.0419170661
C  C286  1  0.04205000  0.93350000  0.38225000  1.0 -0.0419170661
C  C287  1  0.95795000  0.43350000  0.11775000  1.0 -0.0419170661
C  C288  1  0.95795000  0.06650000  0.61775000  1.0 -0.0419170661
C  C289  1  0.03029000  0.53241000  0.90729000  1.0 -0.098772962
C  C290  1  0.03029000  0.96759000  0.40729000  1.0 -0.098772962
C  C291  1  0.96971000  0.46759000  0.09271000  1.0 -0.098772962
C  C292  1  0.96971000  0.03241000  0.59271000  1.0 -0.098772962
C  C293  1  0.06792000  0.47013000  0.90902000  1.0 -0.1497068713
C  C294  1  0.06792000  0.02987000  0.40902000  1.0 -0.1497068713
C  C295  1  0.93208000  0.52987000  0.09098000  1.0 -0.1497068713
C  C296  1  0.93208000  0.97013000  0.59098000  1.0 -0.1497068713
C  C297  1  0.99615000  0.63340000  0.88025000  1.0 0.5790104092
C  C298  1  0.99615000  0.86660000  0.38025000  1.0 0.5790104092
C  C299  1  0.00385000  0.36660000  0.11975000  1.0 0.5790104092
C  C300  1  0.00385000  0.13340000  0.61975000  1.0 0.5790104092
C  C301  1  0.53930000  0.25667000  0.98060000  1.0 0.0909866629
C  C302  1  0.53930000  0.24333000  0.48060000  1.0 0.0909866629
C  C303  1  0.46070000  0.74333000  0.01940000  1.0 0.0909866629
C  C304  1  0.46070000  0.75667000  0.51940000  1.0 0.0909866629
C  C305  1  0.50783000  0.24680000  0.00793000  1.0 -0.1497068713
C  C306  1  0.50783000  0.25320000  0.50793000  1.0 -0.1497068713
C  C307  1  0.49217000  0.75320000  0.99207000  1.0 -0.1497068713
C  C308  1  0.49217000  0.74680000  0.49207000  1.0 -0.1497068713
C  C309  1  0.59787000  0.25710000  0.03327000  1.0 -0.089862231
C  C310  1  0.59787000  0.24290000  0.53327000  1.0 -0.089862231
C  C311  1  0.40213000  0.74290000  0.96673000  1.0 -0.089862231
C  C312  1  0.40213000  0.75710000  0.46673000  1.0 -0.089862231
C  C313  1  0.71627000  0.27820000  0.03087000  1.0 -0.0419170661
C  C314  1  0.71627000  0.22180000  0.53087000  1.0 -0.0419170661
C  C315  1  0.28373000  0.72180000  0.96913000  1.0 -0.0419170661
C  C316  1  0.28373000  0.77820000  0.46913000  1.0 -0.0419170661
C  C317  1  0.74514000  0.28860000  0.00294000  1.0 -0.089862231
C  C318  1  0.74514000  0.21140000  0.50294000  1.0 -0.089862231
C  C319  1  0.25486000  0.71140000  0.99706000  1.0 -0.089862231
C  C320  1  0.25486000  0.78860000  0.49706000  1.0 -0.089862231
C  C321  1  0.65566000  0.27700000  0.97806000  1.0 -0.1416292716
C  C322  1  0.65566000  0.22300000  0.47806000  1.0 -0.1416292716
C  C323  1  0.34434000  0.72300000  0.02194000  1.0 -0.1416292716
C  C324  1  0.34434000  0.77700000  0.52194000  1.0 -0.1416292716
C  C325  1  0.80710000  0.29190000  0.05840000  1.0 0.5790104092
C  C326  1  0.80710000  0.20810000  0.55840000  1.0 0.5790104092
C  C327  1  0.19290000  0.70810000  0.94160000  1.0 0.5790104092
C  C328  1  0.19290000  0.79190000  0.44160000  1.0 0.5790104092
C  C329  1  0.39467000  0.00646000  0.88367000  1.0 0.0909866629
C  C330  1  0.39467000  0.49354000  0.38367000  1.0 0.0909866629
C  C331  1  0.60533000  0.99354000  0.11633000  1.0 0.0909866629
C  C332  1  0.60533000  0.50646000  0.61633000  1.0 0.0909866629
C  C333  1  0.34524000  0.96011000  0.89854000  1.0 -0.1556595605
C  C334  1  0.34524000  0.53989000  0.39854000  1.0 -0.1556595605
C  C335  1  0.65476000  0.03989000  0.10146000  1.0 -0.1556595605
C  C336  1  0.65476000  0.46011000  0.60146000  1.0 -0.1556595605
C  C337  1  0.38248000  0.89700000  0.89608000  1.0 -0.0805320768
C  C338  1  0.38248000  0.60300000  0.39608000  1.0 -0.0805320768
C  C339  1  0.61752000  0.10300000  0.10392000  1.0 -0.0805320768
C  C340  1  0.61752000  0.39700000  0.60392000  1.0 -0.0805320768
C  C341  1  0.46964000  0.88516000  0.87934000  1.0 -0.0230228147
C  C342  1  0.46964000  0.61484000  0.37934000  1.0 -0.0230228147
C  C343  1  0.53036000  0.11484000  0.12066000  1.0 -0.0230228147
C  C344  1  0.53036000  0.38516000  0.62066000  1.0 -0.0230228147
C  C345  1  0.52148000  0.93045000  0.86348000  1.0 -0.098772962
C  C346  1  0.52148000  0.56955000  0.36348000  1.0 -0.098772962
C  C347  1  0.47852000  0.06955000  0.13652000  1.0 -0.098772962
C  C348  1  0.47852000  0.43045000  0.63652000  1.0 -0.098772962
C  C349  1  0.48205000  0.99080000  0.86605000  1.0 -0.1497068713
C  C350  1  0.48205000  0.50920000  0.36605000  1.0 -0.1497068713
C  C351  1  0.51795000  0.00920000  0.13395000  1.0 -0.1497068713
C  C352  1  0.51795000  0.49080000  0.63395000  1.0 -0.1497068713
C  C353  1  0.51668000  0.81801000  0.87618000  1.0 0.5895870411
C  C354  1  0.51668000  0.68199000  0.37618000  1.0 0.5895870411
C  C355  1  0.48332000  0.18199000  0.12382000  1.0 0.5895870411
C  C356  1  0.48332000  0.31801000  0.62382000  1.0 0.5895870411
C  C357  1  0.97857000  0.19325000  0.78947000  1.0 0.0909866629
C  C358  1  0.97857000  0.30675000  0.28947000  1.0 0.0909866629
C  C359  1  0.02143000  0.80675000  0.21053000  1.0 0.0909866629
C  C360  1  0.02143000  0.69325000  0.71053000  1.0 0.0909866629
C  C361  1  0.99345000  0.23688000  0.76735000  1.0 -0.1497068713
C  C362  1  0.99345000  0.26312000  0.26735000  1.0 -0.1497068713
C  C363  1  0.00655000  0.76312000  0.23265000  1.0 -0.1497068713
C  C364  1  0.00655000  0.73688000  0.73265000  1.0 -0.1497068713
C  C365  1  0.92965000  0.22806000  0.73855000  1.0 -0.089862231
C  C366  1  0.92965000  0.27194000  0.23855000  1.0 -0.089862231
C  C367  1  0.07035000  0.77194000  0.26145000  1.0 -0.089862231
C  C368  1  0.07035000  0.72806000  0.76145000  1.0 -0.089862231
C  C369  1  0.85455000  0.17741000  0.73165000  1.0 -0.046232502
C  C370  1  0.85455000  0.32259000  0.23165000  1.0 -0.046232502
C  C371  1  0.14545000  0.82259000  0.26835000  1.0 -0.046232502
C  C372  1  0.14545000  0.67741000  0.76835000  1.0 -0.046232502
C  C373  1  0.84039000  0.13420000  0.75369000  1.0 -0.098772962
C  C374  1  0.84039000  0.36580000  0.25369000  1.0 -0.098772962
C  C375  1  0.15961000  0.86580000  0.24631000  1.0 -0.098772962
C  C376  1  0.15961000  0.63420000  0.74631000  1.0 -0.098772962
C  C377  1  0.90529000  0.14219000  0.78189000  1.0 -0.1416292716
C  C378  1  0.90529000  0.35781000  0.28189000  1.0 -0.1416292716
C  C379  1  0.09471000  0.85781000  0.21811000  1.0 -0.1416292716
C  C380  1  0.09471000  0.64219000  0.71811000  1.0 -0.1416292716
C  C381  1  0.79135000  0.16960000  0.70035000  1.0 0.5790104092
C  C382  1  0.79135000  0.33040000  0.20035000  1.0 0.5790104092
C  C383  1  0.20865000  0.83040000  0.29965000  1.0 0.5790104092
C  C384  1  0.20865000  0.66960000  0.79965000  1.0 0.5790104092
N  N1  1  0.65863000  0.28052000  0.83983000  1.0 -0.3787776893
N  N2  1  0.65863000  0.21948000  0.33983000  1.0 -0.3787776893
N  N3  1  0.34137000  0.71948000  0.16017000  1.0 -0.3787776893
N  N4  1  0.34137000  0.78052000  0.66017000  1.0 -0.3787776893
N  N5  1  0.82101000  0.30000000  0.89611000  1.0 -0.3638563395
N  N6  1  0.82101000  0.20000000  0.39611000  1.0 -0.3638563395
N  N7  1  0.17899000  0.70000000  0.10389000  1.0 -0.3638563395
N  N8  1  0.17899000  0.80000000  0.60389000  1.0 -0.3638563395
N  N9  1  0.90553000  0.17306000  0.89543000  1.0 -0.3704242821
N  N10  1  0.90553000  0.32694000  0.39543000  1.0 -0.3704242821
N  N11  1  0.09447000  0.82694000  0.10457000  1.0 -0.3704242821
N  N12  1  0.09447000  0.67306000  0.60457000  1.0 -0.3704242821
N  N13  1  0.72794000  0.15190000  0.84074000  1.0 -0.3704242821
N  N14  1  0.72794000  0.34810000  0.34074000  1.0 -0.3704242821
N  N15  1  0.27206000  0.84810000  0.15926000  1.0 -0.3704242821
N  N16  1  0.27206000  0.65190000  0.65926000  1.0 -0.3704242821
N  N17  1  0.29250000  0.29752000  0.91480000  1.0 -0.3704242821
N  N18  1  0.29250000  0.20248000  0.41480000  1.0 -0.3704242821
N  N19  1  0.70750000  0.70248000  0.08520000  1.0 -0.3704242821
N  N20  1  0.70750000  0.79752000  0.58520000  1.0 -0.3704242821
N  N21  1  0.36020000  0.16773000  0.91560000  1.0 -0.3787776893
N  N22  1  0.36020000  0.33227000  0.41560000  1.0 -0.3787776893
N  N23  1  0.63980000  0.83227000  0.08440000  1.0 -0.3787776893
N  N24  1  0.63980000  0.66773000  0.58440000  1.0 -0.3787776893
N  N25  1  0.20856000  0.15157000  0.85786000  1.0 -0.3638563395
N  N26  1  0.20856000  0.34843000  0.35786000  1.0 -0.3638563395
N  N27  1  0.79144000  0.84843000  0.14214000  1.0 -0.3638563395
N  N28  1  0.79144000  0.65157000  0.64214000  1.0 -0.3638563395
N  N29  1  0.12176000  0.27724000  0.85966000  1.0 -0.3638563395
N  N30  1  0.12176000  0.22276000  0.35966000  1.0 -0.3638563395
N  N31  1  0.87824000  0.72276000  0.14034000  1.0 -0.3638563395
N  N32  1  0.87824000  0.77724000  0.64034000  1.0 -0.3638563395
O  O1  1  0.26461000  0.18211000  0.66791000  1.0 -0.5384191787
O  O2  1  0.26461000  0.31789000  0.16791000  1.0 -0.5384191787
O  O3  1  0.73539000  0.81789000  0.33209000  1.0 -0.5384191787
O  O4  1  0.73539000  0.68211000  0.83209000  1.0 -0.5384191787
O  O5  1  0.11833000  0.16140000  0.69503000  1.0 -0.4625076568
O  O6  1  0.11833000  0.33860000  0.19503000  1.0 -0.4625076568
O  O7  1  0.88167000  0.83860000  0.30497000  1.0 -0.4625076568
O  O8  1  0.88167000  0.66140000  0.80497000  1.0 -0.4625076568
O  O9  1  0.38418000  0.63974000  0.86238000  1.0 -0.6207879996
O  O10  1  0.38418000  0.86026000  0.36238000  1.0 -0.6207879996
O  O11  1  0.61582000  0.36026000  0.13762000  1.0 -0.6207879996
O  O12  1  0.61582000  0.13974000  0.63762000  1.0 -0.6207879996
O  O13  1  0.56795000  0.66996000  0.88735000  1.0 -0.6361549413
O  O14  1  0.56795000  0.83004000  0.38735000  1.0 -0.6361549413
O  O15  1  0.43205000  0.33004000  0.11265000  1.0 -0.6361549413
O  O16  1  0.43205000  0.16996000  0.61265000  1.0 -0.6361549413
O  O17  1  0.23768000  0.24716000  0.07348000  1.0 -0.5384191787
O  O18  1  0.23768000  0.25284000  0.57348000  1.0 -0.5384191787
O  O19  1  0.76232000  0.75284000  0.92652000  1.0 -0.5384191787
O  O20  1  0.76232000  0.74716000  0.42652000  1.0 -0.5384191787
O  O21  1  0.32027000  0.33339000  0.05677000  1.0 -0.4872020846
O  O22  1  0.32027000  0.16661000  0.55677000  1.0 -0.4872020846
O  O23  1  0.67973000  0.66666667  0.94323000  1.0 -0.4872020846
O  O24  1  0.67973000  0.83339000  0.44323000  1.0 -0.4872020846
O  O25  1  0.13090000  0.80704000  0.86370000  1.0 -0.5109520173
O  O26  1  0.13090000  0.69296000  0.36370000  1.0 -0.5109520173
O  O27  1  0.86910000  0.19296000  0.13630000  1.0 -0.5109520173
O  O28  1  0.86910000  0.30704000  0.63630000  1.0 -0.5109520173
O  O29  1  0.94126000  0.77680000  0.86716000  1.0 -0.5109520173
O  O30  1  0.94126000  0.72320000  0.36716000  1.0 -0.5109520173
O  O31  1  0.05874000  0.22320000  0.13284000  1.0 -0.5109520173
O  O32  1  0.05874000  0.27680000  0.63284000  1.0 -0.5109520173
O  O33  1  0.02560000  0.66620000  0.85960000  1.0 -0.611720047
O  O34  1  0.02560000  0.83380000  0.35960000  1.0 -0.611720047
O  O35  1  0.97440000  0.33380000  0.14040000  1.0 -0.611720047
O  O36  1  0.97440000  0.16620000  0.64040000  1.0 -0.611720047
O  O37  1  0.92912000  0.65304000  0.89812000  1.0 -0.6024790323
O  O38  1  0.92912000  0.84696000  0.39812000  1.0 -0.6024790323
O  O39  1  0.07088000  0.34696000  0.10188000  1.0 -0.6024790323
O  O40  1  0.07088000  0.15304000  0.60188000  1.0 -0.6024790323
O  O41  1  0.78391000  0.29124000  0.08271000  1.0 -0.5233923709
O  O42  1  0.78391000  0.20876000  0.58271000  1.0 -0.5233923709
O  O43  1  0.21609000  0.70876000  0.91729000  1.0 -0.5233923709
O  O44  1  0.21609000  0.79124000  0.41729000  1.0 -0.5233923709
O  O45  1  0.92062000  0.30981000  0.05252000  1.0 -0.4763302124
O  O46  1  0.92062000  0.19019000  0.55252000  1.0 -0.4763302124
O  O47  1  0.07938000  0.69019000  0.94748000  1.0 -0.4763302124
O  O48  1  0.07938000  0.80981000  0.44748000  1.0 -0.4763302124
O  O49  1  0.45189000  0.77606000  0.88769000  1.0 -0.5109520173
O  O50  1  0.45189000  0.72394000  0.38769000  1.0 -0.5109520173
O  O51  1  0.54811000  0.22394000  0.11231000  1.0 -0.5109520173
O  O52  1  0.54811000  0.27606000  0.61231000  1.0 -0.5109520173
O  O53  1  0.60873000  0.80829000  0.86493000  1.0 -0.5476139998
O  O54  1  0.60873000  0.69171000  0.36493000  1.0 -0.5476139998
O  O55  1  0.39127000  0.19171000  0.13507000  1.0 -0.5476139998
O  O56  1  0.39127000  0.30829000  0.63507000  1.0 -0.5476139998
O  O57  1  0.79813000  0.20894000  0.68173000  1.0 -0.5476139998
O  O58  1  0.79813000  0.29106000  0.18173000  1.0 -0.5476139998
O  O59  1  0.20187000  0.79106000  0.31827000  1.0 -0.5476139998
O  O60  1  0.20187000  0.70894000  0.81827000  1.0 -0.5476139998
O  O61  1  0.72465000  0.11821000  0.69395000  1.0 -0.4872020846
O  O62  1  0.72465000  0.38179000  0.19395000  1.0 -0.4872020846
O  O63  1  0.27535000  0.88179000  0.30605000  1.0 -0.4872020846
O  O64  1  0.27535000  0.61821000  0.80605000  1.0 -0.4872020846
