# DDEC6 charges by PACMAN v1.1 (https://github.com/mtap-research/PACMAN-charge/)
data_ECACEU_ASR_pacman
_chemical_formula_sum              "S32 O64 C320 H192 Ni8 In8"
_cell_length_a       14.7366
_cell_length_b       36.3253
_cell_length_c       22.6115
_cell_angle_alpha    90
_cell_angle_beta     90
_cell_angle_gamma    90

_symmetry_space_group_name_H-M    "P 1"
_symmetry_Int_Tables_number       1

loop_
  _symmetry_equiv_pos_as_xyz
  'x, y, z'

loop_
  _atom_site_type_symbol
  _atom_site_label
  _atom_site_symmetry_multiplicity
  _atom_site_fract_x
  _atom_site_fract_y
  _atom_site_fract_z
  _atom_site_occupancy
 _atom_site_charge
S   S1        1.0  0.15513  0.00111  0.56584  1.0000 -0.1715367279
S   S2        1.0  0.22852  0.08369  0.43440  1.0000 -0.1912883707
O   O1        1.0  0.10630  0.81375  0.69360  1.0000 -0.4315108993
O   O2        1.0  0.96270  0.82763  0.68480  1.0000 -0.4633823783
O   O3        1.0  0.37070  0.25229  0.28318  1.0000 -0.4906501399
O   O4        1.0  0.50580  0.24039  0.31930  1.0000 -0.4994095192
C   C1        1.0  0.13290  0.95987  0.53040  1.0000 -0.0698265578
C   C2        1.0  0.16890  0.89910  0.57250  1.0000 -0.0274948524
H   H1        1.0  0.22554  0.89972  0.55241  1.0000 0.0797388732
C   C3        1.0  0.14660  0.86870  0.60800  1.0000 -0.0198639075
H   H2        1.0  0.18968  0.84944  0.61241  1.0000 0.0895103057
C   C4        1.0  0.00380  0.89650  0.63260  1.0000 -0.0198639075
H   H3        1.0  0.94776  0.89518  0.65329  1.0000 0.0895103057
C   C5        1.0  0.11100  0.92726  0.56680  1.0000 0.0329737812
C   C6        1.0  0.06850  0.86603  0.63510  1.0000 -0.0100969051
C   C7        1.0  0.02530  0.92670  0.60010  1.0000 -0.0274948524
H   H4        1.0  0.98536  0.94721  0.59884  1.0000 0.0895103057
C   C8        1.0  0.04410  0.83399  0.67260  1.0000 0.4983792639
C   C9        1.0  0.42110  0.23408  0.31740  1.0000 0.5293466337
C   C10       1.0  0.38260  0.20468  0.35580  1.0000 0.0020275763
C   C11       1.0  0.28960  0.19822  0.35850  1.0000 -0.0769353333
H   H5        1.0  0.24921  0.21238  0.33498  1.0000 0.1410359181
C   C12       1.0  0.25610  0.17118  0.39550  1.0000 -0.1271287017
H   H6        1.0  0.19260  0.16671  0.39688  1.0000 0.12907518
C   C13       1.0  0.31390  0.15046  0.43070  1.0000 0.0895103057
C   C14       1.0  0.40730  0.15614  0.42590  1.0000 -0.1271287017
H   H7        1.0  0.44774  0.14102  0.44778  1.0000 0.1199511131
C   C15       1.0  0.44170  0.18331  0.38980  1.0000 -0.0872048499
H   H8        1.0  0.50528  0.18751  0.38813  1.0000 0.12907518
C   C16       1.0  0.27850  0.12138  0.47020  1.0000 0.0085061523
C   C17       1.0  0.00050  0.88450  0.60450  1.0000 -0.0370354599
H   H9        1.0  0.93946  0.87616  0.60697  1.0000 0.0797388732
C   C18       1.0  0.02170  0.91510  0.57040  1.0000 -0.0508754442
H   H10       1.0  0.97525  0.92769  0.54943  1.0000 0.0797388732
C   C19       1.0  0.17900  0.90880  0.59740  1.0000 0.0085061523
H   H11       1.0  0.23998  0.91713  0.59496  1.0000 0.0797388732
C   C20       1.0  0.15770  0.87820  0.63160  1.0000 0.0085061523
H   H12       1.0  0.20419  0.86559  0.65250  1.0000 0.0964124603
S   S3        1.0  0.65513  0.50111  0.56584  1.0000 -0.1715367279
S   S4        1.0  0.72852  0.58369  0.43440  1.0000 -0.1912883707
O   O5        1.0  0.60630  0.31375  0.69360  1.0000 -0.4315108993
O   O6        1.0  0.46270  0.32763  0.68480  1.0000 -0.4633823783
O   O7        1.0  0.87070  0.75229  0.28318  1.0000 -0.4906501399
O   O8        1.0  0.00580  0.74039  0.31930  1.0000 -0.4994095192
C   C21       1.0  0.63290  0.45987  0.53040  1.0000 -0.0698265578
C   C22       1.0  0.66890  0.39910  0.57250  1.0000 -0.0274948524
H   H13       1.0  0.72554  0.39972  0.55241  1.0000 0.0797388732
C   C23       1.0  0.64660  0.36870  0.60800  1.0000 -0.0198639075
H   H14       1.0  0.68968  0.34944  0.61241  1.0000 0.0895103057
C   C24       1.0  0.50380  0.39650  0.63260  1.0000 -0.0198639075
H   H15       1.0  0.44776  0.39518  0.65329  1.0000 0.0895103057
C   C25       1.0  0.61100  0.42726  0.56680  1.0000 0.0329737812
C   C26       1.0  0.56850  0.36603  0.63510  1.0000 -0.0100969051
C   C27       1.0  0.52530  0.42670  0.60010  1.0000 -0.0274948524
H   H16       1.0  0.48536  0.44721  0.59884  1.0000 0.0895103057
C   C28       1.0  0.54410  0.33399  0.67260  1.0000 0.4983792639
C   C29       1.0  0.92110  0.73408  0.31740  1.0000 0.5293466337
C   C30       1.0  0.88260  0.70468  0.35580  1.0000 0.0020275763
C   C31       1.0  0.78960  0.69822  0.35850  1.0000 -0.0769353333
H   H17       1.0  0.74921  0.71238  0.33498  1.0000 0.1410359181
C   C32       1.0  0.75610  0.67118  0.39550  1.0000 -0.1271287017
H   H18       1.0  0.69260  0.66671  0.39688  1.0000 0.12907518
C   C33       1.0  0.81390  0.65046  0.43070  1.0000 0.0895103057
C   C34       1.0  0.90730  0.65614  0.42590  1.0000 -0.1271287017
H   H19       1.0  0.94774  0.64102  0.44778  1.0000 0.1199511131
C   C35       1.0  0.94170  0.68331  0.38980  1.0000 -0.0872048499
H   H20       1.0  0.00528  0.68751  0.38813  1.0000 0.12907518
C   C36       1.0  0.77850  0.62138  0.47020  1.0000 0.0085061523
C   C37       1.0  0.50050  0.38450  0.60450  1.0000 -0.0370354599
H   H21       1.0  0.43946  0.37616  0.60697  1.0000 0.0797388732
C   C38       1.0  0.52170  0.41510  0.57040  1.0000 -0.0508754442
H   H22       1.0  0.47525  0.42769  0.54943  1.0000 0.0797388732
C   C39       1.0  0.67900  0.40880  0.59740  1.0000 0.0085061523
H   H23       1.0  0.73998  0.41713  0.59496  1.0000 0.0797388732
C   C40       1.0  0.65770  0.37820  0.63160  1.0000 0.0085061523
H   H24       1.0  0.70419  0.36559  0.65250  1.0000 0.0964124603
S   S5        1.0  0.84487  0.00111  0.93416  1.0000 -0.1715367279
S   S6        1.0  0.77148  0.08369  0.06560  1.0000 -0.1912883707
O   O9        1.0  0.89370  0.81375  0.80640  1.0000 -0.4315108993
O   O10       1.0  0.03730  0.82763  0.81520  1.0000 -0.4633823783
O   O11       1.0  0.62930  0.25229  0.21682  1.0000 -0.4906501399
O   O12       1.0  0.49420  0.24039  0.18070  1.0000 -0.4994095192
C   C41       1.0  0.86710  0.95987  0.96960  1.0000 -0.0698265578
C   C42       1.0  0.83110  0.89910  0.92750  1.0000 -0.0274948524
H   H25       1.0  0.77446  0.89972  0.94759  1.0000 0.0797388732
C   C43       1.0  0.85340  0.86870  0.89200  1.0000 -0.0274948524
H   H26       1.0  0.81032  0.84944  0.88759  1.0000 0.0895103057
C   C44       1.0  0.99620  0.89650  0.86740  1.0000 -0.0198639075
H   H27       1.0  0.05224  0.89518  0.84671  1.0000 0.0895103057
C   C45       1.0  0.88900  0.92726  0.93320  1.0000 0.0329737812
C   C46       1.0  0.93150  0.86603  0.86490  1.0000 -0.0100969051
C   C47       1.0  0.97470  0.92670  0.89990  1.0000 -0.0274948524
H   H28       1.0  0.01464  0.94721  0.90116  1.0000 0.0895103057
C   C48       1.0  0.95590  0.83399  0.82740  1.0000 0.4983792639
C   C49       1.0  0.57890  0.23408  0.18260  1.0000 0.5293466337
C   C50       1.0  0.61740  0.20468  0.14420  1.0000 0.0020275763
C   C51       1.0  0.71040  0.19822  0.14150  1.0000 -0.0769353333
H   H29       1.0  0.75079  0.21238  0.16502  1.0000 0.1410359181
C   C52       1.0  0.74390  0.17118  0.10450  1.0000 -0.1271287017
H   H30       1.0  0.80740  0.16671  0.10312  1.0000 0.12907518
C   C53       1.0  0.68610  0.15046  0.06930  1.0000 0.0895103057
C   C54       1.0  0.59270  0.15614  0.07410  1.0000 -0.1271287017
H   H31       1.0  0.55226  0.14102  0.05222  1.0000 0.1199511131
C   C55       1.0  0.55830  0.18331  0.11020  1.0000 -0.0872048499
H   H32       1.0  0.49472  0.18751  0.11187  1.0000 0.12907518
C   C56       1.0  0.72150  0.12138  0.02980  1.0000 0.0085061523
C   C57       1.0  0.99950  0.88450  0.89550  1.0000 -0.0370354599
H   H33       1.0  0.06054  0.87616  0.89303  1.0000 0.0797388732
C   C58       1.0  0.97830  0.91510  0.92960  1.0000 -0.0508754442
H   H34       1.0  0.02475  0.92769  0.95057  1.0000 0.0797388732
C   C59       1.0  0.82100  0.90880  0.90260  1.0000 0.0085061523
H   H35       1.0  0.76002  0.91713  0.90504  1.0000 0.0797388732
C   C60       1.0  0.84230  0.87820  0.86840  1.0000 0.0085061523
H   H36       1.0  0.79581  0.86559  0.84750  1.0000 0.0964124603
S   S7        1.0  0.34487  0.50111  0.93416  1.0000 -0.1715367279
S   S8        1.0  0.27148  0.58369  0.06560  1.0000 -0.1912883707
O   O13       1.0  0.39370  0.31375  0.80640  1.0000 -0.4315108993
O   O14       1.0  0.53730  0.32763  0.81520  1.0000 -0.4633823783
O   O15       1.0  0.12930  0.75229  0.21682  1.0000 -0.4906501399
O   O16       1.0  0.99420  0.74039  0.18070  1.0000 -0.4994095192
C   C61       1.0  0.36710  0.45987  0.96960  1.0000 -0.0698265578
C   C62       1.0  0.33110  0.39910  0.92750  1.0000 -0.0274948524
H   H37       1.0  0.27446  0.39972  0.94759  1.0000 0.0797388732
C   C63       1.0  0.35340  0.36870  0.89200  1.0000 -0.0274948524
H   H38       1.0  0.31032  0.34944  0.88759  1.0000 0.0895103057
C   C64       1.0  0.49620  0.39650  0.86740  1.0000 -0.0198639075
H   H39       1.0  0.55224  0.39518  0.84671  1.0000 0.0895103057
C   C65       1.0  0.38900  0.42726  0.93320  1.0000 0.0329737812
C   C66       1.0  0.43150  0.36603  0.86490  1.0000 -0.0100969051
C   C67       1.0  0.47470  0.42670  0.89990  1.0000 -0.0274948524
H   H40       1.0  0.51464  0.44721  0.90116  1.0000 0.0895103057
C   C68       1.0  0.45590  0.33399  0.82740  1.0000 0.4983792639
C   C69       1.0  0.07890  0.73408  0.18260  1.0000 0.5293466337
C   C70       1.0  0.11740  0.70468  0.14420  1.0000 0.0020275763
C   C71       1.0  0.21040  0.69822  0.14150  1.0000 -0.0769353333
H   H41       1.0  0.25079  0.71238  0.16502  1.0000 0.1410359181
C   C72       1.0  0.24390  0.67118  0.10450  1.0000 -0.1271287017
H   H42       1.0  0.30740  0.66671  0.10312  1.0000 0.12907518
C   C73       1.0  0.18610  0.65046  0.06930  1.0000 0.0895103057
C   C74       1.0  0.09270  0.65614  0.07410  1.0000 -0.1271287017
H   H43       1.0  0.05226  0.64102  0.05222  1.0000 0.1199511131
C   C75       1.0  0.05830  0.68331  0.11020  1.0000 -0.0872048499
H   H44       1.0  0.99472  0.68751  0.11187  1.0000 0.12907518
C   C76       1.0  0.22150  0.62138  0.02980  1.0000 0.0085061523
C   C77       1.0  0.49950  0.38450  0.89550  1.0000 -0.0370354599
H   H45       1.0  0.56054  0.37616  0.89303  1.0000 0.0797388732
C   C78       1.0  0.47830  0.41510  0.92960  1.0000 -0.0508754442
H   H46       1.0  0.52475  0.42769  0.95057  1.0000 0.0797388732
C   C79       1.0  0.32100  0.40880  0.90260  1.0000 0.0085061523
H   H47       1.0  0.26002  0.41713  0.90504  1.0000 0.0797388732
C   C80       1.0  0.34230  0.37820  0.86840  1.0000 0.0085061523
H   H48       1.0  0.29581  0.36559  0.84750  1.0000 0.0964124603
S   S9        1.0  0.15513  0.00111  0.43416  1.0000 -0.1715367279
S   S10       1.0  0.22852  0.08369  0.56560  1.0000 -0.1912883707
O   O17       1.0  0.10630  0.81375  0.30640  1.0000 -0.4315108993
O   O18       1.0  0.96270  0.82763  0.31520  1.0000 -0.4633823783
O   O19       1.0  0.37070  0.25229  0.71682  1.0000 -0.4906501399
O   O20       1.0  0.50580  0.24039  0.68070  1.0000 -0.4994095192
C   C81       1.0  0.13290  0.95987  0.46960  1.0000 -0.0698265578
C   C82       1.0  0.16890  0.89910  0.42750  1.0000 -0.0198639075
H   H49       1.0  0.22554  0.89972  0.44759  1.0000 0.0797388732
C   C83       1.0  0.14660  0.86870  0.39200  1.0000 -0.0198639075
H   H50       1.0  0.18968  0.84944  0.38759  1.0000 0.0895103057
C   C84       1.0  0.00380  0.89650  0.36740  1.0000 -0.0198639075
H   H51       1.0  0.94776  0.89518  0.34671  1.0000 0.0895103057
C   C85       1.0  0.11100  0.92726  0.43320  1.0000 0.0329737812
C   C86       1.0  0.06850  0.86603  0.36490  1.0000 -0.0100969051
C   C87       1.0  0.02530  0.92670  0.39990  1.0000 -0.0274948524
H   H52       1.0  0.98536  0.94721  0.40116  1.0000 0.0895103057
C   C88       1.0  0.04410  0.83399  0.32740  1.0000 0.4983792639
C   C89       1.0  0.42110  0.23408  0.68260  1.0000 0.5293466337
C   C90       1.0  0.38260  0.20468  0.64420  1.0000 0.0020275763
C   C91       1.0  0.28960  0.19822  0.64150  1.0000 -0.0769353333
H   H53       1.0  0.24921  0.21238  0.66502  1.0000 0.1410359181
C   C92       1.0  0.25610  0.17118  0.60450  1.0000 -0.1271287017
H   H54       1.0  0.19260  0.16671  0.60312  1.0000 0.12907518
C   C93       1.0  0.31390  0.15046  0.56930  1.0000 0.0895103057
C   C94       1.0  0.40730  0.15614  0.57410  1.0000 -0.1271287017
H   H55       1.0  0.44774  0.14102  0.55222  1.0000 0.1199511131
C   C95       1.0  0.44170  0.18331  0.61020  1.0000 -0.0872048499
H   H56       1.0  0.50528  0.18751  0.61187  1.0000 0.12907518
C   C96       1.0  0.27850  0.12138  0.52980  1.0000 0.0085061523
C   C97       1.0  0.00050  0.88450  0.39550  1.0000 -0.0370354599
H   H57       1.0  0.93946  0.87616  0.39303  1.0000 0.0797388732
C   C98       1.0  0.02170  0.91510  0.42960  1.0000 -0.0508754442
H   H58       1.0  0.97525  0.92769  0.45057  1.0000 0.0797388732
C   C99       1.0  0.17900  0.90880  0.40260  1.0000 0.0085061523
H   H59       1.0  0.23998  0.91713  0.40504  1.0000 0.0797388732
C   C100      1.0  0.15770  0.87820  0.36840  1.0000 0.0085061523
H   H60       1.0  0.20419  0.86559  0.34750  1.0000 0.0964124603
S   S11       1.0  0.65513  0.50111  0.43416  1.0000 -0.1715367279
S   S12       1.0  0.72852  0.58369  0.56560  1.0000 -0.1912883707
O   O21       1.0  0.60630  0.31375  0.30640  1.0000 -0.4315108993
O   O22       1.0  0.46270  0.32763  0.31520  1.0000 -0.4633823783
O   O23       1.0  0.87070  0.75229  0.71682  1.0000 -0.4906501399
O   O24       1.0  0.00580  0.74039  0.68070  1.0000 -0.4994095192
C   C101      1.0  0.63290  0.45987  0.46960  1.0000 -0.0698265578
C   C102      1.0  0.66890  0.39910  0.42750  1.0000 -0.0198639075
H   H61       1.0  0.72554  0.39972  0.44759  1.0000 0.0797388732
C   C103      1.0  0.64660  0.36870  0.39200  1.0000 -0.0198639075
H   H62       1.0  0.68968  0.34944  0.38759  1.0000 0.0895103057
C   C104      1.0  0.50380  0.39650  0.36740  1.0000 -0.0198639075
H   H63       1.0  0.44776  0.39518  0.34671  1.0000 0.0895103057
C   C105      1.0  0.61100  0.42726  0.43320  1.0000 0.0329737812
C   C106      1.0  0.56850  0.36603  0.36490  1.0000 -0.0100969051
C   C107      1.0  0.52530  0.42670  0.39990  1.0000 -0.0274948524
H   H64       1.0  0.48536  0.44721  0.40116  1.0000 0.0895103057
C   C108      1.0  0.54410  0.33399  0.32740  1.0000 0.4983792639
C   C109      1.0  0.92110  0.73408  0.68260  1.0000 0.5293466337
C   C110      1.0  0.88260  0.70468  0.64420  1.0000 0.0020275763
C   C111      1.0  0.78960  0.69822  0.64150  1.0000 -0.0769353333
H   H65       1.0  0.74921  0.71238  0.66502  1.0000 0.1410359181
C   C112      1.0  0.75610  0.67118  0.60450  1.0000 -0.1271287017
H   H66       1.0  0.69260  0.66671  0.60312  1.0000 0.12907518
C   C113      1.0  0.81390  0.65046  0.56930  1.0000 0.0895103057
C   C114      1.0  0.90730  0.65614  0.57410  1.0000 -0.1271287017
H   H67       1.0  0.94774  0.64102  0.55222  1.0000 0.1199511131
C   C115      1.0  0.94170  0.68331  0.61020  1.0000 -0.0872048499
H   H68       1.0  0.00528  0.68751  0.61187  1.0000 0.12907518
C   C116      1.0  0.77850  0.62138  0.52980  1.0000 0.0085061523
C   C117      1.0  0.50050  0.38450  0.39550  1.0000 -0.0370354599
H   H69       1.0  0.43946  0.37616  0.39303  1.0000 0.0797388732
C   C118      1.0  0.52170  0.41510  0.42960  1.0000 -0.0508754442
H   H70       1.0  0.47525  0.42769  0.45057  1.0000 0.0797388732
C   C119      1.0  0.67900  0.40880  0.40260  1.0000 0.0085061523
H   H71       1.0  0.73998  0.41713  0.40504  1.0000 0.0797388732
C   C120      1.0  0.65770  0.37820  0.36840  1.0000 0.0085061523
H   H72       1.0  0.70419  0.36559  0.34750  1.0000 0.0964124603
S   S13       1.0  0.84487  0.00111  0.06584  1.0000 -0.1715367279
S   S14       1.0  0.77148  0.08369  0.93440  1.0000 -0.1912883707
O   O25       1.0  0.89370  0.81375  0.19360  1.0000 -0.4315108993
O   O26       1.0  0.03730  0.82763  0.18480  1.0000 -0.4633823783
O   O27       1.0  0.62930  0.25229  0.78318  1.0000 -0.4906501399
O   O28       1.0  0.49420  0.24039  0.81930  1.0000 -0.4994095192
C   C121      1.0  0.86710  0.95987  0.03040  1.0000 -0.0698265578
C   C122      1.0  0.83110  0.89910  0.07250  1.0000 -0.0274948524
H   H73       1.0  0.77446  0.89972  0.05241  1.0000 0.0797388732
C   C123      1.0  0.85340  0.86870  0.10800  1.0000 -0.0274948524
H   H74       1.0  0.81032  0.84944  0.11241  1.0000 0.0895103057
C   C124      1.0  0.99620  0.89650  0.13260  1.0000 -0.0198639075
H   H75       1.0  0.05224  0.89518  0.15329  1.0000 0.0895103057
C   C125      1.0  0.88900  0.92726  0.06680  1.0000 0.0329737812
C   C126      1.0  0.93150  0.86603  0.13510  1.0000 -0.0100969051
C   C127      1.0  0.97470  0.92670  0.10010  1.0000 -0.0274948524
H   H76       1.0  0.01464  0.94721  0.09884  1.0000 0.0895103057
C   C128      1.0  0.95590  0.83399  0.17260  1.0000 0.4983792639
C   C129      1.0  0.57890  0.23408  0.81740  1.0000 0.5293466337
C   C130      1.0  0.61740  0.20468  0.85580  1.0000 0.0020275763
C   C131      1.0  0.71040  0.19822  0.85850  1.0000 -0.0769353333
H   H77       1.0  0.75079  0.21238  0.83498  1.0000 0.1410359181
C   C132      1.0  0.74390  0.17118  0.89550  1.0000 -0.1271287017
H   H78       1.0  0.80740  0.16671  0.89688  1.0000 0.12907518
C   C133      1.0  0.68610  0.15046  0.93070  1.0000 0.0895103057
C   C134      1.0  0.59270  0.15614  0.92590  1.0000 -0.1271287017
H   H79       1.0  0.55226  0.14102  0.94778  1.0000 0.1199511131
C   C135      1.0  0.55830  0.18331  0.88980  1.0000 -0.0872048499
H   H80       1.0  0.49472  0.18751  0.88813  1.0000 0.12907518
C   C136      1.0  0.72150  0.12138  0.97020  1.0000 0.0085061523
C   C137      1.0  0.99950  0.88450  0.10450  1.0000 -0.0370354599
H   H81       1.0  0.06054  0.87616  0.10697  1.0000 0.0797388732
C   C138      1.0  0.97830  0.91510  0.07040  1.0000 -0.0508754442
H   H82       1.0  0.02475  0.92769  0.04943  1.0000 0.0797388732
C   C139      1.0  0.82100  0.90880  0.09740  1.0000 0.0085061523
H   H83       1.0  0.76002  0.91713  0.09496  1.0000 0.0797388732
C   C140      1.0  0.84230  0.87820  0.13160  1.0000 0.0085061523
H   H84       1.0  0.79581  0.86559  0.15250  1.0000 0.0964124603
S   S15       1.0  0.34487  0.50111  0.06584  1.0000 -0.1715367279
S   S16       1.0  0.27148  0.58369  0.93440  1.0000 -0.1912883707
O   O29       1.0  0.39370  0.31375  0.19360  1.0000 -0.4315108993
O   O30       1.0  0.53730  0.32763  0.18480  1.0000 -0.4633823783
O   O31       1.0  0.12930  0.75229  0.78318  1.0000 -0.4906501399
O   O32       1.0  0.99420  0.74039  0.81930  1.0000 -0.4994095192
C   C141      1.0  0.36710  0.45987  0.03040  1.0000 -0.0698265578
C   C142      1.0  0.33110  0.39910  0.07250  1.0000 -0.0274948524
H   H85       1.0  0.27446  0.39972  0.05241  1.0000 0.0797388732
C   C143      1.0  0.35340  0.36870  0.10800  1.0000 -0.0274948524
H   H86       1.0  0.31032  0.34944  0.11241  1.0000 0.0895103057
C   C144      1.0  0.49620  0.39650  0.13260  1.0000 -0.0198639075
H   H87       1.0  0.55224  0.39518  0.15329  1.0000 0.0895103057
C   C145      1.0  0.38900  0.42726  0.06680  1.0000 0.0329737812
C   C146      1.0  0.43150  0.36603  0.13510  1.0000 -0.0100969051
C   C147      1.0  0.47470  0.42670  0.10010  1.0000 -0.0274948524
H   H88       1.0  0.51464  0.44721  0.09884  1.0000 0.0895103057
C   C148      1.0  0.45590  0.33399  0.17260  1.0000 0.4983792639
C   C149      1.0  0.07890  0.73408  0.81740  1.0000 0.5293466337
C   C150      1.0  0.11740  0.70468  0.85580  1.0000 0.0020275763
C   C151      1.0  0.21040  0.69822  0.85850  1.0000 -0.0769353333
H   H89       1.0  0.25079  0.71238  0.83498  1.0000 0.1410359181
C   C152      1.0  0.24390  0.67118  0.89550  1.0000 -0.1271287017
H   H90       1.0  0.30740  0.66671  0.89688  1.0000 0.12907518
C   C153      1.0  0.18610  0.65046  0.93070  1.0000 0.0895103057
C   C154      1.0  0.09270  0.65614  0.92590  1.0000 -0.1271287017
H   H91       1.0  0.05226  0.64102  0.94778  1.0000 0.1199511131
C   C155      1.0  0.05830  0.68331  0.88980  1.0000 -0.0872048499
H   H92       1.0  0.99472  0.68751  0.88813  1.0000 0.12907518
C   C156      1.0  0.22150  0.62138  0.97020  1.0000 0.0085061523
C   C157      1.0  0.49950  0.38450  0.10450  1.0000 -0.0370354599
H   H93       1.0  0.56054  0.37616  0.10697  1.0000 0.0797388732
C   C158      1.0  0.47830  0.41510  0.07040  1.0000 -0.0508754442
H   H94       1.0  0.52475  0.42769  0.04943  1.0000 0.0797388732
C   C159      1.0  0.32100  0.40880  0.09740  1.0000 0.0085061523
H   H95       1.0  0.26002  0.41713  0.09496  1.0000 0.0797388732
C   C160      1.0  0.34230  0.37820  0.13160  1.0000 0.0085061523
H   H96       1.0  0.29581  0.36559  0.15250  1.0000 0.0964124603
Ni  Ni1       1.0  0.20090  0.04185  0.50000  1.0000 0.1678909118
Ni  Ni2       1.0  0.70090  0.54185  0.50000  1.0000 0.1678909118
Ni  Ni3       1.0  0.79910  0.04185  0.00000  1.0000 0.1678909118
Ni  Ni4       1.0  0.29910  0.54185  0.00000  1.0000 0.1678909118
In  In1       1.0  0.50000  0.28367  0.25000  1.0000 0.9306714224
In  In2       1.0  0.00000  0.78367  0.25000  1.0000 0.9306714224
In  In3       1.0  0.50000  0.28367  0.75000  1.0000 0.9306714224
In  In4       1.0  0.00000  0.78367  0.75000  1.0000 0.9351658113
S   S17       1.0  0.84487  0.99889  0.56584  1.0000 -0.1715367279
S   S18       1.0  0.77148  0.91631  0.43440  1.0000 -0.1912883707
O   O33       1.0  0.89370  0.18625  0.69360  1.0000 -0.4315108993
O   O34       1.0  0.03730  0.17237  0.68480  1.0000 -0.4633823783
O   O35       1.0  0.62930  0.74771  0.28318  1.0000 -0.4906501399
O   O36       1.0  0.49420  0.75961  0.31930  1.0000 -0.4994095192
C   C161      1.0  0.86710  0.04013  0.53040  1.0000 -0.0698265578
C   C162      1.0  0.83110  0.10090  0.57250  1.0000 -0.0274948524
H   H97       1.0  0.77446  0.10028  0.55241  1.0000 0.0797388732
C   C163      1.0  0.85340  0.13130  0.60800  1.0000 -0.0198639075
H   H98       1.0  0.81032  0.15056  0.61241  1.0000 0.0895103057
C   C164      1.0  0.99620  0.10350  0.63260  1.0000 -0.0198639075
H   H99       1.0  0.05224  0.10482  0.65329  1.0000 0.0895103057
C   C165      1.0  0.88900  0.07274  0.56680  1.0000 0.0329737812
C   C166      1.0  0.93150  0.13397  0.63510  1.0000 -0.0100969051
C   C167      1.0  0.97470  0.07330  0.60010  1.0000 -0.0274948524
H   H100      1.0  0.01464  0.05279  0.59884  1.0000 0.0895103057
C   C168      1.0  0.95590  0.16601  0.67260  1.0000 0.4983792639
C   C169      1.0  0.57890  0.76592  0.31740  1.0000 0.5293466337
C   C170      1.0  0.61740  0.79532  0.35580  1.0000 0.0020275763
C   C171      1.0  0.71040  0.80178  0.35850  1.0000 -0.0769353333
H   H101      1.0  0.75079  0.78762  0.33498  1.0000 0.1410359181
C   C172      1.0  0.74390  0.82882  0.39550  1.0000 -0.1271287017
H   H102      1.0  0.80740  0.83329  0.39688  1.0000 0.12907518
C   C173      1.0  0.68610  0.84954  0.43070  1.0000 0.0895103057
C   C174      1.0  0.59270  0.84386  0.42590  1.0000 -0.1271287017
H   H103      1.0  0.55226  0.85898  0.44778  1.0000 0.1199511131
C   C175      1.0  0.55830  0.81669  0.38980  1.0000 -0.0872048499
H   H104      1.0  0.49472  0.81249  0.38813  1.0000 0.12907518
C   C176      1.0  0.72150  0.87862  0.47020  1.0000 0.0085061523
C   C177      1.0  0.99950  0.11550  0.60450  1.0000 -0.0370354599
H   H105      1.0  0.06054  0.12384  0.60697  1.0000 0.0797388732
C   C178      1.0  0.97830  0.08490  0.57040  1.0000 -0.0508754442
H   H106      1.0  0.02475  0.07231  0.54943  1.0000 0.0797388732
C   C179      1.0  0.82100  0.09120  0.59740  1.0000 0.0085061523
H   H107      1.0  0.76002  0.08287  0.59496  1.0000 0.0797388732
C   C180      1.0  0.84230  0.12180  0.63160  1.0000 0.0085061523
H   H108      1.0  0.79581  0.13441  0.65250  1.0000 0.0964124603
S   S19       1.0  0.34487  0.49889  0.56584  1.0000 -0.1715367279
S   S20       1.0  0.27148  0.41631  0.43440  1.0000 -0.1912883707
O   O37       1.0  0.39370  0.68625  0.69360  1.0000 -0.4315108993
O   O38       1.0  0.53730  0.67237  0.68480  1.0000 -0.4633823783
O   O39       1.0  0.12930  0.24771  0.28318  1.0000 -0.4906501399
O   O40       1.0  0.99420  0.25961  0.31930  1.0000 -0.4994095192
C   C181      1.0  0.36710  0.54013  0.53040  1.0000 -0.0698265578
C   C182      1.0  0.33110  0.60090  0.57250  1.0000 -0.0274948524
H   H109      1.0  0.27446  0.60028  0.55241  1.0000 0.0797388732
C   C183      1.0  0.35340  0.63130  0.60800  1.0000 -0.0198639075
H   H110      1.0  0.31032  0.65056  0.61241  1.0000 0.0895103057
C   C184      1.0  0.49620  0.60350  0.63260  1.0000 -0.0198639075
H   H111      1.0  0.55224  0.60482  0.65329  1.0000 0.0895103057
C   C185      1.0  0.38900  0.57274  0.56680  1.0000 0.0329737812
C   C186      1.0  0.43150  0.63397  0.63510  1.0000 -0.0100969051
C   C187      1.0  0.47470  0.57330  0.60010  1.0000 -0.0274948524
H   H112      1.0  0.51464  0.55279  0.59884  1.0000 0.0895103057
C   C188      1.0  0.45590  0.66601  0.67260  1.0000 0.4983792639
C   C189      1.0  0.07890  0.26592  0.31740  1.0000 0.5293466337
C   C190      1.0  0.11740  0.29532  0.35580  1.0000 0.0020275763
C   C191      1.0  0.21040  0.30178  0.35850  1.0000 -0.0769353333
H   H113      1.0  0.25079  0.28762  0.33498  1.0000 0.1410359181
C   C192      1.0  0.24390  0.32882  0.39550  1.0000 -0.1271287017
H   H114      1.0  0.30740  0.33329  0.39688  1.0000 0.12907518
C   C193      1.0  0.18610  0.34954  0.43070  1.0000 0.0895103057
C   C194      1.0  0.09270  0.34386  0.42590  1.0000 -0.1271287017
H   H115      1.0  0.05226  0.35898  0.44778  1.0000 0.1199511131
C   C195      1.0  0.05830  0.31669  0.38980  1.0000 -0.0872048499
H   H116      1.0  0.99472  0.31249  0.38813  1.0000 0.12907518
C   C196      1.0  0.22150  0.37862  0.47020  1.0000 0.0085061523
C   C197      1.0  0.49950  0.61550  0.60450  1.0000 -0.0370354599
H   H117      1.0  0.56054  0.62384  0.60697  1.0000 0.0797388732
C   C198      1.0  0.47830  0.58490  0.57040  1.0000 -0.0508754442
H   H118      1.0  0.52475  0.57231  0.54943  1.0000 0.0797388732
C   C199      1.0  0.32100  0.59120  0.59740  1.0000 0.0085061523
H   H119      1.0  0.26002  0.58287  0.59496  1.0000 0.0797388732
C   C200      1.0  0.34230  0.62180  0.63160  1.0000 0.0085061523
H   H120      1.0  0.29581  0.63441  0.65250  1.0000 0.0964124603
S   S21       1.0  0.15513  0.99889  0.93416  1.0000 -0.1715367279
S   S22       1.0  0.22852  0.91631  0.06560  1.0000 -0.1912883707
O   O41       1.0  0.10630  0.18625  0.80640  1.0000 -0.4315108993
O   O42       1.0  0.96270  0.17237  0.81520  1.0000 -0.4633823783
O   O43       1.0  0.37070  0.74771  0.21682  1.0000 -0.4906501399
O   O44       1.0  0.50580  0.75961  0.18070  1.0000 -0.4994095192
C   C201      1.0  0.13290  0.04013  0.96960  1.0000 -0.0698265578
C   C202      1.0  0.16890  0.10090  0.92750  1.0000 -0.0274948524
H   H121      1.0  0.22554  0.10028  0.94759  1.0000 0.0797388732
C   C203      1.0  0.14660  0.13130  0.89200  1.0000 -0.0274948524
H   H122      1.0  0.18968  0.15056  0.88759  1.0000 0.0895103057
C   C204      1.0  0.00380  0.10350  0.86740  1.0000 -0.0198639075
H   H123      1.0  0.94776  0.10482  0.84671  1.0000 0.0895103057
C   C205      1.0  0.11100  0.07274  0.93320  1.0000 0.0329737812
C   C206      1.0  0.06850  0.13397  0.86490  1.0000 -0.0100969051
C   C207      1.0  0.02530  0.07330  0.89990  1.0000 -0.0274948524
H   H124      1.0  0.98536  0.05279  0.90116  1.0000 0.0895103057
C   C208      1.0  0.04410  0.16601  0.82740  1.0000 0.4983792639
C   C209      1.0  0.42110  0.76592  0.18260  1.0000 0.5293466337
C   C210      1.0  0.38260  0.79532  0.14420  1.0000 0.0020275763
C   C211      1.0  0.28960  0.80178  0.14150  1.0000 -0.0769353333
H   H125      1.0  0.24921  0.78762  0.16502  1.0000 0.1410359181
C   C212      1.0  0.25610  0.82882  0.10450  1.0000 -0.1271287017
H   H126      1.0  0.19260  0.83329  0.10312  1.0000 0.12907518
C   C213      1.0  0.31390  0.84954  0.06930  1.0000 0.0895103057
C   C214      1.0  0.40730  0.84386  0.07410  1.0000 -0.1271287017
H   H127      1.0  0.44774  0.85898  0.05222  1.0000 0.1199511131
C   C215      1.0  0.44170  0.81669  0.11020  1.0000 -0.0872048499
H   H128      1.0  0.50528  0.81249  0.11187  1.0000 0.12907518
C   C216      1.0  0.27850  0.87862  0.02980  1.0000 0.0085061523
C   C217      1.0  0.00050  0.11550  0.89550  1.0000 -0.0370354599
H   H129      1.0  0.93946  0.12384  0.89303  1.0000 0.0797388732
C   C218      1.0  0.02170  0.08490  0.92960  1.0000 -0.0508754442
H   H130      1.0  0.97525  0.07231  0.95057  1.0000 0.0797388732
C   C219      1.0  0.17900  0.09120  0.90260  1.0000 0.0085061523
H   H131      1.0  0.23998  0.08287  0.90504  1.0000 0.0797388732
C   C220      1.0  0.15770  0.12180  0.86840  1.0000 0.0085061523
H   H132      1.0  0.20419  0.13441  0.84750  1.0000 0.0964124603
S   S23       1.0  0.65513  0.49889  0.93416  1.0000 -0.1715367279
S   S24       1.0  0.72852  0.41631  0.06560  1.0000 -0.1912883707
O   O45       1.0  0.60630  0.68625  0.80640  1.0000 -0.4315108993
O   O46       1.0  0.46270  0.67237  0.81520  1.0000 -0.4633823783
O   O47       1.0  0.87070  0.24771  0.21682  1.0000 -0.4906501399
O   O48       1.0  0.00580  0.25961  0.18070  1.0000 -0.4994095192
C   C221      1.0  0.63290  0.54013  0.96960  1.0000 -0.0698265578
C   C222      1.0  0.66890  0.60090  0.92750  1.0000 -0.0274948524
H   H133      1.0  0.72554  0.60028  0.94759  1.0000 0.0797388732
C   C223      1.0  0.64660  0.63130  0.89200  1.0000 -0.0274948524
H   H134      1.0  0.68968  0.65056  0.88759  1.0000 0.0895103057
C   C224      1.0  0.50380  0.60350  0.86740  1.0000 -0.0198639075
H   H135      1.0  0.44776  0.60482  0.84671  1.0000 0.0895103057
C   C225      1.0  0.61100  0.57274  0.93320  1.0000 0.0329737812
C   C226      1.0  0.56850  0.63397  0.86490  1.0000 -0.0100969051
C   C227      1.0  0.52530  0.57330  0.89990  1.0000 -0.0274948524
H   H136      1.0  0.48536  0.55279  0.90116  1.0000 0.0895103057
C   C228      1.0  0.54410  0.66601  0.82740  1.0000 0.4983792639
C   C229      1.0  0.92110  0.26592  0.18260  1.0000 0.5293466337
C   C230      1.0  0.88260  0.29532  0.14420  1.0000 0.0020275763
C   C231      1.0  0.78960  0.30178  0.14150  1.0000 -0.0769353333
H   H137      1.0  0.74921  0.28762  0.16502  1.0000 0.1410359181
C   C232      1.0  0.75610  0.32882  0.10450  1.0000 -0.1271287017
H   H138      1.0  0.69260  0.33329  0.10312  1.0000 0.12907518
C   C233      1.0  0.81390  0.34954  0.06930  1.0000 0.0895103057
C   C234      1.0  0.90730  0.34386  0.07410  1.0000 -0.1271287017
H   H139      1.0  0.94774  0.35898  0.05222  1.0000 0.1199511131
C   C235      1.0  0.94170  0.31669  0.11020  1.0000 -0.0872048499
H   H140      1.0  0.00528  0.31249  0.11187  1.0000 0.12907518
C   C236      1.0  0.77850  0.37862  0.02980  1.0000 0.0085061523
C   C237      1.0  0.50050  0.61550  0.89550  1.0000 -0.0370354599
H   H141      1.0  0.43946  0.62384  0.89303  1.0000 0.0797388732
C   C238      1.0  0.52170  0.58490  0.92960  1.0000 -0.0508754442
H   H142      1.0  0.47525  0.57231  0.95057  1.0000 0.0797388732
C   C239      1.0  0.67900  0.59120  0.90260  1.0000 0.0085061523
H   H143      1.0  0.73998  0.58287  0.90504  1.0000 0.0797388732
C   C240      1.0  0.65770  0.62180  0.86840  1.0000 0.0085061523
H   H144      1.0  0.70419  0.63441  0.84750  1.0000 0.0964124603
S   S25       1.0  0.84487  0.99889  0.43416  1.0000 -0.1715367279
S   S26       1.0  0.77148  0.91631  0.56560  1.0000 -0.1912883707
O   O49       1.0  0.89370  0.18625  0.30640  1.0000 -0.4315108993
O   O50       1.0  0.03730  0.17237  0.31520  1.0000 -0.4633823783
O   O51       1.0  0.62930  0.74771  0.71682  1.0000 -0.4906501399
O   O52       1.0  0.49420  0.75961  0.68070  1.0000 -0.4994095192
C   C241      1.0  0.86710  0.04013  0.46960  1.0000 -0.0698265578
C   C242      1.0  0.83110  0.10090  0.42750  1.0000 -0.0198639075
H   H145      1.0  0.77446  0.10028  0.44759  1.0000 0.0797388732
C   C243      1.0  0.85340  0.13130  0.39200  1.0000 -0.0198639075
H   H146      1.0  0.81032  0.15056  0.38759  1.0000 0.0895103057
C   C244      1.0  0.99620  0.10350  0.36740  1.0000 -0.0198639075
H   H147      1.0  0.05224  0.10482  0.34671  1.0000 0.0895103057
C   C245      1.0  0.88900  0.07274  0.43320  1.0000 0.0329737812
C   C246      1.0  0.93150  0.13397  0.36490  1.0000 -0.0100969051
C   C247      1.0  0.97470  0.07330  0.39990  1.0000 -0.0274948524
H   H148      1.0  0.01464  0.05279  0.40116  1.0000 0.0895103057
C   C248      1.0  0.95590  0.16601  0.32740  1.0000 0.4983792639
C   C249      1.0  0.57890  0.76592  0.68260  1.0000 0.5293466337
C   C250      1.0  0.61740  0.79532  0.64420  1.0000 0.0020275763
C   C251      1.0  0.71040  0.80178  0.64150  1.0000 -0.0769353333
H   H149      1.0  0.75079  0.78762  0.66502  1.0000 0.1410359181
C   C252      1.0  0.74390  0.82882  0.60450  1.0000 -0.1271287017
H   H150      1.0  0.80740  0.83329  0.60312  1.0000 0.12907518
C   C253      1.0  0.68610  0.84954  0.56930  1.0000 0.0895103057
C   C254      1.0  0.59270  0.84386  0.57410  1.0000 -0.1271287017
H   H151      1.0  0.55226  0.85898  0.55222  1.0000 0.1199511131
C   C255      1.0  0.55830  0.81669  0.61020  1.0000 -0.0872048499
H   H152      1.0  0.49472  0.81249  0.61187  1.0000 0.12907518
C   C256      1.0  0.72150  0.87862  0.52980  1.0000 0.0085061523
C   C257      1.0  0.99950  0.11550  0.39550  1.0000 -0.0370354599
H   H153      1.0  0.06054  0.12384  0.39303  1.0000 0.0797388732
C   C258      1.0  0.97830  0.08490  0.42960  1.0000 -0.0508754442
H   H154      1.0  0.02475  0.07231  0.45057  1.0000 0.0797388732
C   C259      1.0  0.82100  0.09120  0.40260  1.0000 0.0085061523
H   H155      1.0  0.76002  0.08287  0.40504  1.0000 0.0797388732
C   C260      1.0  0.84230  0.12180  0.36840  1.0000 0.0085061523
H   H156      1.0  0.79581  0.13441  0.34750  1.0000 0.0964124603
S   S27       1.0  0.34487  0.49889  0.43416  1.0000 -0.1715367279
S   S28       1.0  0.27148  0.41631  0.56560  1.0000 -0.1912883707
O   O53       1.0  0.39370  0.68625  0.30640  1.0000 -0.4315108993
O   O54       1.0  0.53730  0.67237  0.31520  1.0000 -0.4633823783
O   O55       1.0  0.12930  0.24771  0.71682  1.0000 -0.4906501399
O   O56       1.0  0.99420  0.25961  0.68070  1.0000 -0.4994095192
C   C261      1.0  0.36710  0.54013  0.46960  1.0000 -0.0698265578
C   C262      1.0  0.33110  0.60090  0.42750  1.0000 -0.0198639075
H   H157      1.0  0.27446  0.60028  0.44759  1.0000 0.0797388732
C   C263      1.0  0.35340  0.63130  0.39200  1.0000 -0.0198639075
H   H158      1.0  0.31032  0.65056  0.38759  1.0000 0.0895103057
C   C264      1.0  0.49620  0.60350  0.36740  1.0000 -0.0198639075
H   H159      1.0  0.55224  0.60482  0.34671  1.0000 0.0895103057
C   C265      1.0  0.38900  0.57274  0.43320  1.0000 0.0329737812
C   C266      1.0  0.43150  0.63397  0.36490  1.0000 -0.0100969051
C   C267      1.0  0.47470  0.57330  0.39990  1.0000 -0.0274948524
H   H160      1.0  0.51464  0.55279  0.40116  1.0000 0.0895103057
C   C268      1.0  0.45590  0.66601  0.32740  1.0000 0.4983792639
C   C269      1.0  0.07890  0.26592  0.68260  1.0000 0.5293466337
C   C270      1.0  0.11740  0.29532  0.64420  1.0000 0.0020275763
C   C271      1.0  0.21040  0.30178  0.64150  1.0000 -0.0769353333
H   H161      1.0  0.25079  0.28762  0.66502  1.0000 0.1410359181
C   C272      1.0  0.24390  0.32882  0.60450  1.0000 -0.1271287017
H   H162      1.0  0.30740  0.33329  0.60312  1.0000 0.12907518
C   C273      1.0  0.18610  0.34954  0.56930  1.0000 0.0895103057
C   C274      1.0  0.09270  0.34386  0.57410  1.0000 -0.1271287017
H   H163      1.0  0.05226  0.35898  0.55222  1.0000 0.1199511131
C   C275      1.0  0.05830  0.31669  0.61020  1.0000 -0.0872048499
H   H164      1.0  0.99472  0.31249  0.61187  1.0000 0.12907518
C   C276      1.0  0.22150  0.37862  0.52980  1.0000 0.0085061523
C   C277      1.0  0.49950  0.61550  0.39550  1.0000 -0.0370354599
H   H165      1.0  0.56054  0.62384  0.39303  1.0000 0.0797388732
C   C278      1.0  0.47830  0.58490  0.42960  1.0000 -0.0508754442
H   H166      1.0  0.52475  0.57231  0.45057  1.0000 0.0797388732
C   C279      1.0  0.32100  0.59120  0.40260  1.0000 0.0085061523
H   H167      1.0  0.26002  0.58287  0.40504  1.0000 0.0797388732
C   C280      1.0  0.34230  0.62180  0.36840  1.0000 0.0085061523
H   H168      1.0  0.29581  0.63441  0.34750  1.0000 0.0964124603
S   S29       1.0  0.15513  0.99889  0.06584  1.0000 -0.1715367279
S   S30       1.0  0.22852  0.91631  0.93440  1.0000 -0.1912883707
O   O57       1.0  0.10630  0.18625  0.19360  1.0000 -0.4315108993
O   O58       1.0  0.96270  0.17237  0.18480  1.0000 -0.4633823783
O   O59       1.0  0.37070  0.74771  0.78318  1.0000 -0.4906501399
O   O60       1.0  0.50580  0.75961  0.81930  1.0000 -0.4994095192
C   C281      1.0  0.13290  0.04013  0.03040  1.0000 -0.0698265578
C   C282      1.0  0.16890  0.10090  0.07250  1.0000 -0.0274948524
H   H169      1.0  0.22554  0.10028  0.05241  1.0000 0.0797388732
C   C283      1.0  0.14660  0.13130  0.10800  1.0000 -0.0274948524
H   H170      1.0  0.18968  0.15056  0.11241  1.0000 0.0895103057
C   C284      1.0  0.00380  0.10350  0.13260  1.0000 -0.0198639075
H   H171      1.0  0.94776  0.10482  0.15329  1.0000 0.0895103057
C   C285      1.0  0.11100  0.07274  0.06680  1.0000 0.0329737812
C   C286      1.0  0.06850  0.13397  0.13510  1.0000 -0.0100969051
C   C287      1.0  0.02530  0.07330  0.10010  1.0000 -0.0274948524
H   H172      1.0  0.98536  0.05279  0.09884  1.0000 0.0895103057
C   C288      1.0  0.04410  0.16601  0.17260  1.0000 0.4983792639
C   C289      1.0  0.42110  0.76592  0.81740  1.0000 0.5293466337
C   C290      1.0  0.38260  0.79532  0.85580  1.0000 0.0020275763
C   C291      1.0  0.28960  0.80178  0.85850  1.0000 -0.0769353333
H   H173      1.0  0.24921  0.78762  0.83498  1.0000 0.1410359181
C   C292      1.0  0.25610  0.82882  0.89550  1.0000 -0.1271287017
H   H174      1.0  0.19260  0.83329  0.89688  1.0000 0.12907518
C   C293      1.0  0.31390  0.84954  0.93070  1.0000 0.0895103057
C   C294      1.0  0.40730  0.84386  0.92590  1.0000 -0.1271287017
H   H175      1.0  0.44774  0.85898  0.94778  1.0000 0.1199511131
C   C295      1.0  0.44170  0.81669  0.88980  1.0000 -0.0872048499
H   H176      1.0  0.50528  0.81249  0.88813  1.0000 0.12907518
C   C296      1.0  0.27850  0.87862  0.97020  1.0000 0.0085061523
C   C297      1.0  0.00050  0.11550  0.10450  1.0000 -0.0370354599
H   H177      1.0  0.93946  0.12384  0.10697  1.0000 0.0797388732
C   C298      1.0  0.02170  0.08490  0.07040  1.0000 -0.0508754442
H   H178      1.0  0.97525  0.07231  0.04943  1.0000 0.0797388732
C   C299      1.0  0.17900  0.09120  0.09740  1.0000 0.0085061523
H   H179      1.0  0.23998  0.08287  0.09496  1.0000 0.0797388732
C   C300      1.0  0.15770  0.12180  0.13160  1.0000 0.0085061523
H   H180      1.0  0.20419  0.13441  0.15250  1.0000 0.0964124603
S   S31       1.0  0.65513  0.49889  0.06584  1.0000 -0.1715367279
S   S32       1.0  0.72852  0.41631  0.93440  1.0000 -0.1912883707
O   O61       1.0  0.60630  0.68625  0.19360  1.0000 -0.4315108993
O   O62       1.0  0.46270  0.67237  0.18480  1.0000 -0.4633823783
O   O63       1.0  0.87070  0.24771  0.78318  1.0000 -0.4906501399
O   O64       1.0  0.00580  0.25961  0.81930  1.0000 -0.4994095192
C   C301      1.0  0.63290  0.54013  0.03040  1.0000 -0.0698265578
C   C302      1.0  0.66890  0.60090  0.07250  1.0000 -0.0274948524
H   H181      1.0  0.72554  0.60028  0.05241  1.0000 0.0797388732
C   C303      1.0  0.64660  0.63130  0.10800  1.0000 -0.0274948524
H   H182      1.0  0.68968  0.65056  0.11241  1.0000 0.0895103057
C   C304      1.0  0.50380  0.60350  0.13260  1.0000 -0.0198639075
H   H183      1.0  0.44776  0.60482  0.15329  1.0000 0.0895103057
C   C305      1.0  0.61100  0.57274  0.06680  1.0000 0.0329737812
C   C306      1.0  0.56850  0.63397  0.13510  1.0000 -0.0100969051
C   C307      1.0  0.52530  0.57330  0.10010  1.0000 -0.0274948524
H   H184      1.0  0.48536  0.55279  0.09884  1.0000 0.0895103057
C   C308      1.0  0.54410  0.66601  0.17260  1.0000 0.4983792639
C   C309      1.0  0.92110  0.26592  0.81740  1.0000 0.5293466337
C   C310      1.0  0.88260  0.29532  0.85580  1.0000 0.0020275763
C   C311      1.0  0.78960  0.30178  0.85850  1.0000 -0.0769353333
H   H185      1.0  0.74921  0.28762  0.83498  1.0000 0.1410359181
C   C312      1.0  0.75610  0.32882  0.89550  1.0000 -0.1271287017
H   H186      1.0  0.69260  0.33329  0.89688  1.0000 0.12907518
C   C313      1.0  0.81390  0.34954  0.93070  1.0000 0.0895103057
C   C314      1.0  0.90730  0.34386  0.92590  1.0000 -0.1271287017
H   H187      1.0  0.94774  0.35898  0.94778  1.0000 0.1199511131
C   C315      1.0  0.94170  0.31669  0.88980  1.0000 -0.0872048499
H   H188      1.0  0.00528  0.31249  0.88813  1.0000 0.12907518
C   C316      1.0  0.77850  0.37862  0.97020  1.0000 0.0085061523
C   C317      1.0  0.50050  0.61550  0.10450  1.0000 -0.0370354599
H   H189      1.0  0.43946  0.62384  0.10697  1.0000 0.0797388732
C   C318      1.0  0.52170  0.58490  0.07040  1.0000 -0.0508754442
H   H190      1.0  0.47525  0.57231  0.04943  1.0000 0.0797388732
C   C319      1.0  0.67900  0.59120  0.09740  1.0000 0.0085061523
H   H191      1.0  0.73998  0.58287  0.09496  1.0000 0.0797388732
C   C320      1.0  0.65770  0.62180  0.13160  1.0000 0.0085061523
H   H192      1.0  0.70419  0.63441  0.15250  1.0000 0.0964124603
Ni  Ni5       1.0  0.79910  0.95815  0.50000  1.0000 0.1678909118
Ni  Ni6       1.0  0.29910  0.45815  0.50000  1.0000 0.1678909118
Ni  Ni7       1.0  0.20090  0.95815  0.00000  1.0000 0.1678909118
Ni  Ni8       1.0  0.70090  0.45815  0.00000  1.0000 0.1678909118
In  In5       1.0  0.50000  0.71633  0.25000  1.0000 0.9306714224
In  In6       1.0  0.00000  0.21633  0.25000  1.0000 0.9306714224
In  In7       1.0  0.50000  0.71633  0.75000  1.0000 0.9306714224
In  In8       1.0  0.00000  0.21633  0.75000  1.0000 0.9351658113
  Ni  Ni9       1.0  0.50000  0.28367  0.25000  1.0000
  Ni  Ni10      1.0  0.00000  0.78367  0.25000  1.0000
  Ni  Ni11      1.0  0.50000  0.28367  0.75000  1.0000
  Ni  Ni12      1.0  0.00000  0.78367  0.75000  1.0000
  Ni  Ni13      1.0  0.50000  0.71633  0.25000  1.0000
  Ni  Ni14      1.0  0.00000  0.21633  0.25000  1.0000
  Ni  Ni15      1.0  0.50000  0.71633  0.75000  1.0000
  Ni  Ni16      1.0  0.00000  0.21633  0.75000  1.0000
