# DDEC6 charges by PACMAN v1.1 (https://github.com/mtap-research/PACMAN-charge/)
data_ECIPAK_ASR_pacman
_symmetry_space_group_name_H-M   'P 1'
_cell_length_a   13.79740000
_cell_length_b   13.79740000
_cell_length_c   13.79740000
_cell_angle_alpha   81.17040000
_cell_angle_beta   81.17040000
_cell_angle_gamma   81.17040000
_symmetry_Int_Tables_number   1
_chemical_formula_structural   CoH30C39(NO2)3
_chemical_formula_sum   'Co2 H60 C78 N6 O12'
_cell_volume   2541.89250726
_cell_formula_units_Z   2
loop_
 _symmetry_equiv_pos_site_id
 _symmetry_equiv_pos_as_xyz
  1  'x, y, z'
loop_
 _atom_site_type_symbol
 _atom_site_label
 _atom_site_symmetry_multiplicity
 _atom_site_fract_x
 _atom_site_fract_y
 _atom_site_fract_z
 _atom_site_occupancy
 _atom_site_charge
Co  Co1  1  0.81055000  0.81055000  0.81055000  1.0 0.9904923314
Co  Co2  1  0.18945000  0.18945000  0.18945000  1.0 0.9904923314
H  H1  1  0.98555000  0.40462000  0.14597000  1.0 0.1406172538
H  H2  1  0.84386000  0.32802000  0.18463000  1.0 0.1185412927
H  H3  1  0.75331000  0.44966000  0.93184000  1.0 0.1116885715
H  H4  1  0.89049000  0.52938000  0.88662000  1.0 0.1302332306
H  H5  1  0.69098000  0.30253000  0.15779000  1.0 0.1302332306
H  H6  1  0.63734000  0.38001000  0.07736000  1.0 0.1185412927
H  H7  1  0.78987000  0.14690000  0.10482000  1.0 0.1116885715
H  H8  1  0.80037000  0.02207000  0.00785000  1.0 0.1185412927
H  H9  1  0.63207000  0.20277000  0.82232000  1.0 0.1116885715
H  H10  1  0.61976000  0.32869000  0.92643000  1.0 0.1116885715
H  H11  1  0.40462000  0.14597000  0.98555000  1.0 0.1406172538
H  H12  1  0.32802000  0.18463000  0.84386000  1.0 0.1185412927
H  H13  1  0.44966000  0.93184000  0.75331000  1.0 0.1116885715
H  H14  1  0.52938000  0.88662000  0.89049000  1.0 0.1302332306
H  H15  1  0.30253000  0.15779000  0.69098000  1.0 0.1302332306
H  H16  1  0.38001000  0.07736000  0.63734000  1.0 0.1185412927
H  H17  1  0.14690000  0.10482000  0.78987000  1.0 0.1116885715
H  H18  1  0.02207000  0.00785000  0.80037000  1.0 0.1185412927
H  H19  1  0.20277000  0.82232000  0.63207000  1.0 0.1116885715
H  H20  1  0.32869000  0.92643000  0.61976000  1.0 0.1116885715
H  H21  1  0.14597000  0.98555000  0.40462000  1.0 0.1406172538
H  H22  1  0.18463000  0.84386000  0.32802000  1.0 0.1185412927
H  H23  1  0.93184000  0.75331000  0.44966000  1.0 0.1116885715
H  H24  1  0.88662000  0.89049000  0.52938000  1.0 0.1302332306
H  H25  1  0.15779000  0.69098000  0.30253000  1.0 0.1302332306
H  H26  1  0.07736000  0.63734000  0.38001000  1.0 0.1185412927
H  H27  1  0.10482000  0.78987000  0.14690000  1.0 0.1116885715
H  H28  1  0.00785000  0.80037000  0.02207000  1.0 0.1185412927
H  H29  1  0.82232000  0.63207000  0.20277000  1.0 0.1116885715
H  H30  1  0.92643000  0.61976000  0.32869000  1.0 0.1116885715
H  H31  1  0.01445000  0.59538000  0.85403000  1.0 0.1406172538
H  H32  1  0.15614000  0.67198000  0.81537000  1.0 0.1185412927
H  H33  1  0.24669000  0.55034000  0.06816000  1.0 0.1116885715
H  H34  1  0.10951000  0.47062000  0.11338000  1.0 0.1302332306
H  H35  1  0.30902000  0.69747000  0.84221000  1.0 0.1302332306
H  H36  1  0.36266000  0.61999000  0.92264000  1.0 0.1185412927
H  H37  1  0.21013000  0.85310000  0.89518000  1.0 0.1116885715
H  H38  1  0.19963000  0.97793000  0.99215000  1.0 0.1185412927
H  H39  1  0.36793000  0.79723000  0.17768000  1.0 0.1116885715
H  H40  1  0.38024000  0.67131000  0.07357000  1.0 0.1116885715
H  H41  1  0.59538000  0.85403000  0.01445000  1.0 0.1406172538
H  H42  1  0.67198000  0.81537000  0.15614000  1.0 0.1185412927
H  H43  1  0.55034000  0.06816000  0.24669000  1.0 0.1116885715
H  H44  1  0.47062000  0.11338000  0.10951000  1.0 0.1302332306
H  H45  1  0.69747000  0.84221000  0.30902000  1.0 0.1302332306
H  H46  1  0.61999000  0.92264000  0.36266000  1.0 0.1185412927
H  H47  1  0.85310000  0.89518000  0.21013000  1.0 0.1116885715
H  H48  1  0.97793000  0.99215000  0.19963000  1.0 0.1185412927
H  H49  1  0.79723000  0.17768000  0.36793000  1.0 0.1116885715
H  H50  1  0.67131000  0.07357000  0.38024000  1.0 0.1116885715
H  H51  1  0.85403000  0.01445000  0.59538000  1.0 0.1406172538
H  H52  1  0.81537000  0.15614000  0.67198000  1.0 0.1185412927
H  H53  1  0.06816000  0.24669000  0.55034000  1.0 0.1116885715
H  H54  1  0.11338000  0.10951000  0.47062000  1.0 0.1302332306
H  H55  1  0.84221000  0.30902000  0.69747000  1.0 0.1302332306
H  H56  1  0.92264000  0.36266000  0.61999000  1.0 0.1185412927
H  H57  1  0.89518000  0.21013000  0.85310000  1.0 0.1116885715
H  H58  1  0.99215000  0.19963000  0.97793000  1.0 0.1185412927
H  H59  1  0.17768000  0.36793000  0.79723000  1.0 0.1116885715
H  H60  1  0.07357000  0.38024000  0.67131000  1.0 0.1116885715
C  C1  1  0.95542000  0.47552000  0.01342000  1.0 0.1002972932
C  C2  1  0.93858000  0.41538000  0.10048000  1.0 -0.165809547
C  C3  1  0.85410000  0.36980000  0.12350000  1.0 0.02293356
C  C4  1  0.80160000  0.44110000  0.97570000  1.0 -0.0107390851
C  C5  1  0.88250000  0.48830000  0.94840000  1.0 -0.1828489727
C  C6  1  0.69690000  0.33140000  0.08720000  1.0 -0.2170207228
C  C7  1  0.70240000  0.24980000  0.02290000  1.0 0.0886439481
C  C8  1  0.75704000  0.15824000  0.04764000  1.0 -0.1851613945
C  C9  1  0.76354000  0.08464000  0.99024000  1.0 -0.1140262647
C  C10  1  0.71651000  0.10121000  0.90601000  1.0 -0.0284894476
C  C11  1  0.66380000  0.19050000  0.88020000  1.0 -0.1366086355
C  C12  1  0.65710000  0.26600000  0.94280000  1.0 -0.1828489727
C  C13  1  0.72311000  0.01971000  0.84171000  1.0 0.5418702239
C  C14  1  0.47552000  0.01342000  0.95542000  1.0 0.1002972932
C  C15  1  0.41538000  0.10048000  0.93858000  1.0 -0.165809547
C  C16  1  0.36980000  0.12350000  0.85410000  1.0 0.02293356
C  C17  1  0.44110000  0.97570000  0.80160000  1.0 -0.0107390851
C  C18  1  0.48830000  0.94840000  0.88250000  1.0 -0.1828489727
C  C19  1  0.33140000  0.08720000  0.69690000  1.0 -0.2170207228
C  C20  1  0.24980000  0.02290000  0.70240000  1.0 0.0886439481
C  C21  1  0.15824000  0.04764000  0.75704000  1.0 -0.1851613945
C  C22  1  0.08464000  0.99024000  0.76354000  1.0 -0.1140262647
C  C23  1  0.10121000  0.90601000  0.71651000  1.0 -0.0284894476
C  C24  1  0.19050000  0.88020000  0.66380000  1.0 -0.1366086355
C  C25  1  0.26600000  0.94280000  0.65710000  1.0 -0.1828489727
C  C26  1  0.01971000  0.84171000  0.72311000  1.0 0.5418702239
C  C27  1  0.01342000  0.95542000  0.47552000  1.0 0.1002972932
C  C28  1  0.10048000  0.93858000  0.41538000  1.0 -0.165809547
C  C29  1  0.12350000  0.85410000  0.36980000  1.0 0.02293356
C  C30  1  0.97570000  0.80160000  0.44110000  1.0 -0.0107390851
C  C31  1  0.94840000  0.88250000  0.48830000  1.0 -0.1828489727
C  C32  1  0.08720000  0.69690000  0.33140000  1.0 -0.2170207228
C  C33  1  0.02290000  0.70240000  0.24980000  1.0 0.0886439481
C  C34  1  0.04764000  0.75704000  0.15824000  1.0 -0.1851613945
C  C35  1  0.99024000  0.76354000  0.08464000  1.0 -0.1140262647
C  C36  1  0.90601000  0.71651000  0.10121000  1.0 -0.0284894476
C  C37  1  0.88020000  0.66380000  0.19050000  1.0 -0.1366086355
C  C38  1  0.94280000  0.65710000  0.26600000  1.0 -0.1828489727
C  C39  1  0.84171000  0.72311000  0.01971000  1.0 0.5418702239
C  C40  1  0.04458000  0.52448000  0.98658000  1.0 0.1002972932
C  C41  1  0.06142000  0.58462000  0.89952000  1.0 -0.165809547
C  C42  1  0.14590000  0.63020000  0.87650000  1.0 0.02293356
C  C43  1  0.19840000  0.55890000  0.02430000  1.0 -0.0107390851
C  C44  1  0.11750000  0.51170000  0.05160000  1.0 -0.1828489727
C  C45  1  0.30310000  0.66860000  0.91280000  1.0 -0.2170207228
C  C46  1  0.29760000  0.75020000  0.97710000  1.0 0.0886439481
C  C47  1  0.24296000  0.84176000  0.95236000  1.0 -0.1851613945
C  C48  1  0.23646000  0.91536000  0.00976000  1.0 -0.1140262647
C  C49  1  0.28349000  0.89879000  0.09399000  1.0 -0.0284894476
C  C50  1  0.33620000  0.80950000  0.11980000  1.0 -0.1366086355
C  C51  1  0.34290000  0.73400000  0.05720000  1.0 -0.1828489727
C  C52  1  0.27689000  0.98029000  0.15829000  1.0 0.5418702239
C  C53  1  0.52448000  0.98658000  0.04458000  1.0 0.1002972932
C  C54  1  0.58462000  0.89952000  0.06142000  1.0 -0.165809547
C  C55  1  0.63020000  0.87650000  0.14590000  1.0 0.02293356
C  C56  1  0.55890000  0.02430000  0.19840000  1.0 -0.0107390851
C  C57  1  0.51170000  0.05160000  0.11750000  1.0 -0.1828489727
C  C58  1  0.66860000  0.91280000  0.30310000  1.0 -0.2170207228
C  C59  1  0.75020000  0.97710000  0.29760000  1.0 0.0886439481
C  C60  1  0.84176000  0.95236000  0.24296000  1.0 -0.1851613945
C  C61  1  0.91536000  0.00976000  0.23646000  1.0 -0.1140262647
C  C62  1  0.89879000  0.09399000  0.28349000  1.0 -0.0284894476
C  C63  1  0.80950000  0.11980000  0.33620000  1.0 -0.1366086355
C  C64  1  0.73400000  0.05720000  0.34290000  1.0 -0.1828489727
C  C65  1  0.98029000  0.15829000  0.27689000  1.0 0.5418702239
C  C66  1  0.98658000  0.04458000  0.52448000  1.0 0.1002972932
C  C67  1  0.89952000  0.06142000  0.58462000  1.0 -0.165809547
C  C68  1  0.87650000  0.14590000  0.63020000  1.0 0.02293356
C  C69  1  0.02430000  0.19840000  0.55890000  1.0 -0.0107390851
C  C70  1  0.05160000  0.11750000  0.51170000  1.0 -0.1828489727
C  C71  1  0.91280000  0.30310000  0.66860000  1.0 -0.2170207228
C  C72  1  0.97710000  0.29760000  0.75020000  1.0 0.0886439481
C  C73  1  0.95236000  0.24296000  0.84176000  1.0 -0.1851613945
C  C74  1  0.00976000  0.23646000  0.91536000  1.0 -0.1140262647
C  C75  1  0.09399000  0.28349000  0.89879000  1.0 -0.0284894476
C  C76  1  0.11980000  0.33620000  0.80950000  1.0 -0.1366086355
C  C77  1  0.05720000  0.34290000  0.73400000  1.0 -0.1828489727
C  C78  1  0.15829000  0.27689000  0.98029000  1.0 0.5418702239
N  N1  1  0.78705000  0.38305000  0.06195000  1.0 0.1002972932
N  N2  1  0.38305000  0.06195000  0.78705000  1.0 0.1002972932
N  N3  1  0.06195000  0.78705000  0.38305000  1.0 0.1002972932
N  N4  1  0.21295000  0.61695000  0.93805000  1.0 0.1002972932
N  N5  1  0.61695000  0.93805000  0.21295000  1.0 0.1002972932
N  N6  1  0.93805000  0.21295000  0.61695000  1.0 0.1002972932
O  O1  1  0.75409000  0.93459000  0.87869000  1.0 -0.5777314927
O  O2  1  0.69913000  0.04323000  0.75733000  1.0 -0.5863837725
O  O3  1  0.93459000  0.87869000  0.75409000  1.0 -0.5777314927
O  O4  1  0.04323000  0.75733000  0.69913000  1.0 -0.5863837725
O  O5  1  0.87869000  0.75409000  0.93459000  1.0 -0.5777314927
O  O6  1  0.75733000  0.69913000  0.04323000  1.0 -0.5863837725
O  O7  1  0.24591000  0.06541000  0.12131000  1.0 -0.5777314927
O  O8  1  0.30087000  0.95677000  0.24267000  1.0 -0.5863837725
O  O9  1  0.06541000  0.12131000  0.24591000  1.0 -0.5777314927
O  O10  1  0.95677000  0.24267000  0.30087000  1.0 -0.5863837725
O  O11  1  0.12131000  0.24591000  0.06541000  1.0 -0.5777314927
O  O12  1  0.24267000  0.30087000  0.95677000  1.0 -0.5863837725
