# DDEC6 charges by PACMAN v1.1 (https://github.com/mtap-research/PACMAN-charge/)
data_ECIPAK01_ASR_pacman
_symmetry_space_group_name_H-M   'P 1'
_cell_length_a   13.60940000
_cell_length_b   13.60940000
_cell_length_c   13.60940000
_cell_angle_alpha   81.05660000
_cell_angle_beta   81.05660000
_cell_angle_gamma   81.05660000
_symmetry_Int_Tables_number   1
_chemical_formula_structural   CoH30C39(NO2)3
_chemical_formula_sum   'Co2 H60 C78 N6 O12'
_cell_volume   2437.39263106
_cell_formula_units_Z   2
loop_
 _symmetry_equiv_pos_site_id
 _symmetry_equiv_pos_as_xyz
  1  'x, y, z'
loop_
 _atom_site_type_symbol
 _atom_site_label
 _atom_site_symmetry_multiplicity
 _atom_site_fract_x
 _atom_site_fract_y
 _atom_site_fract_z
 _atom_site_occupancy
 _atom_site_charge
Co  Co1  1  0.19471000  0.19471000  0.19471000  1.0 1.0085591521
Co  Co2  1  0.80529000  0.80529000  0.80529000  1.0 1.0085591521
H  H1  1  0.01981000  0.84837000  0.59403000  1.0 0.1378415969
H  H2  1  0.16359000  0.81031000  0.66855000  1.0 0.1209092578
H  H3  1  0.25233000  0.07160000  0.54335000  1.0 0.1119681656
H  H4  1  0.10791000  0.11430000  0.46807000  1.0 0.1323426015
H  H5  1  0.31632000  0.84201000  0.69282000  1.0 0.1209092578
H  H6  1  0.36802000  0.92600000  0.61501000  1.0 0.1209092578
H  H7  1  0.21247000  0.89594000  0.85239000  1.0 0.1119681656
H  H8  1  0.20327000  0.99528000  0.98008000  1.0 0.1209092578
H  H9  1  0.37325000  0.18133000  0.79325000  1.0 0.1119681656
H  H10  1  0.38962000  0.08040000  0.67043000  1.0 0.1119681656
H  H11  1  0.84837000  0.59403000  0.01981000  1.0 0.1378415969
H  H12  1  0.81031000  0.66855000  0.16359000  1.0 0.1209092578
H  H13  1  0.07160000  0.54335000  0.25233000  1.0 0.1119681656
H  H14  1  0.11430000  0.46807000  0.10791000  1.0 0.1323426015
H  H15  1  0.84201000  0.69282000  0.31632000  1.0 0.1209092578
H  H16  1  0.92600000  0.61501000  0.36802000  1.0 0.1209092578
H  H17  1  0.89594000  0.85239000  0.21247000  1.0 0.1119681656
H  H18  1  0.99528000  0.98008000  0.20327000  1.0 0.1209092578
H  H19  1  0.18133000  0.79325000  0.37325000  1.0 0.1119681656
H  H20  1  0.08040000  0.67043000  0.38962000  1.0 0.1119681656
H  H21  1  0.59403000  0.01981000  0.84837000  1.0 0.1378415969
H  H22  1  0.66855000  0.16359000  0.81031000  1.0 0.1209092578
H  H23  1  0.54335000  0.25233000  0.07160000  1.0 0.1119681656
H  H24  1  0.46807000  0.10791000  0.11430000  1.0 0.1323426015
H  H25  1  0.69282000  0.31632000  0.84201000  1.0 0.1209092578
H  H26  1  0.61501000  0.36802000  0.92600000  1.0 0.1209092578
H  H27  1  0.85239000  0.21247000  0.89594000  1.0 0.1119681656
H  H28  1  0.98008000  0.20327000  0.99528000  1.0 0.1209092578
H  H29  1  0.79325000  0.37325000  0.18133000  1.0 0.1119681656
H  H30  1  0.67043000  0.38962000  0.08040000  1.0 0.1119681656
H  H31  1  0.98019000  0.15163000  0.40597000  1.0 0.1378415969
H  H32  1  0.83641000  0.18969000  0.33145000  1.0 0.1209092578
H  H33  1  0.74767000  0.92840000  0.45665000  1.0 0.1119681656
H  H34  1  0.89209000  0.88570000  0.53193000  1.0 0.1323426015
H  H35  1  0.68368000  0.15799000  0.30718000  1.0 0.1209092578
H  H36  1  0.63198000  0.07400000  0.38499000  1.0 0.1209092578
H  H37  1  0.78753000  0.10406000  0.14761000  1.0 0.1119681656
H  H38  1  0.79673000  0.00472000  0.01992000  1.0 0.1209092578
H  H39  1  0.62675000  0.81867000  0.20675000  1.0 0.1119681656
H  H40  1  0.61038000  0.91960000  0.32957000  1.0 0.1119681656
H  H41  1  0.15163000  0.40597000  0.98019000  1.0 0.1378415969
H  H42  1  0.18969000  0.33145000  0.83641000  1.0 0.1209092578
H  H43  1  0.92840000  0.45665000  0.74767000  1.0 0.1119681656
H  H44  1  0.88570000  0.53193000  0.89209000  1.0 0.1323426015
H  H45  1  0.15799000  0.30718000  0.68368000  1.0 0.1209092578
H  H46  1  0.07400000  0.38499000  0.63198000  1.0 0.1209092578
H  H47  1  0.10406000  0.14761000  0.78753000  1.0 0.1119681656
H  H48  1  0.00472000  0.01992000  0.79673000  1.0 0.1209092578
H  H49  1  0.81867000  0.20675000  0.62675000  1.0 0.1119681656
H  H50  1  0.91960000  0.32957000  0.61038000  1.0 0.1119681656
H  H51  1  0.40597000  0.98019000  0.15163000  1.0 0.1378415969
H  H52  1  0.33145000  0.83641000  0.18969000  1.0 0.1209092578
H  H53  1  0.45665000  0.74767000  0.92840000  1.0 0.1119681656
H  H54  1  0.53193000  0.89209000  0.88570000  1.0 0.1323426015
H  H55  1  0.30718000  0.68368000  0.15799000  1.0 0.1209092578
H  H56  1  0.38499000  0.63198000  0.07400000  1.0 0.1209092578
H  H57  1  0.14761000  0.78753000  0.10406000  1.0 0.1119681656
H  H58  1  0.01992000  0.79673000  0.00472000  1.0 0.1209092578
H  H59  1  0.20675000  0.62675000  0.81867000  1.0 0.1119681656
H  H60  1  0.32957000  0.61038000  0.91960000  1.0 0.1119681656
C  C1  1  0.04681000  0.98661000  0.52351000  1.0 0.0960215339
C  C2  1  0.06630000  0.89550000  0.58370000  1.0 -0.162897463
C  C3  1  0.15160000  0.87320000  0.62780000  1.0 0.0257539113
C  C4  1  0.20357000  0.02667000  0.55457000  1.0 -0.0121803902
C  C5  1  0.11833000  0.05163000  0.50943000  1.0 -0.1737859476
C  C6  1  0.30840000  0.91400000  0.66480000  1.0 -0.2095948411
C  C7  1  0.30280000  0.97760000  0.74930000  1.0 0.0848090496
C  C8  1  0.24669000  0.95329000  0.84079000  1.0 -0.1853974937
C  C9  1  0.24010000  0.01340000  0.91630000  1.0 -0.1222426112
C  C10  1  0.28665000  0.09925000  0.89955000  1.0 -0.0359529763
C  C11  1  0.34140000  0.12240000  0.80620000  1.0 -0.1285785924
C  C12  1  0.35050000  0.06330000  0.73320000  1.0 -0.1764002595
C  C13  1  0.28012000  0.16442000  0.98122000  1.0 0.5401197321
C  C14  1  0.98661000  0.52351000  0.04681000  1.0 0.0960215339
C  C15  1  0.89550000  0.58370000  0.06630000  1.0 -0.162897463
C  C16  1  0.87320000  0.62780000  0.15160000  1.0 0.0257539113
C  C17  1  0.02667000  0.55457000  0.20357000  1.0 -0.0121803902
C  C18  1  0.05163000  0.50943000  0.11833000  1.0 -0.1737859476
C  C19  1  0.91400000  0.66480000  0.30840000  1.0 -0.2095948411
C  C20  1  0.97760000  0.74930000  0.30280000  1.0 0.0848090496
C  C21  1  0.95329000  0.84079000  0.24669000  1.0 -0.1853974937
C  C22  1  0.01340000  0.91630000  0.24010000  1.0 -0.1222426112
C  C23  1  0.09925000  0.89955000  0.28665000  1.0 -0.0359529763
C  C24  1  0.12240000  0.80620000  0.34140000  1.0 -0.1285785924
C  C25  1  0.06330000  0.73320000  0.35050000  1.0 -0.1764002595
C  C26  1  0.16442000  0.98122000  0.28012000  1.0 0.5401197321
C  C27  1  0.52351000  0.04681000  0.98661000  1.0 0.0960215339
C  C28  1  0.58370000  0.06630000  0.89550000  1.0 -0.162897463
C  C29  1  0.62780000  0.15160000  0.87320000  1.0 0.0257539113
C  C30  1  0.55457000  0.20357000  0.02667000  1.0 -0.0121803902
C  C31  1  0.50943000  0.11833000  0.05163000  1.0 -0.1737859476
C  C32  1  0.66480000  0.30840000  0.91400000  1.0 -0.2095948411
C  C33  1  0.74930000  0.30280000  0.97760000  1.0 0.0848090496
C  C34  1  0.84079000  0.24669000  0.95329000  1.0 -0.1853974937
C  C35  1  0.91630000  0.24010000  0.01340000  1.0 -0.1222426112
C  C36  1  0.89955000  0.28665000  0.09925000  1.0 -0.0359529763
C  C37  1  0.80620000  0.34140000  0.12240000  1.0 -0.1285785924
C  C38  1  0.73320000  0.35050000  0.06330000  1.0 -0.1764002595
C  C39  1  0.98122000  0.28012000  0.16442000  1.0 0.5401197321
C  C40  1  0.95319000  0.01339000  0.47649000  1.0 0.0960215339
C  C41  1  0.93370000  0.10450000  0.41630000  1.0 -0.162897463
C  C42  1  0.84840000  0.12680000  0.37220000  1.0 0.0257539113
C  C43  1  0.79643000  0.97333000  0.44543000  1.0 -0.0121803902
C  C44  1  0.88167000  0.94837000  0.49057000  1.0 -0.1737859476
C  C45  1  0.69160000  0.08600000  0.33520000  1.0 -0.2095948411
C  C46  1  0.69720000  0.02240000  0.25070000  1.0 0.0848090496
C  C47  1  0.75331000  0.04671000  0.15921000  1.0 -0.1853974937
C  C48  1  0.75990000  0.98660000  0.08370000  1.0 -0.1222426112
C  C49  1  0.71335000  0.90075000  0.10045000  1.0 -0.0359529763
C  C50  1  0.65860000  0.87760000  0.19380000  1.0 -0.1285785924
C  C51  1  0.64950000  0.93670000  0.26680000  1.0 -0.1764002595
C  C52  1  0.71988000  0.83558000  0.01878000  1.0 0.5401197321
C  C53  1  0.01339000  0.47649000  0.95319000  1.0 0.0960215339
C  C54  1  0.10450000  0.41630000  0.93370000  1.0 -0.162897463
C  C55  1  0.12680000  0.37220000  0.84840000  1.0 0.0257539113
C  C56  1  0.97333000  0.44543000  0.79643000  1.0 -0.0121803902
C  C57  1  0.94837000  0.49057000  0.88167000  1.0 -0.1737859476
C  C58  1  0.08600000  0.33520000  0.69160000  1.0 -0.2095948411
C  C59  1  0.02240000  0.25070000  0.69720000  1.0 0.0848090496
C  C60  1  0.04671000  0.15921000  0.75331000  1.0 -0.1853974937
C  C61  1  0.98660000  0.08370000  0.75990000  1.0 -0.1222426112
C  C62  1  0.90075000  0.10045000  0.71335000  1.0 -0.0359529763
C  C63  1  0.87760000  0.19380000  0.65860000  1.0 -0.1285785924
C  C64  1  0.93670000  0.26680000  0.64950000  1.0 -0.1764002595
C  C65  1  0.83558000  0.01878000  0.71988000  1.0 0.5401197321
C  C66  1  0.47649000  0.95319000  0.01339000  1.0 0.0960215339
C  C67  1  0.41630000  0.93370000  0.10450000  1.0 -0.162897463
C  C68  1  0.37220000  0.84840000  0.12680000  1.0 0.0257539113
C  C69  1  0.44543000  0.79643000  0.97333000  1.0 -0.0121803902
C  C70  1  0.49057000  0.88167000  0.94837000  1.0 -0.1737859476
C  C71  1  0.33520000  0.69160000  0.08600000  1.0 -0.2095948411
C  C72  1  0.25070000  0.69720000  0.02240000  1.0 0.0848090496
C  C73  1  0.15921000  0.75331000  0.04671000  1.0 -0.1853974937
C  C74  1  0.08370000  0.75990000  0.98660000  1.0 -0.1222426112
C  C75  1  0.10045000  0.71335000  0.90075000  1.0 -0.0359529763
C  C76  1  0.19380000  0.65860000  0.87760000  1.0 -0.1285785924
C  C77  1  0.26680000  0.64950000  0.93670000  1.0 -0.1764002595
C  C78  1  0.01878000  0.71988000  0.83558000  1.0 0.5401197321
N  N1  1  0.21917000  0.93767000  0.61537000  1.0 0.0960215339
N  N2  1  0.93767000  0.61537000  0.21917000  1.0 0.0960215339
N  N3  1  0.61537000  0.21917000  0.93767000  1.0 0.0960215339
N  N4  1  0.78083000  0.06233000  0.38463000  1.0 0.0960215339
N  N5  1  0.06233000  0.38463000  0.78083000  1.0 0.0960215339
N  N6  1  0.38463000  0.78083000  0.06233000  1.0 0.0960215339
O  O1  1  0.25167000  0.12457000  0.06797000  1.0 -0.5803588781
O  O2  1  0.30378000  0.25058000  0.95708000  1.0 -0.5932165835
O  O3  1  0.12457000  0.06797000  0.25167000  1.0 -0.5803588781
O  O4  1  0.25058000  0.95708000  0.30378000  1.0 -0.5932165835
O  O5  1  0.06797000  0.25167000  0.12457000  1.0 -0.5803588781
O  O6  1  0.95708000  0.30378000  0.25058000  1.0 -0.5932165835
O  O7  1  0.74833000  0.87543000  0.93203000  1.0 -0.5803588781
O  O8  1  0.69622000  0.74942000  0.04292000  1.0 -0.5932165835
O  O9  1  0.87543000  0.93203000  0.74833000  1.0 -0.5803588781
O  O10  1  0.74942000  0.04292000  0.69622000  1.0 -0.5932165835
O  O11  1  0.93203000  0.74833000  0.87543000  1.0 -0.5803588781
O  O12  1  0.04292000  0.69622000  0.74942000  1.0 -0.5932165835
