# DDEC6 charges by PACMAN v1.1 (https://github.com/mtap-research/PACMAN-charge/)
data_ECOKAJ_ASR_pacman
_symmetry_space_group_name_H-M   'P 1'
_cell_length_a   29.49700000
_cell_length_b   29.49700000
_cell_length_c   29.49700000
_cell_angle_alpha   90.00000000
_cell_angle_beta   90.00000000
_cell_angle_gamma   90.00000000
_symmetry_Int_Tables_number   1
_chemical_formula_structural   Zn3H24C54(N7O6)2
_chemical_formula_sum   'Zn12 H96 C216 N56 O48'
_cell_volume   25664.54354647
_cell_formula_units_Z   4
loop_
 _symmetry_equiv_pos_site_id
 _symmetry_equiv_pos_as_xyz
  1  'x, y, z'
loop_
 _atom_site_type_symbol
 _atom_site_label
 _atom_site_symmetry_multiplicity
 _atom_site_fract_x
 _atom_site_fract_y
 _atom_site_fract_z
 _atom_site_occupancy
 _atom_site_charge
Zn  Zn1  1  0.37500000  0.87500000  0.62500000  1.0 1.2404002785
Zn  Zn2  1  0.12500000  0.12500000  0.12500000  1.0 1.2404002785
Zn  Zn3  1  0.62500000  0.37500000  0.87500000  1.0 1.2404002785
Zn  Zn4  1  0.87500000  0.62500000  0.37500000  1.0 1.2404002785
Zn  Zn5  1  0.44494000  0.94494000  0.55506000  1.0 0.9580423176
Zn  Zn6  1  0.05506000  0.05506000  0.05506000  1.0 0.9580423176
Zn  Zn7  1  0.55506000  0.44494000  0.94494000  1.0 0.9580423176
Zn  Zn8  1  0.94494000  0.55506000  0.44494000  1.0 0.9580423176
Zn  Zn9  1  0.19494000  0.19494000  0.19494000  1.0 0.9580423176
Zn  Zn10  1  0.30506000  0.80506000  0.69494000  1.0 0.9580423176
Zn  Zn11  1  0.69494000  0.30506000  0.80506000  1.0 0.9580423176
Zn  Zn12  1  0.80506000  0.69494000  0.30506000  1.0 0.9580423176
H  H1  1  0.55070000  0.84100000  0.55510000  1.0 0.124575445
H  H2  1  0.94930000  0.15900000  0.05510000  1.0 0.124575445
H  H3  1  0.44930000  0.34100000  0.94490000  1.0 0.124575445
H  H4  1  0.05070000  0.65900000  0.44490000  1.0 0.124575445
H  H5  1  0.55510000  0.55070000  0.84100000  1.0 0.124575445
H  H6  1  0.05510000  0.94930000  0.15900000  1.0 0.124575445
H  H7  1  0.94490000  0.44930000  0.34100000  1.0 0.124575445
H  H8  1  0.44490000  0.05070000  0.65900000  1.0 0.124575445
H  H9  1  0.84100000  0.55510000  0.55070000  1.0 0.124575445
H  H10  1  0.15900000  0.05510000  0.94930000  1.0 0.124575445
H  H11  1  0.34100000  0.94490000  0.44930000  1.0 0.124575445
H  H12  1  0.65900000  0.44490000  0.05070000  1.0 0.124575445
H  H13  1  0.09100000  0.30070000  0.19490000  1.0 0.124575445
H  H14  1  0.40900000  0.69930000  0.69490000  1.0 0.124575445
H  H15  1  0.59100000  0.19930000  0.80510000  1.0 0.130455047
H  H16  1  0.90900000  0.80070000  0.30510000  1.0 0.124575445
H  H17  1  0.80070000  0.30510000  0.90900000  1.0 0.124575445
H  H18  1  0.19930000  0.80510000  0.59100000  1.0 0.130455047
H  H19  1  0.69930000  0.69490000  0.40900000  1.0 0.124575445
H  H20  1  0.30070000  0.19490000  0.09100000  1.0 0.124575445
H  H21  1  0.80510000  0.59100000  0.19930000  1.0 0.130455047
H  H22  1  0.30510000  0.90900000  0.80070000  1.0 0.124575445
H  H23  1  0.19490000  0.09100000  0.30070000  1.0 0.124575445
H  H24  1  0.69490000  0.40900000  0.69930000  1.0 0.124575445
H  H25  1  0.60280000  0.78490000  0.57590000  1.0 0.130455047
H  H26  1  0.89720000  0.21510000  0.07590000  1.0 0.130455047
H  H27  1  0.39720000  0.28490000  0.92410000  1.0 0.130455047
H  H28  1  0.10280000  0.71510000  0.42410000  1.0 0.130455047
H  H29  1  0.57590000  0.60280000  0.78490000  1.0 0.130455047
H  H30  1  0.07590000  0.89720000  0.21510000  1.0 0.130455047
H  H31  1  0.92410000  0.39720000  0.28490000  1.0 0.130455047
H  H32  1  0.42410000  0.10280000  0.71510000  1.0 0.130455047
H  H33  1  0.78490000  0.57590000  0.60280000  1.0 0.130455047
H  H34  1  0.21510000  0.07590000  0.89720000  1.0 0.130455047
H  H35  1  0.28490000  0.92410000  0.39720000  1.0 0.130455047
H  H36  1  0.71510000  0.42410000  0.10280000  1.0 0.130455047
H  H37  1  0.03490000  0.35280000  0.17410000  1.0 0.130455047
H  H38  1  0.46510000  0.64720000  0.67410000  1.0 0.130455047
H  H39  1  0.53490000  0.14720000  0.82590000  1.0 0.130455047
H  H40  1  0.96510000  0.85280000  0.32590000  1.0 0.130455047
H  H41  1  0.85280000  0.32590000  0.96510000  1.0 0.130455047
H  H42  1  0.14720000  0.82590000  0.53490000  1.0 0.130455047
H  H43  1  0.64720000  0.67410000  0.46510000  1.0 0.130455047
H  H44  1  0.35280000  0.17410000  0.03490000  1.0 0.130455047
H  H45  1  0.82590000  0.53490000  0.14720000  1.0 0.130455047
H  H46  1  0.32590000  0.96510000  0.85280000  1.0 0.130455047
H  H47  1  0.17410000  0.03490000  0.35280000  1.0 0.130455047
H  H48  1  0.67410000  0.46510000  0.64720000  1.0 0.130455047
H  H49  1  0.53200000  0.76340000  0.69260000  1.0 0.130455047
H  H50  1  0.96800000  0.23660000  0.19260000  1.0 0.130455047
H  H51  1  0.46800000  0.26340000  0.80740000  1.0 0.130455047
H  H52  1  0.03200000  0.73660000  0.30740000  1.0 0.130455047
H  H53  1  0.69260000  0.53200000  0.76340000  1.0 0.130455047
H  H54  1  0.19260000  0.96800000  0.23660000  1.0 0.130455047
H  H55  1  0.80740000  0.46800000  0.26340000  1.0 0.130455047
H  H56  1  0.30740000  0.03200000  0.73660000  1.0 0.130455047
H  H57  1  0.76340000  0.69260000  0.53200000  1.0 0.130455047
H  H58  1  0.23660000  0.19260000  0.96800000  1.0 0.130455047
H  H59  1  0.26340000  0.80740000  0.46800000  1.0 0.130455047
H  H60  1  0.73660000  0.30740000  0.03200000  1.0 0.130455047
H  H61  1  0.01340000  0.28200000  0.05740000  1.0 0.130455047
H  H62  1  0.48660000  0.71800000  0.55740000  1.0 0.130455047
H  H63  1  0.51340000  0.21800000  0.94260000  1.0 0.130455047
H  H64  1  0.98660000  0.78200000  0.44260000  1.0 0.130455047
H  H65  1  0.78200000  0.44260000  0.98660000  1.0 0.130455047
H  H66  1  0.21800000  0.94260000  0.51340000  1.0 0.130455047
H  H67  1  0.71800000  0.55740000  0.48660000  1.0 0.130455047
H  H68  1  0.28200000  0.05740000  0.01340000  1.0 0.130455047
H  H69  1  0.94260000  0.51340000  0.21800000  1.0 0.130455047
H  H70  1  0.44260000  0.98660000  0.78200000  1.0 0.130455047
H  H71  1  0.05740000  0.01340000  0.28200000  1.0 0.130455047
H  H72  1  0.55740000  0.48660000  0.71800000  1.0 0.130455047
H  H73  1  0.48590000  0.81950000  0.67300000  1.0 0.130455047
H  H74  1  0.01410000  0.18050000  0.17300000  1.0 0.130455047
H  H75  1  0.51410000  0.31950000  0.82700000  1.0 0.130455047
H  H76  1  0.98590000  0.68050000  0.32700000  1.0 0.130455047
H  H77  1  0.67300000  0.48590000  0.81950000  1.0 0.130455047
H  H78  1  0.17300000  0.01410000  0.18050000  1.0 0.130455047
H  H79  1  0.82700000  0.51410000  0.31950000  1.0 0.130455047
H  H80  1  0.32700000  0.98590000  0.68050000  1.0 0.130455047
H  H81  1  0.81950000  0.67300000  0.48590000  1.0 0.130455047
H  H82  1  0.18050000  0.17300000  0.01410000  1.0 0.130455047
H  H83  1  0.31950000  0.82700000  0.51410000  1.0 0.130455047
H  H84  1  0.68050000  0.32700000  0.98590000  1.0 0.130455047
H  H85  1  0.06950000  0.23590000  0.07700000  1.0 0.130455047
H  H86  1  0.43050000  0.76410000  0.57700000  1.0 0.130455047
H  H87  1  0.56950000  0.26410000  0.92300000  1.0 0.130455047
H  H88  1  0.93050000  0.73590000  0.42300000  1.0 0.130455047
H  H89  1  0.73590000  0.42300000  0.93050000  1.0 0.130455047
H  H90  1  0.26410000  0.92300000  0.56950000  1.0 0.130455047
H  H91  1  0.76410000  0.57700000  0.43050000  1.0 0.130455047
H  H92  1  0.23590000  0.07700000  0.06950000  1.0 0.130455047
H  H93  1  0.92300000  0.56950000  0.26410000  1.0 0.130455047
H  H94  1  0.42300000  0.93050000  0.73590000  1.0 0.130455047
H  H95  1  0.07700000  0.06950000  0.23590000  1.0 0.130455047
H  H96  1  0.57700000  0.43050000  0.76410000  1.0 0.130455047
C  C1  1  0.51230000  0.83720000  0.61320000  1.0 -0.031605333
C  C2  1  0.98770000  0.16280000  0.11320000  1.0 -0.031605333
C  C3  1  0.48770000  0.33720000  0.88680000  1.0 -0.031605333
C  C4  1  0.01230000  0.66280000  0.38680000  1.0 -0.031605333
C  C5  1  0.61320000  0.51230000  0.83720000  1.0 -0.031605333
C  C6  1  0.11320000  0.98770000  0.16280000  1.0 -0.031605333
C  C7  1  0.88680000  0.48770000  0.33720000  1.0 -0.031605333
C  C8  1  0.38680000  0.01230000  0.66280000  1.0 -0.031605333
C  C9  1  0.83720000  0.61320000  0.51230000  1.0 -0.031605333
C  C10  1  0.16280000  0.11320000  0.98770000  1.0 -0.031605333
C  C11  1  0.33720000  0.88680000  0.48770000  1.0 -0.031605333
C  C12  1  0.66280000  0.38680000  0.01230000  1.0 -0.031605333
C  C13  1  0.08720000  0.26230000  0.13680000  1.0 -0.031605333
C  C14  1  0.41280000  0.73770000  0.63680000  1.0 -0.031605333
C  C15  1  0.58720000  0.23770000  0.86320000  1.0 -0.031605333
C  C16  1  0.91280000  0.76230000  0.36320000  1.0 -0.031605333
C  C17  1  0.76230000  0.36320000  0.91280000  1.0 -0.031605333
C  C18  1  0.23770000  0.86320000  0.58720000  1.0 -0.031605333
C  C19  1  0.73770000  0.63680000  0.41280000  1.0 -0.031605333
C  C20  1  0.26230000  0.13680000  0.08720000  1.0 -0.031605333
C  C21  1  0.86320000  0.58720000  0.23770000  1.0 -0.031605333
C  C22  1  0.36320000  0.91280000  0.76230000  1.0 -0.031605333
C  C23  1  0.13680000  0.08720000  0.26230000  1.0 -0.031605333
C  C24  1  0.63680000  0.41280000  0.73770000  1.0 -0.031605333
C  C25  1  0.54780000  0.82580000  0.58260000  1.0 -0.1001119385
C  C26  1  0.95220000  0.17420000  0.08260000  1.0 -0.1001119385
C  C27  1  0.45220000  0.32580000  0.91740000  1.0 -0.1001119385
C  C28  1  0.04780000  0.67420000  0.41740000  1.0 -0.1001119385
C  C29  1  0.58260000  0.54780000  0.82580000  1.0 -0.1001119385
C  C30  1  0.08260000  0.95220000  0.17420000  1.0 -0.1001119385
C  C31  1  0.91740000  0.45220000  0.32580000  1.0 -0.1001119385
C  C32  1  0.41740000  0.04780000  0.67420000  1.0 -0.1001119385
C  C33  1  0.82580000  0.58260000  0.54780000  1.0 -0.1001119385
C  C34  1  0.17420000  0.08260000  0.95220000  1.0 -0.1001119385
C  C35  1  0.32580000  0.91740000  0.45220000  1.0 -0.1001119385
C  C36  1  0.67420000  0.41740000  0.04780000  1.0 -0.1001119385
C  C37  1  0.07580000  0.29780000  0.16740000  1.0 -0.1001119385
C  C38  1  0.42420000  0.70220000  0.66740000  1.0 -0.1001119385
C  C39  1  0.57580000  0.20220000  0.83260000  1.0 -0.1001119385
C  C40  1  0.92420000  0.79780000  0.33260000  1.0 -0.1001119385
C  C41  1  0.79780000  0.33260000  0.92420000  1.0 -0.1001119385
C  C42  1  0.20220000  0.83260000  0.57580000  1.0 -0.1001119385
C  C43  1  0.70220000  0.66740000  0.42420000  1.0 -0.1001119385
C  C44  1  0.29780000  0.16740000  0.07580000  1.0 -0.1001119385
C  C45  1  0.83260000  0.57580000  0.20220000  1.0 -0.1001119385
C  C46  1  0.33260000  0.92420000  0.79780000  1.0 -0.1001119385
C  C47  1  0.16740000  0.07580000  0.29780000  1.0 -0.1001119385
C  C48  1  0.66740000  0.42420000  0.70220000  1.0 -0.1001119385
C  C49  1  0.57810000  0.79150000  0.59430000  1.0 -0.0944449911
C  C50  1  0.92190000  0.20850000  0.09430000  1.0 -0.1001119385
C  C51  1  0.42190000  0.29150000  0.90570000  1.0 -0.0944449911
C  C52  1  0.07810000  0.70850000  0.40570000  1.0 -0.0944449911
C  C53  1  0.59430000  0.57810000  0.79150000  1.0 -0.0944449911
C  C54  1  0.09430000  0.92190000  0.20850000  1.0 -0.1001119385
C  C55  1  0.90570000  0.42190000  0.29150000  1.0 -0.0944449911
C  C56  1  0.40570000  0.07810000  0.70850000  1.0 -0.0944449911
C  C57  1  0.79150000  0.59430000  0.57810000  1.0 -0.0944449911
C  C58  1  0.20850000  0.09430000  0.92190000  1.0 -0.1001119385
C  C59  1  0.29150000  0.90570000  0.42190000  1.0 -0.0944449911
C  C60  1  0.70850000  0.40570000  0.07810000  1.0 -0.0944449911
C  C61  1  0.04150000  0.32810000  0.15570000  1.0 -0.0944449911
C  C62  1  0.45850000  0.67190000  0.65570000  1.0 -0.1001119385
C  C63  1  0.54150000  0.17190000  0.84430000  1.0 -0.0944449911
C  C64  1  0.95850000  0.82810000  0.34430000  1.0 -0.1001119385
C  C65  1  0.82810000  0.34430000  0.95850000  1.0 -0.1001119385
C  C66  1  0.17190000  0.84430000  0.54150000  1.0 -0.1001119385
C  C67  1  0.67190000  0.65570000  0.45850000  1.0 -0.1001119385
C  C68  1  0.32810000  0.15570000  0.04150000  1.0 -0.0944449911
C  C69  1  0.84430000  0.54150000  0.17190000  1.0 -0.0944449911
C  C70  1  0.34430000  0.95850000  0.82810000  1.0 -0.1001119385
C  C71  1  0.15570000  0.04150000  0.32810000  1.0 -0.0944449911
C  C72  1  0.65570000  0.45850000  0.67190000  1.0 -0.1001119385
C  C73  1  0.57020000  0.76540000  0.63740000  1.0 0.0531563445
C  C74  1  0.92980000  0.23460000  0.13740000  1.0 0.0531563445
C  C75  1  0.42980000  0.26540000  0.86260000  1.0 0.0531563445
C  C76  1  0.07020000  0.73460000  0.36260000  1.0 0.0531563445
C  C77  1  0.63740000  0.57020000  0.76540000  1.0 0.0531563445
C  C78  1  0.13740000  0.92980000  0.23460000  1.0 0.0531563445
C  C79  1  0.86260000  0.42980000  0.26540000  1.0 0.0531563445
C  C80  1  0.36260000  0.07020000  0.73460000  1.0 0.0531563445
C  C81  1  0.76540000  0.63740000  0.57020000  1.0 0.0531563445
C  C82  1  0.23460000  0.13740000  0.92980000  1.0 0.0531563445
C  C83  1  0.26540000  0.86260000  0.42980000  1.0 0.0531563445
C  C84  1  0.73460000  0.36260000  0.07020000  1.0 0.0531563445
C  C85  1  0.01540000  0.32020000  0.11260000  1.0 0.0531563445
C  C86  1  0.48460000  0.67980000  0.61260000  1.0 0.0531563445
C  C87  1  0.51540000  0.17980000  0.88740000  1.0 0.0531563445
C  C88  1  0.98460000  0.82020000  0.38740000  1.0 0.0531563445
C  C89  1  0.82020000  0.38740000  0.98460000  1.0 0.0531563445
C  C90  1  0.17980000  0.88740000  0.51540000  1.0 0.0531563445
C  C91  1  0.67980000  0.61260000  0.48460000  1.0 0.0531563445
C  C92  1  0.32020000  0.11260000  0.01540000  1.0 0.0531563445
C  C93  1  0.88740000  0.51540000  0.17980000  1.0 0.0531563445
C  C94  1  0.38740000  0.98460000  0.82020000  1.0 0.0531563445
C  C95  1  0.11260000  0.01540000  0.32020000  1.0 0.0531563445
C  C96  1  0.61260000  0.48460000  0.67980000  1.0 0.0531563445
C  C97  1  0.53630000  0.77810000  0.66510000  1.0 -0.1001119385
C  C98  1  0.96370000  0.22190000  0.16510000  1.0 -0.1001119385
C  C99  1  0.46370000  0.27810000  0.83490000  1.0 -0.1001119385
C  C100  1  0.03630000  0.72190000  0.33490000  1.0 -0.1001119385
C  C101  1  0.66510000  0.53630000  0.77810000  1.0 -0.1001119385
C  C102  1  0.16510000  0.96370000  0.22190000  1.0 -0.1001119385
C  C103  1  0.83490000  0.46370000  0.27810000  1.0 -0.1001119385
C  C104  1  0.33490000  0.03630000  0.72190000  1.0 -0.1001119385
C  C105  1  0.77810000  0.66510000  0.53630000  1.0 -0.1001119385
C  C106  1  0.22190000  0.16510000  0.96370000  1.0 -0.1001119385
C  C107  1  0.27810000  0.83490000  0.46370000  1.0 -0.1001119385
C  C108  1  0.72190000  0.33490000  0.03630000  1.0 -0.1001119385
C  C109  1  0.02810000  0.28630000  0.08490000  1.0 -0.1001119385
C  C110  1  0.47190000  0.71370000  0.58490000  1.0 -0.1001119385
C  C111  1  0.52810000  0.21370000  0.91510000  1.0 -0.1001119385
C  C112  1  0.97190000  0.78630000  0.41510000  1.0 -0.1001119385
C  C113  1  0.78630000  0.41510000  0.97190000  1.0 -0.1001119385
C  C114  1  0.21370000  0.91510000  0.52810000  1.0 -0.1001119385
C  C115  1  0.71370000  0.58490000  0.47190000  1.0 -0.1001119385
C  C116  1  0.28630000  0.08490000  0.02810000  1.0 -0.1001119385
C  C117  1  0.91510000  0.52810000  0.21370000  1.0 -0.1001119385
C  C118  1  0.41510000  0.97190000  0.78630000  1.0 -0.1001119385
C  C119  1  0.08490000  0.02810000  0.28630000  1.0 -0.1001119385
C  C120  1  0.58490000  0.47190000  0.71370000  1.0 -0.1001119385
C  C121  1  0.50910000  0.81200000  0.65310000  1.0 -0.0944449911
C  C122  1  0.99090000  0.18800000  0.15310000  1.0 -0.0944449911
C  C123  1  0.49090000  0.31200000  0.84690000  1.0 -0.0944449911
C  C124  1  0.00910000  0.68800000  0.34690000  1.0 -0.0944449911
C  C125  1  0.65310000  0.50910000  0.81200000  1.0 -0.0944449911
C  C126  1  0.15310000  0.99090000  0.18800000  1.0 -0.0944449911
C  C127  1  0.84690000  0.49090000  0.31200000  1.0 -0.0944449911
C  C128  1  0.34690000  0.00910000  0.68800000  1.0 -0.0944449911
C  C129  1  0.81200000  0.65310000  0.50910000  1.0 -0.0944449911
C  C130  1  0.18800000  0.15310000  0.99090000  1.0 -0.0944449911
C  C131  1  0.31200000  0.84690000  0.49090000  1.0 -0.0944449911
C  C132  1  0.68800000  0.34690000  0.00910000  1.0 -0.0944449911
C  C133  1  0.06200000  0.25910000  0.09690000  1.0 -0.0944449911
C  C134  1  0.43800000  0.74090000  0.59690000  1.0 -0.0944449911
C  C135  1  0.56200000  0.24090000  0.90310000  1.0 -0.0944449911
C  C136  1  0.93800000  0.75910000  0.40310000  1.0 -0.0944449911
C  C137  1  0.75910000  0.40310000  0.93800000  1.0 -0.0944449911
C  C138  1  0.24090000  0.90310000  0.56200000  1.0 -0.0944449911
C  C139  1  0.74090000  0.59690000  0.43800000  1.0 -0.0944449911
C  C140  1  0.25910000  0.09690000  0.06200000  1.0 -0.0944449911
C  C141  1  0.90310000  0.56200000  0.24090000  1.0 -0.0944449911
C  C142  1  0.40310000  0.93800000  0.75910000  1.0 -0.0944449911
C  C143  1  0.09690000  0.06200000  0.25910000  1.0 -0.1001119385
C  C144  1  0.59690000  0.43800000  0.74090000  1.0 -0.0944449911
C  C145  1  0.47690000  0.87230000  0.60350000  1.0 0.6111168503
C  C146  1  0.02310000  0.12770000  0.10350000  1.0 0.6111168503
C  C147  1  0.52310000  0.37230000  0.89650000  1.0 0.6111168503
C  C148  1  0.97690000  0.62770000  0.39650000  1.0 0.6111168503
C  C149  1  0.60350000  0.47690000  0.87230000  1.0 0.6111168503
C  C150  1  0.10350000  0.02310000  0.12770000  1.0 0.6111168503
C  C151  1  0.89650000  0.52310000  0.37230000  1.0 0.6111168503
C  C152  1  0.39650000  0.97690000  0.62770000  1.0 0.6111168503
C  C153  1  0.87230000  0.60350000  0.47690000  1.0 0.6111168503
C  C154  1  0.12770000  0.10350000  0.02310000  1.0 0.6111168503
C  C155  1  0.37230000  0.89650000  0.52310000  1.0 0.6111168503
C  C156  1  0.62770000  0.39650000  0.97690000  1.0 0.6111168503
C  C157  1  0.12230000  0.22690000  0.14650000  1.0 0.6111168503
C  C158  1  0.37770000  0.77310000  0.64650000  1.0 0.6111168503
C  C159  1  0.62230000  0.27310000  0.85350000  1.0 0.6111168503
C  C160  1  0.87770000  0.72690000  0.35350000  1.0 0.6111168503
C  C161  1  0.72690000  0.35350000  0.87770000  1.0 0.6111168503
C  C162  1  0.27310000  0.85350000  0.62230000  1.0 0.6111168503
C  C163  1  0.77310000  0.64650000  0.37770000  1.0 0.6111168503
C  C164  1  0.22690000  0.14650000  0.12230000  1.0 0.6111168503
C  C165  1  0.85350000  0.62230000  0.27310000  1.0 0.6111168503
C  C166  1  0.35350000  0.87770000  0.72690000  1.0 0.6111168503
C  C167  1  0.14650000  0.12230000  0.22690000  1.0 0.6111168503
C  C168  1  0.64650000  0.37770000  0.77310000  1.0 0.6111168503
C  C169  1  0.60420000  0.72360000  0.64450000  1.0 0.3525550007
C  C170  1  0.89580000  0.27640000  0.14450000  1.0 0.3525550007
C  C171  1  0.39580000  0.22360000  0.85550000  1.0 0.3525550007
C  C172  1  0.10420000  0.77640000  0.35550000  1.0 0.3525550007
C  C173  1  0.64450000  0.60420000  0.72360000  1.0 0.3525550007
C  C174  1  0.14450000  0.89580000  0.27640000  1.0 0.3525550007
C  C175  1  0.85550000  0.39580000  0.22360000  1.0 0.3525550007
C  C176  1  0.35550000  0.10420000  0.77640000  1.0 0.3525550007
C  C177  1  0.72360000  0.64450000  0.60420000  1.0 0.3525550007
C  C178  1  0.27640000  0.14450000  0.89580000  1.0 0.3525550007
C  C179  1  0.22360000  0.85550000  0.39580000  1.0 0.3525550007
C  C180  1  0.77640000  0.35550000  0.10420000  1.0 0.3525550007
C  C181  1  0.97360000  0.35420000  0.10550000  1.0 0.3525550007
C  C182  1  0.52640000  0.64580000  0.60550000  1.0 0.3525550007
C  C183  1  0.47360000  0.14580000  0.89450000  1.0 0.3525550007
C  C184  1  0.02640000  0.85420000  0.39450000  1.0 0.3525550007
C  C185  1  0.85420000  0.39450000  0.02640000  1.0 0.3525550007
C  C186  1  0.14580000  0.89450000  0.47360000  1.0 0.3525550007
C  C187  1  0.64580000  0.60550000  0.52640000  1.0 0.3525550007
C  C188  1  0.35420000  0.10550000  0.97360000  1.0 0.3525550007
C  C189  1  0.89450000  0.47360000  0.14580000  1.0 0.3525550007
C  C190  1  0.39450000  0.02640000  0.85420000  1.0 0.3525550007
C  C191  1  0.10550000  0.97360000  0.35420000  1.0 0.3525550007
C  C192  1  0.60550000  0.52640000  0.64580000  1.0 0.3525550007
C  C193  1  0.66490000  0.68390000  0.62490000  1.0 0.4254853665
C  C194  1  0.83510000  0.31610000  0.12490000  1.0 0.4233036248
C  C195  1  0.33510000  0.18390000  0.87510000  1.0 0.4233036248
C  C196  1  0.16490000  0.81610000  0.37510000  1.0 0.4233036248
C  C197  1  0.62490000  0.66490000  0.68390000  1.0 0.4254853665
C  C198  1  0.12490000  0.83510000  0.31610000  1.0 0.4233036248
C  C199  1  0.87510000  0.33510000  0.18390000  1.0 0.4233036248
C  C200  1  0.37510000  0.16490000  0.81610000  1.0 0.4233036248
C  C201  1  0.68390000  0.62490000  0.66490000  1.0 0.4254853665
C  C202  1  0.31610000  0.12490000  0.83510000  1.0 0.4233036248
C  C203  1  0.18390000  0.87510000  0.33510000  1.0 0.4233036248
C  C204  1  0.81610000  0.37510000  0.16490000  1.0 0.4233036248
C  C205  1  0.93390000  0.41490000  0.12510000  1.0 0.4233036248
C  C206  1  0.56610000  0.58510000  0.62510000  1.0 0.4233036248
C  C207  1  0.43390000  0.08510000  0.87490000  1.0 0.4254853665
C  C208  1  0.06610000  0.91490000  0.37490000  1.0 0.4233036248
C  C209  1  0.91490000  0.37490000  0.06610000  1.0 0.4233036248
C  C210  1  0.08510000  0.87490000  0.43390000  1.0 0.4233036248
C  C211  1  0.58510000  0.62510000  0.56610000  1.0 0.4233036248
C  C212  1  0.41490000  0.12510000  0.93390000  1.0 0.4233036248
C  C213  1  0.87490000  0.43390000  0.08510000  1.0 0.4233036248
C  C214  1  0.37490000  0.06610000  0.91490000  1.0 0.4254853665
C  C215  1  0.12510000  0.93390000  0.41490000  1.0 0.4233036248
C  C216  1  0.62510000  0.56610000  0.58510000  1.0 0.4233036248
N  N1  1  0.63850000  0.72050000  0.61430000  1.0 -0.4121447663
N  N2  1  0.86150000  0.27950000  0.11430000  1.0 -0.4121447663
N  N3  1  0.36150000  0.22050000  0.88570000  1.0 -0.4121447663
N  N4  1  0.13850000  0.77950000  0.38570000  1.0 -0.4121447663
N  N5  1  0.61430000  0.63850000  0.72050000  1.0 -0.4121447663
N  N6  1  0.11430000  0.86150000  0.27950000  1.0 -0.4121447663
N  N7  1  0.88570000  0.36150000  0.22050000  1.0 -0.4121447663
N  N8  1  0.38570000  0.13850000  0.77950000  1.0 -0.4121447663
N  N9  1  0.72050000  0.61430000  0.63850000  1.0 -0.4121447663
N  N10  1  0.27950000  0.11430000  0.86150000  1.0 -0.4121447663
N  N11  1  0.22050000  0.88570000  0.36150000  1.0 -0.4121447663
N  N12  1  0.77950000  0.38570000  0.13850000  1.0 -0.4121447663
N  N13  1  0.97050000  0.38850000  0.13570000  1.0 -0.4121447663
N  N14  1  0.52950000  0.61150000  0.63570000  1.0 -0.4121447663
N  N15  1  0.47050000  0.11150000  0.86430000  1.0 -0.4121447663
N  N16  1  0.02950000  0.88850000  0.36430000  1.0 -0.4121447663
N  N17  1  0.88850000  0.36430000  0.02950000  1.0 -0.4121447663
N  N18  1  0.11150000  0.86430000  0.47050000  1.0 -0.4121447663
N  N19  1  0.61150000  0.63570000  0.52950000  1.0 -0.4121447663
N  N20  1  0.38850000  0.13570000  0.97050000  1.0 -0.4121447663
N  N21  1  0.86430000  0.47050000  0.11150000  1.0 -0.4121447663
N  N22  1  0.36430000  0.02950000  0.88850000  1.0 -0.4121447663
N  N23  1  0.13570000  0.97050000  0.38850000  1.0 -0.4121447663
N  N24  1  0.63570000  0.52950000  0.61150000  1.0 -0.4121447663
N  N25  1  0.59461000  0.69980000  0.67960000  1.0 -0.3953658701
N  N26  1  0.90539000  0.30020000  0.17960000  1.0 -0.3937631227
N  N27  1  0.40539000  0.19980000  0.82040000  1.0 -0.3937631227
N  N28  1  0.09461000  0.80020000  0.32040000  1.0 -0.3937631227
N  N29  1  0.67960000  0.59461000  0.69980000  1.0 -0.3953658701
N  N30  1  0.17960000  0.90539000  0.30020000  1.0 -0.3937631227
N  N31  1  0.82040000  0.40539000  0.19980000  1.0 -0.3953658701
N  N32  1  0.32040000  0.09461000  0.80020000  1.0 -0.3937631227
N  N33  1  0.69980000  0.67960000  0.59461000  1.0 -0.3953658701
N  N34  1  0.30020000  0.17960000  0.90539000  1.0 -0.3937631227
N  N35  1  0.19980000  0.82040000  0.40539000  1.0 -0.3937631227
N  N36  1  0.80020000  0.32040000  0.09461000  1.0 -0.3937631227
N  N37  1  0.94980000  0.34461000  0.07040000  1.0 -0.3937631227
N  N38  1  0.55020000  0.65539000  0.57040000  1.0 -0.3937631227
N  N39  1  0.44980000  0.15539000  0.92960000  1.0 -0.3953658701
N  N40  1  0.05020000  0.84461000  0.42960000  1.0 -0.3937631227
N  N41  1  0.84461000  0.42960000  0.05020000  1.0 -0.3937631227
N  N42  1  0.15539000  0.92960000  0.44980000  1.0 -0.3937631227
N  N43  1  0.65539000  0.57040000  0.55020000  1.0 -0.3937631227
N  N44  1  0.34461000  0.07040000  0.94980000  1.0 -0.3937631227
N  N45  1  0.92960000  0.44980000  0.15539000  1.0 -0.3953658701
N  N46  1  0.42960000  0.05020000  0.84461000  1.0 -0.3937631227
N  N47  1  0.07040000  0.94980000  0.34461000  1.0 -0.3937631227
N  N48  1  0.57040000  0.55020000  0.65539000  1.0 -0.3937631227
N  N49  1  0.65757000  0.65757000  0.65757000  1.0 -0.2283259932
N  N50  1  0.84243000  0.34243000  0.15757000  1.0 -0.2283259932
N  N51  1  0.34243000  0.15757000  0.84243000  1.0 -0.2283259932
N  N52  1  0.15757000  0.84243000  0.34243000  1.0 -0.2283259932
N  N53  1  0.90757000  0.40757000  0.09243000  1.0 -0.2283259932
N  N54  1  0.59243000  0.59243000  0.59243000  1.0 -0.2283259932
N  N55  1  0.40757000  0.09243000  0.90757000  1.0 -0.2283259932
N  N56  1  0.09243000  0.90757000  0.40757000  1.0 -0.2283259932
O  O1  1  0.48427000  0.89606000  0.56887000  1.0 -0.562263717
O  O2  1  0.01573000  0.10394000  0.06887000  1.0 -0.5652662278
O  O3  1  0.51573000  0.39606000  0.93113000  1.0 -0.562263717
O  O4  1  0.98427000  0.60394000  0.43113000  1.0 -0.562263717
O  O5  1  0.56887000  0.48427000  0.89606000  1.0 -0.562263717
O  O6  1  0.06887000  0.01573000  0.10394000  1.0 -0.562263717
O  O7  1  0.93113000  0.51573000  0.39606000  1.0 -0.562263717
O  O8  1  0.43113000  0.98427000  0.60394000  1.0 -0.562263717
O  O9  1  0.89606000  0.56887000  0.48427000  1.0 -0.562263717
O  O10  1  0.10394000  0.06887000  0.01573000  1.0 -0.562263717
O  O11  1  0.39606000  0.93113000  0.51573000  1.0 -0.562263717
O  O12  1  0.60394000  0.43113000  0.98427000  1.0 -0.562263717
O  O13  1  0.14606000  0.23427000  0.18113000  1.0 -0.5652662278
O  O14  1  0.35394000  0.76573000  0.68113000  1.0 -0.562263717
O  O15  1  0.64606000  0.26573000  0.81887000  1.0 -0.562263717
O  O16  1  0.85394000  0.73427000  0.31887000  1.0 -0.562263717
O  O17  1  0.73427000  0.31887000  0.85394000  1.0 -0.562263717
O  O18  1  0.26573000  0.81887000  0.64606000  1.0 -0.562263717
O  O19  1  0.76573000  0.68113000  0.35394000  1.0 -0.562263717
O  O20  1  0.23427000  0.18113000  0.14606000  1.0 -0.562263717
O  O21  1  0.81887000  0.64606000  0.26573000  1.0 -0.562263717
O  O22  1  0.31887000  0.85394000  0.73427000  1.0 -0.562263717
O  O23  1  0.18113000  0.14606000  0.23427000  1.0 -0.562263717
O  O24  1  0.68113000  0.35394000  0.76573000  1.0 -0.562263717
O  O25  1  0.43765000  0.87382000  0.62913000  1.0 -0.6143252374
O  O26  1  0.06235000  0.12618000  0.12913000  1.0 -0.6143252374
O  O27  1  0.56235000  0.37382000  0.87087000  1.0 -0.6156448229
O  O28  1  0.93765000  0.62618000  0.37087000  1.0 -0.6156448229
O  O29  1  0.62913000  0.43765000  0.87382000  1.0 -0.6156448229
O  O30  1  0.12913000  0.06235000  0.12618000  1.0 -0.6143252374
O  O31  1  0.87087000  0.56235000  0.37382000  1.0 -0.6156448229
O  O32  1  0.37087000  0.93765000  0.62618000  1.0 -0.6156448229
O  O33  1  0.87382000  0.62913000  0.43765000  1.0 -0.6156448229
O  O34  1  0.12618000  0.12913000  0.06235000  1.0 -0.6143252374
O  O35  1  0.37382000  0.87087000  0.56235000  1.0 -0.6156448229
O  O36  1  0.62618000  0.37087000  0.93765000  1.0 -0.6156448229
O  O37  1  0.12382000  0.18765000  0.12087000  1.0 -0.6156448229
O  O38  1  0.37618000  0.81235000  0.62087000  1.0 -0.6156448229
O  O39  1  0.62382000  0.31235000  0.87913000  1.0 -0.6143252374
O  O40  1  0.87618000  0.68765000  0.37913000  1.0 -0.6143252374
O  O41  1  0.68765000  0.37913000  0.87618000  1.0 -0.6143252374
O  O42  1  0.31235000  0.87913000  0.62382000  1.0 -0.6143252374
O  O43  1  0.81235000  0.62087000  0.37618000  1.0 -0.6156448229
O  O44  1  0.18765000  0.12087000  0.12382000  1.0 -0.6156448229
O  O45  1  0.87913000  0.62382000  0.31235000  1.0 -0.6143252374
O  O46  1  0.37913000  0.87618000  0.68765000  1.0 -0.6143252374
O  O47  1  0.12087000  0.12382000  0.18765000  1.0 -0.6156448229
O  O48  1  0.62087000  0.37618000  0.81235000  1.0 -0.6156448229
