# DDEC6 charges by PACMAN v1.1 (https://github.com/mtap-research/PACMAN-charge/)
data_ECOLEP_ASR_pacman
_symmetry_space_group_name_H-M   'P 1'
_cell_length_a   18.64000000
_cell_length_b   18.64000000
_cell_length_c   18.64000000
_cell_angle_alpha   90.00000000
_cell_angle_beta   90.00000000
_cell_angle_gamma   90.00000000
_symmetry_Int_Tables_number   1
_chemical_formula_structural   Co2H3(C3N4)3
_chemical_formula_sum   'Co8 H12 C36 N48'
_cell_volume   6476.46054400
_cell_formula_units_Z   4
loop_
 _symmetry_equiv_pos_site_id
 _symmetry_equiv_pos_as_xyz
  1  'x, y, z'
loop_
 _atom_site_type_symbol
 _atom_site_label
 _atom_site_symmetry_multiplicity
 _atom_site_fract_x
 _atom_site_fract_y
 _atom_site_fract_z
 _atom_site_occupancy
 _atom_site_charge
Co  Co1  1  0.93328000  0.06672000  0.56672000  1.0 0.5084565539
Co  Co2  1  0.56672000  0.93328000  0.06672000  1.0 0.5084565539
Co  Co3  1  0.43328000  0.43328000  0.43328000  1.0 0.5084565539
Co  Co4  1  0.06672000  0.56672000  0.93328000  1.0 0.5041113058
Co  Co5  1  0.68328000  0.81672000  0.18328000  1.0 0.5084565539
Co  Co6  1  0.81672000  0.18328000  0.68328000  1.0 0.5084565539
Co  Co7  1  0.31672000  0.31672000  0.31672000  1.0 0.5084565539
Co  Co8  1  0.18328000  0.68328000  0.81672000  1.0 0.5041113058
H  H1  1  0.03820000  0.37500000  0.71180000  1.0 0.1210179003
H  H2  1  0.46180000  0.62500000  0.21180000  1.0 0.1210179003
H  H3  1  0.53820000  0.12500000  0.28820000  1.0 0.1210179003
H  H4  1  0.96180000  0.87500000  0.78820000  1.0 0.1210179003
H  H5  1  0.71180000  0.03820000  0.37500000  1.0 0.1210179003
H  H6  1  0.37500000  0.71180000  0.03820000  1.0 0.1210179003
H  H7  1  0.78820000  0.96180000  0.87500000  1.0 0.1210179003
H  H8  1  0.62500000  0.21180000  0.46180000  1.0 0.1210179003
H  H9  1  0.21180000  0.46180000  0.62500000  1.0 0.1210179003
H  H10  1  0.12500000  0.28820000  0.53820000  1.0 0.1210179003
H  H11  1  0.28820000  0.53820000  0.12500000  1.0 0.1210179003
H  H12  1  0.87500000  0.78820000  0.96180000  1.0 0.1210179003
C  C1  1  0.07255000  0.32255000  0.62500000  1.0 0.0376158239
C  C2  1  0.42745000  0.67745000  0.12500000  1.0 0.0376158239
C  C3  1  0.57255000  0.17745000  0.37500000  1.0 0.0376158239
C  C4  1  0.92745000  0.82255000  0.87500000  1.0 0.0376158239
C  C5  1  0.62500000  0.07255000  0.32255000  1.0 0.0376158239
C  C6  1  0.32255000  0.62500000  0.07255000  1.0 0.0376158239
C  C7  1  0.87500000  0.92745000  0.82255000  1.0 0.0376158239
C  C8  1  0.67745000  0.12500000  0.42745000  1.0 0.0376158239
C  C9  1  0.12500000  0.42745000  0.67745000  1.0 0.0376158239
C  C10  1  0.17745000  0.37500000  0.57255000  1.0 0.0376158239
C  C11  1  0.37500000  0.57255000  0.17745000  1.0 0.0376158239
C  C12  1  0.82255000  0.87500000  0.92745000  1.0 0.0376158239
C  C13  1  0.01633000  0.26633000  0.62500000  1.0 0.236132601
C  C14  1  0.48367000  0.73367000  0.12500000  1.0 0.236132601
C  C15  1  0.51633000  0.23367000  0.37500000  1.0 0.236132601
C  C16  1  0.98367000  0.76633000  0.87500000  1.0 0.236132601
C  C17  1  0.62500000  0.01633000  0.26633000  1.0 0.236132601
C  C18  1  0.26633000  0.62500000  0.01633000  1.0 0.236132601
C  C19  1  0.87500000  0.98367000  0.76633000  1.0 0.236132601
C  C20  1  0.73367000  0.12500000  0.48367000  1.0 0.236132601
C  C21  1  0.12500000  0.48367000  0.73367000  1.0 0.236132601
C  C22  1  0.23367000  0.37500000  0.51633000  1.0 0.236132601
C  C23  1  0.37500000  0.51633000  0.23367000  1.0 0.236132601
C  C24  1  0.76633000  0.87500000  0.98367000  1.0 0.2349969903
C  C25  1  0.07350000  0.37500000  0.67650000  1.0 -0.1125662839
C  C26  1  0.42650000  0.62500000  0.17650000  1.0 -0.1125662839
C  C27  1  0.57350000  0.12500000  0.32350000  1.0 -0.1125662839
C  C28  1  0.92650000  0.87500000  0.82350000  1.0 -0.1125662839
C  C29  1  0.67650000  0.07350000  0.37500000  1.0 -0.1125662839
C  C30  1  0.37500000  0.67650000  0.07350000  1.0 -0.1125662839
C  C31  1  0.82350000  0.92650000  0.87500000  1.0 -0.1125662839
C  C32  1  0.62500000  0.17650000  0.42650000  1.0 -0.1125662839
C  C33  1  0.17650000  0.42650000  0.62500000  1.0 -0.1125662839
C  C34  1  0.12500000  0.32350000  0.57350000  1.0 -0.1125662839
C  C35  1  0.32350000  0.57350000  0.12500000  1.0 -0.1125662839
C  C36  1  0.87500000  0.82350000  0.92650000  1.0 -0.1125662839
N  N1  1  0.96145000  0.17061000  0.60321000  1.0 -0.0399776789
N  N2  1  0.53855000  0.82939000  0.10321000  1.0 -0.0399776789
N  N3  1  0.46145000  0.32939000  0.39679000  1.0 -0.0399776789
N  N4  1  0.03855000  0.67061000  0.89679000  1.0 -0.0399776789
N  N5  1  0.60321000  0.96145000  0.17061000  1.0 -0.0399776789
N  N6  1  0.17061000  0.60321000  0.96145000  1.0 -0.0399776789
N  N7  1  0.89679000  0.03855000  0.67061000  1.0 -0.0399776789
N  N8  1  0.82939000  0.10321000  0.53855000  1.0 -0.0399776789
N  N9  1  0.10321000  0.53855000  0.82939000  1.0 -0.0399776789
N  N10  1  0.32939000  0.39679000  0.46145000  1.0 -0.0399776789
N  N11  1  0.39679000  0.46145000  0.32939000  1.0 -0.0399776789
N  N12  1  0.67061000  0.89679000  0.03855000  1.0 -0.0399776789
N  N13  1  0.57939000  0.78855000  0.14679000  1.0 -0.0399776789
N  N14  1  0.92061000  0.21145000  0.64679000  1.0 -0.0399776789
N  N15  1  0.42061000  0.28855000  0.35321000  1.0 -0.0399776789
N  N16  1  0.07939000  0.71145000  0.85321000  1.0 -0.0399776789
N  N17  1  0.78855000  0.14679000  0.57939000  1.0 -0.0399776789
N  N18  1  0.14679000  0.57939000  0.78855000  1.0 -0.0399776789
N  N19  1  0.71145000  0.85321000  0.07939000  1.0 -0.0399776789
N  N20  1  0.64679000  0.92061000  0.21145000  1.0 -0.0399776789
N  N21  1  0.21145000  0.64679000  0.92061000  1.0 -0.0399776789
N  N22  1  0.35321000  0.42061000  0.28855000  1.0 -0.0399776789
N  N23  1  0.28855000  0.35321000  0.42061000  1.0 -0.0399776789
N  N24  1  0.85321000  0.07939000  0.71145000  1.0 -0.0399776789
N  N25  1  0.02192000  0.20551000  0.58737000  1.0 -0.2701984386
N  N26  1  0.47808000  0.79449000  0.08737000  1.0 -0.2701984386
N  N27  1  0.52192000  0.29449000  0.41263000  1.0 -0.2701984386
N  N28  1  0.97808000  0.70551000  0.91263000  1.0 -0.2701984386
N  N29  1  0.58737000  0.02192000  0.20551000  1.0 -0.2701984386
N  N30  1  0.20551000  0.58737000  0.02192000  1.0 -0.2701984386
N  N31  1  0.91263000  0.97808000  0.70551000  1.0 -0.2701984386
N  N32  1  0.79449000  0.08737000  0.47808000  1.0 -0.2701984386
N  N33  1  0.08737000  0.47808000  0.79449000  1.0 -0.2701984386
N  N34  1  0.29449000  0.41263000  0.52192000  1.0 -0.2701984386
N  N35  1  0.41263000  0.52192000  0.29449000  1.0 -0.2701984386
N  N36  1  0.70551000  0.91263000  0.97808000  1.0 -0.2701984386
N  N37  1  0.54449000  0.72808000  0.16263000  1.0 -0.2701984386
N  N38  1  0.95551000  0.27192000  0.66263000  1.0 -0.2701984386
N  N39  1  0.45551000  0.22808000  0.33737000  1.0 -0.2701984386
N  N40  1  0.04449000  0.77192000  0.83737000  1.0 -0.2701984386
N  N41  1  0.72808000  0.16263000  0.54449000  1.0 -0.2701984386
N  N42  1  0.16263000  0.54449000  0.72808000  1.0 -0.2701984386
N  N43  1  0.77192000  0.83737000  0.04449000  1.0 -0.2701984386
N  N44  1  0.66263000  0.95551000  0.27192000  1.0 -0.2701984386
N  N45  1  0.27192000  0.66263000  0.95551000  1.0 -0.2701984386
N  N46  1  0.33737000  0.45551000  0.22808000  1.0 -0.2701984386
N  N47  1  0.22808000  0.33737000  0.45551000  1.0 -0.2701984386
N  N48  1  0.83737000  0.04449000  0.77192000  1.0 -0.2701984386
