# DDEC6 charges by PACMAN v1.1 (https://github.com/mtap-research/PACMAN-charge/)
data_ECOVOL_ion_pacman
_symmetry_space_group_name_H-M   'P 1'
_cell_length_a   20.68530000
_cell_length_b   20.68530000
_cell_length_c   20.95300000
_cell_angle_alpha   83.87140000
_cell_angle_beta   96.12860000
_cell_angle_gamma   103.32100000
_symmetry_Int_Tables_number   1
_chemical_formula_structural   Ni2H64C82S2N8Cl7O4
_chemical_formula_sum   'Ni8 H256 C328 S8 N32 Cl28 O16'
_cell_volume   8642.99146226
_cell_formula_units_Z   4
loop_
 _symmetry_equiv_pos_site_id
 _symmetry_equiv_pos_as_xyz
  1  'x, y, z'
loop_
 _atom_site_type_symbol
 _atom_site_label
 _atom_site_symmetry_multiplicity
 _atom_site_fract_x
 _atom_site_fract_y
 _atom_site_fract_z
 _atom_site_occupancy
 _atom_site_charge
Ni  Ni1  1  0.40919000  0.05491000  0.65470000  1.0 0.5344368471
Ni  Ni2  1  0.91481000  0.05279000  0.15839000  1.0 0.8202292724
Ni  Ni3  1  0.05491000  0.40919000  0.84530000  1.0 0.5344368471
Ni  Ni4  1  0.05279000  0.91481000  0.34161000  1.0 0.8202292724
Ni  Ni5  1  0.59081000  0.94509000  0.34530000  1.0 0.5353570236
Ni  Ni6  1  0.08519000  0.94721000  0.84161000  1.0 0.8202292724
Ni  Ni7  1  0.94509000  0.59081000  0.15470000  1.0 0.5353570236
Ni  Ni8  1  0.94721000  0.08519000  0.65839000  1.0 0.8202292724
H  H1  1  0.54341000  0.15719000  0.85111000  1.0 0.1392931524
H  H2  1  0.51250000  0.08642000  0.77000000  1.0 0.1121011443
H  H3  1  0.38212000  0.18696000  0.68789000  1.0 0.1025515811
H  H4  1  0.40875000  0.26009000  0.76756000  1.0 0.1281914155
H  H5  1  0.53050000  0.42092000  0.92379000  1.0 0.1121011443
H  H6  1  0.55174000  0.48196000  0.01207000  1.0 0.1204737544
H  H7  1  0.53660000  0.31074000  0.12908000  1.0 0.1281914155
H  H8  1  0.51128000  0.25018000  0.04079000  1.0 0.1281914155
H  H9  1  0.28927000  0.93737000  0.62302000  1.0 0.1121011443
H  H10  1  0.24955000  0.86345000  0.54549000  1.0 0.1500120236
H  H11  1  0.42039000  0.94073000  0.45721000  1.0 0.1392931524
H  H12  1  0.45283000  0.01387000  0.53632000  1.0 0.1025515811
H  H13  1  0.66819000  0.50039000  0.07858000  1.0 0.1281914155
H  H14  1  0.72671000  0.60933000  0.08007000  1.0 0.1204737544
H  H15  1  0.59415000  0.64729000  0.19151000  1.0 0.1121011443
H  H16  1  0.53227000  0.53975000  0.18601000  1.0 0.1281914155
H  H17  1  0.45923000  0.93225000  0.72319000  1.0 0.1025515811
H  H18  1  0.45708000  0.87024000  0.82249000  1.0 0.1281914155
H  H19  1  0.32021000  0.96391000  0.86913000  1.0 0.1500120236
H  H20  1  0.32801000  0.02563000  0.77088000  1.0 0.1121011443
H  H21  1  0.52335000  0.16279000  0.60599000  1.0 0.1025515811
H  H22  1  0.54959000  0.24589000  0.52455000  1.0 0.1392931524
H  H23  1  0.35915000  0.19517000  0.44681000  1.0 0.1392931524
H  H24  1  0.33765000  0.11133000  0.53069000  1.0 0.1204737544
H  H25  1  0.18980000  0.74778000  0.34221000  1.0 0.1281914155
H  H26  1  0.17362000  0.68994000  0.25024000  1.0 0.1281914155
H  H27  1  0.37302000  0.72116000  0.24300000  1.0 0.1281914155
H  H28  1  0.38994000  0.78204000  0.33234000  1.0 0.1204737544
H  H29  1  0.44018000  0.37380000  0.16883000  1.0 0.1281914155
H  H30  1  0.41109000  0.32381000  0.26896000  1.0 0.1204737544
H  H31  1  0.59847000  0.39605000  0.34645000  1.0 0.1121011443
H  H32  1  0.62994000  0.44244000  0.24626000  1.0 0.1281914155
H  H33  1  0.73163000  0.85523000  0.22231000  1.0 0.1281914155
H  H34  1  0.80059000  0.96005000  0.22734000  1.0 0.1121011443
H  H35  1  0.90822000  0.92775000  0.09545000  1.0 0.1121011443
H  H36  1  0.84434000  0.82064000  0.08739000  1.0 0.1392931524
H  H37  1  0.34242000  0.69748000  0.98651000  1.0 0.1204737544
H  H38  1  0.30439000  0.63237000  0.07555000  1.0 0.1204737544
H  H39  1  0.27435000  0.79581000  0.14942000  1.0 0.1392931524
H  H40  1  0.31965000  0.86151000  0.06288000  1.0 0.1392931524
H  H41  1  0.17340000  0.60944000  0.09034000  1.0 0.1204737544
H  H42  1  0.11928000  0.49904000  0.08894000  1.0 0.1204737544
H  H43  1  0.20285000  0.46071000  0.26874000  1.0 0.1204737544
H  H44  1  0.25959000  0.57219000  0.26941000  1.0 0.1204737544
H  H45  1  0.04088000  0.12496000  0.23303000  1.0 0.1025515811
H  H46  1  0.10195000  0.23195000  0.24780000  1.0 0.1281914155
H  H47  1  0.00468000  0.29368000  0.08185000  1.0 0.1281914155
H  H48  1  0.93647000  0.18753000  0.08100000  1.0 0.1121011443
H  H49  1  0.96060000  0.07448000  0.05011000  1.0 0.3211337213
H  H50  1  0.89452000  0.07796000  0.03927000  1.0 0.3211337213
H  H51  1  0.01479000  0.98917000  0.20099000  1.0 0.3644815339
H  H52  1  0.02938000  0.03254000  0.14404000  1.0 0.2959380104
H  H53  1  0.84345000  0.05865000  0.40118000  1.0 0.1204737544
H  H54  1  0.86969000  0.99679000  0.38235000  1.0 0.1392931524
H  H55  1  0.92039000  0.06731000  0.38988000  1.0 0.1500120236
H  H56  1  0.85415000  0.17375000  0.31634000  1.0 0.1025515811
H  H57  1  0.92964000  0.16618000  0.31853000  1.0 0.0796147539
H  H58  1  0.88824000  0.17674000  0.25070000  1.0 0.1025515811
H  H59  1  0.93297000  0.14237000  0.39126000  1.0 0.1121011443
H  H60  1  0.99587000  0.12629000  0.36296000  1.0 0.1204737544
H  H61  1  0.93811000  0.06665000  0.38890000  1.0 0.1500120236
H  H62  1  0.81039000  0.12561000  0.32747000  1.0 0.1025515811
H  H63  1  0.79179000  0.07945000  0.26861000  1.0 0.0796147539
H  H64  1  0.81404000  0.04874000  0.33866000  1.0 0.0796147539
H  H65  1  0.15719000  0.54341000  0.64889000  1.0 0.1392931524
H  H66  1  0.08642000  0.51250000  0.73000000  1.0 0.1121011443
H  H67  1  0.18696000  0.38212000  0.81211000  1.0 0.1025515811
H  H68  1  0.26009000  0.40875000  0.73244000  1.0 0.1281914155
H  H69  1  0.42092000  0.53050000  0.57621000  1.0 0.1121011443
H  H70  1  0.48196000  0.55174000  0.48793000  1.0 0.1204737544
H  H71  1  0.31074000  0.53660000  0.37092000  1.0 0.1281914155
H  H72  1  0.25018000  0.51128000  0.45921000  1.0 0.1281914155
H  H73  1  0.93737000  0.28927000  0.87698000  1.0 0.1121011443
H  H74  1  0.86345000  0.24955000  0.95451000  1.0 0.1500120236
H  H75  1  0.94073000  0.42039000  0.04279000  1.0 0.1392931524
H  H76  1  0.01387000  0.45283000  0.96368000  1.0 0.1025515811
H  H77  1  0.50039000  0.66819000  0.42142000  1.0 0.1281914155
H  H78  1  0.60933000  0.72671000  0.41993000  1.0 0.1204737544
H  H79  1  0.64729000  0.59415000  0.30849000  1.0 0.1121011443
H  H80  1  0.53975000  0.53227000  0.31399000  1.0 0.1281914155
H  H81  1  0.93225000  0.45923000  0.77681000  1.0 0.1025515811
H  H82  1  0.87024000  0.45708000  0.67751000  1.0 0.1281914155
H  H83  1  0.96391000  0.32021000  0.63087000  1.0 0.1500120236
H  H84  1  0.02563000  0.32801000  0.72912000  1.0 0.1121011443
H  H85  1  0.16279000  0.52335000  0.89401000  1.0 0.1025515811
H  H86  1  0.24589000  0.54959000  0.97545000  1.0 0.1392931524
H  H87  1  0.19517000  0.35915000  0.05319000  1.0 0.1392931524
H  H88  1  0.11133000  0.33765000  0.96931000  1.0 0.1204737544
H  H89  1  0.74778000  0.18980000  0.15779000  1.0 0.1281914155
H  H90  1  0.68994000  0.17362000  0.24976000  1.0 0.1281914155
H  H91  1  0.72116000  0.37302000  0.25700000  1.0 0.1281914155
H  H92  1  0.78204000  0.38994000  0.16766000  1.0 0.1204737544
H  H93  1  0.37380000  0.44018000  0.33117000  1.0 0.1281914155
H  H94  1  0.32381000  0.41109000  0.23104000  1.0 0.1204737544
H  H95  1  0.39605000  0.59847000  0.15355000  1.0 0.1121011443
H  H96  1  0.44244000  0.62994000  0.25374000  1.0 0.1281914155
H  H97  1  0.85523000  0.73163000  0.27769000  1.0 0.1281914155
H  H98  1  0.96005000  0.80059000  0.27266000  1.0 0.1121011443
H  H99  1  0.92776000  0.90821000  0.40455000  1.0 0.1121011443
H  H100  1  0.82064000  0.84434000  0.41261000  1.0 0.1392931524
H  H101  1  0.69748000  0.34242000  0.51349000  1.0 0.1204737544
H  H102  1  0.63237000  0.30439000  0.42445000  1.0 0.1204737544
H  H103  1  0.79581000  0.27435000  0.35058000  1.0 0.1392931524
H  H104  1  0.86151000  0.31965000  0.43712000  1.0 0.1392931524
H  H105  1  0.60944000  0.17340000  0.40966000  1.0 0.1204737544
H  H106  1  0.49904000  0.11928000  0.41106000  1.0 0.1204737544
H  H107  1  0.46071000  0.20285000  0.23126000  1.0 0.1204737544
H  H108  1  0.57219000  0.25959000  0.23059000  1.0 0.1204737544
H  H109  1  0.12496000  0.04088000  0.26697000  1.0 0.1025515811
H  H110  1  0.23195000  0.10195000  0.25220000  1.0 0.1281914155
H  H111  1  0.29368000  0.00468000  0.41815000  1.0 0.1281914155
H  H112  1  0.18753000  0.93647000  0.41900000  1.0 0.1121011443
H  H113  1  0.07448000  0.96060000  0.44989000  1.0 0.3211337213
H  H114  1  0.07796000  0.89452000  0.46073000  1.0 0.3211337213
H  H115  1  0.98917000  0.01479000  0.29901000  1.0 0.3657979323
H  H116  1  0.03254000  0.02938000  0.35596000  1.0 0.2959380104
H  H117  1  0.05865000  0.84345000  0.09882000  1.0 0.1204737544
H  H118  1  0.99679000  0.86969000  0.11765000  1.0 0.1392931524
H  H119  1  0.06731000  0.92039000  0.11012000  1.0 0.1500120236
H  H120  1  0.17375000  0.85415000  0.18366000  1.0 0.1025515811
H  H121  1  0.16618000  0.92964000  0.18147000  1.0 0.0796147539
H  H122  1  0.17674000  0.88824000  0.24930000  1.0 0.1025515811
H  H123  1  0.14237000  0.93297000  0.10874000  1.0 0.1121011443
H  H124  1  0.12629000  0.99587000  0.13704000  1.0 0.1204737544
H  H125  1  0.06665000  0.93811000  0.11110000  1.0 0.1500120236
H  H126  1  0.12561000  0.81039000  0.17253000  1.0 0.1025515811
H  H127  1  0.07945000  0.79179000  0.23139000  1.0 0.0796147539
H  H128  1  0.04874000  0.81404000  0.16134000  1.0 0.0796147539
H  H129  1  0.45659000  0.84281000  0.14889000  1.0 0.1392931524
H  H130  1  0.48750000  0.91358000  0.23000000  1.0 0.1121011443
H  H131  1  0.61788000  0.81304000  0.31211000  1.0 0.1025515811
H  H132  1  0.59125000  0.73991000  0.23244000  1.0 0.1281914155
H  H133  1  0.46950000  0.57908000  0.07621000  1.0 0.1121011443
H  H134  1  0.44826000  0.51804000  0.98793000  1.0 0.1204737544
H  H135  1  0.46340000  0.68926000  0.87092000  1.0 0.1281914155
H  H136  1  0.48872000  0.74982000  0.95921000  1.0 0.1281914155
H  H137  1  0.71073000  0.06263000  0.37698000  1.0 0.1121011443
H  H138  1  0.75045000  0.13655000  0.45451000  1.0 0.1500120236
H  H139  1  0.57961000  0.05927000  0.54279000  1.0 0.1392931524
H  H140  1  0.54717000  0.98613000  0.46368000  1.0 0.1025515811
H  H141  1  0.33181000  0.49961000  0.92142000  1.0 0.1281914155
H  H142  1  0.27329000  0.39067000  0.91993000  1.0 0.1204737544
H  H143  1  0.40585000  0.35271000  0.80849000  1.0 0.1121011443
H  H144  1  0.46773000  0.46025000  0.81399000  1.0 0.1281914155
H  H145  1  0.54077000  0.06775000  0.27681000  1.0 0.1025515811
H  H146  1  0.54292000  0.12976000  0.17751000  1.0 0.1281914155
H  H147  1  0.67979000  0.03609000  0.13087000  1.0 0.1500120236
H  H148  1  0.67199000  0.97437000  0.22912000  1.0 0.1121011443
H  H149  1  0.47665000  0.83721000  0.39401000  1.0 0.1025515811
H  H150  1  0.45041000  0.75411000  0.47545000  1.0 0.1392931524
H  H151  1  0.64085000  0.80483000  0.55319000  1.0 0.1392931524
H  H152  1  0.66235000  0.88867000  0.46931000  1.0 0.1204737544
H  H153  1  0.81020000  0.25222000  0.65779000  1.0 0.1281914155
H  H154  1  0.82638000  0.31006000  0.74976000  1.0 0.1281914155
H  H155  1  0.62698000  0.27884000  0.75700000  1.0 0.1281914155
H  H156  1  0.61006000  0.21796000  0.66766000  1.0 0.1204737544
H  H157  1  0.55982000  0.62620000  0.83117000  1.0 0.1281914155
H  H158  1  0.58891000  0.67619000  0.73104000  1.0 0.1204737544
H  H159  1  0.40153000  0.60395000  0.65355000  1.0 0.1121011443
H  H160  1  0.37006000  0.55756000  0.75374000  1.0 0.1281914155
H  H161  1  0.26837000  0.14477000  0.77769000  1.0 0.1281914155
H  H162  1  0.19941000  0.03995000  0.77266000  1.0 0.1121011443
H  H163  1  0.09179000  0.07225000  0.90455000  1.0 0.1121011443
H  H164  1  0.15566000  0.17936000  0.91261000  1.0 0.1392931524
H  H165  1  0.65758000  0.30252000  0.01349000  1.0 0.1204737544
H  H166  1  0.69561000  0.36763000  0.92444000  1.0 0.1204737544
H  H167  1  0.72565000  0.20419000  0.85058000  1.0 0.1392931524
H  H168  1  0.68035000  0.13849000  0.93712000  1.0 0.1392931524
H  H169  1  0.82660000  0.39056000  0.90966000  1.0 0.1204737544
H  H170  1  0.88072000  0.50096000  0.91106000  1.0 0.1204737544
H  H171  1  0.79715000  0.53929000  0.73126000  1.0 0.1204737544
H  H172  1  0.74041000  0.42781000  0.73059000  1.0 0.1204737544
H  H173  1  0.95912000  0.87504000  0.76697000  1.0 0.1025515811
H  H174  1  0.89805000  0.76805000  0.75220000  1.0 0.1281914155
H  H175  1  0.99532000  0.70632000  0.91815000  1.0 0.1281914155
H  H176  1  0.06353000  0.81247000  0.91900000  1.0 0.1121011443
H  H177  1  0.03940000  0.92552000  0.94989000  1.0 0.3211337213
H  H178  1  0.10548000  0.92204000  0.96073000  1.0 0.3211337213
H  H179  1  0.98521000  0.01083000  0.79901000  1.0 0.3644815339
H  H180  1  0.97062000  0.96746000  0.85596000  1.0 0.2959380104
H  H181  1  0.15655000  0.94135000  0.59882000  1.0 0.1204737544
H  H182  1  0.13031000  0.00321000  0.61765000  1.0 0.1392931524
H  H183  1  0.07961000  0.93269000  0.61012000  1.0 0.1500120236
H  H184  1  0.14585000  0.82625000  0.68366000  1.0 0.1025515811
H  H185  1  0.07036000  0.83382000  0.68147000  1.0 0.0796147539
H  H186  1  0.11176000  0.82326000  0.74930000  1.0 0.1025515811
H  H187  1  0.06703000  0.85763000  0.60874000  1.0 0.1121011443
H  H188  1  0.00413000  0.87371000  0.63704000  1.0 0.1204737544
H  H189  1  0.06189000  0.93335000  0.61110000  1.0 0.1500120236
H  H190  1  0.18961000  0.87439000  0.67253000  1.0 0.1025515811
H  H191  1  0.20821000  0.92055000  0.73139000  1.0 0.0796147539
H  H192  1  0.18596000  0.95126000  0.66134000  1.0 0.0796147539
H  H193  1  0.84281000  0.45659000  0.35111000  1.0 0.1392931524
H  H194  1  0.91358000  0.48750000  0.27000000  1.0 0.1121011443
H  H195  1  0.81304000  0.61788000  0.18789000  1.0 0.1025515811
H  H196  1  0.73991000  0.59125000  0.26756000  1.0 0.1281914155
H  H197  1  0.57908000  0.46950000  0.42379000  1.0 0.1121011443
H  H198  1  0.51804000  0.44826000  0.51207000  1.0 0.1204737544
H  H199  1  0.68926000  0.46340000  0.62908000  1.0 0.1281914155
H  H200  1  0.74982000  0.48872000  0.54079000  1.0 0.1281914155
H  H201  1  0.06263000  0.71073000  0.12302000  1.0 0.1121011443
H  H202  1  0.13655000  0.75045000  0.04549000  1.0 0.1500120236
H  H203  1  0.05927000  0.57961000  0.95721000  1.0 0.1392931524
H  H204  1  0.98613000  0.54717000  0.03632000  1.0 0.1025515811
H  H205  1  0.49961000  0.33181000  0.57858000  1.0 0.1281914155
H  H206  1  0.39067000  0.27329000  0.58007000  1.0 0.1204737544
H  H207  1  0.35271000  0.40585000  0.69151000  1.0 0.1121011443
H  H208  1  0.46025000  0.46773000  0.68601000  1.0 0.1281914155
H  H209  1  0.06775000  0.54077000  0.22319000  1.0 0.1025515811
H  H210  1  0.12976000  0.54292000  0.32249000  1.0 0.1281914155
H  H211  1  0.03609000  0.67979000  0.36913000  1.0 0.1500120236
H  H212  1  0.97437000  0.67199000  0.27088000  1.0 0.1121011443
H  H213  1  0.83721000  0.47665000  0.10599000  1.0 0.1025515811
H  H214  1  0.75411000  0.45041000  0.02455000  1.0 0.1392931524
H  H215  1  0.80483000  0.64085000  0.94681000  1.0 0.1392931524
H  H216  1  0.88867000  0.66235000  0.03069000  1.0 0.1204737544
H  H217  1  0.25222000  0.81020000  0.84221000  1.0 0.1281914155
H  H218  1  0.31006000  0.82638000  0.75024000  1.0 0.1281914155
H  H219  1  0.27884000  0.62698000  0.74300000  1.0 0.1281914155
H  H220  1  0.21796000  0.61006000  0.83234000  1.0 0.1204737544
H  H221  1  0.62620000  0.55982000  0.66883000  1.0 0.1281914155
H  H222  1  0.67619000  0.58891000  0.76896000  1.0 0.1204737544
H  H223  1  0.60395000  0.40153000  0.84645000  1.0 0.1121011443
H  H224  1  0.55756000  0.37006000  0.74626000  1.0 0.1281914155
H  H225  1  0.14477000  0.26837000  0.72231000  1.0 0.1281914155
H  H226  1  0.03995000  0.19941000  0.72734000  1.0 0.1121011443
H  H227  1  0.07225000  0.09179000  0.59545000  1.0 0.1121011443
H  H228  1  0.17936000  0.15566000  0.58739000  1.0 0.1392931524
H  H229  1  0.30252000  0.65758000  0.48651000  1.0 0.1204737544
H  H230  1  0.36763000  0.69561000  0.57556000  1.0 0.1204737544
H  H231  1  0.20419000  0.72565000  0.64942000  1.0 0.1392931524
H  H232  1  0.13849000  0.68035000  0.56288000  1.0 0.1392931524
H  H233  1  0.39056000  0.82660000  0.59034000  1.0 0.1204737544
H  H234  1  0.50096000  0.88072000  0.58894000  1.0 0.1204737544
H  H235  1  0.53929000  0.79715000  0.76874000  1.0 0.1204737544
H  H236  1  0.42781000  0.74041000  0.76941000  1.0 0.1204737544
H  H237  1  0.87504000  0.95912000  0.73303000  1.0 0.1025515811
H  H238  1  0.76805000  0.89805000  0.74780000  1.0 0.1281914155
H  H239  1  0.70632000  0.99532000  0.58185000  1.0 0.1281914155
H  H240  1  0.81247000  0.06353000  0.58100000  1.0 0.1121011443
H  H241  1  0.92552000  0.03940000  0.55011000  1.0 0.3211337213
H  H242  1  0.92204000  0.10548000  0.53927000  1.0 0.3211337213
H  H243  1  0.01083000  0.98521000  0.70099000  1.0 0.3644815339
H  H244  1  0.96746000  0.97062000  0.64404000  1.0 0.2959380104
H  H245  1  0.94135000  0.15655000  0.90118000  1.0 0.1204737544
H  H246  1  0.00321000  0.13031000  0.88235000  1.0 0.1392931524
H  H247  1  0.93269000  0.07961000  0.88988000  1.0 0.1500120236
H  H248  1  0.82625000  0.14585000  0.81634000  1.0 0.1025515811
H  H249  1  0.83382000  0.07036000  0.81853000  1.0 0.0796147539
H  H250  1  0.82326000  0.11176000  0.75070000  1.0 0.1025515811
H  H251  1  0.85763000  0.06703000  0.89126000  1.0 0.1121011443
H  H252  1  0.87371000  0.00413000  0.86296000  1.0 0.1204737544
H  H253  1  0.93335000  0.06189000  0.88890000  1.0 0.1500120236
H  H254  1  0.87439000  0.18961000  0.82747000  1.0 0.1025515811
H  H255  1  0.92055000  0.20821000  0.76861000  1.0 0.0796147539
H  H256  1  0.95126000  0.18596000  0.83866000  1.0 0.0796147539
C  C1  1  0.73970000  0.76010000  0.14970000  1.0 -0.0913999467
C  C2  1  0.09650000  0.34230000  0.17060000  1.0 -0.0913999467
C  C3  1  0.36030000  0.82802000  0.95990000  1.0 -0.0712257698
C  C4  1  0.29154000  0.77192000  0.34650000  1.0 0.1281914155
C  C5  1  0.47768000  0.21572000  0.81950000  1.0 0.1815131074
C  C6  1  0.50935000  0.16389000  0.81860000  1.0 -0.1808075658
C  C7  1  0.49076000  0.12222000  0.76970000  1.0 0.0796147539
C  C8  1  0.41486000  0.18034000  0.72190000  1.0 0.0796147539
C  C9  1  0.43049000  0.22411000  0.76940000  1.0 -0.1995795919
C  C10  1  0.49266000  0.25814000  0.87200000  1.0 -0.1123806536
C  C11  1  0.50463000  0.29097000  0.91790000  1.0 -0.078946012
C  C12  1  0.51813000  0.32883000  0.97270000  1.0 0.1281914155
C  C13  1  0.53088000  0.39844000  0.96580000  1.0 -0.1269678632
C  C14  1  0.54386000  0.43472000  0.01820000  1.0 -0.1893993286
C  C15  1  0.54578000  0.40326000  0.08130000  1.0 0.1986478819
C  C16  1  0.53434000  0.33348000  0.08730000  1.0 -0.1893993286
C  C17  1  0.52007000  0.29747000  0.03490000  1.0 -0.1218606078
C  C18  1  0.31589000  0.93799000  0.58860000  1.0 0.0707592406
C  C19  1  0.29186000  0.89322000  0.54300000  1.0 -0.1893993286
C  C20  1  0.33127000  0.89255000  0.49260000  1.0 0.1686097144
C  C21  1  0.39247000  0.93913000  0.49080000  1.0 -0.1995795919
C  C22  1  0.41148000  0.98240000  0.53840000  1.0 0.0707592406
C  C23  1  0.59470000  0.50788000  0.13294000  1.0 0.1901368838
C  C24  1  0.65280000  0.53040000  0.10140000  1.0 -0.1713406013
C  C25  1  0.68790000  0.59468000  0.10280000  1.0 -0.1218606078
C  C26  1  0.66722000  0.63920000  0.13750000  1.0 0.1121011443
C  C27  1  0.60903000  0.61731000  0.16820000  1.0 -0.1269678632
C  C28  1  0.57267000  0.55341000  0.16560000  1.0 -0.1808075658
C  C29  1  0.43102000  0.93930000  0.75350000  1.0 0.0892574145
C  C30  1  0.42921000  0.90119000  0.81240000  1.0 -0.1995795919
C  C31  1  0.38647000  0.90887000  0.85610000  1.0 0.1686097144
C  C32  1  0.34929000  0.95651000  0.83980000  1.0 -0.1713406013
C  C33  1  0.35429000  0.99325000  0.78120000  1.0 0.0796147539
C  C34  1  0.48948000  0.16958000  0.57330000  1.0 0.0707592406
C  C35  1  0.50550000  0.21930000  0.52500000  1.0 -0.1995795919
C  C36  1  0.45671000  0.23049000  0.47690000  1.0 0.1686097144
C  C37  1  0.39360000  0.18940000  0.47930000  1.0 -0.1995795919
C  C38  1  0.38098000  0.13942000  0.52970000  1.0 0.0892574145
C  C39  1  0.31260000  0.84702000  0.44340000  1.0 -0.0913999467
C  C40  1  0.30246000  0.81140000  0.40020000  1.0 -0.0623692637
C  C41  1  0.22717000  0.74337000  0.32170000  1.0 -0.1123806536
C  C42  1  0.21761000  0.70861000  0.26730000  1.0 -0.1713406013
C  C43  1  0.27112000  0.70092000  0.23770000  1.0 0.16436709
C  C44  1  0.33598000  0.72762000  0.26270000  1.0 -0.1808075658
C  C45  1  0.34585000  0.76315000  0.31590000  1.0 -0.1269678632
C  C46  1  0.53789000  0.41131000  0.19630000  1.0 0.1815131074
C  C47  1  0.47283000  0.37717000  0.20460000  1.0 -0.1808075658
C  C48  1  0.45539000  0.34821000  0.26390000  1.0 -0.1218606078
C  C49  1  0.50253000  0.35447000  0.31710000  1.0 0.1204737544
C  C50  1  0.56696000  0.39064000  0.30990000  1.0 -0.1269678632
C  C51  1  0.58542000  0.41838000  0.25100000  1.0 -0.1893993286
C  C52  1  0.70648000  0.70592000  0.14330000  1.0 -0.0913999467
C  C53  1  0.78014000  0.82586000  0.15460000  1.0 0.1500120236
C  C54  1  0.76771000  0.86889000  0.19580000  1.0 -0.1995795919
C  C55  1  0.80830000  0.93170000  0.19760000  1.0 0.1025515811
C  C56  1  0.87140000  0.91280000  0.12090000  1.0 0.1204737544
C  C57  1  0.83410000  0.84870000  0.11600000  1.0 -0.1713406013
C  C58  1  0.37731000  0.86617000  0.91460000  1.0 -0.078946012
C  C59  1  0.33584000  0.78642000  0.01550000  1.0 0.1204737544
C  C60  1  0.32978000  0.71754000  0.02050000  1.0 -0.1218606078
C  C61  1  0.30641000  0.67893000  0.07260000  1.0 -0.1893993286
C  C62  1  0.28475000  0.70705000  0.12300000  1.0 0.1901368838
C  C63  1  0.28953000  0.77577000  0.11680000  1.0 -0.1713406013
C  C64  1  0.31543000  0.81463000  0.06520000  1.0 -0.1123806536
C  C65  1  0.47185000  0.28055000  0.42420000  1.0 -0.1218606078
C  C66  1  0.48539000  0.31761000  0.37780000  1.0 -0.078946012
C  C67  1  0.22486000  0.60148000  0.17890000  1.0 0.1901368838
C  C68  1  0.18060000  0.57886000  0.12610000  1.0 -0.1808075658
C  C69  1  0.14795000  0.51373000  0.12560000  1.0 -0.1123806536
C  C70  1  0.15631000  0.46847000  0.17840000  1.0 0.1204737544
C  C71  1  0.19776000  0.49094000  0.23210000  1.0 -0.1353138061
C  C72  1  0.23168000  0.55718000  0.23250000  1.0 -0.1808075658
C  C73  1  0.03040000  0.16100000  0.20490000  1.0 0.0361013813
C  C74  1  0.06910000  0.22390000  0.21250000  1.0 -0.1995795919
C  C75  1  0.05850000  0.27550000  0.16667000  1.0 0.1686097144
C  C76  1  0.01040000  0.26060000  0.11570000  1.0 -0.1808075658
C  C77  1  0.97070000  0.19670000  0.11500000  1.0 0.0892574145
C  C78  1  0.12345000  0.39995000  0.17530000  1.0 -0.0712257698
C  C79  1  0.87460000  0.04520000  0.37590000  1.0 -0.3168146507
C  C80  1  0.88550000  0.15610000  0.29490000  1.0 -0.1995795919
C  C81  1  0.94770000  0.11150000  0.36670000  1.0 -0.3641340779
C  C82  1  0.82100000  0.08860000  0.30820000  1.0 -0.1582866655
C  C83  1  0.76010000  0.73970000  0.35030000  1.0 -0.0913999467
C  C84  1  0.34230000  0.09650000  0.32940000  1.0 -0.0913999467
C  C85  1  0.82802000  0.36030000  0.54010000  1.0 -0.0712257698
C  C86  1  0.77192000  0.29154000  0.15350000  1.0 0.1281914155
C  C87  1  0.21572000  0.47768000  0.68050000  1.0 0.1815131074
C  C88  1  0.16389000  0.50935000  0.68140000  1.0 -0.1808075658
C  C89  1  0.12222000  0.49076000  0.73030000  1.0 0.0796147539
C  C90  1  0.18034000  0.41486000  0.77810000  1.0 0.0796147539
C  C91  1  0.22411000  0.43049000  0.73060000  1.0 -0.1995795919
C  C92  1  0.25814000  0.49266000  0.62800000  1.0 -0.1123806536
C  C93  1  0.29097000  0.50463000  0.58210000  1.0 -0.078946012
C  C94  1  0.32883000  0.51813000  0.52730000  1.0 0.1281914155
C  C95  1  0.39844000  0.53088000  0.53420000  1.0 -0.1269678632
C  C96  1  0.43472000  0.54386000  0.48180000  1.0 -0.1893993286
C  C97  1  0.40326000  0.54578000  0.41870000  1.0 0.1986478819
C  C98  1  0.33348000  0.53434000  0.41270000  1.0 -0.1893993286
C  C99  1  0.29747000  0.52007000  0.46510000  1.0 -0.1218606078
C  C100  1  0.93799000  0.31589000  0.91140000  1.0 0.0707592406
C  C101  1  0.89322000  0.29186000  0.95700000  1.0 -0.1893993286
C  C102  1  0.89255000  0.33127000  0.00740000  1.0 0.1686097144
C  C103  1  0.93913000  0.39247000  0.00920000  1.0 -0.1995795919
C  C104  1  0.98240000  0.41148000  0.96160000  1.0 0.0707592406
C  C105  1  0.50788000  0.59470000  0.36706000  1.0 0.1901368838
C  C106  1  0.53040000  0.65280000  0.39860000  1.0 -0.1713406013
C  C107  1  0.59468000  0.68790000  0.39720000  1.0 -0.1218606078
C  C108  1  0.63920000  0.66722000  0.36250000  1.0 0.1121011443
C  C109  1  0.61731000  0.60903000  0.33180000  1.0 -0.1269678632
C  C110  1  0.55341000  0.57267000  0.33440000  1.0 -0.1808075658
C  C111  1  0.93930000  0.43102000  0.74650000  1.0 0.0892574145
C  C112  1  0.90119000  0.42921000  0.68760000  1.0 -0.1995795919
C  C113  1  0.90887000  0.38647000  0.64390000  1.0 0.1686097144
C  C114  1  0.95651000  0.34929000  0.66020000  1.0 -0.1713406013
C  C115  1  0.99325000  0.35429000  0.71880000  1.0 0.0796147539
C  C116  1  0.16958000  0.48948000  0.92670000  1.0 0.0707592406
C  C117  1  0.21930000  0.50550000  0.97500000  1.0 -0.1995795919
C  C118  1  0.23049000  0.45671000  0.02310000  1.0 0.1686097144
C  C119  1  0.18940000  0.39360000  0.02070000  1.0 -0.1893993286
C  C120  1  0.13942000  0.38098000  0.97030000  1.0 0.0892574145
C  C121  1  0.84702000  0.31260000  0.05660000  1.0 -0.0913999467
C  C122  1  0.81140000  0.30246000  0.09980000  1.0 -0.0623692637
C  C123  1  0.74337000  0.22717000  0.17830000  1.0 -0.1123806536
C  C124  1  0.70861000  0.21761000  0.23270000  1.0 -0.1713406013
C  C125  1  0.70092000  0.27112000  0.26230000  1.0 0.16436709
C  C126  1  0.72762000  0.33598000  0.23730000  1.0 -0.1808075658
C  C127  1  0.76315000  0.34585000  0.18410000  1.0 -0.1269678632
C  C128  1  0.41131000  0.53789000  0.30370000  1.0 0.1815131074
C  C129  1  0.37717000  0.47283000  0.29540000  1.0 -0.1808075658
C  C130  1  0.34821000  0.45539000  0.23610000  1.0 -0.1218606078
C  C131  1  0.35447000  0.50253000  0.18290000  1.0 0.1204737544
C  C132  1  0.39064000  0.56696000  0.19010000  1.0 -0.1269678632
C  C133  1  0.41838000  0.58542000  0.24900000  1.0 -0.1893993286
C  C134  1  0.70592000  0.70648000  0.35670000  1.0 -0.0913999467
C  C135  1  0.82586000  0.78014000  0.34540000  1.0 0.1500120236
C  C136  1  0.86889000  0.76771000  0.30420000  1.0 -0.1995795919
C  C137  1  0.93170000  0.80830000  0.30240000  1.0 0.1025515811
C  C138  1  0.91280000  0.87140000  0.37910000  1.0 0.1204737544
C  C139  1  0.84870000  0.83410000  0.38400000  1.0 -0.1713406013
C  C140  1  0.86617000  0.37731000  0.58540000  1.0 -0.078946012
C  C141  1  0.78642000  0.33584000  0.48450000  1.0 0.1204737544
C  C142  1  0.71754000  0.32978000  0.47950000  1.0 -0.1218606078
C  C143  1  0.67893000  0.30641000  0.42740000  1.0 -0.1893993286
C  C144  1  0.70705000  0.28475000  0.37700000  1.0 0.1901368838
C  C145  1  0.77577000  0.28953000  0.38320000  1.0 -0.1713406013
C  C146  1  0.81463000  0.31543000  0.43480000  1.0 -0.1123806536
C  C147  1  0.28055000  0.47185000  0.07580000  1.0 -0.1218606078
C  C148  1  0.31761000  0.48539000  0.12220000  1.0 -0.078946012
C  C149  1  0.60148000  0.22486000  0.32110000  1.0 0.1901368838
C  C150  1  0.57886000  0.18060000  0.37390000  1.0 -0.1808075658
C  C151  1  0.51373000  0.14795000  0.37440000  1.0 -0.1123806536
C  C152  1  0.46847000  0.15631000  0.32160000  1.0 0.1204737544
C  C153  1  0.49094000  0.19776000  0.26790000  1.0 -0.1353138061
C  C154  1  0.55718000  0.23168000  0.26750000  1.0 -0.1808075658
C  C155  1  0.16100000  0.03040000  0.29510000  1.0 0.0361013813
C  C156  1  0.22390000  0.06910000  0.28750000  1.0 -0.1995795919
C  C157  1  0.27550000  0.05850000  0.33333333  1.0 0.1686097144
C  C158  1  0.26060000  0.01040000  0.38430000  1.0 -0.1808075658
C  C159  1  0.19670000  0.97070000  0.38500000  1.0 0.0892574145
C  C160  1  0.39995000  0.12345000  0.32470000  1.0 -0.0712257698
C  C161  1  0.04520000  0.87460000  0.12410000  1.0 -0.3168146507
C  C162  1  0.15610000  0.88550000  0.20510000  1.0 -0.1995795919
C  C163  1  0.11150000  0.94770000  0.13330000  1.0 -0.3641340779
C  C164  1  0.08860000  0.82100000  0.19180000  1.0 -0.1582866655
C  C165  1  0.26030000  0.23990000  0.85030000  1.0 -0.0913999467
C  C166  1  0.90350000  0.65770000  0.82940000  1.0 -0.0913999467
C  C167  1  0.63970000  0.17198000  0.04010000  1.0 -0.0712257698
C  C168  1  0.70846000  0.22808000  0.65350000  1.0 0.1281914155
C  C169  1  0.52232000  0.78428000  0.18050000  1.0 0.1815131074
C  C170  1  0.49065000  0.83611000  0.18140000  1.0 -0.1808075658
C  C171  1  0.50924000  0.87778000  0.23030000  1.0 0.0796147539
C  C172  1  0.58514000  0.81966000  0.27810000  1.0 0.0796147539
C  C173  1  0.56951000  0.77589000  0.23060000  1.0 -0.1995795919
C  C174  1  0.50734000  0.74186000  0.12800000  1.0 -0.1123806536
C  C175  1  0.49537000  0.70903000  0.08210000  1.0 -0.078946012
C  C176  1  0.48187000  0.67117000  0.02730000  1.0 0.1281914155
C  C177  1  0.46912000  0.60156000  0.03420000  1.0 -0.1269678632
C  C178  1  0.45614000  0.56528000  0.98180000  1.0 -0.1893993286
C  C179  1  0.45422000  0.59674000  0.91870000  1.0 0.1986478819
C  C180  1  0.46566000  0.66652000  0.91270000  1.0 -0.1893993286
C  C181  1  0.47993000  0.70253000  0.96510000  1.0 -0.1218606078
C  C182  1  0.68411000  0.06201000  0.41140000  1.0 0.0707592406
C  C183  1  0.70814000  0.10678000  0.45700000  1.0 -0.1893993286
C  C184  1  0.66873000  0.10745000  0.50740000  1.0 0.1686097144
C  C185  1  0.60753000  0.06087000  0.50920000  1.0 -0.1995795919
C  C186  1  0.58852000  0.01760000  0.46160000  1.0 0.0707592406
C  C187  1  0.40530000  0.49212000  0.86706000  1.0 0.1901368838
C  C188  1  0.34720000  0.46960000  0.89860000  1.0 -0.1713406013
C  C189  1  0.31210000  0.40532000  0.89720000  1.0 -0.1218606078
C  C190  1  0.33278000  0.36080000  0.86250000  1.0 0.1121011443
C  C191  1  0.39097000  0.38269000  0.83180000  1.0 -0.1269678632
C  C192  1  0.42733000  0.44659000  0.83440000  1.0 -0.1808075658
C  C193  1  0.56898000  0.06070000  0.24650000  1.0 0.0892574145
C  C194  1  0.57079000  0.09881000  0.18760000  1.0 -0.1995795919
C  C195  1  0.61353000  0.09113000  0.14390000  1.0 0.1686097144
C  C196  1  0.65071000  0.04349000  0.16020000  1.0 -0.1713406013
C  C197  1  0.64571000  0.00675000  0.21880000  1.0 0.0796147539
C  C198  1  0.51052000  0.83042000  0.42670000  1.0 0.0707592406
C  C199  1  0.49450000  0.78070000  0.47500000  1.0 -0.1995795919
C  C200  1  0.54329000  0.76951000  0.52310000  1.0 0.1686097144
C  C201  1  0.60640000  0.81060000  0.52070000  1.0 -0.1893993286
C  C202  1  0.61902000  0.86058000  0.47030000  1.0 0.0892574145
C  C203  1  0.68740000  0.15298000  0.55660000  1.0 -0.0913999467
C  C204  1  0.69754000  0.18860000  0.59980000  1.0 -0.0623692637
C  C205  1  0.77283000  0.25663000  0.67830000  1.0 -0.1123806536
C  C206  1  0.78239000  0.29139000  0.73270000  1.0 -0.1713406013
C  C207  1  0.72888000  0.29908000  0.76230000  1.0 0.16436709
C  C208  1  0.66402000  0.27238000  0.73730000  1.0 -0.1808075658
C  C209  1  0.65415000  0.23685000  0.68410000  1.0 -0.1269678632
C  C210  1  0.46211000  0.58869000  0.80370000  1.0 0.1815131074
C  C211  1  0.52717000  0.62283000  0.79540000  1.0 -0.1808075658
C  C212  1  0.54461000  0.65179000  0.73610000  1.0 -0.1218606078
C  C213  1  0.49747000  0.64553000  0.68290000  1.0 0.1204737544
C  C214  1  0.43304000  0.60936000  0.69010000  1.0 -0.1269678632
C  C215  1  0.41458000  0.58162000  0.74900000  1.0 -0.1893993286
C  C216  1  0.29352000  0.29408000  0.85670000  1.0 -0.0913999467
C  C217  1  0.21986000  0.17414000  0.84540000  1.0 0.1500120236
C  C218  1  0.23229000  0.13111000  0.80420000  1.0 -0.1995795919
C  C219  1  0.19170000  0.06830000  0.80240000  1.0 0.1025515811
C  C220  1  0.12860000  0.08720000  0.87910000  1.0 0.1204737544
C  C221  1  0.16590000  0.15130000  0.88400000  1.0 -0.1713406013
C  C222  1  0.62269000  0.13383000  0.08540000  1.0 -0.078946012
C  C223  1  0.66416000  0.21358000  0.98450000  1.0 0.1204737544
C  C224  1  0.67022000  0.28246000  0.97950000  1.0 -0.1218606078
C  C225  1  0.69359000  0.32107000  0.92740000  1.0 -0.1893993286
C  C226  1  0.71525000  0.29295000  0.87700000  1.0 0.1901368838
C  C227  1  0.71047000  0.22423000  0.88320000  1.0 -0.1713406013
C  C228  1  0.68457000  0.18537000  0.93480000  1.0 -0.1123806536
C  C229  1  0.52815000  0.71945000  0.57580000  1.0 -0.1218606078
C  C230  1  0.51461000  0.68239000  0.62220000  1.0 -0.078946012
C  C231  1  0.77514000  0.39852000  0.82110000  1.0 0.1901368838
C  C232  1  0.81940000  0.42114000  0.87390000  1.0 -0.1808075658
C  C233  1  0.85205000  0.48627000  0.87440000  1.0 -0.1123806536
C  C234  1  0.84369000  0.53153000  0.82160000  1.0 0.1204737544
C  C235  1  0.80224000  0.50906000  0.76790000  1.0 -0.1353138061
C  C236  1  0.76832000  0.44282000  0.76750000  1.0 -0.1808075658
C  C237  1  0.96960000  0.83900000  0.79510000  1.0 0.0361013813
C  C238  1  0.93090000  0.77610000  0.78750000  1.0 -0.1995795919
C  C239  1  0.94150000  0.72450000  0.83333000  1.0 0.1686097144
C  C240  1  0.98960000  0.73940000  0.88430000  1.0 -0.1808075658
C  C241  1  0.02930000  0.80330000  0.88500000  1.0 0.0892574145
C  C242  1  0.87655000  0.60005000  0.82470000  1.0 -0.0712257698
C  C243  1  0.12540000  0.95480000  0.62410000  1.0 -0.3168146507
C  C244  1  0.11450000  0.84390000  0.70510000  1.0 -0.1995795919
C  C245  1  0.05230000  0.88850000  0.63330000  1.0 -0.3641340779
C  C246  1  0.17900000  0.91140000  0.69180000  1.0 -0.1582866655
C  C247  1  0.23990000  0.26030000  0.64970000  1.0 -0.0913999467
C  C248  1  0.65770000  0.90350000  0.67060000  1.0 -0.0913999467
C  C249  1  0.17198000  0.63970000  0.45990000  1.0 -0.0712257698
C  C250  1  0.22808000  0.70846000  0.84650000  1.0 0.1281914155
C  C251  1  0.78428000  0.52232000  0.31950000  1.0 0.1815131074
C  C252  1  0.83611000  0.49065000  0.31860000  1.0 -0.1808075658
C  C253  1  0.87778000  0.50924000  0.26970000  1.0 0.0796147539
C  C254  1  0.81966000  0.58514000  0.22190000  1.0 0.0796147539
C  C255  1  0.77589000  0.56951000  0.26940000  1.0 -0.1995795919
C  C256  1  0.74186000  0.50734000  0.37200000  1.0 -0.1123806536
C  C257  1  0.70903000  0.49537000  0.41790000  1.0 -0.078946012
C  C258  1  0.67117000  0.48187000  0.47270000  1.0 0.1281914155
C  C259  1  0.60156000  0.46912000  0.46580000  1.0 -0.1269678632
C  C260  1  0.56528000  0.45614000  0.51820000  1.0 -0.1893993286
C  C261  1  0.59674000  0.45422000  0.58130000  1.0 0.1986478819
C  C262  1  0.66652000  0.46566000  0.58730000  1.0 -0.1893993286
C  C263  1  0.70253000  0.47993000  0.53490000  1.0 -0.1218606078
C  C264  1  0.06201000  0.68411000  0.08860000  1.0 0.0707592406
C  C265  1  0.10678000  0.70814000  0.04300000  1.0 -0.1893993286
C  C266  1  0.10745000  0.66873000  0.99260000  1.0 0.1686097144
C  C267  1  0.06087000  0.60753000  0.99080000  1.0 -0.1995795919
C  C268  1  0.01760000  0.58852000  0.03840000  1.0 0.0707592406
C  C269  1  0.49212000  0.40530000  0.63294000  1.0 0.1901368838
C  C270  1  0.46960000  0.34720000  0.60140000  1.0 -0.1713406013
C  C271  1  0.40532000  0.31210000  0.60280000  1.0 -0.1218606078
C  C272  1  0.36080000  0.33278000  0.63750000  1.0 0.1204737544
C  C273  1  0.38269000  0.39097000  0.66820000  1.0 -0.1269678632
C  C274  1  0.44659000  0.42733000  0.66560000  1.0 -0.1808075658
C  C275  1  0.06070000  0.56898000  0.25350000  1.0 0.0892574145
C  C276  1  0.09881000  0.57079000  0.31240000  1.0 -0.1995795919
C  C277  1  0.09113000  0.61353000  0.35610000  1.0 0.1686097144
C  C278  1  0.04349000  0.65071000  0.33980000  1.0 -0.1713406013
C  C279  1  0.00675000  0.64571000  0.28120000  1.0 0.0796147539
C  C280  1  0.83042000  0.51052000  0.07330000  1.0 0.0707592406
C  C281  1  0.78070000  0.49450000  0.02500000  1.0 -0.1995795919
C  C282  1  0.76951000  0.54329000  0.97690000  1.0 0.1686097144
C  C283  1  0.81060000  0.60640000  0.97930000  1.0 -0.1995795919
C  C284  1  0.86058000  0.61902000  0.02970000  1.0 0.0892574145
C  C285  1  0.15298000  0.68740000  0.94340000  1.0 -0.0913999467
C  C286  1  0.18860000  0.69754000  0.90020000  1.0 -0.0623692637
C  C287  1  0.25663000  0.77283000  0.82170000  1.0 -0.1123806536
C  C288  1  0.29139000  0.78239000  0.76730000  1.0 -0.1713406013
C  C289  1  0.29908000  0.72888000  0.73770000  1.0 0.1686097144
C  C290  1  0.27238000  0.66402000  0.76270000  1.0 -0.1808075658
C  C291  1  0.23685000  0.65415000  0.81590000  1.0 -0.1269678632
C  C292  1  0.58869000  0.46211000  0.69630000  1.0 0.1815131074
C  C293  1  0.62283000  0.52717000  0.70460000  1.0 -0.1808075658
C  C294  1  0.65179000  0.54461000  0.76390000  1.0 -0.1218606078
C  C295  1  0.64553000  0.49747000  0.81710000  1.0 0.1204737544
C  C296  1  0.60936000  0.43304000  0.80990000  1.0 -0.1269678632
C  C297  1  0.58162000  0.41458000  0.75100000  1.0 -0.1893993286
C  C298  1  0.29408000  0.29352000  0.64330000  1.0 -0.0913999467
C  C299  1  0.17414000  0.21986000  0.65460000  1.0 0.1500120236
C  C300  1  0.13111000  0.23229000  0.69580000  1.0 -0.1995795919
C  C301  1  0.06830000  0.19170000  0.69760000  1.0 0.1025515811
C  C302  1  0.08720000  0.12860000  0.62090000  1.0 0.1204737544
C  C303  1  0.15130000  0.16590000  0.61600000  1.0 -0.1713406013
C  C304  1  0.13383000  0.62269000  0.41460000  1.0 -0.078946012
C  C305  1  0.21358000  0.66416000  0.51550000  1.0 0.1204737544
C  C306  1  0.28246000  0.67022000  0.52050000  1.0 -0.1218606078
C  C307  1  0.32107000  0.69359000  0.57260000  1.0 -0.1893993286
C  C308  1  0.29295000  0.71525000  0.62300000  1.0 0.1901368838
C  C309  1  0.22423000  0.71047000  0.61680000  1.0 -0.1713406013
C  C310  1  0.18537000  0.68457000  0.56520000  1.0 -0.1123806536
C  C311  1  0.71945000  0.52815000  0.92420000  1.0 -0.1218606078
C  C312  1  0.68239000  0.51461000  0.87780000  1.0 -0.078946012
C  C313  1  0.39852000  0.77514000  0.67890000  1.0 0.1901368838
C  C314  1  0.42114000  0.81940000  0.62610000  1.0 -0.1808075658
C  C315  1  0.48627000  0.85205000  0.62560000  1.0 -0.1123806536
C  C316  1  0.53153000  0.84369000  0.67840000  1.0 0.1204737544
C  C317  1  0.50906000  0.80224000  0.73210000  1.0 -0.1353138061
C  C318  1  0.44282000  0.76832000  0.73250000  1.0 -0.1808075658
C  C319  1  0.83900000  0.96960000  0.70490000  1.0 0.0361013813
C  C320  1  0.77610000  0.93090000  0.71250000  1.0 -0.1995795919
C  C321  1  0.72450000  0.94150000  0.66666667  1.0 0.1686097144
C  C322  1  0.73940000  0.98960000  0.61570000  1.0 -0.1808075658
C  C323  1  0.80330000  0.02930000  0.61500000  1.0 0.0892574145
C  C324  1  0.60005000  0.87655000  0.67530000  1.0 -0.0712257698
C  C325  1  0.95480000  0.12540000  0.87590000  1.0 -0.3168146507
C  C326  1  0.84390000  0.11450000  0.79490000  1.0 -0.1995795919
C  C327  1  0.88850000  0.05230000  0.86670000  1.0 -0.3641340779
C  C328  1  0.91140000  0.17900000  0.80820000  1.0 -0.1582866655
S  S1  1  0.85727000  0.06865000  0.29359000  1.0 0.3141812338
S  S2  1  0.90560000  0.11020000  0.28960000  1.0 0.3211337213
S  S3  1  0.06865000  0.85727000  0.20641000  1.0 0.3211337213
S  S4  1  0.11020000  0.90560000  0.21040000  1.0 0.3265073253
S  S5  1  0.14273000  0.93135000  0.70641000  1.0 0.3211337213
S  S6  1  0.09440000  0.88980000  0.71040000  1.0 0.3211337213
S  S7  1  0.93135000  0.14273000  0.79359000  1.0 0.3141812338
S  S8  1  0.88980000  0.09440000  0.78960000  1.0 0.3211337213
N  N1  1  0.44384000  0.12902000  0.72174000  1.0 -0.1893993286
N  N2  1  0.37469000  0.98265000  0.58772000  1.0 -0.1995795919
N  N3  1  0.55865000  0.44061000  0.13534000  1.0 -0.1893993286
N  N4  1  0.39479000  0.98551000  0.73750000  1.0 -0.1995795919
N  N5  1  0.42812000  0.12984000  0.57670000  1.0 -0.1995795919
N  N6  1  0.85834000  0.95488000  0.15960000  1.0 -0.1893993286
N  N7  1  0.26104000  0.66850000  0.17900000  1.0 -0.1893993286
N  N8  1  0.97835000  0.14745000  0.15980000  1.0 -0.2415248351
N  N9  1  0.12902000  0.44384000  0.77826000  1.0 -0.1893993286
N  N10  1  0.98265000  0.37469000  0.91228000  1.0 -0.1995795919
N  N11  1  0.44061000  0.55865000  0.36466000  1.0 -0.1893993286
N  N12  1  0.98551000  0.39479000  0.76250000  1.0 -0.1995795919
N  N13  1  0.12984000  0.42812000  0.92330000  1.0 -0.1995795919
N  N14  1  0.95488000  0.85834000  0.34040000  1.0 -0.1893993286
N  N15  1  0.66850000  0.26104000  0.32100000  1.0 -0.1893993286
N  N16  1  0.14745000  0.97835000  0.34020000  1.0 -0.2415248351
N  N17  1  0.55616000  0.87098000  0.27826000  1.0 -0.1893993286
N  N18  1  0.62531000  0.01735000  0.41228000  1.0 -0.1995795919
N  N19  1  0.44135000  0.55939000  0.86466000  1.0 -0.1893993286
N  N20  1  0.60521000  0.01449000  0.26250000  1.0 -0.1995795919
N  N21  1  0.57188000  0.87016000  0.42330000  1.0 -0.1995795919
N  N22  1  0.14166000  0.04512000  0.84040000  1.0 -0.1893993286
N  N23  1  0.73896000  0.33150000  0.82100000  1.0 -0.1893993286
N  N24  1  0.02165000  0.85255000  0.84020000  1.0 -0.2415248351
N  N25  1  0.87098000  0.55616000  0.22174000  1.0 -0.1893993286
N  N26  1  0.01735000  0.62531000  0.08772000  1.0 -0.1995795919
N  N27  1  0.55939000  0.44135000  0.63534000  1.0 -0.1893993286
N  N28  1  0.01449000  0.60521000  0.23750000  1.0 -0.1995795919
N  N29  1  0.87016000  0.57188000  0.07670000  1.0 -0.1995795919
N  N30  1  0.04512000  0.14166000  0.65960000  1.0 -0.1893993286
N  N31  1  0.33150000  0.73896000  0.67900000  1.0 -0.1893993286
N  N32  1  0.85255000  0.02165000  0.65980000  1.0 -0.2415248351
Cl  Cl1  1  0.52198000  0.03888000  0.65498000  1.0 -0.5781989144
Cl  Cl2  1  0.29606000  0.07190000  0.65278000  1.0 -0.6081595765
Cl  Cl3  1  0.81856000  0.09774000  0.13903000  1.0 -0.5667935805
Cl  Cl4  1  0.06869000  0.14099000  0.37790000  1.0 0.0707592406
Cl  Cl5  1  0.11860000  0.13080000  0.36400000  1.0 0.0796147539
Cl  Cl6  1  0.03888000  0.52198000  0.84502000  1.0 -0.5781989144
Cl  Cl7  1  0.07190000  0.29606000  0.84722000  1.0 -0.6081595765
Cl  Cl8  1  0.09774000  0.81856000  0.36097000  1.0 -0.5667935805
Cl  Cl9  1  0.14099000  0.06869000  0.12210000  1.0 0.0707592406
Cl  Cl10  1  0.13080000  0.11860000  0.13600000  1.0 0.0796147539
Cl  Cl11  1  0.47802000  0.96112000  0.34502000  1.0 -0.5781989144
Cl  Cl12  1  0.70394000  0.92810000  0.34722000  1.0 -0.6081595765
Cl  Cl13  1  0.18144000  0.90226000  0.86097000  1.0 -0.5667935805
Cl  Cl14  1  0.93131000  0.85901000  0.62210000  1.0 0.0707592406
Cl  Cl15  1  0.88140000  0.86920000  0.63600000  1.0 0.0796147539
Cl  Cl16  1  0.96112000  0.47802000  0.15498000  1.0 -0.5781989144
Cl  Cl17  1  0.92810000  0.70394000  0.15278000  1.0 -0.6081595765
Cl  Cl18  1  0.90226000  0.18144000  0.63903000  1.0 -0.5667935805
Cl  Cl19  1  0.85901000  0.93131000  0.87790000  1.0 0.0707592406
Cl  Cl20  1  0.86920000  0.88140000  0.86400000  1.0 0.0796147539
Cl  Cl21  1  0.03780000  0.07480000  0.00910000  1.0 -0.4727946566
Cl  Cl22  1  0.83040000  0.11760000  0.98830000  1.0 -0.5457575665
Cl  Cl23  1  0.07480000  0.03780000  0.49090000  1.0 -0.4727946566
Cl  Cl24  1  0.11760000  0.83040000  0.51170000  1.0 -0.544229065
Cl  Cl25  1  0.96220000  0.92520000  0.99090000  1.0 -0.4727946566
Cl  Cl26  1  0.16960000  0.88240000  0.01170000  1.0 -0.544229065
Cl  Cl27  1  0.92520000  0.96220000  0.50910000  1.0 -0.4727946566
Cl  Cl28  1  0.88240000  0.16960000  0.48830000  1.0 -0.544229065
O  O1  1  0.92070000  0.05370000  0.06000000  1.0 -0.6606120726
O  O2  1  0.00136000  0.01572000  0.17150000  1.0 -0.6606120726
O  O3  1  0.90900000  0.04520000  0.25940000  1.0 -0.4193204203
O  O4  1  0.91870000  0.05110000  0.26000000  1.0 -0.4193204203
O  O5  1  0.05370000  0.92070000  0.44000000  1.0 -0.6606120726
O  O6  1  0.01572000  0.00136000  0.32850000  1.0 -0.6606120726
O  O7  1  0.04520000  0.90900000  0.24060000  1.0 -0.4193204203
O  O8  1  0.05110000  0.91870000  0.24000000  1.0 -0.4193204203
O  O9  1  0.07930000  0.94630000  0.94000000  1.0 -0.6606120726
O  O10  1  0.99864000  0.98428000  0.82850000  1.0 -0.6543957339
O  O11  1  0.09100000  0.95480000  0.74060000  1.0 -0.4193204203
O  O12  1  0.08130000  0.94890000  0.74000000  1.0 -0.4193204203
O  O13  1  0.94630000  0.07930000  0.56000000  1.0 -0.6606120726
O  O14  1  0.98428000  0.99864000  0.67150000  1.0 -0.6606120726
O  O15  1  0.95480000  0.09100000  0.75940000  1.0 -0.4193204203
O  O16  1  0.94890000  0.08130000  0.76000000  1.0 -0.4193204203
