# DDEC6 charges by PACMAN v1.1 (https://github.com/mtap-research/PACMAN-charge/)
data_EDAPIK_ASR_pacman
_symmetry_space_group_name_H-M   'P 1'
_cell_length_a   8.99500000
_cell_length_b   23.48500000
_cell_length_c   23.48500000
_cell_angle_alpha   90.00000000
_cell_angle_beta   90.00000000
_cell_angle_gamma   90.00000000
_symmetry_Int_Tables_number   1
_chemical_formula_structural   Cu2H37C50(NO)8
_chemical_formula_sum   'Cu4 H74 C100 N16 O16'
_cell_volume   4961.14929887
_cell_formula_units_Z   2
loop_
 _symmetry_equiv_pos_site_id
 _symmetry_equiv_pos_as_xyz
  1  'x, y, z'
loop_
 _atom_site_type_symbol
 _atom_site_label
 _atom_site_symmetry_multiplicity
 _atom_site_fract_x
 _atom_site_fract_y
 _atom_site_fract_z
 _atom_site_occupancy
 _atom_site_charge
Cu  Cu1  1  0.50000000  0.17664000  0.17664000  1.0 0.2497380354
Cu  Cu2  1  0.50000000  0.82336000  0.82336000  1.0 0.2497380354
Cu  Cu3  1  0.00000000  0.32336000  0.67664000  1.0 0.2697372564
Cu  Cu4  1  0.00000000  0.67664000  0.32336000  1.0 0.2697372564
H  H1  1  0.18092000  0.17546000  0.14940000  1.0 0.0359962021
H  H2  1  0.01755000  0.15219000  0.06546000  1.0 0.0905682641
H  H3  1  0.14429000  0.14075000  0.96696000  1.0 0.0998821199
H  H4  1  0.57342000  0.15183000  0.05719000  1.0 0.0797377345
H  H5  1  0.26168000  0.12923000  0.89725000  1.0 0.0590282981
H  H6  1  0.03795000  0.21674000  0.60368000  1.0 0.0697357484
H  H7  1  0.19636000  0.12907000  0.61246000  1.0 0.1071784706
H  H8  1  0.33852000  0.10907000  0.70372000  1.0 0.0905682641
H  H9  1  0.17264000  0.27069000  0.76954000  1.0 0.0797377345
H  H10  1  0.45343000  0.09365000  0.77551000  1.0 0.0590282981
H  H11  1  0.18092000  0.82454000  0.85060000  1.0 0.0359962021
H  H12  1  0.01755000  0.84781000  0.93454000  1.0 0.0905682641
H  H13  1  0.14429000  0.85925000  0.03304000  1.0 0.0998821199
H  H14  1  0.57342000  0.84817000  0.94281000  1.0 0.0797377345
H  H15  1  0.26168000  0.87077000  0.10275000  1.0 0.0590282981
H  H16  1  0.03795000  0.78326000  0.39632000  1.0 0.0697357484
H  H17  1  0.19636000  0.87093000  0.38754000  1.0 0.1071784706
H  H18  1  0.33852000  0.89093000  0.29628000  1.0 0.0905682641
H  H19  1  0.17264000  0.72931000  0.23046000  1.0 0.0797377345
H  H20  1  0.45343000  0.90635000  0.22449000  1.0 0.0590282981
H  H21  1  0.68092000  0.35060000  0.67546000  1.0 0.0489494667
H  H22  1  0.51755000  0.43454000  0.65219000  1.0 0.0998821199
H  H23  1  0.64429000  0.53304000  0.64075000  1.0 0.1071784706
H  H24  1  0.07342000  0.44281000  0.65183000  1.0 0.0797377345
H  H25  1  0.76168000  0.60275000  0.62923000  1.0 0.0590282981
H  H26  1  0.53795000  0.89632000  0.71674000  1.0 0.0590282981
H  H27  1  0.69636000  0.88754000  0.62907000  1.0 0.1071784706
H  H28  1  0.83852000  0.79628000  0.60907000  1.0 0.0905682641
H  H29  1  0.67264000  0.73046000  0.77069000  1.0 0.0797377345
H  H30  1  0.95343000  0.72449000  0.59365000  1.0 0.0590282981
H  H31  1  0.68092000  0.64940000  0.32454000  1.0 0.0489494667
H  H32  1  0.51755000  0.56546000  0.34781000  1.0 0.0998821199
H  H33  1  0.64429000  0.46696000  0.35925000  1.0 0.1071784706
H  H34  1  0.07342000  0.55719000  0.34817000  1.0 0.0797377345
H  H35  1  0.76168000  0.39725000  0.37077000  1.0 0.0590282981
H  H36  1  0.53795000  0.10368000  0.28326000  1.0 0.0590282981
H  H37  1  0.69636000  0.11246000  0.37093000  1.0 0.1071784706
H  H38  1  0.83852000  0.20372000  0.39093000  1.0 0.0905682641
H  H39  1  0.67264000  0.26954000  0.22931000  1.0 0.0797377345
H  H40  1  0.95343000  0.27551000  0.40635000  1.0 0.0590282981
H  H41  1  0.92658000  0.34817000  0.55719000  1.0 0.0905682641
H  H42  1  0.23832000  0.37077000  0.39725000  1.0 0.0697357484
H  H43  1  0.46205000  0.28326000  0.10368000  1.0 0.0590282981
H  H44  1  0.30364000  0.37093000  0.11246000  1.0 0.1071784706
H  H45  1  0.16148000  0.39093000  0.20372000  1.0 0.0905682641
H  H46  1  0.32736000  0.22931000  0.26954000  1.0 0.0797377345
H  H47  1  0.04657000  0.40635000  0.27551000  1.0 0.0590282981
H  H48  1  0.92658000  0.65183000  0.44281000  1.0 0.0905682641
H  H49  1  0.23832000  0.62923000  0.60275000  1.0 0.0697357484
H  H50  1  0.46205000  0.71674000  0.89632000  1.0 0.0590282981
H  H51  1  0.30364000  0.62907000  0.88754000  1.0 0.1071784706
H  H52  1  0.16148000  0.60907000  0.79628000  1.0 0.0905682641
H  H53  1  0.32736000  0.77069000  0.73046000  1.0 0.0797377345
H  H54  1  0.04657000  0.59365000  0.72449000  1.0 0.0590282981
H  H55  1  0.81908000  0.14940000  0.17546000  1.0 0.0359962021
H  H56  1  0.98245000  0.06546000  0.15219000  1.0 0.0905682641
H  H57  1  0.85571000  0.96696000  0.14075000  1.0 0.0998821199
H  H58  1  0.42658000  0.05719000  0.15183000  1.0 0.0797377345
H  H59  1  0.73832000  0.89725000  0.12923000  1.0 0.0590282981
H  H60  1  0.96205000  0.60368000  0.21674000  1.0 0.0590282981
H  H61  1  0.80364000  0.61246000  0.12907000  1.0 0.1071784706
H  H62  1  0.66148000  0.70372000  0.10907000  1.0 0.0905682641
H  H63  1  0.82736000  0.76954000  0.27069000  1.0 0.0797377345
H  H64  1  0.54657000  0.77551000  0.09365000  1.0 0.0590282981
H  H65  1  0.81908000  0.85060000  0.82454000  1.0 0.0359962021
H  H66  1  0.98245000  0.93454000  0.84781000  1.0 0.0905682641
H  H67  1  0.85571000  0.03304000  0.85925000  1.0 0.0998821199
H  H68  1  0.42658000  0.94281000  0.84817000  1.0 0.0797377345
H  H69  1  0.73832000  0.10275000  0.87077000  1.0 0.0590282981
H  H70  1  0.96205000  0.39632000  0.78326000  1.0 0.0590282981
H  H71  1  0.80364000  0.38754000  0.87093000  1.0 0.1071784706
H  H72  1  0.66148000  0.29628000  0.89093000  1.0 0.0905682641
H  H73  1  0.82736000  0.23046000  0.72931000  1.0 0.0797377345
H  H74  1  0.54657000  0.22449000  0.90635000  1.0 0.0590282981
C  C1  1  0.23280000  0.16410000  0.10659000  1.0 0.0489494667
C  C2  1  0.14340000  0.15420000  0.06011000  1.0 -0.1240904688
C  C3  1  0.21380000  0.14690000  0.00708000  1.0 -0.1601582341
C  C4  1  0.37330000  0.14745000  0.00526000  1.0 0.1982602108
C  C5  1  0.44680000  0.15351000  0.05599000  1.0 -0.0499704632
C  C6  1  0.38420000  0.13598000  0.90768000  1.0 0.008164623
C  C7  1  0.10610000  0.20920000  0.64390000  1.0 -0.0004943845
C  C8  1  0.19000000  0.16070000  0.64920000  1.0 -0.0818712733
C  C9  1  0.26890000  0.14945000  0.69983000  1.0 -0.1416489206
C  C10  1  0.26010000  0.18609000  0.74158000  1.0 0.1718465105
C  C11  1  0.17690000  0.23770000  0.73397000  1.0 0.0269294024
C  C12  1  0.42700000  0.13298000  0.80209000  1.0 -0.0499704632
C  C13  1  0.23280000  0.83590000  0.89341000  1.0 0.0489494667
C  C14  1  0.14340000  0.84580000  0.93989000  1.0 -0.1240904688
C  C15  1  0.21380000  0.85310000  0.99292000  1.0 -0.1601582341
C  C16  1  0.37330000  0.85255000  0.99474000  1.0 0.1982602108
C  C17  1  0.44680000  0.84649000  0.94401000  1.0 -0.0499704632
C  C18  1  0.38420000  0.86402000  0.09232000  1.0 0.008164623
C  C19  1  0.10610000  0.79080000  0.35610000  1.0 -0.0004943845
C  C20  1  0.19000000  0.83930000  0.35080000  1.0 -0.0818712733
C  C21  1  0.26890000  0.85055000  0.30017000  1.0 -0.1416489206
C  C22  1  0.26010000  0.81391000  0.25842000  1.0 0.1718465105
C  C23  1  0.17690000  0.76230000  0.26603000  1.0 0.0269294024
C  C24  1  0.42700000  0.86702000  0.19791000  1.0 -0.0499704632
C  C25  1  0.73280000  0.39341000  0.66410000  1.0 0.0590282981
C  C26  1  0.64340000  0.43989000  0.65420000  1.0 -0.1123538188
C  C27  1  0.71380000  0.49292000  0.64690000  1.0 -0.1601582341
C  C28  1  0.87330000  0.49474000  0.64745000  1.0 0.1982602108
C  C29  1  0.94680000  0.44401000  0.65351000  1.0 -0.0499704632
C  C30  1  0.88420000  0.59232000  0.63598000  1.0 0.022370372
C  C31  1  0.60610000  0.85610000  0.70920000  1.0 -0.0191838793
C  C32  1  0.69000000  0.85080000  0.66070000  1.0 -0.0901124015
C  C33  1  0.76890000  0.80017000  0.64945000  1.0 -0.1416489206
C  C34  1  0.76010000  0.75842000  0.68609000  1.0 0.1718465105
C  C35  1  0.67690000  0.76603000  0.73770000  1.0 0.022370372
C  C36  1  0.92700000  0.69791000  0.63298000  1.0 -0.0273036494
C  C37  1  0.73280000  0.60659000  0.33590000  1.0 0.0590282981
C  C38  1  0.64340000  0.56011000  0.34580000  1.0 -0.1123538188
C  C39  1  0.71380000  0.50708000  0.35310000  1.0 -0.1601582341
C  C40  1  0.87330000  0.50526000  0.35255000  1.0 0.1982602108
C  C41  1  0.94680000  0.55599000  0.34649000  1.0 -0.0499704632
C  C42  1  0.88420000  0.40768000  0.36402000  1.0 0.022370372
C  C43  1  0.60610000  0.14390000  0.29080000  1.0 -0.0191838793
C  C44  1  0.69000000  0.14920000  0.33930000  1.0 -0.0901124015
C  C45  1  0.76890000  0.19983000  0.35055000  1.0 -0.1416489206
C  C46  1  0.76010000  0.24158000  0.31391000  1.0 0.1718465105
C  C47  1  0.67690000  0.23397000  0.26230000  1.0 0.022370372
C  C48  1  0.92700000  0.30209000  0.36702000  1.0 -0.0273036494
C  C49  1  0.26720000  0.33590000  0.60659000  1.0 -0.0191838793
C  C50  1  0.35660000  0.34580000  0.56011000  1.0 -0.0499704632
C  C51  1  0.28620000  0.35310000  0.50708000  1.0 -0.0818712733
C  C52  1  0.12670000  0.35255000  0.50526000  1.0 0.2075045534
C  C53  1  0.05320000  0.34649000  0.55599000  1.0 -0.0499704632
C  C54  1  0.11580000  0.36402000  0.40768000  1.0 0.008164623
C  C55  1  0.39390000  0.29080000  0.14390000  1.0 -0.0191838793
C  C56  1  0.31000000  0.33930000  0.14920000  1.0 -0.0901124015
C  C57  1  0.23110000  0.35055000  0.19983000  1.0 -0.1416489206
C  C58  1  0.23990000  0.31391000  0.24158000  1.0 0.1718465105
C  C59  1  0.32310000  0.26230000  0.23397000  1.0 0.0269294024
C  C60  1  0.07300000  0.36702000  0.30209000  1.0 -0.0435713887
C  C61  1  0.26720000  0.66410000  0.39341000  1.0 -0.0191838793
C  C62  1  0.35660000  0.65420000  0.43989000  1.0 -0.0499704632
C  C63  1  0.28620000  0.64690000  0.49292000  1.0 -0.0818712733
C  C64  1  0.12670000  0.64745000  0.49474000  1.0 0.2075045534
C  C65  1  0.05320000  0.65351000  0.44401000  1.0 -0.0499704632
C  C66  1  0.11580000  0.63598000  0.59232000  1.0 0.008164623
C  C67  1  0.39390000  0.70920000  0.85610000  1.0 -0.0191838793
C  C68  1  0.31000000  0.66070000  0.85080000  1.0 -0.0901124015
C  C69  1  0.23110000  0.64945000  0.80017000  1.0 -0.1416489206
C  C70  1  0.23990000  0.68609000  0.75842000  1.0 0.1718465105
C  C71  1  0.32310000  0.73770000  0.76603000  1.0 0.0269294024
C  C72  1  0.07300000  0.63298000  0.69791000  1.0 -0.0435713887
C  C73  1  0.76720000  0.10659000  0.16410000  1.0 0.0489494667
C  C74  1  0.85660000  0.06011000  0.15420000  1.0 -0.1240904688
C  C75  1  0.78620000  0.00708000  0.14690000  1.0 -0.1601582341
C  C76  1  0.62670000  0.00526000  0.14745000  1.0 0.1982602108
C  C77  1  0.55320000  0.05599000  0.15351000  1.0 -0.0499704632
C  C78  1  0.61580000  0.90768000  0.13598000  1.0 0.008164623
C  C79  1  0.89390000  0.64390000  0.20920000  1.0 -0.0191838793
C  C80  1  0.81000000  0.64920000  0.16070000  1.0 -0.0901124015
C  C81  1  0.73110000  0.69983000  0.14945000  1.0 -0.1416489206
C  C82  1  0.73990000  0.74158000  0.18609000  1.0 0.1718465105
C  C83  1  0.82310000  0.73397000  0.23770000  1.0 0.0269294024
C  C84  1  0.57300000  0.80209000  0.13298000  1.0 -0.0499704632
C  C85  1  0.76720000  0.89341000  0.83590000  1.0 0.0489494667
C  C86  1  0.85660000  0.93989000  0.84580000  1.0 -0.1240904688
C  C87  1  0.78620000  0.99292000  0.85310000  1.0 -0.1601582341
C  C88  1  0.62670000  0.99474000  0.85255000  1.0 0.1982602108
C  C89  1  0.55320000  0.94401000  0.84649000  1.0 -0.0499704632
C  C90  1  0.61580000  0.09232000  0.86402000  1.0 0.008164623
C  C91  1  0.89390000  0.35610000  0.79080000  1.0 -0.0191838793
C  C92  1  0.81000000  0.35080000  0.83930000  1.0 -0.0901124015
C  C93  1  0.73110000  0.30017000  0.85055000  1.0 -0.1416489206
C  C94  1  0.73990000  0.25842000  0.81391000  1.0 0.1718465105
C  C95  1  0.82310000  0.26603000  0.76230000  1.0 0.0269294024
C  C96  1  0.57300000  0.19791000  0.86702000  1.0 -0.0499704632
C  C97  1  0.50000000  0.14119000  0.85881000  1.0 0.0269294024
C  C98  1  0.50000000  0.85881000  0.14119000  1.0 0.0269294024
C  C99  1  0.00000000  0.64119000  0.64119000  1.0 0.022370372
C  C100  1  0.00000000  0.35881000  0.35881000  1.0 0.022370372
N  N1  1  0.37890000  0.16157000  0.10624000  1.0 -0.1970206322
N  N2  1  0.10610000  0.24804000  0.68770000  1.0 -0.1888808407
N  N3  1  0.37890000  0.83843000  0.89376000  1.0 -0.1970206322
N  N4  1  0.10610000  0.75196000  0.31230000  1.0 -0.1888808407
N  N5  1  0.87890000  0.39376000  0.66157000  1.0 -0.1970206322
N  N6  1  0.60610000  0.81230000  0.74804000  1.0 -0.1970206322
N  N7  1  0.87890000  0.60624000  0.33843000  1.0 -0.1970206322
N  N8  1  0.60610000  0.18770000  0.25196000  1.0 -0.1970206322
N  N9  1  0.12110000  0.33843000  0.60624000  1.0 -0.1888808407
N  N10  1  0.39390000  0.25196000  0.18770000  1.0 -0.1970206322
N  N11  1  0.12110000  0.66157000  0.39376000  1.0 -0.1888808407
N  N12  1  0.39390000  0.74804000  0.81230000  1.0 -0.1970206322
N  N13  1  0.62110000  0.10624000  0.16157000  1.0 -0.1970206322
N  N14  1  0.89390000  0.68770000  0.24804000  1.0 -0.1970206322
N  N15  1  0.62110000  0.89376000  0.83843000  1.0 -0.1970206322
N  N16  1  0.89390000  0.31230000  0.75196000  1.0 -0.1970206322
O  O1  1  0.45600000  0.14083000  0.95870000  1.0 -0.1471953712
O  O2  1  0.32890000  0.18273000  0.79356000  1.0 -0.1888808407
O  O3  1  0.45600000  0.85917000  0.04130000  1.0 -0.1471953712
O  O4  1  0.32890000  0.81727000  0.20644000  1.0 -0.1888808407
O  O5  1  0.95600000  0.54130000  0.64083000  1.0 -0.1471953712
O  O6  1  0.82890000  0.70644000  0.68273000  1.0 -0.1888808407
O  O7  1  0.95600000  0.45870000  0.35917000  1.0 -0.1471953712
O  O8  1  0.82890000  0.29356000  0.31727000  1.0 -0.1888808407
O  O9  1  0.04400000  0.35917000  0.45870000  1.0 -0.1471953712
O  O10  1  0.17110000  0.31727000  0.29356000  1.0 -0.1888808407
O  O11  1  0.04400000  0.64083000  0.54130000  1.0 -0.1471953712
O  O12  1  0.17110000  0.68273000  0.70644000  1.0 -0.1888808407
O  O13  1  0.54400000  0.95870000  0.14083000  1.0 -0.1471953712
O  O14  1  0.67110000  0.79356000  0.18273000  1.0 -0.1888808407
O  O15  1  0.54400000  0.04130000  0.85917000  1.0 -0.1471953712
O  O16  1  0.67110000  0.20644000  0.81727000  1.0 -0.1888808407
