# DDEC6 charges by PACMAN v1.1 (https://github.com/mtap-research/PACMAN-charge/)
data_EDORIY_ASR_pacman
_symmetry_space_group_name_H-M   'P 1'
_cell_length_a   26.73460000
_cell_length_b   26.73460000
_cell_length_c   34.42990000
_cell_angle_alpha   50.78130000
_cell_angle_beta   129.21900000
_cell_angle_gamma   149.22100000
_symmetry_Int_Tables_number   1
_chemical_formula_structural   Cu3H50C59N13
_chemical_formula_sum   'Cu12 H200 C236 N52'
_cell_volume   9506.75826886
_cell_formula_units_Z   4
loop_
 _symmetry_equiv_pos_site_id
 _symmetry_equiv_pos_as_xyz
  1  'x, y, z'
loop_
 _atom_site_type_symbol
 _atom_site_label
 _atom_site_symmetry_multiplicity
 _atom_site_fract_x
 _atom_site_fract_y
 _atom_site_fract_z
 _atom_site_occupancy
 _atom_site_charge
Cu  Cu1  1  0.05027000  0.77607000  0.88527000  1.0 0.2826414916
Cu  Cu2  1  0.77607000  0.05027000  0.61473000  1.0 0.2826414916
Cu  Cu3  1  0.94973000  0.22393000  0.11473000  1.0 0.2826414916
Cu  Cu4  1  0.22393000  0.94973000  0.38527000  1.0 0.2826414916
Cu  Cu5  1  0.32204000  0.16898000  0.98262000  1.0 0.1102552039
Cu  Cu6  1  0.16898000  0.32204000  0.51738000  1.0 0.0999651637
Cu  Cu7  1  0.67796000  0.83102000  0.01738000  1.0 0.1102552039
Cu  Cu8  1  0.83102000  0.67796000  0.48262000  1.0 0.1102552039
Cu  Cu9  1  0.35755000  0.78345000  0.39588000  1.0 0.2188946742
Cu  Cu10  1  0.78345000  0.35755000  0.10412000  1.0 0.2188946742
Cu  Cu11  1  0.64245000  0.21655000  0.60412000  1.0 0.2188946742
Cu  Cu12  1  0.21655000  0.64245000  0.89588000  1.0 0.2188946742
H  H1  1  0.14420000  0.83700000  0.76350000  1.0 0.1482196674
H  H2  1  0.83700000  0.14420000  0.73650000  1.0 0.1482196674
H  H3  1  0.85580000  0.16300000  0.23650000  1.0 0.1482196674
H  H4  1  0.16300000  0.85580000  0.26350000  1.0 0.1482196674
H  H5  1  0.12080000  0.74400000  0.80310000  1.0 0.1482196674
H  H6  1  0.74400000  0.12080000  0.69690000  1.0 0.1482196674
H  H7  1  0.87920000  0.25600000  0.19690000  1.0 0.1482196674
H  H8  1  0.25600000  0.87920000  0.30310000  1.0 0.1482196674
H  H9  1  0.03150000  0.72490000  0.75950000  1.0 0.1482196674
H  H10  1  0.72490000  0.03150000  0.74050000  1.0 0.1482196674
H  H11  1  0.96850000  0.27510000  0.24050000  1.0 0.1482196674
H  H12  1  0.27510000  0.96850000  0.25950000  1.0 0.1482196674
H  H13  1  0.86380000  0.55520000  0.89070000  1.0 0.0999651637
H  H14  1  0.55520000  0.86380000  0.60930000  1.0 0.0999651637
H  H15  1  0.13620000  0.44480000  0.10930000  1.0 0.0999651637
H  H16  1  0.44480000  0.13620000  0.39070000  1.0 0.0999651637
H  H17  1  0.70710000  0.42230000  0.90950000  1.0 0.1213100197
H  H18  1  0.42230000  0.70710000  0.59050000  1.0 0.1213100197
H  H19  1  0.29290000  0.57770000  0.09050000  1.0 0.1213100197
H  H20  1  0.57770000  0.29290000  0.40950000  1.0 0.1213100197
H  H21  1  0.80670000  0.61090000  0.95270000  1.0 0.1271211907
H  H22  1  0.61090000  0.80670000  0.54730000  1.0 0.1271211907
H  H23  1  0.19330000  0.38910000  0.04730000  1.0 0.1271211907
H  H24  1  0.38910000  0.19330000  0.45270000  1.0 0.1271211907
H  H25  1  0.95270000  0.73730000  0.92980000  1.0 0.0911310558
H  H26  1  0.73730000  0.95270000  0.57020000  1.0 0.0911310558
H  H27  1  0.04730000  0.26270000  0.07020000  1.0 0.0999651637
H  H28  1  0.26270000  0.04730000  0.42980000  1.0 0.0999651637
H  H29  1  0.12350000  0.81950000  0.98320000  1.0 0.0911310558
H  H30  1  0.81950000  0.12350000  0.51680000  1.0 0.0911310558
H  H31  1  0.87650000  0.18050000  0.01680000  1.0 0.0911310558
H  H32  1  0.18050000  0.87650000  0.48320000  1.0 0.0911310558
H  H33  1  0.27980000  0.93320000  0.03610000  1.0 0.1213100197
H  H34  1  0.93320000  0.27980000  0.46390000  1.0 0.1213100197
H  H35  1  0.72020000  0.06680000  0.96390000  1.0 0.1213100197
H  H36  1  0.06680000  0.72020000  0.53610000  1.0 0.1213100197
H  H37  1  0.41130000  0.01350000  0.95680000  1.0 0.1213100197
H  H38  1  0.01350000  0.41130000  0.54320000  1.0 0.1213100197
H  H39  1  0.58870000  0.98650000  0.04320000  1.0 0.1213100197
H  H40  1  0.98650000  0.58870000  0.45680000  1.0 0.1213100197
H  H41  1  0.25450000  0.89290000  0.91040000  1.0 0.0911310558
H  H42  1  0.89290000  0.25450000  0.58960000  1.0 0.0911310558
H  H43  1  0.74550000  0.10710000  0.08960000  1.0 0.0911310558
H  H44  1  0.10710000  0.74550000  0.41040000  1.0 0.0911310558
H  H45  1  0.00110000  0.21730000  0.66390000  1.0 0.0911310558
H  H46  1  0.21730000  0.00110000  0.83610000  1.0 0.0911310558
H  H47  1  0.99890000  0.78270000  0.33610000  1.0 0.0911310558
H  H48  1  0.78270000  0.99890000  0.16390000  1.0 0.0911310558
H  H49  1  0.10760000  0.23100000  0.74210000  1.0 0.1213100197
H  H50  1  0.23100000  0.10760000  0.75790000  1.0 0.1213100197
H  H51  1  0.89240000  0.76900000  0.25790000  1.0 0.1213100197
H  H52  1  0.76900000  0.89240000  0.24210000  1.0 0.1213100197
H  H53  1  0.90630000  0.93030000  0.77380000  1.0 0.1102552039
H  H54  1  0.93030000  0.90630000  0.72620000  1.0 0.1102552039
H  H55  1  0.09370000  0.06970000  0.22620000  1.0 0.1102552039
H  H56  1  0.06970000  0.09370000  0.27380000  1.0 0.1102552039
H  H57  1  0.80610000  0.92230000  0.69400000  1.0 0.0999651637
H  H58  1  0.92230000  0.80610000  0.80600000  1.0 0.0999651637
H  H59  1  0.19390000  0.07770000  0.30600000  1.0 0.0999651637
H  H60  1  0.07770000  0.19390000  0.19400000  1.0 0.0999651637
H  H61  1  0.36880000  0.40520000  0.58130000  1.0 0.0999651637
H  H62  1  0.40520000  0.36880000  0.91870000  1.0 0.0999651637
H  H63  1  0.63120000  0.59480000  0.41870000  1.0 0.0999651637
H  H64  1  0.59480000  0.63120000  0.08130000  1.0 0.0999651637
H  H65  1  0.50590000  0.49130000  0.57460000  1.0 0.1213100197
H  H66  1  0.49130000  0.50590000  0.92540000  1.0 0.1213100197
H  H67  1  0.49410000  0.50870000  0.42540000  1.0 0.1213100197
H  H68  1  0.50870000  0.49410000  0.07460000  1.0 0.1213100197
H  H69  1  0.35810000  0.42930000  0.43340000  1.0 0.1271211907
H  H70  1  0.42930000  0.35810000  0.06660000  1.0 0.1271211907
H  H71  1  0.64190000  0.57070000  0.56660000  1.0 0.1271211907
H  H72  1  0.57070000  0.64190000  0.93340000  1.0 0.1271211907
H  H73  1  0.22040000  0.34300000  0.44680000  1.0 0.0999651637
H  H74  1  0.34300000  0.22040000  0.05320000  1.0 0.0999651637
H  H75  1  0.77960000  0.65700000  0.55320000  1.0 0.0999651637
H  H76  1  0.65700000  0.77960000  0.94680000  1.0 0.0999651637
H  H77  1  0.40650000  0.21330000  0.91850000  1.0 0.079588634
H  H78  1  0.21330000  0.40650000  0.58150000  1.0 0.079588634
H  H79  1  0.59350000  0.78670000  0.08150000  1.0 0.079588634
H  H80  1  0.78670000  0.59350000  0.41850000  1.0 0.079588634
H  H81  1  0.55760000  0.33920000  0.89780000  1.0 0.1213100197
H  H82  1  0.33920000  0.55760000  0.60220000  1.0 0.1213100197
H  H83  1  0.44240000  0.66080000  0.10220000  1.0 0.1213100197
H  H84  1  0.66080000  0.44240000  0.39780000  1.0 0.1213100197
H  H85  1  0.69450000  0.47050000  0.00280000  1.0 0.1213100197
H  H86  1  0.47050000  0.69450000  0.49720000  1.0 0.1213100197
H  H87  1  0.30550000  0.52950000  0.99720000  1.0 0.1213100197
H  H88  1  0.52950000  0.30550000  0.50280000  1.0 0.1213100197
H  H89  1  0.54310000  0.34930000  0.01990000  1.0 0.0999651637
H  H90  1  0.34930000  0.54310000  0.48010000  1.0 0.0999651637
H  H91  1  0.45690000  0.65070000  0.98010000  1.0 0.0999651637
H  H92  1  0.65070000  0.45690000  0.51990000  1.0 0.0999651637
H  H93  1  0.45580000  0.17180000  0.07300000  1.0 0.0911310558
H  H94  1  0.17180000  0.45580000  0.42700000  1.0 0.0911310558
H  H95  1  0.54420000  0.82820000  0.92700000  1.0 0.0911310558
H  H96  1  0.82820000  0.54420000  0.57300000  1.0 0.0911310558
H  H97  1  0.46020000  0.08640000  0.15990000  1.0 0.1213100197
H  H98  1  0.08640000  0.46020000  0.34010000  1.0 0.1213100197
H  H99  1  0.53980000  0.91360000  0.84010000  1.0 0.1213100197
H  H100  1  0.91360000  0.53980000  0.65990000  1.0 0.1213100197
H  H101  1  0.16890000  0.89290000  0.13530000  1.0 0.1271211907
H  H102  1  0.89290000  0.16890000  0.36470000  1.0 0.1271211907
H  H103  1  0.83110000  0.10710000  0.86470000  1.0 0.1271211907
H  H104  1  0.10710000  0.83110000  0.63530000  1.0 0.1271211907
H  H105  1  0.17160000  0.98180000  0.05040000  1.0 0.0911310558
H  H106  1  0.98180000  0.17160000  0.44960000  1.0 0.0911310558
H  H107  1  0.82840000  0.01820000  0.94960000  1.0 0.0911310558
H  H108  1  0.01820000  0.82840000  0.55040000  1.0 0.0911310558
H  H109  1  0.18980000  0.71560000  0.29440000  1.0 0.0911310558
H  H110  1  0.71560000  0.18980000  0.20560000  1.0 0.0911310558
H  H111  1  0.81020000  0.28440000  0.70560000  1.0 0.0911310558
H  H112  1  0.28440000  0.81020000  0.79440000  1.0 0.0911310558
H  H113  1  0.17640000  0.78820000  0.20800000  1.0 0.1213100197
H  H114  1  0.78820000  0.17640000  0.29200000  1.0 0.1213100197
H  H115  1  0.82360000  0.21180000  0.79200000  1.0 0.1213100197
H  H116  1  0.21180000  0.82360000  0.70800000  1.0 0.1213100197
H  H117  1  0.46280000  0.05720000  0.23990000  1.0 0.1213100197
H  H118  1  0.05720000  0.46280000  0.26010000  1.0 0.1213100197
H  H119  1  0.53720000  0.94280000  0.76010000  1.0 0.1271211907
H  H120  1  0.94280000  0.53720000  0.73990000  1.0 0.1271211907
H  H121  1  0.47220000  0.97760000  0.32600000  1.0 0.0911310558
H  H122  1  0.97760000  0.47220000  0.17400000  1.0 0.0911310558
H  H123  1  0.52780000  0.02240000  0.67400000  1.0 0.0911310558
H  H124  1  0.02240000  0.52780000  0.82600000  1.0 0.0911310558
H  H125  1  0.29940000  0.68060000  0.49270000  1.0 0.0911310558
H  H126  1  0.68060000  0.29940000  0.00730000  1.0 0.0911310558
H  H127  1  0.70060000  0.31940000  0.50730000  1.0 0.0911310558
H  H128  1  0.31940000  0.70060000  0.99270000  1.0 0.0911310558
H  H129  1  0.16970000  0.53710000  0.53010000  1.0 0.1213100197
H  H130  1  0.53710000  0.16970000  0.96990000  1.0 0.1213100197
H  H131  1  0.83030000  0.46290000  0.46990000  1.0 0.1213100197
H  H132  1  0.46290000  0.83030000  0.03010000  1.0 0.1213100197
H  H133  1  0.42800000  0.00820000  0.09420000  1.0 0.1271211907
H  H134  1  0.00820000  0.42800000  0.40580000  1.0 0.1271211907
H  H135  1  0.57200000  0.99180000  0.90580000  1.0 0.1271211907
H  H136  1  0.99180000  0.57200000  0.59420000  1.0 0.1271211907
H  H137  1  0.14870000  0.57710000  0.37250000  1.0 0.0911310558
H  H138  1  0.57710000  0.14870000  0.12750000  1.0 0.0911310558
H  H139  1  0.85130000  0.42290000  0.62750000  1.0 0.0911310558
H  H140  1  0.42290000  0.85130000  0.87250000  1.0 0.0911310558
H  H141  1  0.56100000  0.97200000  0.44360000  1.0 0.0911310558
H  H142  1  0.97200000  0.56100000  0.05640000  1.0 0.0911310558
H  H143  1  0.43900000  0.02800000  0.55640000  1.0 0.0911310558
H  H144  1  0.02800000  0.43900000  0.94360000  1.0 0.0911310558
H  H145  1  0.61900000  0.05240000  0.49130000  1.0 0.1213100197
H  H146  1  0.05240000  0.61900000  0.00870000  1.0 0.1213100197
H  H147  1  0.38100000  0.94760000  0.50870000  1.0 0.1213100197
H  H148  1  0.94760000  0.38100000  0.99130000  1.0 0.1213100197
H  H149  1  0.33320000  0.87820000  0.46540000  1.0 0.1213100197
H  H150  1  0.87820000  0.33320000  0.03460000  1.0 0.1213100197
H  H151  1  0.66680000  0.12180000  0.53460000  1.0 0.1213100197
H  H152  1  0.12180000  0.66680000  0.96540000  1.0 0.1213100197
H  H153  1  0.28390000  0.79790000  0.42180000  1.0 0.0911310558
H  H154  1  0.79790000  0.28390000  0.07820000  1.0 0.0911310558
H  H155  1  0.71610000  0.20210000  0.57820000  1.0 0.0911310558
H  H156  1  0.20210000  0.71610000  0.92180000  1.0 0.0911310558
H  H157  1  0.67350000  0.02710000  0.36850000  1.0 0.1398089765
H  H158  1  0.02710000  0.67350000  0.13150000  1.0 0.1398089765
H  H159  1  0.32650000  0.97290000  0.63150000  1.0 0.1398089765
H  H160  1  0.97290000  0.32650000  0.86850000  1.0 0.1398089765
H  H161  1  0.70230000  0.98490000  0.42660000  1.0 0.1398089765
H  H162  1  0.98490000  0.70230000  0.07340000  1.0 0.1398089765
H  H163  1  0.29770000  0.01510000  0.57340000  1.0 0.1398089765
H  H164  1  0.01510000  0.29770000  0.92660000  1.0 0.1398089765
H  H165  1  0.64740000  0.93780000  0.38160000  1.0 0.1398089765
H  H166  1  0.93780000  0.64740000  0.11840000  1.0 0.1398089765
H  H167  1  0.35260000  0.06220000  0.61840000  1.0 0.1398089765
H  H168  1  0.06220000  0.35260000  0.88160000  1.0 0.1398089765
H  H169  1  0.18890000  0.17750000  0.92070000  1.0 0.1213100197
H  H170  1  0.17750000  0.18890000  0.57930000  1.0 0.1213100197
H  H171  1  0.81110000  0.82250000  0.07930000  1.0 0.1213100197
H  H172  1  0.82250000  0.81110000  0.42070000  1.0 0.1213100197
H  H173  1  0.08140000  0.15300000  0.83900000  1.0 0.1102552039
H  H174  1  0.15300000  0.08140000  0.66100000  1.0 0.1102552039
H  H175  1  0.91860000  0.84700000  0.16100000  1.0 0.1102552039
H  H176  1  0.84700000  0.91860000  0.33900000  1.0 0.1102552039
H  H177  1  0.10200000  0.02680000  0.83050000  1.0 0.1213100197
H  H178  1  0.02680000  0.10200000  0.66950000  1.0 0.1213100197
H  H179  1  0.89800000  0.97320000  0.16950000  1.0 0.1213100197
H  H180  1  0.97320000  0.89800000  0.33050000  1.0 0.1213100197
H  H181  1  0.20960000  0.05140000  0.91220000  1.0 0.0999651637
H  H182  1  0.05140000  0.20960000  0.58780000  1.0 0.0999651637
H  H183  1  0.79040000  0.94860000  0.08780000  1.0 0.0999651637
H  H184  1  0.94860000  0.79040000  0.41220000  1.0 0.0999651637
H  H185  1  0.98270000  0.08490000  0.55970000  1.0 0.079588634
H  H186  1  0.08490000  0.98270000  0.94030000  1.0 0.079588634
H  H187  1  0.01730000  0.91510000  0.44030000  1.0 0.079588634
H  H188  1  0.91510000  0.01730000  0.05970000  1.0 0.079588634
H  H189  1  0.95880000  0.97800000  0.64160000  1.0 0.1102552039
H  H190  1  0.97800000  0.95880000  0.85840000  1.0 0.1102552039
H  H191  1  0.04120000  0.02200000  0.35840000  1.0 0.1102552039
H  H192  1  0.02200000  0.04120000  0.14160000  1.0 0.1102552039
H  H193  1  0.21170000  0.21870000  0.70640000  1.0 0.0999651637
H  H194  1  0.21870000  0.21170000  0.79360000  1.0 0.0999651637
H  H195  1  0.78830000  0.78130000  0.29360000  1.0 0.0999651637
H  H196  1  0.78130000  0.78830000  0.20640000  1.0 0.0999651637
H  H197  1  0.23560000  0.32560000  0.62460000  1.0 0.0999651637
H  H198  1  0.32560000  0.23560000  0.87540000  1.0 0.0999651637
H  H199  1  0.76440000  0.67440000  0.37540000  1.0 0.0999651637
H  H200  1  0.67440000  0.76440000  0.12460000  1.0 0.0999651637
C  C1  1  0.08050000  0.76690000  0.81800000  1.0 0.3406633797
C  C2  1  0.76690000  0.08050000  0.68200000  1.0 0.3406633797
C  C3  1  0.91950000  0.23310000  0.18200000  1.0 0.3406633797
C  C4  1  0.23310000  0.91950000  0.31800000  1.0 0.3406633797
C  C5  1  0.09550000  0.76830000  0.78320000  1.0 -0.4947355401
C  C6  1  0.76830000  0.09550000  0.71680000  1.0 -0.4947355401
C  C7  1  0.90450000  0.23170000  0.21680000  1.0 -0.4947355401
C  C8  1  0.23170000  0.90450000  0.28320000  1.0 -0.4947355401
C  C9  1  0.85040000  0.56740000  0.90160000  1.0 0.0498012853
C  C10  1  0.56740000  0.85040000  0.59840000  1.0 0.0498012853
C  C11  1  0.14960000  0.43260000  0.09840000  1.0 0.0498012853
C  C12  1  0.43260000  0.14960000  0.40160000  1.0 0.0498012853
C  C13  1  0.75720000  0.48680000  0.91410000  1.0 -0.2182986115
C  C14  1  0.48680000  0.75720000  0.58590000  1.0 -0.2182986115
C  C15  1  0.24280000  0.51320000  0.08590000  1.0 -0.2182986115
C  C16  1  0.51320000  0.24280000  0.41410000  1.0 -0.2182986115
C  C17  1  0.73920000  0.50280000  0.93320000  1.0 0.0999651637
C  C18  1  0.50280000  0.73920000  0.56680000  1.0 0.0999651637
C  C19  1  0.26080000  0.49720000  0.06680000  1.0 0.0999651637
C  C20  1  0.49720000  0.26080000  0.43320000  1.0 0.0999651637
C  C21  1  0.81500000  0.59740000  0.93880000  1.0 -0.1903504242
C  C22  1  0.59740000  0.81500000  0.56120000  1.0 -0.1903504242
C  C23  1  0.18500000  0.40260000  0.06120000  1.0 -0.1903504242
C  C24  1  0.40260000  0.18500000  0.43880000  1.0 -0.1903504242
C  C25  1  0.90230000  0.67290000  0.92490000  1.0 0.0293750547
C  C26  1  0.67290000  0.90230000  0.57510000  1.0 0.0293750547
C  C27  1  0.09770000  0.32710000  0.07510000  1.0 0.0293750547
C  C28  1  0.32710000  0.09770000  0.42490000  1.0 0.0293750547
C  C29  1  0.18290000  0.85850000  0.97840000  1.0 -0.0136939225
C  C30  1  0.85850000  0.18290000  0.52160000  1.0 -0.0136939225
C  C31  1  0.81710000  0.14150000  0.02160000  1.0 -0.0136939225
C  C32  1  0.14150000  0.81710000  0.47840000  1.0 -0.0136939225
C  C33  1  0.27690000  0.92970000  0.00880000  1.0 -0.2005342564
C  C34  1  0.92970000  0.27690000  0.49120000  1.0 -0.2005342564
C  C35  1  0.72310000  0.07030000  0.99120000  1.0 -0.2005342564
C  C36  1  0.07030000  0.72310000  0.50880000  1.0 -0.2005342564
C  C37  1  0.36330000  0.99330000  0.99890000  1.0 0.0999651637
C  C38  1  0.99330000  0.36330000  0.50110000  1.0 0.0999651637
C  C39  1  0.63670000  0.00670000  0.00110000  1.0 0.0999651637
C  C40  1  0.00670000  0.63670000  0.49890000  1.0 0.0999651637
C  C41  1  0.35340000  0.97540000  0.96270000  1.0 -0.2182986115
C  C42  1  0.97540000  0.35340000  0.53730000  1.0 -0.2182986115
C  C43  1  0.64660000  0.02460000  0.03730000  1.0 -0.2182986115
C  C44  1  0.02460000  0.64660000  0.46270000  1.0 -0.2182986115
C  C45  1  0.25880000  0.90200000  0.93540000  1.0 0.079588634
C  C46  1  0.90200000  0.25880000  0.56460000  1.0 0.0740056473
C  C47  1  0.74120000  0.09800000  0.06460000  1.0 0.0740056473
C  C48  1  0.09800000  0.74120000  0.43540000  1.0 0.0740056473
C  C49  1  0.98290000  0.15930000  0.68650000  1.0 0.0293750547
C  C50  1  0.15930000  0.98290000  0.81350000  1.0 0.0243840056
C  C51  1  0.01710000  0.84070000  0.31350000  1.0 0.0293750547
C  C52  1  0.84070000  0.01710000  0.18650000  1.0 0.0293750547
C  C53  1  0.04650000  0.16750000  0.73340000  1.0 -0.2384226148
C  C54  1  0.16750000  0.04650000  0.76660000  1.0 -0.2384226148
C  C55  1  0.95350000  0.83250000  0.26660000  1.0 -0.2384226148
C  C56  1  0.83250000  0.95350000  0.23340000  1.0 -0.2384226148
C  C57  1  0.02410000  0.08510000  0.76880000  1.0 0.0999651637
C  C58  1  0.08510000  0.02410000  0.73120000  1.0 0.0999651637
C  C59  1  0.97590000  0.91490000  0.23120000  1.0 0.0999651637
C  C60  1  0.91490000  0.97590000  0.26880000  1.0 0.0999651637
C  C61  1  0.92700000  0.98960000  0.75140000  1.0 -0.2877926317
C  C62  1  0.98960000  0.92700000  0.74860000  1.0 -0.2877926317
C  C63  1  0.07300000  0.01040000  0.24860000  1.0 -0.2877926317
C  C64  1  0.01040000  0.07300000  0.25140000  1.0 -0.2877926317
C  C65  1  0.86670000  0.98450000  0.70420000  1.0 0.0393675267
C  C66  1  0.98450000  0.86670000  0.79580000  1.0 0.0393675267
C  C67  1  0.13330000  0.01550000  0.29580000  1.0 0.0393675267
C  C68  1  0.01550000  0.13330000  0.20420000  1.0 0.0393675267
C  C69  1  0.36730000  0.41170000  0.55020000  1.0 0.003594618
C  C70  1  0.41170000  0.36730000  0.94980000  1.0 0.003594618
C  C71  1  0.63270000  0.58830000  0.44980000  1.0 0.003594618
C  C72  1  0.58830000  0.63270000  0.05020000  1.0 0.003594618
C  C73  1  0.44840000  0.46120000  0.54720000  1.0 -0.1816384655
C  C74  1  0.46120000  0.44840000  0.95280000  1.0 -0.1816384655
C  C75  1  0.55160000  0.53880000  0.45280000  1.0 -0.1816384655
C  C76  1  0.53880000  0.55160000  0.04720000  1.0 -0.1816384655
C  C77  1  0.45450000  0.47190000  0.50330000  1.0 0.0911310558
C  C78  1  0.47190000  0.45450000  0.99670000  1.0 0.0911310558
C  C79  1  0.54550000  0.52810000  0.49670000  1.0 0.0911310558
C  C80  1  0.52810000  0.54550000  0.00330000  1.0 0.0911310558
C  C81  1  0.36260000  0.42540000  0.46480000  1.0 -0.2182986115
C  C82  1  0.42540000  0.36260000  0.03520000  1.0 -0.2182986115
C  C83  1  0.63740000  0.57460000  0.53520000  1.0 -0.2182986115
C  C84  1  0.57460000  0.63740000  0.96480000  1.0 -0.2182986115
C  C85  1  0.28050000  0.37490000  0.47280000  1.0 0.0498012853
C  C86  1  0.37490000  0.28050000  0.02720000  1.0 0.0498012853
C  C87  1  0.71950000  0.62510000  0.52720000  1.0 0.0498012853
C  C88  1  0.62510000  0.71950000  0.97280000  1.0 0.0498012853
C  C89  1  0.46610000  0.26670000  0.93600000  1.0 0.0293750547
C  C90  1  0.26670000  0.46610000  0.56400000  1.0 0.0293750547
C  C91  1  0.53390000  0.73330000  0.06400000  1.0 0.0293750547
C  C92  1  0.73330000  0.53390000  0.43600000  1.0 0.0293750547
C  C93  1  0.55600000  0.34140000  0.92340000  1.0 -0.1903504242
C  C94  1  0.34140000  0.55600000  0.57660000  1.0 -0.1903504242
C  C95  1  0.44400000  0.65860000  0.07660000  1.0 -0.1903504242
C  C96  1  0.65860000  0.44400000  0.42340000  1.0 -0.1903504242
C  C97  1  0.64050000  0.41690000  0.94790000  1.0 0.0911310558
C  C98  1  0.41690000  0.64050000  0.55210000  1.0 0.0911310558
C  C99  1  0.35950000  0.58310000  0.05210000  1.0 0.0911310558
C  C100  1  0.58310000  0.35950000  0.44790000  1.0 0.0911310558
C  C101  1  0.63480000  0.41780000  0.98480000  1.0 -0.1903504242
C  C102  1  0.41780000  0.63480000  0.51520000  1.0 -0.1903504242
C  C103  1  0.36520000  0.58220000  0.01520000  1.0 -0.1903504242
C  C104  1  0.58220000  0.36520000  0.48480000  1.0 -0.1903504242
C  C105  1  0.54590000  0.34550000  0.99580000  1.0 0.0393675267
C  C106  1  0.34550000  0.54590000  0.50420000  1.0 0.0393675267
C  C107  1  0.45410000  0.65450000  0.00420000  1.0 0.0393675267
C  C108  1  0.65450000  0.45410000  0.49580000  1.0 0.0393675267
C  C109  1  0.39660000  0.11440000  0.08560000  1.0 0.079588634
C  C110  1  0.11440000  0.39660000  0.41440000  1.0 0.079588634
C  C111  1  0.60340000  0.88560000  0.91440000  1.0 0.079588634
C  C112  1  0.88560000  0.60340000  0.58560000  1.0 0.079588634
C  C113  1  0.39970000  0.06370000  0.13810000  1.0 -0.2283706985
C  C114  1  0.06370000  0.39970000  0.36190000  1.0 -0.2283706985
C  C115  1  0.60030000  0.93630000  0.86190000  1.0 -0.2283706985
C  C116  1  0.93630000  0.60030000  0.63810000  1.0 -0.2283706985
C  C117  1  0.31400000  0.98040000  0.15820000  1.0 0.0911310558
C  C118  1  0.98040000  0.31400000  0.34180000  1.0 0.0911310558
C  C119  1  0.68600000  0.01960000  0.84180000  1.0 0.079588634
C  C120  1  0.01960000  0.68600000  0.65820000  1.0 0.079588634
C  C121  1  0.22980000  0.95060000  0.12410000  1.0 -0.2005342564
C  C122  1  0.95060000  0.22980000  0.37590000  1.0 -0.2005342564
C  C123  1  0.77020000  0.04940000  0.87590000  1.0 -0.2005342564
C  C124  1  0.04940000  0.77020000  0.62410000  1.0 -0.2005342564
C  C125  1  0.23130000  0.00330000  0.07310000  1.0 -0.0037647604
C  C126  1  0.00330000  0.23130000  0.42690000  1.0 -0.0037647604
C  C127  1  0.76870000  0.99670000  0.92690000  1.0 -0.0037647604
C  C128  1  0.99670000  0.76870000  0.57310000  1.0 -0.0037647604
C  C129  1  0.24650000  0.78570000  0.28320000  1.0 0.0498012853
C  C130  1  0.78570000  0.24650000  0.21680000  1.0 0.0498012853
C  C131  1  0.75350000  0.21430000  0.71680000  1.0 0.0498012853
C  C132  1  0.21430000  0.75350000  0.78320000  1.0 0.0498012853
C  C133  1  0.23830000  0.82890000  0.23140000  1.0 -0.2081948782
C  C134  1  0.82890000  0.23830000  0.26860000  1.0 -0.2081948782
C  C135  1  0.76170000  0.17110000  0.76860000  1.0 -0.2081948782
C  C136  1  0.17110000  0.76170000  0.73140000  1.0 -0.2081948782
C  C137  1  0.31940000  0.93160000  0.21270000  1.0 0.079588634
C  C138  1  0.93160000  0.31940000  0.28730000  1.0 0.079588634
C  C139  1  0.68060000  0.06840000  0.78730000  1.0 0.079588634
C  C140  1  0.06840000  0.68060000  0.71270000  1.0 0.079588634
C  C141  1  0.40640000  0.98640000  0.25000000  1.0 -0.1903504242
C  C142  1  0.98640000  0.40640000  0.25000000  1.0 -0.1903504242
C  C143  1  0.59360000  0.01360000  0.75000000  1.0 -0.1903504242
C  C144  1  0.01360000  0.59360000  0.75000000  1.0 -0.1903504242
C  C145  1  0.41120000  0.93880000  0.30160000  1.0 0.0498012853
C  C146  1  0.93880000  0.41120000  0.19840000  1.0 0.0498012853
C  C147  1  0.58880000  0.06120000  0.69840000  1.0 0.0498012853
C  C148  1  0.06120000  0.58880000  0.80160000  1.0 0.0498012853
C  C149  1  0.23970000  0.62810000  0.47460000  1.0 0.0080494354
C  C150  1  0.62810000  0.23970000  0.02540000  1.0 0.0080494354
C  C151  1  0.76030000  0.37190000  0.52540000  1.0 0.0080494354
C  C152  1  0.37190000  0.76030000  0.97460000  1.0 0.0080494354
C  C153  1  0.16380000  0.54300000  0.49750000  1.0 -0.1903504242
C  C154  1  0.54300000  0.16380000  0.00250000  1.0 -0.1903504242
C  C155  1  0.83620000  0.45700000  0.50250000  1.0 -0.1903504242
C  C156  1  0.45700000  0.83620000  0.99750000  1.0 -0.1903504242
C  C157  1  0.46140000  0.07460000  0.02590000  1.0 0.0911310558
C  C158  1  0.07460000  0.46140000  0.47410000  1.0 0.0911310558
C  C159  1  0.53860000  0.92540000  0.97410000  1.0 0.0911310558
C  C160  1  0.92540000  0.53860000  0.52590000  1.0 0.0911310558
C  C161  1  0.47810000  0.06890000  0.07480000  1.0 -0.2081948782
C  C162  1  0.06890000  0.47810000  0.42520000  1.0 -0.2081948782
C  C163  1  0.52190000  0.93110000  0.92520000  1.0 -0.2081948782
C  C164  1  0.93110000  0.52190000  0.57480000  1.0 -0.2081948782
C  C165  1  0.15310000  0.56930000  0.40520000  1.0 0.0293750547
C  C166  1  0.56930000  0.15310000  0.09480000  1.0 0.0293750547
C  C167  1  0.84690000  0.43070000  0.59480000  1.0 0.0293750547
C  C168  1  0.43070000  0.84690000  0.90520000  1.0 0.0293750547
C  C169  1  0.51370000  0.95110000  0.44910000  1.0 0.0293750547
C  C170  1  0.95110000  0.51370000  0.05090000  1.0 0.0293750547
C  C171  1  0.48630000  0.04890000  0.55090000  1.0 0.0293750547
C  C172  1  0.04890000  0.48630000  0.94910000  1.0 0.0293750547
C  C173  1  0.54920000  0.00040000  0.47710000  1.0 -0.2005342564
C  C174  1  0.00040000  0.54920000  0.02290000  1.0 -0.2005342564
C  C175  1  0.45080000  0.99960000  0.52290000  1.0 -0.2005342564
C  C176  1  0.99960000  0.45080000  0.97710000  1.0 -0.2005342564
C  C177  1  0.48100000  0.97340000  0.48500000  1.0 0.0911310558
C  C178  1  0.97340000  0.48100000  0.01500000  1.0 0.0911310558
C  C179  1  0.51900000  0.02660000  0.51500000  1.0 0.0911310558
C  C180  1  0.02660000  0.51900000  0.98500000  1.0 0.0911310558
C  C181  1  0.38230000  0.89830000  0.46270000  1.0 -0.2005342564
C  C182  1  0.89830000  0.38230000  0.03730000  1.0 -0.2005342564
C  C183  1  0.61770000  0.10170000  0.53730000  1.0 -0.2005342564
C  C184  1  0.10170000  0.61770000  0.96270000  1.0 -0.2005342564
C  C185  1  0.35340000  0.85100000  0.43590000  1.0 0.0498012853
C  C186  1  0.85100000  0.35340000  0.06410000  1.0 0.0498012853
C  C187  1  0.64660000  0.14900000  0.56410000  1.0 0.0498012853
C  C188  1  0.14900000  0.64660000  0.93590000  1.0 0.0498012853
C  C189  1  0.55550000  0.89390000  0.40130000  1.0 0.3406633797
C  C190  1  0.89390000  0.55550000  0.09870000  1.0 0.3406633797
C  C191  1  0.44450000  0.10610000  0.59870000  1.0 0.3406633797
C  C192  1  0.10610000  0.44450000  0.90130000  1.0 0.3406633797
C  C193  1  0.65270000  0.96690000  0.39390000  1.0 -0.508728252
C  C194  1  0.96690000  0.65270000  0.10610000  1.0 -0.508728252
C  C195  1  0.34730000  0.03310000  0.60610000  1.0 -0.508728252
C  C196  1  0.03310000  0.34730000  0.89390000  1.0 -0.508728252
C  C197  1  0.17110000  0.14690000  0.90240000  1.0 -0.110686579
C  C198  1  0.14690000  0.17110000  0.59760000  1.0 -0.110686579
C  C199  1  0.82890000  0.85310000  0.09760000  1.0 -0.110686579
C  C200  1  0.85310000  0.82890000  0.40240000  1.0 -0.110686579
C  C201  1  0.10750000  0.13250000  0.85380000  1.0 -0.2283706985
C  C202  1  0.13250000  0.10750000  0.64620000  1.0 -0.2283706985
C  C203  1  0.89250000  0.86750000  0.14620000  1.0 -0.2283706985
C  C204  1  0.86750000  0.89250000  0.35380000  1.0 -0.2283706985
C  C205  1  0.08200000  0.08800000  0.82710000  1.0 0.0911310558
C  C206  1  0.08800000  0.08200000  0.67290000  1.0 0.0911310558
C  C207  1  0.91800000  0.91200000  0.17290000  1.0 0.0911310558
C  C208  1  0.91200000  0.91800000  0.32710000  1.0 0.0911310558
C  C209  1  0.12010000  0.05790000  0.84880000  1.0 -0.0613245827
C  C210  1  0.05790000  0.12010000  0.65120000  1.0 -0.0613245827
C  C211  1  0.87990000  0.94210000  0.15120000  1.0 -0.0613245827
C  C212  1  0.94210000  0.87990000  0.34880000  1.0 -0.0613245827
C  C213  1  0.18380000  0.07220000  0.89740000  1.0 0.0080494354
C  C214  1  0.07220000  0.18380000  0.60260000  1.0 0.0080494354
C  C215  1  0.81620000  0.92780000  0.10260000  1.0 0.0080494354
C  C216  1  0.92780000  0.81620000  0.39740000  1.0 0.0080494354
C  C217  1  0.02930000  0.11210000  0.58950000  1.0 -0.0432087344
C  C218  1  0.11210000  0.02930000  0.91050000  1.0 -0.0432087344
C  C219  1  0.97070000  0.88790000  0.41050000  1.0 -0.0432087344
C  C220  1  0.88790000  0.97070000  0.08950000  1.0 -0.0432087344
C  C221  1  0.01500000  0.04860000  0.63820000  1.0 -0.1210473937
C  C222  1  0.04860000  0.01500000  0.86180000  1.0 -0.1210473937
C  C223  1  0.98500000  0.95140000  0.36180000  1.0 -0.1210473937
C  C224  1  0.95140000  0.98500000  0.13820000  1.0 -0.1210473937
C  C225  1  0.08310000  0.08830000  0.68170000  1.0 0.0293750547
C  C226  1  0.08830000  0.08310000  0.81830000  1.0 0.0293750547
C  C227  1  0.91690000  0.91170000  0.31830000  1.0 0.0393675267
C  C228  1  0.91170000  0.91690000  0.18170000  1.0 0.0393675267
C  C229  1  0.16520000  0.19160000  0.67670000  1.0 -0.1290326279
C  C230  1  0.19160000  0.16520000  0.82330000  1.0 -0.1290326279
C  C231  1  0.83480000  0.80840000  0.32330000  1.0 -0.1290326279
C  C232  1  0.80840000  0.83480000  0.17670000  1.0 -0.1290326279
C  C233  1  0.17940000  0.25500000  0.62800000  1.0 -0.0613245827
C  C234  1  0.25500000  0.17940000  0.87200000  1.0 -0.0613245827
C  C235  1  0.82060000  0.74500000  0.37200000  1.0 -0.0613245827
C  C236  1  0.74500000  0.82060000  0.12800000  1.0 -0.0613245827
N  N1  1  0.06740000  0.76560000  0.84420000  1.0 -0.4682768148
N  N2  1  0.76560000  0.06740000  0.65580000  1.0 -0.4682768148
N  N3  1  0.93260000  0.23440000  0.15580000  1.0 -0.4682768148
N  N4  1  0.23440000  0.93260000  0.34420000  1.0 -0.4682768148
N  N5  1  0.92170000  0.66230000  0.90470000  1.0 -0.2283706985
N  N6  1  0.66230000  0.92170000  0.59530000  1.0 -0.2283706985
N  N7  1  0.07830000  0.33770000  0.09530000  1.0 -0.2283706985
N  N8  1  0.33770000  0.07830000  0.40470000  1.0 -0.2283706985
N  N9  1  0.17560000  0.84460000  0.94230000  1.0 -0.2081948782
N  N10  1  0.84460000  0.17560000  0.55770000  1.0 -0.2081948782
N  N11  1  0.82440000  0.15540000  0.05770000  1.0 -0.2081948782
N  N12  1  0.15540000  0.82440000  0.44230000  1.0 -0.2081948782
N  N13  1  0.89160000  0.06780000  0.67090000  1.0 -0.3628027675
N  N14  1  0.06780000  0.89160000  0.82910000  1.0 -0.3628027675
N  N15  1  0.10840000  0.93220000  0.32910000  1.0 -0.3628027675
N  N16  1  0.93220000  0.10840000  0.17090000  1.0 -0.3628027675
N  N17  1  0.27990000  0.36790000  0.51430000  1.0 -0.2496217576
N  N18  1  0.36790000  0.27990000  0.98570000  1.0 -0.2496217576
N  N19  1  0.72010000  0.63210000  0.48570000  1.0 -0.2496217576
N  N20  1  0.63210000  0.72010000  0.01430000  1.0 -0.2496217576
N  N21  1  0.46000000  0.26660000  0.97170000  1.0 -0.2877926317
N  N22  1  0.26660000  0.46000000  0.52830000  1.0 -0.2877926317
N  N23  1  0.54000000  0.73340000  0.02830000  1.0 -0.2877926317
N  N24  1  0.73340000  0.54000000  0.47170000  1.0 -0.2877926317
N  N25  1  0.31500000  0.08420000  0.05470000  1.0 -0.2081948782
N  N26  1  0.08420000  0.31500000  0.44530000  1.0 -0.2081948782
N  N27  1  0.68500000  0.91580000  0.94530000  1.0 -0.2081948782
N  N28  1  0.91580000  0.68500000  0.55470000  1.0 -0.2081948782
N  N29  1  0.33130000  0.83850000  0.31830000  1.0 -0.2182986115
N  N30  1  0.83850000  0.33130000  0.18170000  1.0 -0.2182986115
N  N31  1  0.66870000  0.16150000  0.68170000  1.0 -0.2182986115
N  N32  1  0.16150000  0.66870000  0.81830000  1.0 -0.2182986115
N  N33  1  0.24020000  0.64780000  0.42720000  1.0 -0.2283706985
N  N34  1  0.64780000  0.24020000  0.07280000  1.0 -0.2283706985
N  N35  1  0.75980000  0.35220000  0.57280000  1.0 -0.2283706985
N  N36  1  0.35220000  0.75980000  0.92720000  1.0 -0.2283706985
N  N37  1  0.41560000  0.87460000  0.42870000  1.0 -0.2182986115
N  N38  1  0.87460000  0.41560000  0.07130000  1.0 -0.2182986115
N  N39  1  0.58440000  0.12540000  0.57130000  1.0 -0.2182986115
N  N40  1  0.12540000  0.58440000  0.92870000  1.0 -0.2182986115
N  N41  1  0.48070000  0.84090000  0.40500000  1.0 -0.4819851679
N  N42  1  0.84090000  0.48070000  0.09500000  1.0 -0.4819851679
N  N43  1  0.51930000  0.15910000  0.59500000  1.0 -0.4819851679
N  N44  1  0.15910000  0.51930000  0.90500000  1.0 -0.4819851679
N  N45  1  0.20940000  0.11680000  0.92420000  1.0 0.1213100197
N  N46  1  0.11680000  0.20940000  0.57580000  1.0 0.1213100197
N  N47  1  0.79060000  0.88320000  0.07580000  1.0 0.1213100197
N  N48  1  0.88320000  0.79060000  0.42420000  1.0 0.1213100197
N  N49  1  0.11140000  0.21540000  0.58450000  1.0 0.0999651637
N  N50  1  0.21540000  0.11140000  0.91550000  1.0 0.0999651637
N  N51  1  0.88860000  0.78460000  0.41550000  1.0 0.0999651637
N  N52  1  0.78460000  0.88860000  0.08450000  1.0 0.0999651637
