# DDEC6 charges by PACMAN v1.1 (https://github.com/mtap-research/PACMAN-charge/)
data_EDUVEE_FSR_pacman
_symmetry_space_group_name_H-M   'P 1'
_cell_length_a   24.82170000
_cell_length_b   24.82170000
_cell_length_c   56.73400000
_cell_angle_alpha   90.00000000
_cell_angle_beta   90.00000000
_cell_angle_gamma   120.00000000
_symmetry_Int_Tables_number   1
_chemical_formula_structural   Zn8H24(C14O3)9
_chemical_formula_sum   'Zn48 H144 C756 O162'
_cell_volume   30271.71881587
_cell_formula_units_Z   6
loop_
 _symmetry_equiv_pos_site_id
 _symmetry_equiv_pos_as_xyz
  1  'x, y, z'
loop_
 _atom_site_type_symbol
 _atom_site_label
 _atom_site_symmetry_multiplicity
 _atom_site_fract_x
 _atom_site_fract_y
 _atom_site_fract_z
 _atom_site_occupancy
 _atom_site_charge
Zn  Zn1  1  0.66666667  0.33333333  0.96170000  1.0 0.9422971825
Zn  Zn2  1  0.33333333  0.66666667  0.62837000  1.0 0.9422971825
Zn  Zn3  1  0.00003000  0.99997000  0.29503000  1.0 0.9422971825
Zn  Zn4  1  0.70959000  0.41919000  0.00717000  1.0 0.9506156
Zn  Zn5  1  0.37626000  0.75252000  0.67384000  1.0 0.9506156
Zn  Zn6  1  0.04292000  0.08586000  0.34051000  1.0 0.9506156
Zn  Zn7  1  0.37627000  0.62374000  0.67384000  1.0 0.9506156
Zn  Zn8  1  0.58081000  0.29041000  0.00717000  1.0 0.9506156
Zn  Zn9  1  0.70959000  0.29041000  0.00717000  1.0 0.9506156
Zn  Zn10  1  0.91414000  0.95708000  0.34051000  1.0 0.9506156
Zn  Zn11  1  0.04292000  0.95708000  0.34051000  1.0 0.9506156
Zn  Zn12  1  0.24748000  0.62374000  0.67384000  1.0 0.9506156
Zn  Zn13  1  0.95844000  0.04156000  0.81740000  1.0 0.9228727407
Zn  Zn14  1  0.62511000  0.37489000  0.48407000  1.0 0.9228727407
Zn  Zn15  1  0.29177000  0.70823000  0.15073000  1.0 0.9228727407
Zn  Zn16  1  0.62511000  0.25021000  0.48407000  1.0 0.9228727407
Zn  Zn17  1  0.74979000  0.37489000  0.48407000  1.0 0.9228727407
Zn  Zn18  1  0.95844000  0.91688000  0.81740000  1.0 0.9228727407
Zn  Zn19  1  0.08312000  0.04156000  0.81740000  1.0 0.9228727407
Zn  Zn20  1  0.29177000  0.58355000  0.15073000  1.0 0.9228727407
Zn  Zn21  1  0.41645000  0.70823000  0.15073000  1.0 0.9228727407
Zn  Zn22  1  0.00000000  0.00000000  0.86537000  1.0 0.9709435622
Zn  Zn23  1  0.66666667  0.33333333  0.53204000  1.0 0.9709435622
Zn  Zn24  1  0.33333333  0.66666667  0.19870000  1.0 0.9709435622
Zn  Zn25  1  0.33333333  0.66666667  0.03830000  1.0 0.9422971825
Zn  Zn26  1  0.99997000  0.00003000  0.70497000  1.0 0.9422971825
Zn  Zn27  1  0.66666667  0.33333333  0.37163000  1.0 0.9422971825
Zn  Zn28  1  0.41919000  0.70959000  0.99283000  1.0 0.9506156
Zn  Zn29  1  0.29041000  0.70959000  0.99283000  1.0 0.9506156
Zn  Zn30  1  0.29041000  0.58081000  0.99283000  1.0 0.9506156
Zn  Zn31  1  0.08586000  0.04292000  0.65949000  1.0 0.9506156
Zn  Zn32  1  0.95708000  0.04292000  0.65949000  1.0 0.9506156
Zn  Zn33  1  0.95708000  0.91414000  0.65949000  1.0 0.9506156
Zn  Zn34  1  0.75252000  0.37626000  0.32616000  1.0 0.9506156
Zn  Zn35  1  0.62374000  0.37627000  0.32616000  1.0 0.9506156
Zn  Zn36  1  0.62374000  0.24748000  0.32616000  1.0 0.9506156
Zn  Zn37  1  0.04156000  0.95844000  0.18260000  1.0 0.9228727407
Zn  Zn38  1  0.04156000  0.08312000  0.18260000  1.0 0.9228727407
Zn  Zn39  1  0.91688000  0.95844000  0.18260000  1.0 0.9228727407
Zn  Zn40  1  0.70823000  0.29177000  0.84927000  1.0 0.9228727407
Zn  Zn41  1  0.70823000  0.41645000  0.84927000  1.0 0.9228727407
Zn  Zn42  1  0.58355000  0.29177000  0.84927000  1.0 0.9228727407
Zn  Zn43  1  0.37489000  0.62511000  0.51593000  1.0 0.9228727407
Zn  Zn44  1  0.25021000  0.62511000  0.51593000  1.0 0.9228727407
Zn  Zn45  1  0.37489000  0.74979000  0.51593000  1.0 0.9228727407
Zn  Zn46  1  0.00000000  0.00000000  0.13463000  1.0 0.9709435622
Zn  Zn47  1  0.66666667  0.33333333  0.80130000  1.0 0.9709435622
Zn  Zn48  1  0.33333333  0.66666667  0.46796000  1.0 0.9709435622
H  H1  1  0.74210000  0.25790000  0.91260000  1.0 0.1392574123
H  H2  1  0.40877000  0.59123000  0.57927000  1.0 0.1392574123
H  H3  1  0.07543000  0.92457000  0.24593000  1.0 0.1392574123
H  H4  1  0.40877000  0.81753000  0.57927000  1.0 0.1392574123
H  H5  1  0.18247000  0.59123000  0.57927000  1.0 0.1392574123
H  H6  1  0.74210000  0.48420000  0.91260000  1.0 0.1392574123
H  H7  1  0.51580000  0.25790000  0.91260000  1.0 0.1392574123
H  H8  1  0.07543000  0.15087000  0.24593000  1.0 0.1392574123
H  H9  1  0.84913000  0.92457000  0.24593000  1.0 0.1392574123
H  H10  1  0.79150000  0.20850000  0.97010000  1.0 0.1392574123
H  H11  1  0.45817000  0.54183000  0.63677000  1.0 0.1392574123
H  H12  1  0.12483000  0.87517000  0.30343000  1.0 0.1392574123
H  H13  1  0.45817000  0.91633000  0.63677000  1.0 0.1392574123
H  H14  1  0.08367000  0.54183000  0.63677000  1.0 0.1392574123
H  H15  1  0.79150000  0.58300000  0.97010000  1.0 0.1392574123
H  H16  1  0.41700000  0.20850000  0.97010000  1.0 0.1392574123
H  H17  1  0.12483000  0.24967000  0.30343000  1.0 0.1392574123
H  H18  1  0.75033000  0.87517000  0.30343000  1.0 0.1392574123
H  H19  1  0.92000000  0.08000000  0.90760000  1.0 0.1392574123
H  H20  1  0.58667000  0.41333000  0.57427000  1.0 0.1392574123
H  H21  1  0.25333000  0.74667000  0.24093000  1.0 0.1392574123
H  H22  1  0.58667000  0.17333000  0.57427000  1.0 0.1392574123
H  H23  1  0.82667000  0.41333000  0.57427000  1.0 0.1392574123
H  H24  1  0.92000000  0.84000000  0.90760000  1.0 0.1392574123
H  H25  1  0.16000000  0.08000000  0.90760000  1.0 0.1392574123
H  H26  1  0.25333000  0.50667000  0.24093000  1.0 0.1392574123
H  H27  1  0.49333000  0.74667000  0.24093000  1.0 0.1392574123
H  H28  1  0.87070000  0.12930000  0.85000000  1.0 0.1301251868
H  H29  1  0.53737000  0.46263000  0.51667000  1.0 0.1301251868
H  H30  1  0.20403000  0.79597000  0.18333000  1.0 0.1301251868
H  H31  1  0.53737000  0.07473000  0.51667000  1.0 0.1301251868
H  H32  1  0.92527000  0.46263000  0.51667000  1.0 0.1301251868
H  H33  1  0.87070000  0.74140000  0.85000000  1.0 0.1301251868
H  H34  1  0.25860000  0.12930000  0.85000000  1.0 0.1301251868
H  H35  1  0.20403000  0.40807000  0.18333000  1.0 0.1301251868
H  H36  1  0.59193000  0.79597000  0.18333000  1.0 0.1301251868
H  H37  1  0.87250000  0.51810000  0.04690000  1.0 0.1301251868
H  H38  1  0.53917000  0.85143000  0.71357000  1.0 0.1301251868
H  H39  1  0.20583000  0.18477000  0.38023000  1.0 0.1301251868
H  H40  1  0.53917000  0.68773000  0.71357000  1.0 0.1301251868
H  H41  1  0.31227000  0.85143000  0.71357000  1.0 0.1301251868
H  H42  1  0.48190000  0.12750000  0.04690000  1.0 0.1301251868
H  H43  1  0.87250000  0.35440000  0.04690000  1.0 0.1301251868
H  H44  1  0.64560000  0.51810000  0.04690000  1.0 0.1301251868
H  H45  1  0.81523000  0.79417000  0.38023000  1.0 0.1301251868
H  H46  1  0.20583000  0.02107000  0.38023000  1.0 0.1301251868
H  H47  1  0.97893000  0.18477000  0.38023000  1.0 0.1301251868
H  H48  1  0.14857000  0.46083000  0.71357000  1.0 0.1301251868
H  H49  1  0.64560000  0.12750000  0.04690000  1.0 0.1301251868
H  H50  1  0.48190000  0.35440000  0.04690000  1.0 0.1301251868
H  H51  1  0.97893000  0.79417000  0.38023000  1.0 0.1301251868
H  H52  1  0.81523000  0.02107000  0.38023000  1.0 0.1301251868
H  H53  1  0.31227000  0.46083000  0.71357000  1.0 0.1301251868
H  H54  1  0.14857000  0.68773000  0.71357000  1.0 0.1301251868
H  H55  1  0.13310000  0.64610000  0.10800000  1.0 0.1157637208
H  H56  1  0.79977000  0.97943000  0.77467000  1.0 0.1157637208
H  H57  1  0.46643000  0.31277000  0.44133000  1.0 0.1157637208
H  H58  1  0.79977000  0.82033000  0.77467000  1.0 0.1157637208
H  H59  1  0.17967000  0.97943000  0.77467000  1.0 0.1157637208
H  H60  1  0.35390000  0.86690000  0.10800000  1.0 0.1157637208
H  H61  1  0.13310000  0.48700000  0.10800000  1.0 0.1157637208
H  H62  1  0.51300000  0.64610000  0.10800000  1.0 0.1157637208
H  H63  1  0.68723000  0.53357000  0.44133000  1.0 0.1157637208
H  H64  1  0.46643000  0.15367000  0.44133000  1.0 0.1157637208
H  H65  1  0.84633000  0.31277000  0.44133000  1.0 0.1157637208
H  H66  1  0.02057000  0.20023000  0.77467000  1.0 0.1157637208
H  H67  1  0.51300000  0.86690000  0.10800000  1.0 0.1157637208
H  H68  1  0.35390000  0.48700000  0.10800000  1.0 0.1157637208
H  H69  1  0.84633000  0.53357000  0.44133000  1.0 0.1157637208
H  H70  1  0.68723000  0.15367000  0.44133000  1.0 0.1157637208
H  H71  1  0.17967000  0.20023000  0.77467000  1.0 0.1157637208
H  H72  1  0.02057000  0.82033000  0.77467000  1.0 0.1157637208
H  H73  1  0.25790000  0.74210000  0.08740000  1.0 0.1392574123
H  H74  1  0.25790000  0.51580000  0.08740000  1.0 0.1392574123
H  H75  1  0.48420000  0.74210000  0.08740000  1.0 0.1392574123
H  H76  1  0.92457000  0.07543000  0.75407000  1.0 0.1392574123
H  H77  1  0.92457000  0.84913000  0.75407000  1.0 0.1392574123
H  H78  1  0.15087000  0.07543000  0.75407000  1.0 0.1392574123
H  H79  1  0.59123000  0.40877000  0.42073000  1.0 0.1392574123
H  H80  1  0.81753000  0.40877000  0.42073000  1.0 0.1392574123
H  H81  1  0.59123000  0.18247000  0.42073000  1.0 0.1392574123
H  H82  1  0.20850000  0.79150000  0.02990000  1.0 0.1392574123
H  H83  1  0.20850000  0.41700000  0.02990000  1.0 0.1392574123
H  H84  1  0.58300000  0.79150000  0.02990000  1.0 0.1392574123
H  H85  1  0.87517000  0.12483000  0.69657000  1.0 0.1392574123
H  H86  1  0.87517000  0.75033000  0.69657000  1.0 0.1392574123
H  H87  1  0.24967000  0.12483000  0.69657000  1.0 0.1392574123
H  H88  1  0.54183000  0.45817000  0.36323000  1.0 0.1392574123
H  H89  1  0.91633000  0.45817000  0.36323000  1.0 0.1392574123
H  H90  1  0.54183000  0.08367000  0.36323000  1.0 0.1392574123
H  H91  1  0.08000000  0.92000000  0.09240000  1.0 0.1392574123
H  H92  1  0.08000000  0.16000000  0.09240000  1.0 0.1392574123
H  H93  1  0.84000000  0.92000000  0.09240000  1.0 0.1392574123
H  H94  1  0.74667000  0.25333000  0.75907000  1.0 0.1392574123
H  H95  1  0.74667000  0.49333000  0.75907000  1.0 0.1392574123
H  H96  1  0.50667000  0.25333000  0.75907000  1.0 0.1392574123
H  H97  1  0.41333000  0.58667000  0.42573000  1.0 0.1392574123
H  H98  1  0.17333000  0.58667000  0.42573000  1.0 0.1392574123
H  H99  1  0.41333000  0.82667000  0.42573000  1.0 0.1392574123
H  H100  1  0.12930000  0.87070000  0.15000000  1.0 0.1301251868
H  H101  1  0.12930000  0.25860000  0.15000000  1.0 0.1301251868
H  H102  1  0.74140000  0.87070000  0.15000000  1.0 0.1301251868
H  H103  1  0.79597000  0.20403000  0.81667000  1.0 0.1301251868
H  H104  1  0.79597000  0.59193000  0.81667000  1.0 0.1301251868
H  H105  1  0.40807000  0.20403000  0.81667000  1.0 0.1301251868
H  H106  1  0.46263000  0.53737000  0.48333000  1.0 0.1301251868
H  H107  1  0.07473000  0.53737000  0.48333000  1.0 0.1301251868
H  H108  1  0.46263000  0.92527000  0.48333000  1.0 0.1301251868
H  H109  1  0.51810000  0.87250000  0.95310000  1.0 0.1301251868
H  H110  1  0.12750000  0.64560000  0.95310000  1.0 0.1301251868
H  H111  1  0.35440000  0.48190000  0.95310000  1.0 0.1301251868
H  H112  1  0.18477000  0.20583000  0.61977000  1.0 0.1301251868
H  H113  1  0.79417000  0.97893000  0.61977000  1.0 0.1301251868
H  H114  1  0.02107000  0.81523000  0.61977000  1.0 0.1301251868
H  H115  1  0.85143000  0.53917000  0.28643000  1.0 0.1301251868
H  H116  1  0.35440000  0.87250000  0.95310000  1.0 0.1301251868
H  H117  1  0.51810000  0.64560000  0.95310000  1.0 0.1301251868
H  H118  1  0.02107000  0.20583000  0.61977000  1.0 0.1301251868
H  H119  1  0.18477000  0.97893000  0.61977000  1.0 0.1301251868
H  H120  1  0.68773000  0.53917000  0.28643000  1.0 0.1301251868
H  H121  1  0.85143000  0.31227000  0.28643000  1.0 0.1301251868
H  H122  1  0.12750000  0.48190000  0.95310000  1.0 0.1301251868
H  H123  1  0.46083000  0.14857000  0.28643000  1.0 0.1301251868
H  H124  1  0.79417000  0.81523000  0.61977000  1.0 0.1301251868
H  H125  1  0.46083000  0.31227000  0.28643000  1.0 0.1301251868
H  H126  1  0.68773000  0.14857000  0.28643000  1.0 0.1301251868
H  H127  1  0.64610000  0.13310000  0.89200000  1.0 0.1157637208
H  H128  1  0.86690000  0.51300000  0.89200000  1.0 0.1157637208
H  H129  1  0.48700000  0.35390000  0.89200000  1.0 0.1157637208
H  H130  1  0.31277000  0.46643000  0.55867000  1.0 0.1157637208
H  H131  1  0.53357000  0.84633000  0.55867000  1.0 0.1157637208
H  H132  1  0.15367000  0.68723000  0.55867000  1.0 0.1157637208
H  H133  1  0.97943000  0.79977000  0.22533000  1.0 0.1157637208
H  H134  1  0.48700000  0.13310000  0.89200000  1.0 0.1157637208
H  H135  1  0.64610000  0.51300000  0.89200000  1.0 0.1157637208
H  H136  1  0.15367000  0.46643000  0.55867000  1.0 0.1157637208
H  H137  1  0.31277000  0.84633000  0.55867000  1.0 0.1157637208
H  H138  1  0.82033000  0.79977000  0.22533000  1.0 0.1157637208
H  H139  1  0.97943000  0.17967000  0.22533000  1.0 0.1157637208
H  H140  1  0.86690000  0.35390000  0.89200000  1.0 0.1157637208
H  H141  1  0.20023000  0.02057000  0.22533000  1.0 0.1157637208
H  H142  1  0.53357000  0.68723000  0.55867000  1.0 0.1157637208
H  H143  1  0.20023000  0.17967000  0.22533000  1.0 0.1157637208
H  H144  1  0.82033000  0.02057000  0.22533000  1.0 0.1157637208
C  C1  1  0.76136000  0.23864000  0.92001000  1.0 -0.1207558341
C  C2  1  0.42803000  0.57197000  0.58668000  1.0 -0.1207558341
C  C3  1  0.09469000  0.90531000  0.25334000  1.0 -0.1207558341
C  C4  1  0.42803000  0.85605000  0.58668000  1.0 -0.1207558341
C  C5  1  0.14395000  0.57197000  0.58668000  1.0 -0.1207558341
C  C6  1  0.76136000  0.52272000  0.92001000  1.0 -0.1207558341
C  C7  1  0.47728000  0.23864000  0.92001000  1.0 -0.1207558341
C  C8  1  0.09469000  0.18939000  0.25334000  1.0 -0.1207558341
C  C9  1  0.81061000  0.90531000  0.25334000  1.0 -0.1207558341
C  C10  1  0.76250000  0.23750000  0.94300000  1.0 -0.0013477141
C  C11  1  0.42917000  0.57083000  0.60967000  1.0 -0.0013477141
C  C12  1  0.09583000  0.90417000  0.27633000  1.0 -0.0013477141
C  C13  1  0.42917000  0.85833000  0.60967000  1.0 -0.0013477141
C  C14  1  0.14167000  0.57083000  0.60967000  1.0 -0.0013477141
C  C15  1  0.76250000  0.52500000  0.94300000  1.0 -0.0013477141
C  C16  1  0.47500000  0.23750000  0.94300000  1.0 -0.0013477141
C  C17  1  0.09583000  0.19167000  0.27633000  1.0 -0.0013477141
C  C18  1  0.80833000  0.90417000  0.27633000  1.0 -0.0013477141
C  C19  1  0.79070000  0.20930000  0.95380000  1.0 -0.1207558341
C  C20  1  0.45737000  0.54263000  0.62047000  1.0 -0.1207558341
C  C21  1  0.12403000  0.87597000  0.28713000  1.0 -0.1207558341
C  C22  1  0.45737000  0.91473000  0.62047000  1.0 -0.1207558341
C  C23  1  0.08527000  0.54263000  0.62047000  1.0 -0.1207558341
C  C24  1  0.79070000  0.58140000  0.95380000  1.0 -0.1207558341
C  C25  1  0.41860000  0.20930000  0.95380000  1.0 -0.1207558341
C  C26  1  0.12403000  0.24807000  0.28713000  1.0 -0.1207558341
C  C27  1  0.75193000  0.87597000  0.28713000  1.0 -0.1207558341
C  C28  1  0.88620000  0.19060000  0.95000000  1.0 -0.1207558341
C  C29  1  0.55287000  0.52393000  0.61667000  1.0 -0.1261376203
C  C30  1  0.21953000  0.85727000  0.28333000  1.0 -0.1261376203
C  C31  1  0.55287000  0.02893000  0.61667000  1.0 -0.1207558341
C  C32  1  0.97107000  0.52393000  0.61667000  1.0 -0.1261376203
C  C33  1  0.80940000  0.11380000  0.95000000  1.0 -0.1207558341
C  C34  1  0.88620000  0.69560000  0.95000000  1.0 -0.1207558341
C  C35  1  0.30440000  0.19060000  0.95000000  1.0 -0.1207558341
C  C36  1  0.14273000  0.78047000  0.28333000  1.0 -0.1261376203
C  C37  1  0.21953000  0.36227000  0.28333000  1.0 -0.1261376203
C  C38  1  0.63773000  0.85727000  0.28333000  1.0 -0.1261376203
C  C39  1  0.47607000  0.44713000  0.61667000  1.0 -0.1261376203
C  C40  1  0.30440000  0.11380000  0.95000000  1.0 -0.1207558341
C  C41  1  0.80940000  0.69560000  0.95000000  1.0 -0.1207558341
C  C42  1  0.63773000  0.78047000  0.28333000  1.0 -0.1261376203
C  C43  1  0.14273000  0.36227000  0.28333000  1.0 -0.1261376203
C  C44  1  0.97107000  0.44713000  0.61667000  1.0 -0.1261376203
C  C45  1  0.47607000  0.02893000  0.61667000  1.0 -0.1207558341
C  C46  1  0.87220000  0.12780000  0.93960000  1.0 0.0695970922
C  C47  1  0.53887000  0.46113000  0.60627000  1.0 0.0695970922
C  C48  1  0.20553000  0.79447000  0.27293000  1.0 0.0695970922
C  C49  1  0.53887000  0.07773000  0.60627000  1.0 0.0695970922
C  C50  1  0.92227000  0.46113000  0.60627000  1.0 0.0695970922
C  C51  1  0.87220000  0.74440000  0.93960000  1.0 0.0695970922
C  C52  1  0.25560000  0.12780000  0.93960000  1.0 0.0695970922
C  C53  1  0.20553000  0.41107000  0.27293000  1.0 0.0695970922
C  C54  1  0.58893000  0.79447000  0.27293000  1.0 0.0695970922
C  C55  1  0.90090000  0.09910000  0.90000000  1.0 -0.1422864069
C  C56  1  0.56757000  0.43243000  0.56667000  1.0 -0.1422864069
C  C57  1  0.23423000  0.76577000  0.23333000  1.0 -0.1422864069
C  C58  1  0.56757000  0.13513000  0.56667000  1.0 -0.1422864069
C  C59  1  0.86487000  0.43243000  0.56667000  1.0 -0.1422864069
C  C60  1  0.90090000  0.80180000  0.90000000  1.0 -0.1422864069
C  C61  1  0.19820000  0.09910000  0.90000000  1.0 -0.1422864069
C  C62  1  0.23423000  0.46847000  0.23333000  1.0 -0.1422864069
C  C63  1  0.53153000  0.76577000  0.23333000  1.0 -0.1422864069
C  C64  1  0.89920000  0.10080000  0.87580000  1.0 -0.0074614052
C  C65  1  0.56587000  0.43413000  0.54247000  1.0 -0.0074614052
C  C66  1  0.23253000  0.76747000  0.20913000  1.0 -0.0074614052
C  C67  1  0.56587000  0.13173000  0.54247000  1.0 -0.0074614052
C  C68  1  0.86827000  0.43413000  0.54247000  1.0 -0.0074614052
C  C69  1  0.89920000  0.79840000  0.87580000  1.0 -0.0074614052
C  C70  1  0.20160000  0.10080000  0.87580000  1.0 -0.0074614052
C  C71  1  0.23253000  0.46507000  0.20913000  1.0 -0.0074614052
C  C72  1  0.53493000  0.76747000  0.20913000  1.0 -0.0074614052
C  C73  1  0.87240000  0.12760000  0.86627000  1.0 -0.1477813354
C  C74  1  0.53907000  0.46093000  0.53294000  1.0 -0.1477813354
C  C75  1  0.20573000  0.79427000  0.19960000  1.0 -0.1477813354
C  C76  1  0.53907000  0.07813000  0.53294000  1.0 -0.1477813354
C  C77  1  0.92187000  0.46093000  0.53294000  1.0 -0.1477813354
C  C78  1  0.87240000  0.74480000  0.86627000  1.0 -0.1477813354
C  C79  1  0.25520000  0.12760000  0.86627000  1.0 -0.1477813354
C  C80  1  0.20573000  0.41147000  0.19960000  1.0 -0.1477813354
C  C81  1  0.58853000  0.79427000  0.19960000  1.0 -0.1477813354
C  C82  1  0.84860000  0.21640000  0.87060000  1.0 -0.0013477141
C  C83  1  0.51527000  0.54973000  0.53727000  1.0 -0.0013477141
C  C84  1  0.18193000  0.88307000  0.20393000  1.0 -0.0013477141
C  C85  1  0.51527000  0.96553000  0.53727000  1.0 -0.0013477141
C  C86  1  0.03447000  0.54973000  0.53727000  1.0 -0.0013477141
C  C87  1  0.78360000  0.15140000  0.87060000  1.0 -0.0013477141
C  C88  1  0.84860000  0.63220000  0.87060000  1.0 -0.0013477141
C  C89  1  0.36780000  0.21640000  0.87060000  1.0 -0.0013477141
C  C90  1  0.11693000  0.81807000  0.20393000  1.0 -0.0013477141
C  C91  1  0.18193000  0.29887000  0.20393000  1.0 -0.0013477141
C  C92  1  0.70113000  0.88307000  0.20393000  1.0 -0.0013477141
C  C93  1  0.45027000  0.48473000  0.53727000  1.0 -0.0013477141
C  C94  1  0.36780000  0.15140000  0.87060000  1.0 -0.0013477141
C  C95  1  0.78360000  0.63220000  0.87060000  1.0 -0.0013477141
C  C96  1  0.70113000  0.81807000  0.20393000  1.0 -0.0013477141
C  C97  1  0.11693000  0.29887000  0.20393000  1.0 -0.0013477141
C  C98  1  0.03447000  0.48473000  0.53727000  1.0 -0.0013477141
C  C99  1  0.45027000  0.96553000  0.53727000  1.0 -0.0013477141
C  C100  1  0.78730000  0.21270000  0.87986000  1.0 0.0406814076
C  C101  1  0.45397000  0.54603000  0.54653000  1.0 0.0406814076
C  C102  1  0.12063000  0.87937000  0.21319000  1.0 0.0406814076
C  C103  1  0.45397000  0.90793000  0.54653000  1.0 0.0406814076
C  C104  1  0.09207000  0.54603000  0.54653000  1.0 0.0406814076
C  C105  1  0.78730000  0.57460000  0.87986000  1.0 0.0406814076
C  C106  1  0.42540000  0.21270000  0.87986000  1.0 0.0406814076
C  C107  1  0.12063000  0.24127000  0.21319000  1.0 0.0406814076
C  C108  1  0.75873000  0.87937000  0.21319000  1.0 0.0406814076
C  C109  1  0.78815000  0.21185000  0.90617000  1.0 0.051146246
C  C110  1  0.45482000  0.54518000  0.57284000  1.0 0.051146246
C  C111  1  0.12148000  0.87852000  0.23950000  1.0 0.051146246
C  C112  1  0.45482000  0.90963000  0.57284000  1.0 0.051146246
C  C113  1  0.09037000  0.54518000  0.57284000  1.0 0.051146246
C  C114  1  0.78815000  0.57630000  0.90617000  1.0 0.051146246
C  C115  1  0.42370000  0.21185000  0.90617000  1.0 0.051146246
C  C116  1  0.12148000  0.24297000  0.23950000  1.0 0.051146246
C  C117  1  0.75703000  0.87852000  0.23950000  1.0 0.051146246
C  C118  1  0.81670000  0.18330000  0.91686000  1.0 0.0016852272
C  C119  1  0.48337000  0.51663000  0.58353000  1.0 0.0016852272
C  C120  1  0.15003000  0.84997000  0.25019000  1.0 0.0016852272
C  C121  1  0.48337000  0.96673000  0.58353000  1.0 0.0016852272
C  C122  1  0.03327000  0.51663000  0.58353000  1.0 -0.0013477141
C  C123  1  0.81670000  0.63340000  0.91686000  1.0 0.0016852272
C  C124  1  0.36660000  0.18330000  0.91686000  1.0 0.0016852272
C  C125  1  0.15003000  0.30007000  0.25019000  1.0 0.0016852272
C  C126  1  0.69993000  0.84997000  0.25019000  1.0 -0.0013477141
C  C127  1  0.81890000  0.18110000  0.94090000  1.0 0.1001684379
C  C128  1  0.48557000  0.51443000  0.60757000  1.0 0.1001684379
C  C129  1  0.15223000  0.84777000  0.27423000  1.0 0.1001684379
C  C130  1  0.48557000  0.97113000  0.60757000  1.0 0.1001684379
C  C131  1  0.02887000  0.51443000  0.60757000  1.0 0.1001684379
C  C132  1  0.81890000  0.63780000  0.94090000  1.0 0.1001684379
C  C133  1  0.36220000  0.18110000  0.94090000  1.0 0.1001684379
C  C134  1  0.15223000  0.30447000  0.27423000  1.0 0.1001684379
C  C135  1  0.69553000  0.84777000  0.27423000  1.0 0.1001684379
C  C136  1  0.87270000  0.12730000  0.91300000  1.0 0.0279878948
C  C137  1  0.53937000  0.46063000  0.57967000  1.0 0.0279878948
C  C138  1  0.20603000  0.79397000  0.24633000  1.0 0.0279878948
C  C139  1  0.53937000  0.07873000  0.57967000  1.0 0.0279878948
C  C140  1  0.92127000  0.46063000  0.57967000  1.0 0.0279878948
C  C141  1  0.87270000  0.74540000  0.91300000  1.0 0.0279878948
C  C142  1  0.25460000  0.12730000  0.91300000  1.0 0.0279878948
C  C143  1  0.20603000  0.41207000  0.24633000  1.0 0.0279878948
C  C144  1  0.58793000  0.79397000  0.24633000  1.0 0.0279878948
C  C145  1  0.84530000  0.15470000  0.90230000  1.0 -0.0074614052
C  C146  1  0.51197000  0.48803000  0.56897000  1.0 -0.0074614052
C  C147  1  0.17863000  0.82137000  0.23563000  1.0 -0.0074614052
C  C148  1  0.51197000  0.02393000  0.56897000  1.0 -0.0074614052
C  C149  1  0.97607000  0.48803000  0.56897000  1.0 -0.0074614052
C  C150  1  0.84530000  0.69060000  0.90230000  1.0 -0.0074614052
C  C151  1  0.30940000  0.15470000  0.90230000  1.0 -0.0074614052
C  C152  1  0.17863000  0.35727000  0.23563000  1.0 -0.0074614052
C  C153  1  0.64273000  0.82137000  0.23563000  1.0 -0.0074614052
C  C154  1  0.84520000  0.15480000  0.88009000  1.0 0.0868928998
C  C155  1  0.51187000  0.48813000  0.54676000  1.0 0.0868928998
C  C156  1  0.17853000  0.82147000  0.21342000  1.0 0.0868928998
C  C157  1  0.51187000  0.02373000  0.54676000  1.0 0.0868928998
C  C158  1  0.97627000  0.48813000  0.54676000  1.0 0.0868928998
C  C159  1  0.84520000  0.69040000  0.88009000  1.0 0.0868928998
C  C160  1  0.30960000  0.15480000  0.88009000  1.0 0.0868928998
C  C161  1  0.17853000  0.35707000  0.21342000  1.0 0.0868928998
C  C162  1  0.64293000  0.82147000  0.21342000  1.0 0.0868928998
C  C163  1  0.73410000  0.26590000  0.95830000  1.0 0.6092861099
C  C164  1  0.40077000  0.59923000  0.62497000  1.0 0.6092861099
C  C165  1  0.06743000  0.93257000  0.29163000  1.0 0.6092861099
C  C166  1  0.40077000  0.80153000  0.62497000  1.0 0.6092861099
C  C167  1  0.19847000  0.59923000  0.62497000  1.0 0.6092861099
C  C168  1  0.73410000  0.46820000  0.95830000  1.0 0.6092861099
C  C169  1  0.53180000  0.26590000  0.95830000  1.0 0.6092861099
C  C170  1  0.06743000  0.13487000  0.29163000  1.0 0.6092861099
C  C171  1  0.86513000  0.93257000  0.29163000  1.0 0.6092861099
C  C172  1  0.92950000  0.07050000  0.86130000  1.0 0.585410279
C  C173  1  0.59617000  0.40383000  0.52797000  1.0 0.585410279
C  C174  1  0.26283000  0.73717000  0.19463000  1.0 0.585410279
C  C175  1  0.59617000  0.19233000  0.52797000  1.0 0.585410279
C  C176  1  0.80767000  0.40383000  0.52797000  1.0 0.585410279
C  C177  1  0.92950000  0.85900000  0.86130000  1.0 0.585410279
C  C178  1  0.14100000  0.07050000  0.86130000  1.0 0.585410279
C  C179  1  0.26283000  0.52567000  0.19463000  1.0 0.585410279
C  C180  1  0.47433000  0.73717000  0.19463000  1.0 0.585410279
C  C181  1  0.85870000  0.42930000  0.04810000  1.0 -0.0205330325
C  C182  1  0.52537000  0.76263000  0.71477000  1.0 -0.0205330325
C  C183  1  0.19203000  0.09597000  0.38143000  1.0 -0.0205330325
C  C184  1  0.23732000  0.76268000  0.71477000  1.0 -0.0205330325
C  C185  1  0.57070000  0.14130000  0.04810000  1.0 -0.0205330325
C  C186  1  0.57065000  0.42935000  0.04810000  1.0 -0.0205330325
C  C187  1  0.90403000  0.80797000  0.38143000  1.0 -0.0205330325
C  C188  1  0.90398000  0.09602000  0.38143000  1.0 -0.0205330325
C  C189  1  0.23737000  0.47463000  0.71477000  1.0 -0.0205330325
C  C190  1  0.88930000  0.49440000  0.05240000  1.0 -0.1422864069
C  C191  1  0.55597000  0.82773000  0.71907000  1.0 -0.1422864069
C  C192  1  0.22263000  0.16107000  0.38573000  1.0 -0.1422864069
C  C193  1  0.55597000  0.72823000  0.71907000  1.0 -0.1422864069
C  C194  1  0.27177000  0.82773000  0.71907000  1.0 -0.1422864069
C  C195  1  0.50560000  0.11070000  0.05240000  1.0 -0.1422864069
C  C196  1  0.88930000  0.39490000  0.05240000  1.0 -0.1422864069
C  C197  1  0.60510000  0.49440000  0.05240000  1.0 -0.1422864069
C  C198  1  0.83893000  0.77737000  0.38573000  1.0 -0.1422864069
C  C199  1  0.22263000  0.06157000  0.38573000  1.0 -0.1422864069
C  C200  1  0.93843000  0.16107000  0.38573000  1.0 -0.1422864069
C  C201  1  0.17227000  0.44403000  0.71907000  1.0 -0.1422864069
C  C202  1  0.60510000  0.11070000  0.05240000  1.0 -0.1422864069
C  C203  1  0.50560000  0.39490000  0.05240000  1.0 -0.1422864069
C  C204  1  0.93843000  0.77737000  0.38573000  1.0 -0.1422864069
C  C205  1  0.83893000  0.06157000  0.38573000  1.0 -0.1422864069
C  C206  1  0.27177000  0.44403000  0.71907000  1.0 -0.1422864069
C  C207  1  0.17227000  0.72823000  0.71907000  1.0 -0.1422864069
C  C208  1  0.94520000  0.52240000  0.06530000  1.0 0.1392574123
C  C209  1  0.61187000  0.85573000  0.73197000  1.0 0.1392574123
C  C210  1  0.27853000  0.18907000  0.39863000  1.0 0.1392574123
C  C211  1  0.61187000  0.75613000  0.73197000  1.0 0.1392574123
C  C212  1  0.24387000  0.85573000  0.73197000  1.0 0.1392574123
C  C213  1  0.47760000  0.05480000  0.06530000  1.0 0.1392574123
C  C214  1  0.94520000  0.42280000  0.06530000  1.0 0.1392574123
C  C215  1  0.57720000  0.52240000  0.06530000  1.0 0.1392574123
C  C216  1  0.81093000  0.72147000  0.39863000  1.0 0.1392574123
C  C217  1  0.27853000  0.08947000  0.39863000  1.0 0.1392574123
C  C218  1  0.91053000  0.18907000  0.39863000  1.0 0.1392574123
C  C219  1  0.14427000  0.38813000  0.73197000  1.0 0.1392574123
C  C220  1  0.57720000  0.05480000  0.06530000  1.0 0.1392574123
C  C221  1  0.47760000  0.42280000  0.06530000  1.0 0.1392574123
C  C222  1  0.91053000  0.72147000  0.39863000  1.0 0.1392574123
C  C223  1  0.81093000  0.08947000  0.39863000  1.0 0.1392574123
C  C224  1  0.24387000  0.38813000  0.73197000  1.0 0.1392574123
C  C225  1  0.14427000  0.75613000  0.73197000  1.0 0.1392574123
C  C226  1  0.96950000  0.48480000  0.07260000  1.0 -0.0361809316
C  C227  1  0.63617000  0.81813000  0.73927000  1.0 -0.0361809316
C  C228  1  0.30283000  0.15147000  0.40593000  1.0 -0.0361809316
C  C229  1  0.18192000  0.81808000  0.73927000  1.0 -0.0361809316
C  C230  1  0.51520000  0.03050000  0.07260000  1.0 -0.0361809316
C  C231  1  0.51525000  0.48475000  0.07260000  1.0 -0.0361809316
C  C232  1  0.84853000  0.69717000  0.40593000  1.0 -0.0361809316
C  C233  1  0.84858000  0.15142000  0.40593000  1.0 -0.0361809316
C  C234  1  0.18187000  0.36383000  0.73927000  1.0 -0.0361809316
C  C235  1  0.02790000  0.51400000  0.08670000  1.0 0.0180797428
C  C236  1  0.69457000  0.84733000  0.75337000  1.0 0.0180797428
C  C237  1  0.36123000  0.18067000  0.42003000  1.0 0.0180797428
C  C238  1  0.15272000  0.84728000  0.75337000  1.0 0.0180797428
C  C239  1  0.48600000  0.97210000  0.08670000  1.0 0.0180797428
C  C240  1  0.48605000  0.51395000  0.08670000  1.0 0.0180797428
C  C241  1  0.81933000  0.63877000  0.42003000  1.0 0.0180797428
C  C242  1  0.81938000  0.18062000  0.42003000  1.0 0.0180797428
C  C243  1  0.15267000  0.30543000  0.75337000  1.0 0.0180797428
C  C244  1  0.05700000  0.57780000  0.09190000  1.0 0.0695970922
C  C245  1  0.72367000  0.91113000  0.75857000  1.0 0.0695970922
C  C246  1  0.39033000  0.24447000  0.42523000  1.0 0.0695970922
C  C247  1  0.72367000  0.81253000  0.75857000  1.0 0.0695970922
C  C248  1  0.18747000  0.91113000  0.75857000  1.0 0.0695970922
C  C249  1  0.42220000  0.94300000  0.09190000  1.0 0.0695970922
C  C250  1  0.05700000  0.47920000  0.09190000  1.0 0.0695970922
C  C251  1  0.52080000  0.57780000  0.09190000  1.0 0.0695970922
C  C252  1  0.75553000  0.60967000  0.42523000  1.0 0.0695970922
C  C253  1  0.39033000  0.14587000  0.42523000  1.0 0.0695970922
C  C254  1  0.85413000  0.24447000  0.42523000  1.0 0.0695970922
C  C255  1  0.08887000  0.27633000  0.75857000  1.0 0.0695970922
C  C256  1  0.52080000  0.94300000  0.09190000  1.0 0.0695970922
C  C257  1  0.42220000  0.47920000  0.09190000  1.0 0.0695970922
C  C258  1  0.85413000  0.60967000  0.42523000  1.0 0.0695970922
C  C259  1  0.75553000  0.14587000  0.42523000  1.0 0.0695970922
C  C260  1  0.18747000  0.27633000  0.75857000  1.0 0.0695970922
C  C261  1  0.08887000  0.81253000  0.75857000  1.0 0.0695970922
C  C262  1  0.11280000  0.60380000  0.10444000  1.0 -0.1707600483
C  C263  1  0.77947000  0.93713000  0.77111000  1.0 -0.1707600483
C  C264  1  0.44613000  0.27047000  0.43777000  1.0 -0.1707600483
C  C265  1  0.77947000  0.84233000  0.77111000  1.0 -0.1707600483
C  C266  1  0.15767000  0.93713000  0.77111000  1.0 -0.1707600483
C  C267  1  0.39620000  0.88720000  0.10444000  1.0 -0.1707600483
C  C268  1  0.11280000  0.50900000  0.10444000  1.0 -0.1707600483
C  C269  1  0.49100000  0.60380000  0.10444000  1.0 -0.1707600483
C  C270  1  0.72953000  0.55387000  0.43777000  1.0 -0.1707600483
C  C271  1  0.44613000  0.17567000  0.43777000  1.0 -0.1707600483
C  C272  1  0.82433000  0.27047000  0.43777000  1.0 -0.1707600483
C  C273  1  0.06287000  0.22053000  0.77111000  1.0 -0.1707600483
C  C274  1  0.49100000  0.88720000  0.10444000  1.0 -0.1707600483
C  C275  1  0.39620000  0.50900000  0.10444000  1.0 -0.1707600483
C  C276  1  0.82433000  0.55387000  0.43777000  1.0 -0.1707600483
C  C277  1  0.72953000  0.17567000  0.43777000  1.0 -0.1707600483
C  C278  1  0.15767000  0.22053000  0.77111000  1.0 -0.1707600483
C  C279  1  0.06287000  0.84233000  0.77111000  1.0 -0.1707600483
C  C280  1  0.13820000  0.56910000  0.11150000  1.0 0.0016852272
C  C281  1  0.80487000  0.90243000  0.77817000  1.0 0.0016852272
C  C282  1  0.47153000  0.23577000  0.44483000  1.0 0.0016852272
C  C283  1  0.09757000  0.90243000  0.77817000  1.0 0.0016852272
C  C284  1  0.43090000  0.86180000  0.11150000  1.0 0.0016852272
C  C285  1  0.43090000  0.56910000  0.11150000  1.0 0.0016852272
C  C286  1  0.76423000  0.52847000  0.44483000  1.0 0.0016852272
C  C287  1  0.76423000  0.23577000  0.44483000  1.0 0.0016852272
C  C288  1  0.09757000  0.19513000  0.77817000  1.0 0.0016852272
C  C289  1  0.95780000  0.57100000  0.08560000  1.0 -0.0506173836
C  C290  1  0.62447000  0.90433000  0.75227000  1.0 -0.0506173836
C  C291  1  0.29113000  0.23767000  0.41893000  1.0 -0.0506173836
C  C292  1  0.62447000  0.72013000  0.75227000  1.0 -0.0506173836
C  C293  1  0.27987000  0.90433000  0.75227000  1.0 -0.0506173836
C  C294  1  0.42900000  0.04220000  0.08560000  1.0 -0.0506173836
C  C295  1  0.95780000  0.38680000  0.08560000  1.0 -0.0506173836
C  C296  1  0.61320000  0.57100000  0.08560000  1.0 -0.0506173836
C  C297  1  0.76233000  0.70887000  0.41893000  1.0 -0.0506173836
C  C298  1  0.29113000  0.05347000  0.41893000  1.0 -0.0506173836
C  C299  1  0.94653000  0.23767000  0.41893000  1.0 -0.0506173836
C  C300  1  0.09567000  0.37553000  0.75227000  1.0 -0.0506173836
C  C301  1  0.61320000  0.04220000  0.08560000  1.0 -0.0506173836
C  C302  1  0.42900000  0.38680000  0.08560000  1.0 -0.0506173836
C  C303  1  0.94653000  0.70887000  0.41893000  1.0 -0.0506173836
C  C304  1  0.76233000  0.05347000  0.41893000  1.0 -0.0506173836
C  C305  1  0.27987000  0.37553000  0.75227000  1.0 -0.0506173836
C  C306  1  0.09567000  0.72013000  0.75227000  1.0 -0.0506173836
C  C307  1  0.01400000  0.60400000  0.09050000  1.0 0.0016852272
C  C308  1  0.68067000  0.93733000  0.75717000  1.0 0.0016852272
C  C309  1  0.34733000  0.27067000  0.42383000  1.0 0.0016852272
C  C310  1  0.68067000  0.74333000  0.75717000  1.0 0.0016852272
C  C311  1  0.25667000  0.93733000  0.75717000  1.0 0.0016852272
C  C312  1  0.39600000  0.98600000  0.09050000  1.0 0.0016852272
C  C313  1  0.01400000  0.41000000  0.09050000  1.0 0.0016852272
C  C314  1  0.59000000  0.60400000  0.09050000  1.0 0.0016852272
C  C315  1  0.72933000  0.65267000  0.42383000  1.0 0.0016852272
C  C316  1  0.34733000  0.07667000  0.42383000  1.0 0.0016852272
C  C317  1  0.92333000  0.27067000  0.42383000  1.0 0.0016852272
C  C318  1  0.06267000  0.31933000  0.75717000  1.0 0.0016852272
C  C319  1  0.59000000  0.98600000  0.09050000  1.0 0.0016852272
C  C320  1  0.39600000  0.41000000  0.09050000  1.0 0.0016852272
C  C321  1  0.92333000  0.65267000  0.42383000  1.0 0.0016852272
C  C322  1  0.72933000  0.07667000  0.42383000  1.0 0.0016852272
C  C323  1  0.25667000  0.31933000  0.75717000  1.0 0.0016852272
C  C324  1  0.06267000  0.74333000  0.75717000  1.0 0.0016852272
C  C325  1  0.80120000  0.40060000  0.03240000  1.0 0.6092861099
C  C326  1  0.46787000  0.73393000  0.69907000  1.0 0.6092861099
C  C327  1  0.13453000  0.06727000  0.36573000  1.0 0.6092861099
C  C328  1  0.26607000  0.73393000  0.69907000  1.0 0.6092861099
C  C329  1  0.59940000  0.19880000  0.03240000  1.0 0.6092861099
C  C330  1  0.59940000  0.40060000  0.03240000  1.0 0.6092861099
C  C331  1  0.93273000  0.86547000  0.36573000  1.0 0.6092861099
C  C332  1  0.93273000  0.06727000  0.36573000  1.0 0.6092861099
C  C333  1  0.26607000  0.53213000  0.69907000  1.0 0.6092861099
C  C334  1  0.19770000  0.59880000  0.12616000  1.0 0.6009319246
C  C335  1  0.86437000  0.93213000  0.79283000  1.0 0.6009319246
C  C336  1  0.53103000  0.26547000  0.45949000  1.0 0.6009319246
C  C337  1  0.06782000  0.93218000  0.79283000  1.0 0.6009319246
C  C338  1  0.40120000  0.80230000  0.12616000  1.0 0.6009319246
C  C339  1  0.40115000  0.59885000  0.12616000  1.0 0.6009319246
C  C340  1  0.73453000  0.46897000  0.45949000  1.0 0.6009319246
C  C341  1  0.73448000  0.26552000  0.45949000  1.0 0.6009319246
C  C342  1  0.06787000  0.13563000  0.79283000  1.0 0.6009319246
C  C343  1  0.98560000  0.59320000  0.06610000  1.0 -0.0894088951
C  C344  1  0.65227000  0.92653000  0.73277000  1.0 -0.0894088951
C  C345  1  0.31893000  0.25987000  0.39943000  1.0 -0.0894088951
C  C346  1  0.65227000  0.72573000  0.73277000  1.0 -0.0894088951
C  C347  1  0.27427000  0.92653000  0.73277000  1.0 -0.0894088951
C  C348  1  0.40680000  0.01440000  0.06610000  1.0 -0.0894088951
C  C349  1  0.98560000  0.39240000  0.06610000  1.0 -0.0894088951
C  C350  1  0.60760000  0.59320000  0.06610000  1.0 -0.0894088951
C  C351  1  0.74013000  0.68107000  0.39943000  1.0 -0.0894088951
C  C352  1  0.31893000  0.05907000  0.39943000  1.0 -0.0894088951
C  C353  1  0.94093000  0.25987000  0.39943000  1.0 -0.0894088951
C  C354  1  0.07347000  0.34773000  0.73277000  1.0 -0.0894088951
C  C355  1  0.60760000  0.01440000  0.06610000  1.0 -0.0894088951
C  C356  1  0.40680000  0.39240000  0.06610000  1.0 -0.0894088951
C  C357  1  0.94093000  0.68107000  0.39943000  1.0 -0.0894088951
C  C358  1  0.74013000  0.05907000  0.39943000  1.0 -0.0894088951
C  C359  1  0.27427000  0.34773000  0.73277000  1.0 -0.0894088951
C  C360  1  0.07347000  0.72573000  0.73277000  1.0 -0.0894088951
C  C361  1  0.03320000  0.61550000  0.08100000  1.0 -0.0074614052
C  C362  1  0.69987000  0.94883000  0.74767000  1.0 -0.0074614052
C  C363  1  0.36653000  0.28217000  0.41433000  1.0 -0.0074614052
C  C364  1  0.69987000  0.75103000  0.74767000  1.0 -0.0074614052
C  C365  1  0.24897000  0.94883000  0.74767000  1.0 -0.0074614052
C  C366  1  0.38450000  0.96680000  0.08100000  1.0 -0.0074614052
C  C367  1  0.03320000  0.41770000  0.08100000  1.0 -0.0074614052
C  C368  1  0.58230000  0.61550000  0.08100000  1.0 -0.0074614052
C  C369  1  0.71783000  0.63347000  0.41433000  1.0 -0.0074614052
C  C370  1  0.36653000  0.08437000  0.41433000  1.0 -0.0074614052
C  C371  1  0.91563000  0.28217000  0.41433000  1.0 -0.0074614052
C  C372  1  0.05117000  0.30013000  0.74767000  1.0 -0.0074614052
C  C373  1  0.58230000  0.96680000  0.08100000  1.0 -0.0074614052
C  C374  1  0.38450000  0.41770000  0.08100000  1.0 -0.0074614052
C  C375  1  0.91563000  0.63347000  0.41433000  1.0 -0.0074614052
C  C376  1  0.71783000  0.08437000  0.41433000  1.0 -0.0074614052
C  C377  1  0.24897000  0.30013000  0.74767000  1.0 -0.0074614052
C  C378  1  0.05117000  0.75103000  0.74767000  1.0 -0.0074614052
C  C379  1  0.23864000  0.76136000  0.07999000  1.0 -0.1207558341
C  C380  1  0.23864000  0.47728000  0.07999000  1.0 -0.1207558341
C  C381  1  0.52272000  0.76136000  0.07999000  1.0 -0.1207558341
C  C382  1  0.90531000  0.09469000  0.74666000  1.0 -0.1207558341
C  C383  1  0.90531000  0.81061000  0.74666000  1.0 -0.1207558341
C  C384  1  0.18939000  0.09469000  0.74666000  1.0 -0.1207558341
C  C385  1  0.57197000  0.42803000  0.41332000  1.0 -0.1207558341
C  C386  1  0.85605000  0.42803000  0.41332000  1.0 -0.1207558341
C  C387  1  0.57197000  0.14395000  0.41332000  1.0 -0.1207558341
C  C388  1  0.23750000  0.76250000  0.05700000  1.0 -0.0013477141
C  C389  1  0.23750000  0.47500000  0.05700000  1.0 -0.0013477141
C  C390  1  0.52500000  0.76250000  0.05700000  1.0 -0.0013477141
C  C391  1  0.90417000  0.09583000  0.72367000  1.0 -0.0013477141
C  C392  1  0.90417000  0.80833000  0.72367000  1.0 -0.0013477141
C  C393  1  0.19167000  0.09583000  0.72367000  1.0 -0.0013477141
C  C394  1  0.57083000  0.42917000  0.39033000  1.0 -0.0013477141
C  C395  1  0.85833000  0.42917000  0.39033000  1.0 -0.0013477141
C  C396  1  0.57083000  0.14167000  0.39033000  1.0 -0.0013477141
C  C397  1  0.20930000  0.79070000  0.04620000  1.0 -0.1207558341
C  C398  1  0.20930000  0.41860000  0.04620000  1.0 -0.1207558341
C  C399  1  0.58140000  0.79070000  0.04620000  1.0 -0.1207558341
C  C400  1  0.87597000  0.12403000  0.71287000  1.0 -0.1207558341
C  C401  1  0.87597000  0.75193000  0.71287000  1.0 -0.1207558341
C  C402  1  0.24807000  0.12403000  0.71287000  1.0 -0.1207558341
C  C403  1  0.54263000  0.45737000  0.37953000  1.0 -0.1207558341
C  C404  1  0.91473000  0.45737000  0.37953000  1.0 -0.1207558341
C  C405  1  0.54263000  0.08527000  0.37953000  1.0 -0.1207558341
C  C406  1  0.19060000  0.88620000  0.05000000  1.0 -0.1261376203
C  C407  1  0.11380000  0.30440000  0.05000000  1.0 -0.1261376203
C  C408  1  0.69560000  0.80940000  0.05000000  1.0 -0.1261376203
C  C409  1  0.85727000  0.21953000  0.71667000  1.0 -0.1207558341
C  C410  1  0.78047000  0.63773000  0.71667000  1.0 -0.1207558341
C  C411  1  0.36227000  0.14273000  0.71667000  1.0 -0.1207558341
C  C412  1  0.52393000  0.55287000  0.38333000  1.0 -0.1261376203
C  C413  1  0.69560000  0.88620000  0.05000000  1.0 -0.1261376203
C  C414  1  0.19060000  0.30440000  0.05000000  1.0 -0.1261376203
C  C415  1  0.36227000  0.21953000  0.71667000  1.0 -0.1207558341
C  C416  1  0.85727000  0.63773000  0.71667000  1.0 -0.1207558341
C  C417  1  0.02893000  0.55287000  0.38333000  1.0 -0.1261376203
C  C418  1  0.52393000  0.97107000  0.38333000  1.0 -0.1261376203
C  C419  1  0.11380000  0.80940000  0.05000000  1.0 -0.1261376203
C  C420  1  0.44713000  0.47607000  0.38333000  1.0 -0.1261376203
C  C421  1  0.78047000  0.14273000  0.71667000  1.0 -0.1207558341
C  C422  1  0.44713000  0.97107000  0.38333000  1.0 -0.1261376203
C  C423  1  0.02893000  0.47607000  0.38333000  1.0 -0.1261376203
C  C424  1  0.12780000  0.87220000  0.06040000  1.0 0.0695970922
C  C425  1  0.12780000  0.25560000  0.06040000  1.0 0.0695970922
C  C426  1  0.74440000  0.87220000  0.06040000  1.0 0.0695970922
C  C427  1  0.79447000  0.20553000  0.72707000  1.0 0.0695970922
C  C428  1  0.79447000  0.58893000  0.72707000  1.0 0.0695970922
C  C429  1  0.41107000  0.20553000  0.72707000  1.0 0.0695970922
C  C430  1  0.46113000  0.53887000  0.39373000  1.0 0.0695970922
C  C431  1  0.07773000  0.53887000  0.39373000  1.0 0.0695970922
C  C432  1  0.46113000  0.92227000  0.39373000  1.0 0.0695970922
C  C433  1  0.09910000  0.90090000  0.10000000  1.0 -0.1422864069
C  C434  1  0.09910000  0.19820000  0.10000000  1.0 -0.1422864069
C  C435  1  0.80180000  0.90090000  0.10000000  1.0 -0.1422864069
C  C436  1  0.76577000  0.23423000  0.76667000  1.0 -0.1422864069
C  C437  1  0.76577000  0.53153000  0.76667000  1.0 -0.1422864069
C  C438  1  0.46847000  0.23423000  0.76667000  1.0 -0.1422864069
C  C439  1  0.43243000  0.56757000  0.43333000  1.0 -0.1422864069
C  C440  1  0.13513000  0.56757000  0.43333000  1.0 -0.1422864069
C  C441  1  0.43243000  0.86487000  0.43333000  1.0 -0.1422864069
C  C442  1  0.10080000  0.89920000  0.12420000  1.0 -0.0074614052
C  C443  1  0.10080000  0.20160000  0.12420000  1.0 -0.0074614052
C  C444  1  0.79840000  0.89920000  0.12420000  1.0 -0.0074614052
C  C445  1  0.76747000  0.23253000  0.79087000  1.0 -0.0074614052
C  C446  1  0.76747000  0.53493000  0.79087000  1.0 -0.0074614052
C  C447  1  0.46507000  0.23253000  0.79087000  1.0 -0.0074614052
C  C448  1  0.43413000  0.56587000  0.45753000  1.0 -0.0074614052
C  C449  1  0.13173000  0.56587000  0.45753000  1.0 -0.0074614052
C  C450  1  0.43413000  0.86827000  0.45753000  1.0 -0.0074614052
C  C451  1  0.12760000  0.87240000  0.13373000  1.0 -0.1477813354
C  C452  1  0.12760000  0.25520000  0.13373000  1.0 -0.1477813354
C  C453  1  0.74480000  0.87240000  0.13373000  1.0 -0.1477813354
C  C454  1  0.79427000  0.20573000  0.80040000  1.0 -0.1477813354
C  C455  1  0.79427000  0.58853000  0.80040000  1.0 -0.1477813354
C  C456  1  0.41147000  0.20573000  0.80040000  1.0 -0.1477813354
C  C457  1  0.46093000  0.53907000  0.46706000  1.0 -0.1477813354
C  C458  1  0.07813000  0.53907000  0.46706000  1.0 -0.1477813354
C  C459  1  0.46093000  0.92187000  0.46706000  1.0 -0.1477813354
C  C460  1  0.21640000  0.84860000  0.12940000  1.0 -0.0013477141
C  C461  1  0.15140000  0.36780000  0.12940000  1.0 -0.0013477141
C  C462  1  0.63220000  0.78360000  0.12940000  1.0 -0.0013477141
C  C463  1  0.88307000  0.18193000  0.79607000  1.0 -0.0013477141
C  C464  1  0.81807000  0.70113000  0.79607000  1.0 -0.0013477141
C  C465  1  0.29887000  0.11693000  0.79607000  1.0 -0.0013477141
C  C466  1  0.54973000  0.51527000  0.46273000  1.0 -0.0013477141
C  C467  1  0.63220000  0.84860000  0.12940000  1.0 -0.0013477141
C  C468  1  0.21640000  0.36780000  0.12940000  1.0 -0.0013477141
C  C469  1  0.29887000  0.18193000  0.79607000  1.0 -0.0013477141
C  C470  1  0.88307000  0.70113000  0.79607000  1.0 -0.0013477141
C  C471  1  0.96553000  0.51527000  0.46273000  1.0 -0.0013477141
C  C472  1  0.54973000  0.03447000  0.46273000  1.0 -0.0013477141
C  C473  1  0.15140000  0.78360000  0.12940000  1.0 -0.0013477141
C  C474  1  0.48473000  0.45027000  0.46273000  1.0 -0.0013477141
C  C475  1  0.81807000  0.11693000  0.79607000  1.0 -0.0013477141
C  C476  1  0.48473000  0.03447000  0.46273000  1.0 -0.0013477141
C  C477  1  0.96553000  0.45027000  0.46273000  1.0 -0.0013477141
C  C478  1  0.21270000  0.78730000  0.12014000  1.0 0.0406814076
C  C479  1  0.21270000  0.42540000  0.12014000  1.0 0.0406814076
C  C480  1  0.57460000  0.78730000  0.12014000  1.0 0.0406814076
C  C481  1  0.87937000  0.12063000  0.78681000  1.0 0.0406814076
C  C482  1  0.87937000  0.75873000  0.78681000  1.0 0.0406814076
C  C483  1  0.24127000  0.12063000  0.78681000  1.0 0.0406814076
C  C484  1  0.54603000  0.45397000  0.45347000  1.0 0.0406814076
C  C485  1  0.90793000  0.45397000  0.45347000  1.0 0.0406814076
C  C486  1  0.54603000  0.09207000  0.45347000  1.0 0.0406814076
C  C487  1  0.21185000  0.78815000  0.09383000  1.0 0.051146246
C  C488  1  0.21185000  0.42370000  0.09383000  1.0 0.051146246
C  C489  1  0.57630000  0.78815000  0.09383000  1.0 0.051146246
C  C490  1  0.87852000  0.12148000  0.76050000  1.0 0.051146246
C  C491  1  0.87852000  0.75703000  0.76050000  1.0 0.051146246
C  C492  1  0.24297000  0.12148000  0.76050000  1.0 0.051146246
C  C493  1  0.54518000  0.45482000  0.42716000  1.0 0.051146246
C  C494  1  0.90963000  0.45482000  0.42716000  1.0 0.051146246
C  C495  1  0.54518000  0.09037000  0.42716000  1.0 0.051146246
C  C496  1  0.18330000  0.81670000  0.08314000  1.0 -0.0013477141
C  C497  1  0.18330000  0.36660000  0.08314000  1.0 0.0016852272
C  C498  1  0.63340000  0.81670000  0.08314000  1.0 -0.0013477141
C  C499  1  0.84997000  0.15003000  0.74981000  1.0 0.0016852272
C  C500  1  0.84997000  0.69993000  0.74981000  1.0 0.0016852272
C  C501  1  0.30007000  0.15003000  0.74981000  1.0 0.0016852272
C  C502  1  0.51663000  0.48337000  0.41647000  1.0 0.0016852272
C  C503  1  0.96673000  0.48337000  0.41647000  1.0 0.0016852272
C  C504  1  0.51663000  0.03327000  0.41647000  1.0 -0.0013477141
C  C505  1  0.18110000  0.81890000  0.05910000  1.0 0.1001684379
C  C506  1  0.18110000  0.36220000  0.05910000  1.0 0.1001684379
C  C507  1  0.63780000  0.81890000  0.05910000  1.0 0.1001684379
C  C508  1  0.84777000  0.15223000  0.72577000  1.0 0.1001684379
C  C509  1  0.84777000  0.69553000  0.72577000  1.0 0.1001684379
C  C510  1  0.30447000  0.15223000  0.72577000  1.0 0.1001684379
C  C511  1  0.51443000  0.48557000  0.39243000  1.0 0.1001684379
C  C512  1  0.97113000  0.48557000  0.39243000  1.0 0.1001684379
C  C513  1  0.51443000  0.02887000  0.39243000  1.0 0.1001684379
C  C514  1  0.12730000  0.87270000  0.08700000  1.0 0.0279878948
C  C515  1  0.12730000  0.25460000  0.08700000  1.0 0.0279878948
C  C516  1  0.74540000  0.87270000  0.08700000  1.0 0.0279878948
C  C517  1  0.79397000  0.20603000  0.75367000  1.0 0.0279878948
C  C518  1  0.79397000  0.58793000  0.75367000  1.0 0.0279878948
C  C519  1  0.41207000  0.20603000  0.75367000  1.0 0.0279878948
C  C520  1  0.46063000  0.53937000  0.42033000  1.0 0.0279878948
C  C521  1  0.07873000  0.53937000  0.42033000  1.0 0.0279878948
C  C522  1  0.46063000  0.92127000  0.42033000  1.0 0.0279878948
C  C523  1  0.15470000  0.84530000  0.09770000  1.0 -0.0074614052
C  C524  1  0.15470000  0.30940000  0.09770000  1.0 -0.0074614052
C  C525  1  0.69060000  0.84530000  0.09770000  1.0 -0.0074614052
C  C526  1  0.82137000  0.17863000  0.76437000  1.0 -0.0074614052
C  C527  1  0.82137000  0.64273000  0.76437000  1.0 -0.0074614052
C  C528  1  0.35727000  0.17863000  0.76437000  1.0 -0.0074614052
C  C529  1  0.48803000  0.51197000  0.43103000  1.0 -0.0074614052
C  C530  1  0.02393000  0.51197000  0.43103000  1.0 -0.0074614052
C  C531  1  0.48803000  0.97607000  0.43103000  1.0 -0.0074614052
C  C532  1  0.15480000  0.84520000  0.11991000  1.0 0.0868928998
C  C533  1  0.15480000  0.30960000  0.11991000  1.0 0.0868928998
C  C534  1  0.69040000  0.84520000  0.11991000  1.0 0.0868928998
C  C535  1  0.82147000  0.17853000  0.78658000  1.0 0.0868928998
C  C536  1  0.82147000  0.64293000  0.78658000  1.0 0.0868928998
C  C537  1  0.35707000  0.17853000  0.78658000  1.0 0.0868928998
C  C538  1  0.48813000  0.51187000  0.45324000  1.0 0.0868928998
C  C539  1  0.02373000  0.51187000  0.45324000  1.0 0.0868928998
C  C540  1  0.48813000  0.97627000  0.45324000  1.0 0.0868928998
C  C541  1  0.26590000  0.73410000  0.04170000  1.0 0.6092861099
C  C542  1  0.26590000  0.53180000  0.04170000  1.0 0.6092861099
C  C543  1  0.46820000  0.73410000  0.04170000  1.0 0.6092861099
C  C544  1  0.93257000  0.06743000  0.70837000  1.0 0.6092861099
C  C545  1  0.93257000  0.86513000  0.70837000  1.0 0.6092861099
C  C546  1  0.13487000  0.06743000  0.70837000  1.0 0.6092861099
C  C547  1  0.59923000  0.40077000  0.37503000  1.0 0.6092861099
C  C548  1  0.80153000  0.40077000  0.37503000  1.0 0.6092861099
C  C549  1  0.59923000  0.19847000  0.37503000  1.0 0.6092861099
C  C550  1  0.07050000  0.92950000  0.13870000  1.0 0.585410279
C  C551  1  0.07050000  0.14100000  0.13870000  1.0 0.585410279
C  C552  1  0.85900000  0.92950000  0.13870000  1.0 0.585410279
C  C553  1  0.73717000  0.26283000  0.80537000  1.0 0.585410279
C  C554  1  0.73717000  0.47433000  0.80537000  1.0 0.585410279
C  C555  1  0.52567000  0.26283000  0.80537000  1.0 0.585410279
C  C556  1  0.40383000  0.59617000  0.47203000  1.0 0.585410279
C  C557  1  0.19233000  0.59617000  0.47203000  1.0 0.585410279
C  C558  1  0.40383000  0.80767000  0.47203000  1.0 0.585410279
C  C559  1  0.42930000  0.85870000  0.95190000  1.0 -0.0205330325
C  C560  1  0.14130000  0.57070000  0.95190000  1.0 -0.0205330325
C  C561  1  0.42935000  0.57065000  0.95190000  1.0 -0.0205330325
C  C562  1  0.09597000  0.19203000  0.61857000  1.0 -0.0205330325
C  C563  1  0.80797000  0.90403000  0.61857000  1.0 -0.0205330325
C  C564  1  0.09602000  0.90398000  0.61857000  1.0 -0.0205330325
C  C565  1  0.76263000  0.52537000  0.28523000  1.0 -0.0205330325
C  C566  1  0.76268000  0.23732000  0.28523000  1.0 -0.0205330325
C  C567  1  0.47463000  0.23737000  0.28523000  1.0 -0.0205330325
C  C568  1  0.49440000  0.88930000  0.94760000  1.0 -0.1422864069
C  C569  1  0.11070000  0.60510000  0.94760000  1.0 -0.1422864069
C  C570  1  0.39490000  0.50560000  0.94760000  1.0 -0.1422864069
C  C571  1  0.16107000  0.22263000  0.61427000  1.0 -0.1422864069
C  C572  1  0.77737000  0.93843000  0.61427000  1.0 -0.1422864069
C  C573  1  0.06157000  0.83893000  0.61427000  1.0 -0.1422864069
C  C574  1  0.82773000  0.55597000  0.28093000  1.0 -0.1422864069
C  C575  1  0.39490000  0.88930000  0.94760000  1.0 -0.1422864069
C  C576  1  0.49440000  0.60510000  0.94760000  1.0 -0.1422864069
C  C577  1  0.06157000  0.22263000  0.61427000  1.0 -0.1422864069
C  C578  1  0.16107000  0.93843000  0.61427000  1.0 -0.1422864069
C  C579  1  0.72823000  0.55597000  0.28093000  1.0 -0.1422864069
C  C580  1  0.82773000  0.27177000  0.28093000  1.0 -0.1422864069
C  C581  1  0.11070000  0.50560000  0.94760000  1.0 -0.1422864069
C  C582  1  0.44403000  0.17227000  0.28093000  1.0 -0.1422864069
C  C583  1  0.77737000  0.83893000  0.61427000  1.0 -0.1422864069
C  C584  1  0.44403000  0.27177000  0.28093000  1.0 -0.1422864069
C  C585  1  0.72823000  0.17227000  0.28093000  1.0 -0.1422864069
C  C586  1  0.52240000  0.94520000  0.93470000  1.0 0.1392574123
C  C587  1  0.05480000  0.57720000  0.93470000  1.0 0.1392574123
C  C588  1  0.42280000  0.47760000  0.93470000  1.0 0.1392574123
C  C589  1  0.18907000  0.27853000  0.60137000  1.0 0.1392574123
C  C590  1  0.72147000  0.91053000  0.60137000  1.0 0.1392574123
C  C591  1  0.08947000  0.81093000  0.60137000  1.0 0.1392574123
C  C592  1  0.85573000  0.61187000  0.26803000  1.0 0.1392574123
C  C593  1  0.42280000  0.94520000  0.93470000  1.0 0.1392574123
C  C594  1  0.52240000  0.57720000  0.93470000  1.0 0.1392574123
C  C595  1  0.08947000  0.27853000  0.60137000  1.0 0.1392574123
C  C596  1  0.18907000  0.91053000  0.60137000  1.0 0.1392574123
C  C597  1  0.75613000  0.61187000  0.26803000  1.0 0.1392574123
C  C598  1  0.85573000  0.24387000  0.26803000  1.0 0.1392574123
C  C599  1  0.05480000  0.47760000  0.93470000  1.0 0.1392574123
C  C600  1  0.38813000  0.14427000  0.26803000  1.0 0.1392574123
C  C601  1  0.72147000  0.81093000  0.60137000  1.0 0.1392574123
C  C602  1  0.38813000  0.24387000  0.26803000  1.0 0.1392574123
C  C603  1  0.75613000  0.14427000  0.26803000  1.0 0.1392574123
C  C604  1  0.48480000  0.96950000  0.92740000  1.0 -0.0361809316
C  C605  1  0.03050000  0.51520000  0.92740000  1.0 -0.0361809316
C  C606  1  0.48475000  0.51525000  0.92740000  1.0 -0.0361809316
C  C607  1  0.15147000  0.30283000  0.59407000  1.0 -0.0361809316
C  C608  1  0.69717000  0.84853000  0.59407000  1.0 -0.0361809316
C  C609  1  0.15142000  0.84858000  0.59407000  1.0 -0.0361809316
C  C610  1  0.81813000  0.63617000  0.26073000  1.0 -0.0344718781
C  C611  1  0.81808000  0.18192000  0.26073000  1.0 -0.0344718781
C  C612  1  0.36383000  0.18187000  0.26073000  1.0 -0.0361809316
C  C613  1  0.51400000  0.02790000  0.91330000  1.0 0.0180797428
C  C614  1  0.97210000  0.48600000  0.91330000  1.0 0.0180797428
C  C615  1  0.51395000  0.48605000  0.91330000  1.0 0.0180797428
C  C616  1  0.18067000  0.36123000  0.57997000  1.0 0.0180797428
C  C617  1  0.63877000  0.81933000  0.57997000  1.0 0.0180797428
C  C618  1  0.18062000  0.81938000  0.57997000  1.0 0.0180797428
C  C619  1  0.84733000  0.69457000  0.24663000  1.0 0.0180797428
C  C620  1  0.84728000  0.15272000  0.24663000  1.0 0.0180797428
C  C621  1  0.30543000  0.15267000  0.24663000  1.0 0.0180797428
C  C622  1  0.57780000  0.05700000  0.90810000  1.0 0.0695970922
C  C623  1  0.94300000  0.52080000  0.90810000  1.0 0.0695970922
C  C624  1  0.47920000  0.42220000  0.90810000  1.0 0.0695970922
C  C625  1  0.24447000  0.39033000  0.57477000  1.0 0.0695970922
C  C626  1  0.60967000  0.85413000  0.57477000  1.0 0.0695970922
C  C627  1  0.14587000  0.75553000  0.57477000  1.0 0.0695970922
C  C628  1  0.91113000  0.72367000  0.24143000  1.0 0.0695970922
C  C629  1  0.47920000  0.05700000  0.90810000  1.0 0.0695970922
C  C630  1  0.57780000  0.52080000  0.90810000  1.0 0.0695970922
C  C631  1  0.14587000  0.39033000  0.57477000  1.0 0.0695970922
C  C632  1  0.24447000  0.85413000  0.57477000  1.0 0.0695970922
C  C633  1  0.81253000  0.72367000  0.24143000  1.0 0.0695970922
C  C634  1  0.91113000  0.18747000  0.24143000  1.0 0.0695970922
C  C635  1  0.94300000  0.42220000  0.90810000  1.0 0.0695970922
C  C636  1  0.27633000  0.08887000  0.24143000  1.0 0.0695970922
C  C637  1  0.60967000  0.75553000  0.57477000  1.0 0.0695970922
C  C638  1  0.27633000  0.18747000  0.24143000  1.0 0.0695970922
C  C639  1  0.81253000  0.08887000  0.24143000  1.0 0.0695970922
C  C640  1  0.60380000  0.11280000  0.89556000  1.0 -0.1707600483
C  C641  1  0.88720000  0.49100000  0.89556000  1.0 -0.1707600483
C  C642  1  0.50900000  0.39620000  0.89556000  1.0 -0.1707600483
C  C643  1  0.27047000  0.44613000  0.56223000  1.0 -0.1707600483
C  C644  1  0.55387000  0.82433000  0.56223000  1.0 -0.1707600483
C  C645  1  0.17567000  0.72953000  0.56223000  1.0 -0.1707600483
C  C646  1  0.93713000  0.77947000  0.22889000  1.0 -0.1707600483
C  C647  1  0.50900000  0.11280000  0.89556000  1.0 -0.1707600483
C  C648  1  0.60380000  0.49100000  0.89556000  1.0 -0.1707600483
C  C649  1  0.17567000  0.44613000  0.56223000  1.0 -0.1707600483
C  C650  1  0.27047000  0.82433000  0.56223000  1.0 -0.1707600483
C  C651  1  0.84233000  0.77947000  0.22889000  1.0 -0.1707600483
C  C652  1  0.93713000  0.15767000  0.22889000  1.0 -0.1707600483
C  C653  1  0.88720000  0.39620000  0.89556000  1.0 -0.1707600483
C  C654  1  0.22053000  0.06287000  0.22889000  1.0 -0.1707600483
C  C655  1  0.55387000  0.72953000  0.56223000  1.0 -0.1707600483
C  C656  1  0.22053000  0.15767000  0.22889000  1.0 -0.1707600483
C  C657  1  0.84233000  0.06287000  0.22889000  1.0 -0.1707600483
C  C658  1  0.56910000  0.13820000  0.88850000  1.0 0.0016852272
C  C659  1  0.86180000  0.43090000  0.88850000  1.0 0.0016852272
C  C660  1  0.56910000  0.43090000  0.88850000  1.0 0.0016852272
C  C661  1  0.23577000  0.47153000  0.55517000  1.0 0.0016852272
C  C662  1  0.52847000  0.76423000  0.55517000  1.0 0.0016852272
C  C663  1  0.23577000  0.76423000  0.55517000  1.0 0.0016852272
C  C664  1  0.90243000  0.80487000  0.22183000  1.0 0.0016852272
C  C665  1  0.90243000  0.09757000  0.22183000  1.0 0.0016852272
C  C666  1  0.19513000  0.09757000  0.22183000  1.0 0.0016852272
C  C667  1  0.57100000  0.95780000  0.91440000  1.0 -0.0506173836
C  C668  1  0.04220000  0.61320000  0.91440000  1.0 -0.0506173836
C  C669  1  0.38680000  0.42900000  0.91440000  1.0 -0.0506173836
C  C670  1  0.23767000  0.29113000  0.58107000  1.0 -0.0506173836
C  C671  1  0.70887000  0.94653000  0.58107000  1.0 -0.0506173836
C  C672  1  0.05347000  0.76233000  0.58107000  1.0 -0.0506173836
C  C673  1  0.90433000  0.62447000  0.24773000  1.0 -0.0506173836
C  C674  1  0.38680000  0.95780000  0.91440000  1.0 -0.0506173836
C  C675  1  0.57100000  0.61320000  0.91440000  1.0 -0.0506173836
C  C676  1  0.05347000  0.29113000  0.58107000  1.0 -0.0506173836
C  C677  1  0.23767000  0.94653000  0.58107000  1.0 -0.0506173836
C  C678  1  0.72013000  0.62447000  0.24773000  1.0 -0.0506173836
C  C679  1  0.90433000  0.27987000  0.24773000  1.0 -0.0506173836
C  C680  1  0.04220000  0.42900000  0.91440000  1.0 -0.0506173836
C  C681  1  0.37553000  0.09567000  0.24773000  1.0 -0.0506173836
C  C682  1  0.70887000  0.76233000  0.58107000  1.0 -0.0506173836
C  C683  1  0.37553000  0.27987000  0.24773000  1.0 -0.0506173836
C  C684  1  0.72013000  0.09567000  0.24773000  1.0 -0.0506173836
C  C685  1  0.60400000  0.01400000  0.90950000  1.0 0.0016852272
C  C686  1  0.98600000  0.59000000  0.90950000  1.0 0.0016852272
C  C687  1  0.41000000  0.39600000  0.90950000  1.0 0.0016852272
C  C688  1  0.27067000  0.34733000  0.57617000  1.0 0.0016852272
C  C689  1  0.65267000  0.92333000  0.57617000  1.0 0.0016852272
C  C690  1  0.07667000  0.72933000  0.57617000  1.0 0.0016852272
C  C691  1  0.93733000  0.68067000  0.24283000  1.0 0.0016852272
C  C692  1  0.41000000  0.01400000  0.90950000  1.0 0.0016852272
C  C693  1  0.60400000  0.59000000  0.90950000  1.0 0.0016852272
C  C694  1  0.07667000  0.34733000  0.57617000  1.0 0.0016852272
C  C695  1  0.27067000  0.92333000  0.57617000  1.0 0.0016852272
C  C696  1  0.74333000  0.68067000  0.24283000  1.0 0.0016852272
C  C697  1  0.93733000  0.25667000  0.24283000  1.0 0.0016852272
C  C698  1  0.98600000  0.39600000  0.90950000  1.0 0.0016852272
C  C699  1  0.31933000  0.06267000  0.24283000  1.0 0.0016852272
C  C700  1  0.65267000  0.72933000  0.57617000  1.0 0.0016852272
C  C701  1  0.31933000  0.25667000  0.24283000  1.0 0.0016852272
C  C702  1  0.74333000  0.06267000  0.24283000  1.0 0.0016852272
C  C703  1  0.40060000  0.80120000  0.96760000  1.0 0.6092861099
C  C704  1  0.19880000  0.59940000  0.96760000  1.0 0.6092861099
C  C705  1  0.40060000  0.59940000  0.96760000  1.0 0.6092861099
C  C706  1  0.06727000  0.13453000  0.63427000  1.0 0.6092861099
C  C707  1  0.86547000  0.93273000  0.63427000  1.0 0.6092861099
C  C708  1  0.06727000  0.93273000  0.63427000  1.0 0.6092861099
C  C709  1  0.73393000  0.46787000  0.30093000  1.0 0.6092861099
C  C710  1  0.73393000  0.26607000  0.30093000  1.0 0.6092861099
C  C711  1  0.53213000  0.26607000  0.30093000  1.0 0.6092861099
C  C712  1  0.59880000  0.19770000  0.87384000  1.0 0.6009319246
C  C713  1  0.80230000  0.40120000  0.87384000  1.0 0.6009319246
C  C714  1  0.59885000  0.40115000  0.87384000  1.0 0.6009319246
C  C715  1  0.26547000  0.53103000  0.54051000  1.0 0.6009319246
C  C716  1  0.46897000  0.73453000  0.54051000  1.0 0.6009319246
C  C717  1  0.26552000  0.73448000  0.54051000  1.0 0.6009319246
C  C718  1  0.93213000  0.86437000  0.20717000  1.0 0.6009319246
C  C719  1  0.93218000  0.06782000  0.20717000  1.0 0.6009319246
C  C720  1  0.13563000  0.06787000  0.20717000  1.0 0.6009319246
C  C721  1  0.59320000  0.98560000  0.93390000  1.0 -0.0894088951
C  C722  1  0.01440000  0.60760000  0.93390000  1.0 -0.0894088951
C  C723  1  0.39240000  0.40680000  0.93390000  1.0 -0.0894088951
C  C724  1  0.25987000  0.31893000  0.60057000  1.0 -0.0894088951
C  C725  1  0.68107000  0.94093000  0.60057000  1.0 -0.0894088951
C  C726  1  0.05907000  0.74013000  0.60057000  1.0 -0.0894088951
C  C727  1  0.92653000  0.65227000  0.26723000  1.0 -0.0894088951
C  C728  1  0.39240000  0.98560000  0.93390000  1.0 -0.0894088951
C  C729  1  0.59320000  0.60760000  0.93390000  1.0 -0.0894088951
C  C730  1  0.05907000  0.31893000  0.60057000  1.0 -0.0894088951
C  C731  1  0.25987000  0.94093000  0.60057000  1.0 -0.0894088951
C  C732  1  0.72573000  0.65227000  0.26723000  1.0 -0.0894088951
C  C733  1  0.92653000  0.27427000  0.26723000  1.0 -0.0894088951
C  C734  1  0.01440000  0.40680000  0.93390000  1.0 -0.0894088951
C  C735  1  0.34773000  0.07347000  0.26723000  1.0 -0.0894088951
C  C736  1  0.68107000  0.74013000  0.60057000  1.0 -0.0894088951
C  C737  1  0.34773000  0.27427000  0.26723000  1.0 -0.0894088951
C  C738  1  0.72573000  0.07347000  0.26723000  1.0 -0.0894088951
C  C739  1  0.61550000  0.03320000  0.91900000  1.0 -0.0074614052
C  C740  1  0.96680000  0.58230000  0.91900000  1.0 -0.0074614052
C  C741  1  0.41770000  0.38450000  0.91900000  1.0 -0.0074614052
C  C742  1  0.28217000  0.36653000  0.58567000  1.0 -0.0074614052
C  C743  1  0.63347000  0.91563000  0.58567000  1.0 -0.0074614052
C  C744  1  0.08437000  0.71783000  0.58567000  1.0 -0.0074614052
C  C745  1  0.94883000  0.69987000  0.25233000  1.0 -0.0074614052
C  C746  1  0.41770000  0.03320000  0.91900000  1.0 -0.0074614052
C  C747  1  0.61550000  0.58230000  0.91900000  1.0 -0.0074614052
C  C748  1  0.08437000  0.36653000  0.58567000  1.0 -0.0074614052
C  C749  1  0.28217000  0.91563000  0.58567000  1.0 -0.0074614052
C  C750  1  0.75103000  0.69987000  0.25233000  1.0 -0.0074614052
C  C751  1  0.94883000  0.24897000  0.25233000  1.0 -0.0074614052
C  C752  1  0.96680000  0.38450000  0.91900000  1.0 -0.0074614052
C  C753  1  0.30013000  0.05117000  0.25233000  1.0 -0.0074614052
C  C754  1  0.63347000  0.71783000  0.58567000  1.0 -0.0074614052
C  C755  1  0.30013000  0.24897000  0.25233000  1.0 -0.0074614052
C  C756  1  0.75103000  0.05117000  0.25233000  1.0 -0.0074614052
O  O1  1  0.66666667  0.33333333  0.99559000  1.0 -1.0390334109
O  O2  1  0.33333333  0.66666667  0.66226000  1.0 -1.0390334109
O  O3  1  0.00003000  0.99997000  0.32892000  1.0 -1.0390334109
O  O4  1  0.00000000  0.00000000  0.82952000  1.0 -1.0325118482
O  O5  1  0.66666667  0.33333333  0.49619000  1.0 -1.0325118482
O  O6  1  0.33333333  0.66666667  0.16285000  1.0 -1.0325118482
O  O7  1  0.70821000  0.29179000  0.94794000  1.0 -0.5321069705
O  O8  1  0.37488000  0.62512000  0.61461000  1.0 -0.5321069705
O  O9  1  0.04154000  0.95846000  0.28127000  1.0 -0.5321069705
O  O10  1  0.37488000  0.74975000  0.61461000  1.0 -0.5321069705
O  O11  1  0.25025000  0.62512000  0.61461000  1.0 -0.5321069705
O  O12  1  0.70821000  0.41642000  0.94794000  1.0 -0.5321069705
O  O13  1  0.58358000  0.29179000  0.94794000  1.0 -0.5321069705
O  O14  1  0.04154000  0.08309000  0.28127000  1.0 -0.5321069705
O  O15  1  0.91691000  0.95846000  0.28127000  1.0 -0.5321069705
O  O16  1  0.73735000  0.26266000  0.98047000  1.0 -0.5476773163
O  O17  1  0.40401000  0.59598000  0.64714000  1.0 -0.5476773163
O  O18  1  0.07067000  0.92932000  0.31380000  1.0 -0.5476773163
O  O19  1  0.40401000  0.80802000  0.64714000  1.0 -0.5476773163
O  O20  1  0.19198000  0.59599000  0.64714000  1.0 -0.5476773163
O  O21  1  0.73734000  0.47469000  0.98047000  1.0 -0.5476773163
O  O22  1  0.52531000  0.26266000  0.98047000  1.0 -0.5476773163
O  O23  1  0.07067000  0.14136000  0.31380000  1.0 -0.5476773163
O  O24  1  0.85864000  0.92933000  0.31380000  1.0 -0.5476773163
O  O25  1  0.92476000  0.07524000  0.83979000  1.0 -0.5208246092
O  O26  1  0.59143000  0.40857000  0.50646000  1.0 -0.5208246092
O  O27  1  0.25809000  0.74191000  0.17312000  1.0 -0.5208246092
O  O28  1  0.59143000  0.18285000  0.50646000  1.0 -0.5208246092
O  O29  1  0.81715000  0.40857000  0.50646000  1.0 -0.5208246092
O  O30  1  0.92476000  0.84952000  0.83979000  1.0 -0.5208246092
O  O31  1  0.15048000  0.07524000  0.83979000  1.0 -0.5208246092
O  O32  1  0.25809000  0.51619000  0.17312000  1.0 -0.5208246092
O  O33  1  0.48381000  0.74191000  0.17312000  1.0 -0.5208246092
O  O34  1  0.95390000  0.04610000  0.87100000  1.0 -0.480657352
O  O35  1  0.62057000  0.37943000  0.53767000  1.0 -0.480657352
O  O36  1  0.28723000  0.71277000  0.20433000  1.0 -0.480657352
O  O37  1  0.62057000  0.24113000  0.53767000  1.0 -0.480657352
O  O38  1  0.75887000  0.37943000  0.53767000  1.0 -0.480657352
O  O39  1  0.95390000  0.90780000  0.87100000  1.0 -0.480657352
O  O40  1  0.09220000  0.04610000  0.87100000  1.0 -0.480657352
O  O41  1  0.28723000  0.57447000  0.20433000  1.0 -0.480657352
O  O42  1  0.42553000  0.71277000  0.20433000  1.0 -0.480657352
O  O43  1  0.78050000  0.43710000  0.02611000  1.0 -0.5631840309
O  O44  1  0.44717000  0.77043000  0.69278000  1.0 -0.5631840309
O  O45  1  0.11383000  0.10377000  0.35944000  1.0 -0.5631840309
O  O46  1  0.44717000  0.67673000  0.69278000  1.0 -0.5631840309
O  O47  1  0.32327000  0.77043000  0.69278000  1.0 -0.5631840309
O  O48  1  0.56290000  0.21950000  0.02611000  1.0 -0.5631840309
O  O49  1  0.78050000  0.34340000  0.02611000  1.0 -0.5631840309
O  O50  1  0.65660000  0.43710000  0.02611000  1.0 -0.5631840309
O  O51  1  0.89623000  0.88617000  0.35944000  1.0 -0.5631840309
O  O52  1  0.11383000  0.01007000  0.35944000  1.0 -0.5631840309
O  O53  1  0.98993000  0.10377000  0.35944000  1.0 -0.5631840309
O  O54  1  0.22957000  0.55283000  0.69278000  1.0 -0.5631840309
O  O55  1  0.65660000  0.21950000  0.02611000  1.0 -0.5631840309
O  O56  1  0.56290000  0.34340000  0.02611000  1.0 -0.5631840309
O  O57  1  0.98993000  0.88617000  0.35944000  1.0 -0.5631840309
O  O58  1  0.89623000  0.01007000  0.35944000  1.0 -0.5631840309
O  O59  1  0.32327000  0.55283000  0.69278000  1.0 -0.5631840309
O  O60  1  0.22957000  0.67673000  0.69278000  1.0 -0.5631840309
O  O61  1  0.22060000  0.65470000  0.13070000  1.0 -0.5208246092
O  O62  1  0.88727000  0.98803000  0.79737000  1.0 -0.5208246092
O  O63  1  0.55393000  0.32137000  0.46403000  1.0 -0.5208246092
O  O64  1  0.88727000  0.89923000  0.79737000  1.0 -0.5208246092
O  O65  1  0.10077000  0.98803000  0.79737000  1.0 -0.5208246092
O  O66  1  0.34530000  0.77940000  0.13070000  1.0 -0.5208246092
O  O67  1  0.22060000  0.56590000  0.13070000  1.0 -0.5208246092
O  O68  1  0.43410000  0.65470000  0.13070000  1.0 -0.5208246092
O  O69  1  0.67863000  0.44607000  0.46403000  1.0 -0.5208246092
O  O70  1  0.55393000  0.23257000  0.46403000  1.0 -0.5208246092
O  O71  1  0.76743000  0.32137000  0.46403000  1.0 -0.5208246092
O  O72  1  0.01197000  0.11273000  0.79737000  1.0 -0.5208246092
O  O73  1  0.43410000  0.77940000  0.13070000  1.0 -0.5208246092
O  O74  1  0.34530000  0.56590000  0.13070000  1.0 -0.5208246092
O  O75  1  0.76743000  0.44607000  0.46403000  1.0 -0.5208246092
O  O76  1  0.67863000  0.23257000  0.46403000  1.0 -0.5208246092
O  O77  1  0.10077000  0.11273000  0.79737000  1.0 -0.5208246092
O  O78  1  0.01197000  0.89923000  0.79737000  1.0 -0.5208246092
O  O79  1  0.33333333  0.66666667  0.23610000  1.0 -0.1754415102
O  O80  1  0.99997000  0.00003000  0.90277000  1.0 -0.1754415102
O  O81  1  0.66666667  0.33333333  0.56943000  1.0 -0.1754415102
O  O82  1  0.33333333  0.66666667  0.00441000  1.0 -1.0390334109
O  O83  1  0.99997000  0.00003000  0.67108000  1.0 -1.0390334109
O  O84  1  0.66666667  0.33333333  0.33774000  1.0 -1.0390334109
O  O85  1  0.00000000  0.00000000  0.17048000  1.0 -1.0325118482
O  O86  1  0.66666667  0.33333333  0.83715000  1.0 -1.0325118482
O  O87  1  0.33333333  0.66666667  0.50381000  1.0 -1.0325118482
O  O88  1  0.29179000  0.70821000  0.05206000  1.0 -0.5321069705
O  O89  1  0.29179000  0.58358000  0.05206000  1.0 -0.5321069705
O  O90  1  0.41642000  0.70821000  0.05206000  1.0 -0.5321069705
O  O91  1  0.95846000  0.04154000  0.71873000  1.0 -0.5321069705
O  O92  1  0.95846000  0.91691000  0.71873000  1.0 -0.5321069705
O  O93  1  0.08309000  0.04154000  0.71873000  1.0 -0.5321069705
O  O94  1  0.62512000  0.37488000  0.38539000  1.0 -0.5321069705
O  O95  1  0.74975000  0.37488000  0.38539000  1.0 -0.5321069705
O  O96  1  0.62512000  0.25025000  0.38539000  1.0 -0.5321069705
O  O97  1  0.26265000  0.73734000  0.01953000  1.0 -0.5476773163
O  O98  1  0.26266000  0.52531000  0.01953000  1.0 -0.5476773163
O  O99  1  0.47469000  0.73734000  0.01953000  1.0 -0.5476773163
O  O100  1  0.92932000  0.07068000  0.68620000  1.0 -0.5476773163
O  O101  1  0.92933000  0.85864000  0.68620000  1.0 -0.5476773163
O  O102  1  0.14136000  0.07067000  0.68620000  1.0 -0.5476773163
O  O103  1  0.59598000  0.40402000  0.35286000  1.0 -0.5476773163
O  O104  1  0.80802000  0.40401000  0.35286000  1.0 -0.5476773163
O  O105  1  0.59599000  0.19198000  0.35286000  1.0 -0.5476773163
O  O106  1  0.07524000  0.92476000  0.16021000  1.0 -0.5208246092
O  O107  1  0.07524000  0.15048000  0.16021000  1.0 -0.5208246092
O  O108  1  0.84952000  0.92476000  0.16021000  1.0 -0.5208246092
O  O109  1  0.74191000  0.25809000  0.82688000  1.0 -0.5208246092
O  O110  1  0.74191000  0.48381000  0.82688000  1.0 -0.5208246092
O  O111  1  0.51619000  0.25809000  0.82688000  1.0 -0.5208246092
O  O112  1  0.40857000  0.59143000  0.49354000  1.0 -0.5208246092
O  O113  1  0.18285000  0.59143000  0.49354000  1.0 -0.5208246092
O  O114  1  0.40857000  0.81715000  0.49354000  1.0 -0.5208246092
O  O115  1  0.04610000  0.95390000  0.12900000  1.0 -0.480657352
O  O116  1  0.04610000  0.09220000  0.12900000  1.0 -0.480657352
O  O117  1  0.90780000  0.95390000  0.12900000  1.0 -0.480657352
O  O118  1  0.71277000  0.28723000  0.79567000  1.0 -0.480657352
O  O119  1  0.71277000  0.42553000  0.79567000  1.0 -0.480657352
O  O120  1  0.57447000  0.28723000  0.79567000  1.0 -0.480657352
O  O121  1  0.37943000  0.62057000  0.46233000  1.0 -0.480657352
O  O122  1  0.24113000  0.62057000  0.46233000  1.0 -0.480657352
O  O123  1  0.37943000  0.75887000  0.46233000  1.0 -0.480657352
O  O124  1  0.43710000  0.78050000  0.97389000  1.0 -0.5631840309
O  O125  1  0.21950000  0.65660000  0.97389000  1.0 -0.5631840309
O  O126  1  0.34340000  0.56290000  0.97389000  1.0 -0.5631840309
O  O127  1  0.10377000  0.11383000  0.64056000  1.0 -0.5631840309
O  O128  1  0.88617000  0.98993000  0.64056000  1.0 -0.5631840309
O  O129  1  0.01007000  0.89623000  0.64056000  1.0 -0.5631840309
O  O130  1  0.77043000  0.44717000  0.30722000  1.0 -0.5631840309
O  O131  1  0.34340000  0.78050000  0.97389000  1.0 -0.5631840309
O  O132  1  0.43710000  0.65660000  0.97389000  1.0 -0.5631840309
O  O133  1  0.01007000  0.11383000  0.64056000  1.0 -0.5631840309
O  O134  1  0.10377000  0.98993000  0.64056000  1.0 -0.5631840309
O  O135  1  0.67673000  0.44717000  0.30722000  1.0 -0.5631840309
O  O136  1  0.77043000  0.32327000  0.30722000  1.0 -0.5631840309
O  O137  1  0.21950000  0.56290000  0.97389000  1.0 -0.5631840309
O  O138  1  0.55283000  0.22957000  0.30722000  1.0 -0.5631840309
O  O139  1  0.88617000  0.89623000  0.64056000  1.0 -0.5631840309
O  O140  1  0.55283000  0.32327000  0.30722000  1.0 -0.5631840309
O  O141  1  0.67673000  0.22957000  0.30722000  1.0 -0.5631840309
O  O142  1  0.65470000  0.22060000  0.86930000  1.0 -0.5208246092
O  O143  1  0.77940000  0.43410000  0.86930000  1.0 -0.5208246092
O  O144  1  0.56590000  0.34530000  0.86930000  1.0 -0.5208246092
O  O145  1  0.32137000  0.55393000  0.53597000  1.0 -0.5208246092
O  O146  1  0.44607000  0.76743000  0.53597000  1.0 -0.5208246092
O  O147  1  0.23257000  0.67863000  0.53597000  1.0 -0.5208246092
O  O148  1  0.98803000  0.88727000  0.20263000  1.0 -0.5208246092
O  O149  1  0.56590000  0.22060000  0.86930000  1.0 -0.5208246092
O  O150  1  0.65470000  0.43410000  0.86930000  1.0 -0.5208246092
O  O151  1  0.23257000  0.55393000  0.53597000  1.0 -0.5208246092
O  O152  1  0.32137000  0.76743000  0.53597000  1.0 -0.5208246092
O  O153  1  0.89923000  0.88727000  0.20263000  1.0 -0.5208246092
O  O154  1  0.98803000  0.10077000  0.20263000  1.0 -0.5208246092
O  O155  1  0.77940000  0.34530000  0.86930000  1.0 -0.5208246092
O  O156  1  0.11273000  0.01197000  0.20263000  1.0 -0.5208246092
O  O157  1  0.44607000  0.67863000  0.53597000  1.0 -0.5208246092
O  O158  1  0.11273000  0.10077000  0.20263000  1.0 -0.5208246092
O  O159  1  0.89923000  0.01197000  0.20263000  1.0 -0.5208246092
O  O160  1  0.66666667  0.33333333  0.76390000  1.0 -0.1707600483
O  O161  1  0.33333333  0.66666667  0.43057000  1.0 -0.1754415102
O  O162  1  0.00003000  0.99997000  0.09723000  1.0 -0.1707600483
