# DDEC6 charges by PACMAN v1.1 (https://github.com/mtap-research/PACMAN-charge/)
data_EFAHUS_ASR_pacman
_symmetry_space_group_name_H-M   'P 1'
_cell_length_a   16.80620000
_cell_length_b   16.80620000
_cell_length_c   16.80620000
_cell_angle_alpha   65.54320000
_cell_angle_beta   65.54320000
_cell_angle_gamma   65.54320000
_symmetry_Int_Tables_number   1
_chemical_formula_structural   CuH7C16(NO2)4
_chemical_formula_sum   'Cu6 H42 C96 N24 O48'
_cell_volume   3760.89106532
_cell_formula_units_Z   6
loop_
 _symmetry_equiv_pos_site_id
 _symmetry_equiv_pos_as_xyz
  1  'x, y, z'
loop_
 _atom_site_type_symbol
 _atom_site_label
 _atom_site_symmetry_multiplicity
 _atom_site_fract_x
 _atom_site_fract_y
 _atom_site_fract_z
 _atom_site_occupancy
 _atom_site_charge
Cu  Cu1  1  0.42201000  0.99908000  0.99908000  1.0 0.9072225634
Cu  Cu2  1  0.99908000  0.99908000  0.42201000  1.0 0.9072225634
Cu  Cu3  1  0.99908000  0.42201000  0.99908000  1.0 0.9072225634
Cu  Cu4  1  0.57799000  0.00092000  0.00092000  1.0 0.9072225634
Cu  Cu5  1  0.00092000  0.57799000  0.00092000  1.0 0.9072225634
Cu  Cu6  1  0.00092000  0.00092000  0.57799000  1.0 0.9072225634
H  H1  1  0.50971000  0.28677000  0.97595000  1.0 0.141482551
H  H2  1  0.66405000  0.49054000  0.89902000  1.0 0.1494429142
H  H3  1  0.42650000  0.59365000  0.07240000  1.0 0.141482551
H  H4  1  0.28677000  0.97595000  0.50971000  1.0 0.141482551
H  H5  1  0.49054000  0.89902000  0.66405000  1.0 0.1494429142
H  H6  1  0.59365000  0.07240000  0.42650000  1.0 0.141482551
H  H7  1  0.97595000  0.50971000  0.28677000  1.0 0.141482551
H  H8  1  0.89902000  0.66405000  0.49054000  1.0 0.1494429142
H  H9  1  0.07240000  0.42650000  0.59365000  1.0 0.141482551
H  H10  1  0.49029000  0.02405000  0.71323000  1.0 0.141482551
H  H11  1  0.33595000  0.10098000  0.50946000  1.0 0.1494429142
H  H12  1  0.57350000  0.92760000  0.40635000  1.0 0.141482551
H  H13  1  0.71323000  0.49029000  0.02405000  1.0 0.141482551
H  H14  1  0.50946000  0.33595000  0.10098000  1.0 0.1494429142
H  H15  1  0.40635000  0.57350000  0.92760000  1.0 0.141482551
H  H16  1  0.02405000  0.71323000  0.49029000  1.0 0.141482551
H  H17  1  0.10098000  0.50946000  0.33595000  1.0 0.1494429142
H  H18  1  0.92760000  0.40635000  0.57350000  1.0 0.141482551
H  H19  1  0.49029000  0.71323000  0.02405000  1.0 0.141482551
H  H20  1  0.33595000  0.50946000  0.10098000  1.0 0.1494429142
H  H21  1  0.57350000  0.40635000  0.92760000  1.0 0.141482551
H  H22  1  0.71323000  0.02405000  0.49029000  1.0 0.141482551
H  H23  1  0.50946000  0.10098000  0.33595000  1.0 0.1494429142
H  H24  1  0.40635000  0.92760000  0.57350000  1.0 0.141482551
H  H25  1  0.02405000  0.49029000  0.71323000  1.0 0.141482551
H  H26  1  0.10098000  0.33595000  0.50946000  1.0 0.1494429142
H  H27  1  0.92760000  0.57350000  0.40635000  1.0 0.141482551
H  H28  1  0.50971000  0.97595000  0.28677000  1.0 0.141482551
H  H29  1  0.66405000  0.89902000  0.49054000  1.0 0.1494429142
H  H30  1  0.42650000  0.07240000  0.59365000  1.0 0.141482551
H  H31  1  0.28677000  0.50971000  0.97595000  1.0 0.141482551
H  H32  1  0.49054000  0.66405000  0.89902000  1.0 0.1494429142
H  H33  1  0.59365000  0.42650000  0.07240000  1.0 0.141482551
H  H34  1  0.97595000  0.28677000  0.50971000  1.0 0.141482551
H  H35  1  0.89902000  0.49054000  0.66405000  1.0 0.1494429142
H  H36  1  0.07240000  0.59365000  0.42650000  1.0 0.141482551
H  H37  1  0.27710000  0.27710000  0.96905000  1.0 0.1701041156
H  H38  1  0.27710000  0.96905000  0.27710000  1.0 0.1701041156
H  H39  1  0.96905000  0.27710000  0.27710000  1.0 0.1701041156
H  H40  1  0.72290000  0.03095000  0.72290000  1.0 0.1701041156
H  H41  1  0.72290000  0.72290000  0.03095000  1.0 0.1701041156
H  H42  1  0.03095000  0.72290000  0.72290000  1.0 0.1701041156
C  C1  1  0.44184000  0.16928000  0.97723000  1.0 0.6162306809
C  C2  1  0.40007000  0.26837000  0.97193000  1.0 0.0161876023
C  C3  1  0.44795000  0.31574000  0.97514000  1.0 -0.2310864783
C  C4  1  0.55320000  0.45630000  0.91500000  1.0 -0.0295777389
C  C5  1  0.60080000  0.49770000  0.92950000  1.0 -0.0224174727
C  C6  1  0.46130000  0.55560000  0.03330000  1.0 0.0352960647
C  C7  1  0.16928000  0.97723000  0.44184000  1.0 0.6162306809
C  C8  1  0.26837000  0.97193000  0.40007000  1.0 0.0161876023
C  C9  1  0.31574000  0.97514000  0.44795000  1.0 -0.2310864783
C  C10  1  0.45630000  0.91500000  0.55320000  1.0 -0.0295777389
C  C11  1  0.49770000  0.92950000  0.60080000  1.0 -0.0224174727
C  C12  1  0.55560000  0.03330000  0.46130000  1.0 0.0352960647
C  C13  1  0.97723000  0.44184000  0.16928000  1.0 0.6162306809
C  C14  1  0.97193000  0.40007000  0.26837000  1.0 0.0161876023
C  C15  1  0.97514000  0.44795000  0.31574000  1.0 -0.2310864783
C  C16  1  0.91500000  0.55320000  0.45630000  1.0 -0.0295777389
C  C17  1  0.92950000  0.60080000  0.49770000  1.0 -0.0224174727
C  C18  1  0.03330000  0.46130000  0.55560000  1.0 0.0352960647
C  C19  1  0.55816000  0.02277000  0.83072000  1.0 0.6162306809
C  C20  1  0.59993000  0.02807000  0.73163000  1.0 0.0161876023
C  C21  1  0.55205000  0.02486000  0.68426000  1.0 -0.2310864783
C  C22  1  0.44680000  0.08500000  0.54370000  1.0 -0.0295777389
C  C23  1  0.39920000  0.07050000  0.50230000  1.0 -0.0224174727
C  C24  1  0.53870000  0.96670000  0.44440000  1.0 0.0352960647
C  C25  1  0.83072000  0.55816000  0.02277000  1.0 0.6162306809
C  C26  1  0.73163000  0.59993000  0.02807000  1.0 0.0161876023
C  C27  1  0.68426000  0.55205000  0.02486000  1.0 -0.2310864783
C  C28  1  0.54370000  0.44680000  0.08500000  1.0 -0.0295777389
C  C29  1  0.50230000  0.39920000  0.07050000  1.0 -0.0224174727
C  C30  1  0.44440000  0.53870000  0.96670000  1.0 0.0352960647
C  C31  1  0.02277000  0.83072000  0.55816000  1.0 0.6162306809
C  C32  1  0.02807000  0.73163000  0.59993000  1.0 0.0161876023
C  C33  1  0.02486000  0.68426000  0.55205000  1.0 -0.2310864783
C  C34  1  0.08500000  0.54370000  0.44680000  1.0 -0.0295777389
C  C35  1  0.07050000  0.50230000  0.39920000  1.0 -0.0224174727
C  C36  1  0.96670000  0.44440000  0.53870000  1.0 0.0352960647
C  C37  1  0.55816000  0.83072000  0.02277000  1.0 0.6162306809
C  C38  1  0.59993000  0.73163000  0.02807000  1.0 0.0161876023
C  C39  1  0.55205000  0.68426000  0.02486000  1.0 -0.2310864783
C  C40  1  0.44680000  0.54370000  0.08500000  1.0 -0.0295777389
C  C41  1  0.39920000  0.50230000  0.07050000  1.0 -0.0224174727
C  C42  1  0.53870000  0.44440000  0.96670000  1.0 0.0352960647
C  C43  1  0.83072000  0.02277000  0.55816000  1.0 0.6162306809
C  C44  1  0.73163000  0.02807000  0.59993000  1.0 0.0161876023
C  C45  1  0.68426000  0.02486000  0.55205000  1.0 -0.2310864783
C  C46  1  0.54370000  0.08500000  0.44680000  1.0 -0.0295777389
C  C47  1  0.50230000  0.07050000  0.39920000  1.0 -0.0224174727
C  C48  1  0.44440000  0.96670000  0.53870000  1.0 0.0352960647
C  C49  1  0.02277000  0.55816000  0.83072000  1.0 0.6162306809
C  C50  1  0.02807000  0.59993000  0.73163000  1.0 0.0161876023
C  C51  1  0.02486000  0.55205000  0.68426000  1.0 -0.2310864783
C  C52  1  0.08500000  0.44680000  0.54370000  1.0 -0.0295777389
C  C53  1  0.07050000  0.39920000  0.50230000  1.0 -0.0224174727
C  C54  1  0.96670000  0.53870000  0.44440000  1.0 0.0352960647
C  C55  1  0.44184000  0.97723000  0.16928000  1.0 0.6162306809
C  C56  1  0.40007000  0.97193000  0.26837000  1.0 0.0161876023
C  C57  1  0.44795000  0.97514000  0.31574000  1.0 -0.2310864783
C  C58  1  0.55320000  0.91500000  0.45630000  1.0 -0.0295777389
C  C59  1  0.60080000  0.92950000  0.49770000  1.0 -0.0224174727
C  C60  1  0.46130000  0.03330000  0.55560000  1.0 0.0352960647
C  C61  1  0.16928000  0.44184000  0.97723000  1.0 0.6162306809
C  C62  1  0.26837000  0.40007000  0.97193000  1.0 0.0161876023
C  C63  1  0.31574000  0.44795000  0.97514000  1.0 -0.2310864783
C  C64  1  0.45630000  0.55320000  0.91500000  1.0 -0.0295777389
C  C65  1  0.49770000  0.60080000  0.92950000  1.0 -0.0224174727
C  C66  1  0.55560000  0.46130000  0.03330000  1.0 0.0352960647
C  C67  1  0.97723000  0.16928000  0.44184000  1.0 0.6162306809
C  C68  1  0.97193000  0.26837000  0.40007000  1.0 0.0161876023
C  C69  1  0.97514000  0.31574000  0.44795000  1.0 -0.2310864783
C  C70  1  0.91500000  0.45630000  0.55320000  1.0 -0.0295777389
C  C71  1  0.92950000  0.49770000  0.60080000  1.0 -0.0224174727
C  C72  1  0.03330000  0.55560000  0.46130000  1.0 0.0352960647
C  C73  1  0.31021000  0.31021000  0.97072000  1.0 -0.0701858284
C  C74  1  0.40627000  0.40627000  0.97717000  1.0 0.0096657922
C  C75  1  0.46260000  0.46260000  0.96330000  1.0 -0.0224174727
C  C76  1  0.55105000  0.55105000  0.99160000  1.0 0.0976127367
C  C77  1  0.31021000  0.97072000  0.31021000  1.0 -0.0701858284
C  C78  1  0.40627000  0.97717000  0.40627000  1.0 0.0096657922
C  C79  1  0.46260000  0.96330000  0.46260000  1.0 -0.0224174727
C  C80  1  0.55105000  0.99160000  0.55105000  1.0 0.0976127367
C  C81  1  0.97072000  0.31021000  0.31021000  1.0 -0.0701858284
C  C82  1  0.97717000  0.40627000  0.40627000  1.0 0.0096657922
C  C83  1  0.96330000  0.46260000  0.46260000  1.0 -0.0224174727
C  C84  1  0.99160000  0.55105000  0.55105000  1.0 0.0976127367
C  C85  1  0.68979000  0.02928000  0.68979000  1.0 -0.0701858284
C  C86  1  0.59373000  0.02283000  0.59373000  1.0 0.0096657922
C  C87  1  0.53740000  0.03670000  0.53740000  1.0 -0.0224174727
C  C88  1  0.44895000  0.00840000  0.44895000  1.0 0.0976127367
C  C89  1  0.68979000  0.68979000  0.02928000  1.0 -0.0701858284
C  C90  1  0.59373000  0.59373000  0.02283000  1.0 0.0096657922
C  C91  1  0.53740000  0.53740000  0.03670000  1.0 -0.0224174727
C  C92  1  0.44895000  0.44895000  0.00840000  1.0 0.0976127367
C  C93  1  0.02928000  0.68979000  0.68979000  1.0 -0.0701858284
C  C94  1  0.02283000  0.59373000  0.59373000  1.0 0.0096657922
C  C95  1  0.03670000  0.53740000  0.53740000  1.0 -0.0224174727
C  C96  1  0.00840000  0.44895000  0.44895000  1.0 0.0976127367
N  N1  1  0.60250000  0.41260000  0.84190000  1.0 0.114233726
N  N2  1  0.41840000  0.50980000  0.02300000  1.0 0.0531080707
N  N3  1  0.41260000  0.84190000  0.60250000  1.0 0.1162794766
N  N4  1  0.50980000  0.02300000  0.41840000  1.0 0.0531080707
N  N5  1  0.84190000  0.60250000  0.41260000  1.0 0.114233726
N  N6  1  0.02300000  0.41840000  0.50980000  1.0 0.0531080707
N  N7  1  0.39750000  0.15810000  0.58740000  1.0 0.1162794766
N  N8  1  0.58160000  0.97700000  0.49020000  1.0 0.0531080707
N  N9  1  0.58740000  0.39750000  0.15810000  1.0 0.1162794766
N  N10  1  0.49020000  0.58160000  0.97700000  1.0 0.0531080707
N  N11  1  0.15810000  0.58740000  0.39750000  1.0 0.114233726
N  N12  1  0.97700000  0.49020000  0.58160000  1.0 0.0531080707
N  N13  1  0.39750000  0.58740000  0.15810000  1.0 0.114233726
N  N14  1  0.58160000  0.49020000  0.97700000  1.0 0.0531080707
N  N15  1  0.58740000  0.15810000  0.39750000  1.0 0.114233726
N  N16  1  0.49020000  0.97700000  0.58160000  1.0 0.0531080707
N  N17  1  0.15810000  0.39750000  0.58740000  1.0 0.114233726
N  N18  1  0.97700000  0.58160000  0.49020000  1.0 0.0531080707
N  N19  1  0.60250000  0.84190000  0.41260000  1.0 0.114233726
N  N20  1  0.41840000  0.02300000  0.50980000  1.0 0.0531080707
N  N21  1  0.41260000  0.60250000  0.84190000  1.0 0.114233726
N  N22  1  0.50980000  0.41840000  0.02300000  1.0 0.0531080707
N  N23  1  0.84190000  0.41260000  0.60250000  1.0 0.1162794766
N  N24  1  0.02300000  0.50980000  0.41840000  1.0 0.0531080707
O  O1  1  0.39186000  0.12982000  0.97862000  1.0 -0.5131329453
O  O2  1  0.52276000  0.13208000  0.98280000  1.0 -0.4933243252
O  O3  1  0.56550000  0.42520000  0.79010000  1.0 -0.2160317688
O  O4  1  0.68030000  0.35250000  0.84400000  1.0 -0.3087206216
O  O5  1  0.12982000  0.97862000  0.39186000  1.0 -0.5131329453
O  O6  1  0.13208000  0.98280000  0.52276000  1.0 -0.4933243252
O  O7  1  0.42520000  0.79010000  0.56550000  1.0 -0.2160317688
O  O8  1  0.35250000  0.84400000  0.68030000  1.0 -0.3087206216
O  O9  1  0.97862000  0.39186000  0.12982000  1.0 -0.5131329453
O  O10  1  0.98280000  0.52276000  0.13208000  1.0 -0.4933243252
O  O11  1  0.79010000  0.56550000  0.42520000  1.0 -0.2160317688
O  O12  1  0.84400000  0.68030000  0.35250000  1.0 -0.3087206216
O  O13  1  0.60814000  0.02138000  0.87018000  1.0 -0.5131329453
O  O14  1  0.47724000  0.01720000  0.86792000  1.0 -0.4933243252
O  O15  1  0.43450000  0.20990000  0.57480000  1.0 -0.2142999328
O  O16  1  0.31970000  0.15600000  0.64750000  1.0 -0.3087206216
O  O17  1  0.87018000  0.60814000  0.02138000  1.0 -0.5131329453
O  O18  1  0.86792000  0.47724000  0.01720000  1.0 -0.4933243252
O  O19  1  0.57480000  0.43450000  0.20990000  1.0 -0.2160317688
O  O20  1  0.64750000  0.31970000  0.15600000  1.0 -0.3087206216
O  O21  1  0.02138000  0.87018000  0.60814000  1.0 -0.5131329453
O  O22  1  0.01720000  0.86792000  0.47724000  1.0 -0.4933243252
O  O23  1  0.20990000  0.57480000  0.43450000  1.0 -0.2160317688
O  O24  1  0.15600000  0.64750000  0.31970000  1.0 -0.3087206216
O  O25  1  0.60814000  0.87018000  0.02138000  1.0 -0.5131329453
O  O26  1  0.47724000  0.86792000  0.01720000  1.0 -0.4933243252
O  O27  1  0.43450000  0.57480000  0.20990000  1.0 -0.2160317688
O  O28  1  0.31970000  0.64750000  0.15600000  1.0 -0.3087206216
O  O29  1  0.87018000  0.02138000  0.60814000  1.0 -0.5131329453
O  O30  1  0.86792000  0.01720000  0.47724000  1.0 -0.4933243252
O  O31  1  0.57480000  0.20990000  0.43450000  1.0 -0.2160317688
O  O32  1  0.64750000  0.15600000  0.31970000  1.0 -0.3087206216
O  O33  1  0.02138000  0.60814000  0.87018000  1.0 -0.5131329453
O  O34  1  0.01720000  0.47724000  0.86792000  1.0 -0.4933243252
O  O35  1  0.20990000  0.43450000  0.57480000  1.0 -0.2160317688
O  O36  1  0.15600000  0.31970000  0.64750000  1.0 -0.3087206216
O  O37  1  0.39186000  0.97862000  0.12982000  1.0 -0.5131329453
O  O38  1  0.52276000  0.98280000  0.13208000  1.0 -0.4933243252
O  O39  1  0.56550000  0.79010000  0.42520000  1.0 -0.2160317688
O  O40  1  0.68030000  0.84400000  0.35250000  1.0 -0.3087206216
O  O41  1  0.12982000  0.39186000  0.97862000  1.0 -0.5131329453
O  O42  1  0.13208000  0.52276000  0.98280000  1.0 -0.4933243252
O  O43  1  0.42520000  0.56550000  0.79010000  1.0 -0.2160317688
O  O44  1  0.35250000  0.68030000  0.84400000  1.0 -0.3087206216
O  O45  1  0.97862000  0.12982000  0.39186000  1.0 -0.5131329453
O  O46  1  0.98280000  0.13208000  0.52276000  1.0 -0.4933243252
O  O47  1  0.79010000  0.42520000  0.56550000  1.0 -0.2160317688
O  O48  1  0.84400000  0.35250000  0.68030000  1.0 -0.3087206216
