# DDEC6 charges by PACMAN v1.1 (https://github.com/mtap-research/PACMAN-charge/)
data_EFAJEE_ASR_pacman
_chemical_formula_sum              "O72 C216 H126 N18 F36 Cu18"
_cell_length_a       18.5907
_cell_length_b       18.5907
_cell_length_c       38.4499
_cell_angle_alpha    90
_cell_angle_beta     90
_cell_angle_gamma    120

_symmetry_space_group_name_H-M    "P 1"
_symmetry_Int_Tables_number       1

loop_
  _symmetry_equiv_pos_as_xyz
  'x, y, z'

loop_
  _atom_site_type_symbol
  _atom_site_label
  _atom_site_symmetry_multiplicity
  _atom_site_fract_x
  _atom_site_fract_y
  _atom_site_fract_z
  _atom_site_occupancy
 _atom_site_charge
O   O1        1.0  0.58868  0.55855  0.54441  1.0000 -0.5215886061
O   O2        1.0  0.62869  0.51837  0.49692  1.0000 -0.5282076042
C   C1        1.0  0.64020  0.54810  0.52743  1.0000 0.5818451271
C   C2        1.0  0.71981  0.56910  0.54444  1.0000 -0.0275684138
C   C3        1.0  0.73470  0.59840  0.57845  1.0000 -0.1433245622
H   H1        1.0  0.69500  0.60760  0.59010  1.0000 0.1161707631
C   C4        1.0  0.90080  0.70060  0.64380  1.0000 0.0356402685
H   H2        1.0  0.70430  0.58280  0.64450  1.0000 0.1062315349
N   N1        1.0  0.75860  0.61550  0.65377  1.0000 -0.1114526412
F   F1        1.0  0.97740  0.75230  0.61950  1.0000 -0.2537744299
C   C5        1.0  0.85690  0.61550  0.65377  1.0000 -0.1157224402
H   H3        1.0  0.94580  0.72280  0.62860  1.0000 0.1970400926
O   O3        1.0  0.25535  0.89188  0.87774  1.0000 -0.5215886061
O   O4        1.0  0.29536  0.85170  0.83025  1.0000 -0.5282076042
C   C6        1.0  0.30687  0.88143  0.86076  1.0000 0.5818451271
C   C7        1.0  0.38648  0.90243  0.87777  1.0000 -0.0275684138
C   C8        1.0  0.40137  0.93173  0.91178  1.0000 -0.1433245622
H   H4        1.0  0.36167  0.94093  0.92343  1.0000 0.1161707631
C   C9        1.0  0.56747  0.03393  0.97713  1.0000 0.0303916901
H   H5        1.0  0.37097  0.91613  0.97783  1.0000 0.1062315349
N   N2        1.0  0.42527  0.94883  0.98710  1.0000 -0.1114526412
F   F2        1.0  0.64407  0.08563  0.95283  1.0000 -0.256978631
C   C10       1.0  0.52357  0.94883  0.98710  1.0000 -0.1114526412
H   H6        1.0  0.61247  0.05613  0.96193  1.0000 0.1970400926
O   O5        1.0  0.92201  0.22522  0.21108  1.0000 -0.5215886061
O   O6        1.0  0.96202  0.18504  0.16359  1.0000 -0.5282076042
C   C11       1.0  0.97353  0.21477  0.19410  1.0000 0.5818451271
C   C12       1.0  0.05314  0.23577  0.21111  1.0000 -0.0275684138
C   C13       1.0  0.06803  0.26507  0.24512  1.0000 -0.1433245622
H   H7        1.0  0.02833  0.27427  0.25677  1.0000 0.1161707631
C   C14       1.0  0.23413  0.36727  0.31047  1.0000 0.0356402685
H   H8        1.0  0.03763  0.24947  0.31117  1.0000 0.1062315349
N   N3        1.0  0.09193  0.28217  0.32044  1.0000 -0.1114526412
F   F3        1.0  0.31073  0.41897  0.28617  1.0000 -0.256978631
C   C15       1.0  0.19023  0.28217  0.32044  1.0000 -0.1114526412
H   H9        1.0  0.27913  0.38947  0.29527  1.0000 0.1970400926
O   O7        1.0  0.44145  0.03013  0.54441  1.0000 -0.5215886061
O   O8        1.0  0.48163  0.11032  0.49692  1.0000 -0.5282076042
C   C16       1.0  0.45190  0.09210  0.52743  1.0000 0.5818451271
C   C17       1.0  0.43090  0.15071  0.54444  1.0000 -0.0275684138
C   C18       1.0  0.40160  0.13630  0.57845  1.0000 -0.1433245622
H   H10       1.0  0.39240  0.08740  0.59010  1.0000 0.1161707631
C   C19       1.0  0.29940  0.20020  0.64380  1.0000 0.0303916901
H   H11       1.0  0.41720  0.12150  0.64450  1.0000 0.1062315349
N   N4        1.0  0.38450  0.14310  0.65377  1.0000 -0.1114526412
F   F4        1.0  0.24770  0.22510  0.61950  1.0000 -0.256978631
C   C20       1.0  0.38450  0.24140  0.65377  1.0000 -0.1114526412
H   H12       1.0  0.27720  0.22300  0.62860  1.0000 0.1970400926
O   O9        1.0  0.10812  0.36346  0.87774  1.0000 -0.5215886061
O   O10       1.0  0.14830  0.44365  0.83025  1.0000 -0.5282076042
C   C21       1.0  0.11857  0.42543  0.86076  1.0000 0.5818451271
C   C22       1.0  0.09757  0.48404  0.87777  1.0000 -0.0275684138
C   C23       1.0  0.06827  0.46963  0.91178  1.0000 -0.1433245622
H   H13       1.0  0.05907  0.42073  0.92343  1.0000 0.1161707631
C   C24       1.0  0.96607  0.53353  0.97713  1.0000 0.0356402685
H   H14       1.0  0.08387  0.45483  0.97783  1.0000 0.1062315349
N   N5        1.0  0.05117  0.47643  0.98710  1.0000 -0.1114526412
F   F5        1.0  0.91437  0.55843  0.95283  1.0000 -0.2537744299
C   C25       1.0  0.05117  0.57473  0.98710  1.0000 -0.1114526412
H   H15       1.0  0.94387  0.55633  0.96193  1.0000 0.1970400926
O   O11       1.0  0.77478  0.69680  0.21108  1.0000 -0.5215886061
O   O12       1.0  0.81496  0.77699  0.16359  1.0000 -0.5282076042
C   C26       1.0  0.78523  0.75877  0.19410  1.0000 0.5818451271
C   C27       1.0  0.76423  0.81738  0.21111  1.0000 -0.0275684138
C   C28       1.0  0.73493  0.80297  0.24512  1.0000 -0.1433245622
H   H16       1.0  0.72573  0.75407  0.25677  1.0000 0.1161707631
C   C29       1.0  0.63273  0.86687  0.31047  1.0000 0.0303916901
H   H17       1.0  0.75053  0.78817  0.31117  1.0000 0.1062315349
N   N6        1.0  0.71783  0.80977  0.32044  1.0000 -0.1114526412
F   F6        1.0  0.58103  0.89177  0.28617  1.0000 -0.2537744299
C   C30       1.0  0.71783  0.90807  0.32044  1.0000 -0.1114526412
H   H18       1.0  0.61053  0.88967  0.29527  1.0000 0.1970400926
O   O13       1.0  0.96987  0.41132  0.54441  1.0000 -0.5215886061
O   O14       1.0  0.88968  0.37131  0.49692  1.0000 -0.5282076042
C   C31       1.0  0.90790  0.35980  0.52743  1.0000 0.5818451271
C   C32       1.0  0.84929  0.28019  0.54444  1.0000 -0.0275684138
C   C33       1.0  0.86370  0.26530  0.57845  1.0000 -0.1433245622
H   H19       1.0  0.91260  0.30500  0.59010  1.0000 0.1161707631
C   C34       1.0  0.79980  0.09920  0.64380  1.0000 0.0303916901
H   H20       1.0  0.87850  0.29570  0.64450  1.0000 0.1062315349
N   N7        1.0  0.85690  0.24140  0.65377  1.0000 -0.1114526412
F   F7        1.0  0.77490  0.02260  0.61950  1.0000 -0.2537744299
C   C35       1.0  0.75860  0.14310  0.65377  1.0000 -0.1114526412
H   H21       1.0  0.77700  0.05420  0.62860  1.0000 0.1970400926
O   O15       1.0  0.63654  0.74465  0.87774  1.0000 -0.5215886061
O   O16       1.0  0.55635  0.70464  0.83025  1.0000 -0.5282076042
C   C36       1.0  0.57457  0.69313  0.86076  1.0000 0.5818451271
C   C37       1.0  0.51596  0.61352  0.87777  1.0000 -0.0275684138
C   C38       1.0  0.53037  0.59863  0.91178  1.0000 -0.1433245622
H   H22       1.0  0.57927  0.63833  0.92343  1.0000 0.1161707631
C   C39       1.0  0.46647  0.43253  0.97713  1.0000 0.0303916901
H   H23       1.0  0.54517  0.62903  0.97783  1.0000 0.104445839
N   N8        1.0  0.52357  0.57473  0.98710  1.0000 -0.1114526412
F   F8        1.0  0.44157  0.35593  0.95283  1.0000 -0.256978631
C   C40       1.0  0.42527  0.47643  0.98710  1.0000 -0.1114526412
H   H24       1.0  0.44367  0.38753  0.96193  1.0000 0.1970400926
O   O17       1.0  0.30320  0.07799  0.21108  1.0000 -0.5215886061
O   O18       1.0  0.22301  0.03798  0.16359  1.0000 -0.5282076042
C   C41       1.0  0.24123  0.02647  0.19410  1.0000 0.5818451271
C   C42       1.0  0.18262  0.94686  0.21111  1.0000 -0.0275684138
C   C43       1.0  0.19703  0.93197  0.24512  1.0000 -0.1433245622
H   H25       1.0  0.24593  0.97167  0.25677  1.0000 0.1161707631
C   C44       1.0  0.13313  0.76587  0.31047  1.0000 0.0303916901
H   H26       1.0  0.21183  0.96237  0.31117  1.0000 0.1062315349
N   N9        1.0  0.19023  0.90807  0.32044  1.0000 -0.1114526412
F   F9        1.0  0.10823  0.68927  0.28617  1.0000 -0.2537744299
C   C45       1.0  0.09193  0.80977  0.32044  1.0000 -0.1114526412
H   H27       1.0  0.11033  0.72087  0.29527  1.0000 0.1970400926
O   O19       1.0  0.55855  0.58868  0.45559  1.0000 -0.5215886061
O   O20       1.0  0.51837  0.62869  0.50308  1.0000 -0.5282076042
C   C46       1.0  0.54810  0.64020  0.47257  1.0000 0.5818451271
C   C47       1.0  0.56910  0.71981  0.45556  1.0000 -0.0275684138
C   C48       1.0  0.59840  0.73470  0.42155  1.0000 -0.1433245622
H   H28       1.0  0.60760  0.69500  0.40990  1.0000 0.1161707631
C   C49       1.0  0.70060  0.90080  0.35620  1.0000 0.0303916901
H   H29       1.0  0.58280  0.70430  0.35550  1.0000 0.1062315349
N   N10       1.0  0.61550  0.75860  0.34623  1.0000 -0.1114526412
F   F10       1.0  0.75230  0.97740  0.38050  1.0000 -0.2537744299
C   C50       1.0  0.61550  0.85690  0.34623  1.0000 -0.1114526412
H   H30       1.0  0.72280  0.94580  0.37140  1.0000 0.1970400926
O   O21       1.0  0.22522  0.92201  0.78892  1.0000 -0.5215886061
O   O22       1.0  0.18504  0.96202  0.83641  1.0000 -0.5282076042
C   C51       1.0  0.21477  0.97353  0.80590  1.0000 0.5818451271
C   C52       1.0  0.23577  0.05314  0.78889  1.0000 -0.0275684138
C   C53       1.0  0.26507  0.06803  0.75488  1.0000 -0.1433245622
H   H31       1.0  0.27427  0.02833  0.74323  1.0000 0.1161707631
C   C54       1.0  0.36727  0.23413  0.68953  1.0000 0.0356402685
H   H32       1.0  0.24947  0.03763  0.68883  1.0000 0.1062315349
N   N11       1.0  0.28217  0.09193  0.67956  1.0000 -0.1114526412
F   F11       1.0  0.41897  0.31073  0.71383  1.0000 -0.256978631
C   C55       1.0  0.28217  0.19023  0.67956  1.0000 -0.1114526412
H   H33       1.0  0.38947  0.27913  0.70473  1.0000 0.1970400926
O   O23       1.0  0.89188  0.25535  0.12226  1.0000 -0.5215886061
O   O24       1.0  0.85170  0.29536  0.16975  1.0000 -0.5282076042
C   C56       1.0  0.88143  0.30687  0.13924  1.0000 0.5818451271
C   C57       1.0  0.90243  0.38648  0.12223  1.0000 -0.0275684138
C   C58       1.0  0.93173  0.40137  0.08822  1.0000 -0.1433245622
H   H34       1.0  0.94093  0.36167  0.07657  1.0000 0.1161707631
C   C59       1.0  0.03393  0.56747  0.02287  1.0000 0.0356402685
H   H35       1.0  0.91613  0.37097  0.02217  1.0000 0.1062315349
N   N12       1.0  0.94883  0.42527  0.01290  1.0000 -0.1114526412
F   F12       1.0  0.08563  0.64407  0.04717  1.0000 -0.256978631
C   C60       1.0  0.94883  0.52357  0.01290  1.0000 -0.1114526412
H   H36       1.0  0.05613  0.61247  0.03807  1.0000 0.1970400926
O   O25       1.0  0.03013  0.44145  0.45559  1.0000 -0.5215886061
O   O26       1.0  0.11032  0.48163  0.50308  1.0000 -0.5282076042
C   C61       1.0  0.09210  0.45190  0.47257  1.0000 0.5818451271
C   C62       1.0  0.15071  0.43090  0.45556  1.0000 -0.0275684138
C   C63       1.0  0.13630  0.40160  0.42155  1.0000 -0.1433245622
H   H37       1.0  0.08740  0.39240  0.40990  1.0000 0.1161707631
C   C64       1.0  0.20020  0.29940  0.35620  1.0000 0.0303916901
H   H38       1.0  0.12150  0.41720  0.35550  1.0000 0.1062315349
N   N13       1.0  0.14310  0.38450  0.34623  1.0000 -0.1114526412
F   F13       1.0  0.22510  0.24770  0.38050  1.0000 -0.2537744299
C   C65       1.0  0.24140  0.38450  0.34623  1.0000 -0.1114526412
H   H39       1.0  0.22300  0.27720  0.37140  1.0000 0.1970400926
O   O27       1.0  0.69680  0.77478  0.78892  1.0000 -0.5215886061
O   O28       1.0  0.77699  0.81496  0.83641  1.0000 -0.5282076042
C   C66       1.0  0.75877  0.78523  0.80590  1.0000 0.5818451271
C   C67       1.0  0.81738  0.76423  0.78889  1.0000 -0.0275684138
C   C68       1.0  0.80297  0.73493  0.75488  1.0000 -0.1433245622
H   H40       1.0  0.75407  0.72573  0.74323  1.0000 0.1161707631
C   C69       1.0  0.86687  0.63273  0.68953  1.0000 0.0356402685
H   H41       1.0  0.78817  0.75053  0.68883  1.0000 0.1062315349
N   N14       1.0  0.80977  0.71783  0.67956  1.0000 -0.1114526412
F   F14       1.0  0.89177  0.58103  0.71383  1.0000 -0.2537744299
C   C70       1.0  0.90807  0.71783  0.67956  1.0000 -0.1114526412
H   H42       1.0  0.88967  0.61053  0.70473  1.0000 0.1970400926
O   O29       1.0  0.36346  0.10812  0.12226  1.0000 -0.5215886061
O   O30       1.0  0.44365  0.14830  0.16975  1.0000 -0.5282076042
C   C71       1.0  0.42543  0.11857  0.13924  1.0000 0.5818451271
C   C72       1.0  0.48404  0.09757  0.12223  1.0000 -0.0275684138
C   C73       1.0  0.46963  0.06827  0.08822  1.0000 -0.1433245622
H   H43       1.0  0.42073  0.05907  0.07657  1.0000 0.1161707631
C   C74       1.0  0.53353  0.96607  0.02287  1.0000 0.0303916901
H   H44       1.0  0.45483  0.08387  0.02217  1.0000 0.1062315349
N   N15       1.0  0.47643  0.05117  0.01290  1.0000 -0.1114526412
F   F15       1.0  0.55843  0.91437  0.04717  1.0000 -0.256978631
C   C75       1.0  0.57473  0.05117  0.01290  1.0000 -0.1114526412
H   H45       1.0  0.55633  0.94387  0.03807  1.0000 0.1970400926
O   O31       1.0  0.41132  0.96987  0.45559  1.0000 -0.5215886061
O   O32       1.0  0.37131  0.88968  0.50308  1.0000 -0.5282076042
C   C76       1.0  0.35980  0.90790  0.47257  1.0000 0.5818451271
C   C77       1.0  0.28019  0.84929  0.45556  1.0000 -0.0275684138
C   C78       1.0  0.26530  0.86370  0.42155  1.0000 -0.1433245622
H   H46       1.0  0.30500  0.91260  0.40990  1.0000 0.1161707631
C   C79       1.0  0.09920  0.79980  0.35620  1.0000 0.0303916901
H   H47       1.0  0.29570  0.87850  0.35550  1.0000 0.1062315349
N   N16       1.0  0.24140  0.85690  0.34623  1.0000 -0.1114526412
F   F16       1.0  0.02260  0.77490  0.38050  1.0000 -0.2537744299
C   C80       1.0  0.14310  0.75860  0.34623  1.0000 -0.1114526412
H   H48       1.0  0.05420  0.77700  0.37140  1.0000 0.1970400926
O   O33       1.0  0.07799  0.30320  0.78892  1.0000 -0.5215886061
O   O34       1.0  0.03798  0.22301  0.83641  1.0000 -0.5282076042
C   C81       1.0  0.02647  0.24123  0.80590  1.0000 0.5818451271
C   C82       1.0  0.94686  0.18262  0.78889  1.0000 -0.0275684138
C   C83       1.0  0.93197  0.19703  0.75488  1.0000 -0.1433245622
H   H49       1.0  0.97167  0.24593  0.74323  1.0000 0.1161707631
C   C84       1.0  0.76587  0.13313  0.68953  1.0000 0.0356402685
H   H50       1.0  0.96237  0.21183  0.68883  1.0000 0.1062315349
N   N17       1.0  0.90807  0.19023  0.67956  1.0000 -0.1114526412
F   F17       1.0  0.68927  0.10823  0.71383  1.0000 -0.256978631
C   C85       1.0  0.80977  0.09193  0.67956  1.0000 -0.1114526412
H   H51       1.0  0.72087  0.11033  0.70473  1.0000 0.1970400926
O   O35       1.0  0.74465  0.63654  0.12226  1.0000 -0.5215886061
O   O36       1.0  0.70464  0.55635  0.16975  1.0000 -0.5282076042
C   C86       1.0  0.69313  0.57457  0.13924  1.0000 0.5818451271
C   C87       1.0  0.61352  0.51596  0.12223  1.0000 -0.0275684138
C   C88       1.0  0.59863  0.53037  0.08822  1.0000 -0.1433245622
H   H52       1.0  0.63833  0.57927  0.07657  1.0000 0.1161707631
C   C89       1.0  0.43253  0.46647  0.02287  1.0000 0.0303916901
H   H53       1.0  0.62903  0.54517  0.02217  1.0000 0.104445839
N   N18       1.0  0.57473  0.52357  0.01290  1.0000 -0.1114526412
F   F18       1.0  0.35593  0.44157  0.04717  1.0000 -0.2537744299
C   C90       1.0  0.47643  0.42527  0.01290  1.0000 -0.1114526412
H   H54       1.0  0.38753  0.44367  0.03807  1.0000 0.1970400926
O   O37       1.0  0.41132  0.44145  0.45559  1.0000 -0.5215886061
O   O38       1.0  0.37131  0.48163  0.50308  1.0000 -0.5282076042
C   C91       1.0  0.35980  0.45190  0.47257  1.0000 0.5818451271
C   C92       1.0  0.28019  0.43090  0.45556  1.0000 -0.0245590675
C   C93       1.0  0.26530  0.40160  0.42155  1.0000 -0.1652886591
H   H55       1.0  0.30500  0.39240  0.40990  1.0000 0.104445839
C   C94       1.0  0.09920  0.29940  0.35620  1.0000 -0.0560174889
H   H56       1.0  0.29570  0.41720  0.35550  1.0000 0.2541349622
F   F19       1.0  0.02260  0.24770  0.38050  1.0000 -0.1630526659
H   H57       1.0  0.05420  0.27720  0.37140  1.0000 0.1855083825
O   O39       1.0  0.07799  0.77478  0.78892  1.0000 -0.5215886061
O   O40       1.0  0.03798  0.81496  0.83641  1.0000 -0.5282076042
C   C95       1.0  0.02647  0.78523  0.80590  1.0000 0.5818451271
C   C96       1.0  0.94686  0.76423  0.78889  1.0000 -0.0245590675
C   C97       1.0  0.93197  0.73493  0.75488  1.0000 -0.1630526659
H   H58       1.0  0.97167  0.72573  0.74323  1.0000 0.104445839
C   C98       1.0  0.76587  0.63273  0.68953  1.0000 -0.0530438553
H   H59       1.0  0.96237  0.75053  0.68883  1.0000 0.2556463853
F   F20       1.0  0.68927  0.58103  0.71383  1.0000 -0.1630526659
H   H60       1.0  0.72087  0.61053  0.70473  1.0000 0.1855083825
O   O41       1.0  0.74465  0.10812  0.12226  1.0000 -0.5215886061
O   O42       1.0  0.70464  0.14830  0.16975  1.0000 -0.5282076042
C   C99       1.0  0.69313  0.11857  0.13924  1.0000 0.5818451271
C   C100      1.0  0.61352  0.09757  0.12223  1.0000 -0.0245590675
C   C101      1.0  0.59863  0.06827  0.08822  1.0000 -0.1652886591
H   H61       1.0  0.63833  0.05907  0.07657  1.0000 0.104445839
C   C102      1.0  0.43253  0.96607  0.02287  1.0000 -0.0560174889
H   H62       1.0  0.62903  0.08387  0.02217  1.0000 0.2541349622
F   F21       1.0  0.35593  0.91437  0.04717  1.0000 -0.1630526659
H   H63       1.0  0.38753  0.94387  0.03807  1.0000 0.1855083825
O   O43       1.0  0.55855  0.96987  0.45559  1.0000 -0.5215886061
O   O44       1.0  0.51837  0.88968  0.50308  1.0000 -0.5282076042
C   C103      1.0  0.54810  0.90790  0.47257  1.0000 0.5818451271
C   C104      1.0  0.56910  0.84929  0.45556  1.0000 -0.0245590675
C   C105      1.0  0.59840  0.86370  0.42155  1.0000 -0.1652886591
H   H64       1.0  0.60760  0.91260  0.40990  1.0000 0.104445839
C   C106      1.0  0.70060  0.79980  0.35620  1.0000 -0.0560174889
H   H65       1.0  0.58280  0.87850  0.35550  1.0000 0.2541349622
F   F22       1.0  0.75230  0.77490  0.38050  1.0000 -0.1652886591
H   H66       1.0  0.72280  0.77700  0.37140  1.0000 0.1855083825
O   O45       1.0  0.22522  0.30320  0.78892  1.0000 -0.5215886061
O   O46       1.0  0.18504  0.22301  0.83641  1.0000 -0.5282076042
C   C107      1.0  0.21477  0.24123  0.80590  1.0000 0.5818451271
C   C108      1.0  0.23577  0.18262  0.78889  1.0000 -0.0245590675
C   C109      1.0  0.26507  0.19703  0.75488  1.0000 -0.1652886591
H   H67       1.0  0.27427  0.24593  0.74323  1.0000 0.104445839
C   C110      1.0  0.36727  0.13313  0.68953  1.0000 -0.0560174889
H   H68       1.0  0.24947  0.21183  0.68883  1.0000 0.2541349622
F   F23       1.0  0.41897  0.10823  0.71383  1.0000 -0.1630526659
H   H69       1.0  0.38947  0.11033  0.70473  1.0000 0.1855083825
O   O47       1.0  0.89188  0.63654  0.12226  1.0000 -0.5215886061
O   O48       1.0  0.85170  0.55635  0.16975  1.0000 -0.5282076042
C   C111      1.0  0.88143  0.57457  0.13924  1.0000 0.5818451271
C   C112      1.0  0.90243  0.51596  0.12223  1.0000 -0.0245590675
C   C113      1.0  0.93173  0.53037  0.08822  1.0000 -0.1652886591
H   H70       1.0  0.94093  0.57927  0.07657  1.0000 0.104445839
C   C114      1.0  0.03393  0.46647  0.02287  1.0000 -0.0560174889
H   H71       1.0  0.91613  0.54517  0.02217  1.0000 0.2541349622
F   F24       1.0  0.08563  0.44157  0.04717  1.0000 -0.1630526659
H   H72       1.0  0.05613  0.44367  0.03807  1.0000 0.1844902858
O   O49       1.0  0.03013  0.58868  0.45559  1.0000 -0.5215886061
O   O50       1.0  0.11032  0.62869  0.50308  1.0000 -0.5282076042
C   C115      1.0  0.09210  0.64020  0.47257  1.0000 0.5818451271
C   C116      1.0  0.15071  0.71981  0.45556  1.0000 -0.0245590675
C   C117      1.0  0.13630  0.73470  0.42155  1.0000 -0.1652886591
H   H73       1.0  0.08740  0.69500  0.40990  1.0000 0.104445839
C   C118      1.0  0.20020  0.90080  0.35620  1.0000 -0.0530438553
H   H74       1.0  0.12150  0.70430  0.35550  1.0000 0.2541349622
F   F25       1.0  0.22510  0.97740  0.38050  1.0000 -0.1630526659
H   H75       1.0  0.22300  0.94580  0.37140  1.0000 0.1855083825
O   O51       1.0  0.69680  0.92201  0.78892  1.0000 -0.5215886061
O   O52       1.0  0.77699  0.96202  0.83641  1.0000 -0.5282076042
C   C119      1.0  0.75877  0.97353  0.80590  1.0000 0.5818451271
C   C120      1.0  0.81738  0.05314  0.78889  1.0000 -0.0245590675
C   C121      1.0  0.80297  0.06803  0.75488  1.0000 -0.1630526659
H   H76       1.0  0.75407  0.02833  0.74323  1.0000 0.104445839
C   C122      1.0  0.86687  0.23413  0.68953  1.0000 -0.0530438553
H   H77       1.0  0.78817  0.03763  0.68883  1.0000 0.2541349622
F   F26       1.0  0.89177  0.31073  0.71383  1.0000 -0.1630526659
H   H78       1.0  0.88967  0.27913  0.70473  1.0000 0.1855083825
O   O53       1.0  0.36346  0.25535  0.12226  1.0000 -0.5215886061
O   O54       1.0  0.44365  0.29536  0.16975  1.0000 -0.5282076042
C   C123      1.0  0.42543  0.30687  0.13924  1.0000 0.5818451271
C   C124      1.0  0.48404  0.38648  0.12223  1.0000 -0.0275684138
C   C125      1.0  0.46963  0.40137  0.08822  1.0000 -0.1652886591
H   H79       1.0  0.42073  0.36167  0.07657  1.0000 0.104445839
C   C126      1.0  0.53353  0.56747  0.02287  1.0000 -0.0560174889
H   H80       1.0  0.45483  0.37097  0.02217  1.0000 0.2541349622
F   F27       1.0  0.55843  0.64407  0.04717  1.0000 -0.1652886591
H   H81       1.0  0.55633  0.61247  0.03807  1.0000 0.1855083825
O   O55       1.0  0.44145  0.41132  0.54441  1.0000 -0.5215886061
O   O56       1.0  0.48163  0.37131  0.49692  1.0000 -0.5282076042
C   C127      1.0  0.45190  0.35980  0.52743  1.0000 0.5818451271
C   C128      1.0  0.43090  0.28019  0.54444  1.0000 -0.0245590675
C   C129      1.0  0.40160  0.26530  0.57845  1.0000 -0.1652886591
H   H82       1.0  0.39240  0.30500  0.59010  1.0000 0.104445839
C   C130      1.0  0.29940  0.09920  0.64380  1.0000 -0.0530438553
H   H83       1.0  0.41720  0.29570  0.64450  1.0000 0.2541349622
F   F28       1.0  0.24770  0.02260  0.61950  1.0000 -0.1630526659
H   H84       1.0  0.27720  0.05420  0.62860  1.0000 0.1844902858
O   O57       1.0  0.10812  0.74465  0.87774  1.0000 -0.5215886061
O   O58       1.0  0.14830  0.70464  0.83025  1.0000 -0.5282076042
C   C131      1.0  0.11857  0.69313  0.86076  1.0000 0.5818451271
C   C132      1.0  0.09757  0.61352  0.87777  1.0000 -0.0245590675
C   C133      1.0  0.06827  0.59863  0.91178  1.0000 -0.1652886591
H   H85       1.0  0.05907  0.63833  0.92343  1.0000 0.104445839
C   C134      1.0  0.96607  0.43253  0.97713  1.0000 -0.0560174889
H   H86       1.0  0.08387  0.62903  0.97783  1.0000 0.2541349622
F   F29       1.0  0.91437  0.35593  0.95283  1.0000 -0.1630526659
H   H87       1.0  0.94387  0.38753  0.96193  1.0000 0.1855083825
O   O59       1.0  0.77478  0.07799  0.21108  1.0000 -0.5215886061
O   O60       1.0  0.81496  0.03798  0.16359  1.0000 -0.5282076042
C   C135      1.0  0.78523  0.02647  0.19410  1.0000 0.5818451271
C   C136      1.0  0.76423  0.94686  0.21111  1.0000 -0.0245590675
C   C137      1.0  0.73493  0.93197  0.24512  1.0000 -0.1652886591
H   H88       1.0  0.72573  0.97167  0.25677  1.0000 0.104445839
C   C138      1.0  0.63273  0.76587  0.31047  1.0000 -0.0560174889
H   H89       1.0  0.75053  0.96237  0.31117  1.0000 0.2541349622
F   F30       1.0  0.58103  0.68927  0.28617  1.0000 -0.1652886591
H   H90       1.0  0.61053  0.72087  0.29527  1.0000 0.1855083825
O   O61       1.0  0.96987  0.55855  0.54441  1.0000 -0.5215886061
O   O62       1.0  0.88968  0.51837  0.49692  1.0000 -0.5282076042
C   C139      1.0  0.90790  0.54810  0.52743  1.0000 0.5818451271
C   C140      1.0  0.84929  0.56910  0.54444  1.0000 -0.0245590675
C   C141      1.0  0.86370  0.59840  0.57845  1.0000 -0.1652886591
H   H91       1.0  0.91260  0.60760  0.59010  1.0000 0.104445839
C   C142      1.0  0.79980  0.70060  0.64380  1.0000 -0.0530438553
H   H92       1.0  0.87850  0.58280  0.64450  1.0000 0.2541349622
F   F31       1.0  0.77490  0.75230  0.61950  1.0000 -0.1630526659
H   H93       1.0  0.77700  0.72280  0.62860  1.0000 0.1855083825
O   O63       1.0  0.63654  0.89188  0.87774  1.0000 -0.5215886061
O   O64       1.0  0.55635  0.85170  0.83025  1.0000 -0.5282076042
C   C143      1.0  0.57457  0.88143  0.86076  1.0000 0.5818451271
C   C144      1.0  0.51596  0.90243  0.87777  1.0000 -0.0245590675
C   C145      1.0  0.53037  0.93173  0.91178  1.0000 -0.1652886591
H   H94       1.0  0.57927  0.94093  0.92343  1.0000 0.104445839
C   C146      1.0  0.46647  0.03393  0.97713  1.0000 -0.0560174889
H   H95       1.0  0.54517  0.91613  0.97783  1.0000 0.2541349622
F   F32       1.0  0.44157  0.08563  0.95283  1.0000 -0.1630526659
H   H96       1.0  0.44367  0.05613  0.96193  1.0000 0.1855083825
O   O65       1.0  0.30320  0.22522  0.21108  1.0000 -0.5215886061
O   O66       1.0  0.22301  0.18504  0.16359  1.0000 -0.5282076042
C   C147      1.0  0.24123  0.21477  0.19410  1.0000 0.5818451271
C   C148      1.0  0.18262  0.23577  0.21111  1.0000 -0.0245590675
C   C149      1.0  0.19703  0.26507  0.24512  1.0000 -0.1652886591
H   H97       1.0  0.24593  0.27427  0.25677  1.0000 0.104445839
C   C150      1.0  0.13313  0.36727  0.31047  1.0000 -0.0560174889
H   H98       1.0  0.21183  0.24947  0.31117  1.0000 0.2541349622
F   F33       1.0  0.10823  0.41897  0.28617  1.0000 -0.1630526659
H   H99       1.0  0.11033  0.38947  0.29527  1.0000 0.1855083825
O   O67       1.0  0.58868  0.03013  0.54441  1.0000 -0.5215886061
O   O68       1.0  0.62869  0.11032  0.49692  1.0000 -0.5282076042
C   C151      1.0  0.64020  0.09210  0.52743  1.0000 0.5818451271
C   C152      1.0  0.71981  0.15071  0.54444  1.0000 -0.0245590675
C   C153      1.0  0.73470  0.13630  0.57845  1.0000 -0.1630526659
H   H100      1.0  0.69500  0.08740  0.59010  1.0000 0.104445839
C   C154      1.0  0.90080  0.20020  0.64380  1.0000 -0.0560174889
H   H101      1.0  0.70430  0.12150  0.64450  1.0000 0.2541349622
F   F34       1.0  0.97740  0.22510  0.61950  1.0000 -0.1630526659
H   H102      1.0  0.94580  0.22300  0.62860  1.0000 0.1855083825
O   O69       1.0  0.25535  0.36346  0.87774  1.0000 -0.5215886061
O   O70       1.0  0.29536  0.44365  0.83025  1.0000 -0.5282076042
C   C155      1.0  0.30687  0.42543  0.86076  1.0000 0.5818451271
C   C156      1.0  0.38648  0.48404  0.87777  1.0000 -0.0275684138
C   C157      1.0  0.40137  0.46963  0.91178  1.0000 -0.1630526659
H   H103      1.0  0.36167  0.42073  0.92343  1.0000 0.104445839
C   C158      1.0  0.56747  0.53353  0.97713  1.0000 -0.0530438553
H   H104      1.0  0.37097  0.45483  0.97783  1.0000 0.2541349622
F   F35       1.0  0.64407  0.55843  0.95283  1.0000 -0.1630526659
H   H105      1.0  0.61247  0.55633  0.96193  1.0000 0.1855083825
O   O71       1.0  0.92201  0.69680  0.21108  1.0000 -0.5215886061
O   O72       1.0  0.96202  0.77699  0.16359  1.0000 -0.5282076042
C   C159      1.0  0.97353  0.75877  0.19410  1.0000 0.5818451271
C   C160      1.0  0.05314  0.81738  0.21111  1.0000 -0.0245590675
C   C161      1.0  0.06803  0.80297  0.24512  1.0000 -0.1652886591
H   H106      1.0  0.02833  0.75407  0.25677  1.0000 0.104445839
C   C162      1.0  0.23413  0.86687  0.31047  1.0000 -0.0560174889
H   H107      1.0  0.03763  0.78817  0.31117  1.0000 0.2541349622
F   F36       1.0  0.31073  0.89177  0.28617  1.0000 -0.1630526659
H   H108      1.0  0.27913  0.88967  0.29527  1.0000 0.1855083825
Cu  Cu1       1.0  0.47617  0.52383  0.52823  1.0000 0.8684229859
Cu  Cu2       1.0  0.14284  0.85716  0.86156  1.0000 0.8684229859
Cu  Cu3       1.0  0.80950  0.19050  0.19490  1.0000 0.8684229859
Cu  Cu4       1.0  0.47617  0.95234  0.52823  1.0000 0.8684229859
Cu  Cu5       1.0  0.14284  0.28567  0.86156  1.0000 0.8684229859
Cu  Cu6       1.0  0.80950  0.61901  0.19490  1.0000 0.8684229859
Cu  Cu7       1.0  0.04766  0.52383  0.52823  1.0000 0.8684229859
Cu  Cu8       1.0  0.71433  0.85716  0.86156  1.0000 0.8684229859
Cu  Cu9       1.0  0.38099  0.19050  0.19490  1.0000 0.8684229859
Cu  Cu10      1.0  0.52383  0.47617  0.47177  1.0000 0.8684229859
Cu  Cu11      1.0  0.19050  0.80950  0.80510  1.0000 0.8684229859
Cu  Cu12      1.0  0.85716  0.14284  0.13844  1.0000 0.8684229859
Cu  Cu13      1.0  0.95234  0.47617  0.47177  1.0000 0.8684229859
Cu  Cu14      1.0  0.61901  0.80950  0.80510  1.0000 0.8684229859
Cu  Cu15      1.0  0.28567  0.14284  0.13844  1.0000 0.8684229859
Cu  Cu16      1.0  0.52383  0.04766  0.47177  1.0000 0.8684229859
Cu  Cu17      1.0  0.19050  0.38099  0.80510  1.0000 0.8684229859
Cu  Cu18      1.0  0.85716  0.71433  0.13844  1.0000 0.8684229859
C   C163      1.0  0.80720  0.61440  0.59549  1.0000 0.0107115272
C   C164      1.0  0.77685  0.55370  0.52778  1.0000 -0.1114526412
H   H109      1.0  0.76620  0.53240  0.50470  1.0000 0.1407357728
C   C165      1.0  0.82040  0.64080  0.63259  1.0000 0.087861605
C   C166      1.0  0.47387  0.94773  0.92882  1.0000 0.0107115272
C   C167      1.0  0.44352  0.88703  0.86111  1.0000 -0.1114526412
H   H110      1.0  0.43287  0.86573  0.83803  1.0000 0.1407357728
C   C168      1.0  0.48707  0.97413  0.96592  1.0000 0.087861605
C   C169      1.0  0.14053  0.28107  0.26216  1.0000 0.0107115272
C   C170      1.0  0.11018  0.22037  0.19445  1.0000 -0.1114526412
H   H111      1.0  0.09953  0.19907  0.17137  1.0000 0.1407357728
C   C171      1.0  0.15373  0.30747  0.29926  1.0000 0.087861605
C   C172      1.0  0.38560  0.19280  0.59549  1.0000 0.0163676311
C   C173      1.0  0.44630  0.22315  0.52778  1.0000 -0.1114526412
H   H112      1.0  0.46760  0.23380  0.50470  1.0000 0.1407357728
C   C174      1.0  0.35920  0.17960  0.63259  1.0000 0.087861605
C   C175      1.0  0.05227  0.52613  0.92882  1.0000 0.0107115272
C   C176      1.0  0.11297  0.55648  0.86111  1.0000 -0.1114526412
H   H113      1.0  0.13427  0.56713  0.83803  1.0000 0.1407357728
C   C177      1.0  0.02587  0.51293  0.96592  1.0000 0.087861605
C   C178      1.0  0.71893  0.85947  0.26216  1.0000 0.0107115272
C   C179      1.0  0.77963  0.88982  0.19445  1.0000 -0.1114526412
H   H114      1.0  0.80093  0.90047  0.17137  1.0000 0.1407357728
C   C180      1.0  0.69253  0.84627  0.29926  1.0000 0.087861605
C   C181      1.0  0.80720  0.19280  0.59549  1.0000 0.0107115272
C   C182      1.0  0.77685  0.22315  0.52778  1.0000 -0.1114526412
H   H115      1.0  0.76620  0.23380  0.50470  1.0000 0.1407357728
C   C183      1.0  0.82040  0.17960  0.63259  1.0000 0.087861605
C   C184      1.0  0.47387  0.52613  0.92882  1.0000 0.0107115272
C   C185      1.0  0.44352  0.55648  0.86111  1.0000 -0.1114526412
H   H116      1.0  0.43287  0.56713  0.83803  1.0000 0.1407357728
C   C186      1.0  0.48707  0.51293  0.96592  1.0000 0.087861605
C   C187      1.0  0.14053  0.85947  0.26216  1.0000 0.0163676311
C   C188      1.0  0.11018  0.88982  0.19445  1.0000 -0.1114526412
H   H117      1.0  0.09953  0.90047  0.17137  1.0000 0.1407357728
C   C189      1.0  0.15373  0.84627  0.29926  1.0000 0.087861605
C   C190      1.0  0.61440  0.80720  0.40451  1.0000 0.0107115272
C   C191      1.0  0.55370  0.77685  0.47222  1.0000 -0.1114526412
H   H118      1.0  0.53240  0.76620  0.49530  1.0000 0.1407357728
C   C192      1.0  0.64080  0.82040  0.36741  1.0000 0.087861605
C   C193      1.0  0.28107  0.14053  0.73784  1.0000 0.0107115272
C   C194      1.0  0.22037  0.11018  0.80555  1.0000 -0.1114526412
H   H119      1.0  0.19907  0.09953  0.82863  1.0000 0.1407357728
C   C195      1.0  0.30747  0.15373  0.70074  1.0000 0.087861605
C   C196      1.0  0.94773  0.47387  0.07118  1.0000 0.0163676311
C   C197      1.0  0.88703  0.44352  0.13889  1.0000 -0.1114526412
H   H120      1.0  0.86573  0.43287  0.16197  1.0000 0.1407357728
C   C198      1.0  0.97413  0.48707  0.03408  1.0000 0.087861605
C   C199      1.0  0.19280  0.38560  0.40451  1.0000 0.0107115272
C   C200      1.0  0.22315  0.44630  0.47222  1.0000 -0.1114526412
H   H121      1.0  0.23380  0.46760  0.49530  1.0000 0.1407357728
C   C201      1.0  0.17960  0.35920  0.36741  1.0000 0.087861605
C   C202      1.0  0.85947  0.71893  0.73784  1.0000 0.0107115272
C   C203      1.0  0.88982  0.77963  0.80555  1.0000 -0.1114526412
H   H122      1.0  0.90047  0.80093  0.82863  1.0000 0.1407357728
C   C204      1.0  0.84627  0.69253  0.70074  1.0000 0.087861605
C   C205      1.0  0.52613  0.05227  0.07118  1.0000 0.0107115272
C   C206      1.0  0.55648  0.11297  0.13889  1.0000 -0.1114526412
H   H123      1.0  0.56713  0.13427  0.16197  1.0000 0.1407357728
C   C207      1.0  0.51293  0.02587  0.03408  1.0000 0.087861605
C   C208      1.0  0.19280  0.80720  0.40451  1.0000 0.0107115272
C   C209      1.0  0.22315  0.77685  0.47222  1.0000 -0.1114526412
H   H124      1.0  0.23380  0.76620  0.49530  1.0000 0.1407357728
C   C210      1.0  0.17960  0.82040  0.36741  1.0000 0.087861605
C   C211      1.0  0.85947  0.14053  0.73784  1.0000 0.0107115272
C   C212      1.0  0.88982  0.11018  0.80555  1.0000 -0.1114526412
H   H125      1.0  0.90047  0.09953  0.82863  1.0000 0.1407357728
C   C213      1.0  0.84627  0.15373  0.70074  1.0000 0.087861605
C   C214      1.0  0.52613  0.47387  0.07118  1.0000 0.0163676311
C   C215      1.0  0.55648  0.44352  0.13889  1.0000 -0.1114526412
H   H126      1.0  0.56713  0.43287  0.16197  1.0000 0.1407357728
C   C216      1.0  0.51293  0.48707  0.03408  1.0000 0.087861605
  C   C217      1.0  0.75860  0.61550  0.65377  1.0000
  N   N19       1.0  0.85690  0.61550  0.65377  1.0000
  C   C218      1.0  0.42527  0.94883  0.98710  1.0000
  N   N20       1.0  0.52357  0.94883  0.98710  1.0000
  C   C219      1.0  0.09193  0.28217  0.32044  1.0000
  N   N21       1.0  0.19023  0.28217  0.32044  1.0000
  C   C220      1.0  0.38450  0.14310  0.65377  1.0000
  N   N22       1.0  0.38450  0.24140  0.65377  1.0000
  C   C221      1.0  0.05117  0.47643  0.98710  1.0000
  N   N23       1.0  0.05117  0.57473  0.98710  1.0000
  C   C222      1.0  0.71783  0.80977  0.32044  1.0000
  N   N24       1.0  0.71783  0.90807  0.32044  1.0000
  C   C223      1.0  0.85690  0.24140  0.65377  1.0000
  N   N25       1.0  0.75860  0.14310  0.65377  1.0000
  C   C224      1.0  0.52357  0.57473  0.98710  1.0000
  N   N26       1.0  0.42527  0.47643  0.98710  1.0000
  C   C225      1.0  0.19023  0.90807  0.32044  1.0000
  N   N27       1.0  0.09193  0.80977  0.32044  1.0000
  C   C226      1.0  0.61550  0.75860  0.34623  1.0000
  N   N28       1.0  0.61550  0.85690  0.34623  1.0000
  C   C227      1.0  0.28217  0.09193  0.67956  1.0000
  N   N29       1.0  0.28217  0.19023  0.67956  1.0000
  C   C228      1.0  0.94883  0.42527  0.01290  1.0000
  N   N30       1.0  0.94883  0.52357  0.01290  1.0000
  C   C229      1.0  0.14310  0.38450  0.34623  1.0000
  N   N31       1.0  0.24140  0.38450  0.34623  1.0000
  C   C230      1.0  0.80977  0.71783  0.67956  1.0000
  N   N32       1.0  0.90807  0.71783  0.67956  1.0000
  C   C231      1.0  0.47643  0.05117  0.01290  1.0000
  N   N33       1.0  0.57473  0.05117  0.01290  1.0000
  C   C232      1.0  0.24140  0.85690  0.34623  1.0000
  N   N34       1.0  0.14310  0.75860  0.34623  1.0000
  C   C233      1.0  0.90807  0.19023  0.67956  1.0000
  N   N35       1.0  0.80977  0.09193  0.67956  1.0000
  C   C234      1.0  0.57473  0.52357  0.01290  1.0000
  N   N36       1.0  0.47643  0.42527  0.01290  1.0000
