# DDEC6 charges by PACMAN v1.1 (https://github.com/mtap-research/PACMAN-charge/)
data_EFAYIU_ASR_pacman
_symmetry_space_group_name_H-M   'P 1'
_cell_length_a   29.56650000
_cell_length_b   29.56650000
_cell_length_c   31.15630000
_cell_angle_alpha   76.27430000
_cell_angle_beta   103.72600000
_cell_angle_gamma   89.99620000
_symmetry_Int_Tables_number   1
_chemical_formula_structural   ZnH9(C4O)6
_chemical_formula_sum   'Zn16 H144 C384 O96'
_cell_volume   25656.86199530
_cell_formula_units_Z   16
loop_
 _symmetry_equiv_pos_site_id
 _symmetry_equiv_pos_as_xyz
  1  'x, y, z'
loop_
 _atom_site_type_symbol
 _atom_site_label
 _atom_site_symmetry_multiplicity
 _atom_site_fract_x
 _atom_site_fract_y
 _atom_site_fract_z
 _atom_site_occupancy
 _atom_site_charge
Zn  Zn1  1  0.00773000  0.53309000  0.02982000  1.0 0.9481519906
Zn  Zn2  1  0.53309000  0.00773000  0.47018000  1.0 0.9481519906
Zn  Zn3  1  0.99227000  0.46691000  0.97018000  1.0 0.9481519906
Zn  Zn4  1  0.46691000  0.99227000  0.52982000  1.0 0.9481519906
Zn  Zn5  1  0.70198000  0.50744000  0.47037000  1.0 0.9481519906
Zn  Zn6  1  0.50744000  0.70198000  0.02963000  1.0 0.9481519906
Zn  Zn7  1  0.29802000  0.49256000  0.52963000  1.0 0.9481519906
Zn  Zn8  1  0.49256000  0.29802000  0.97037000  1.0 0.9481519906
Zn  Zn9  1  0.03327000  0.00725000  0.47040000  1.0 0.9481519906
Zn  Zn10  1  0.00725000  0.03327000  0.02960000  1.0 0.9481519906
Zn  Zn11  1  0.96673000  0.99275000  0.52960000  1.0 0.9481519906
Zn  Zn12  1  0.99275000  0.96673000  0.97040000  1.0 0.9481519906
Zn  Zn13  1  0.79808000  0.49258000  0.52982000  1.0 0.9423549322
Zn  Zn14  1  0.49258000  0.79808000  0.97018000  1.0 0.9423549322
Zn  Zn15  1  0.20192000  0.50742000  0.47018000  1.0 0.9423549322
Zn  Zn16  1  0.50742000  0.20192000  0.02982000  1.0 0.9423549322
H  H1  1  0.77360000  0.35120000  0.09810000  1.0 0.1292278969
H  H2  1  0.35120000  0.77360000  0.40190000  1.0 0.1292278969
H  H3  1  0.22640000  0.64880000  0.90190000  1.0 0.1292278969
H  H4  1  0.64880000  0.22640000  0.59810000  1.0 0.1292278969
H  H5  1  0.85110000  0.27350000  0.40210000  1.0 0.1292278969
H  H6  1  0.27350000  0.85110000  0.09790000  1.0 0.1292278969
H  H7  1  0.14890000  0.72650000  0.59790000  1.0 0.1292278969
H  H8  1  0.72650000  0.14890000  0.90210000  1.0 0.1292278969
H  H9  1  0.84740000  0.34080000  0.07910000  1.0 0.1292278969
H  H10  1  0.34080000  0.84740000  0.42090000  1.0 0.1292278969
H  H11  1  0.15260000  0.65920000  0.92090000  1.0 0.1292278969
H  H12  1  0.65920000  0.15260000  0.57910000  1.0 0.1292278969
H  H13  1  0.89680000  0.38100000  0.03670000  1.0 0.1292278969
H  H14  1  0.38100000  0.89680000  0.46330000  1.0 0.1292278969
H  H15  1  0.10320000  0.61900000  0.96330000  1.0 0.1292278969
H  H16  1  0.61900000  0.10320000  0.53670000  1.0 0.1292278969
H  H17  1  0.92890000  0.46350000  0.12530000  1.0 0.1292278969
H  H18  1  0.46350000  0.92890000  0.37470000  1.0 0.1292278969
H  H19  1  0.07110000  0.53650000  0.87470000  1.0 0.1292278969
H  H20  1  0.53650000  0.07110000  0.62530000  1.0 0.1292278969
H  H21  1  0.87960000  0.42320000  0.16780000  1.0 0.1292278969
H  H22  1  0.42320000  0.87960000  0.33220000  1.0 0.1292278969
H  H23  1  0.12040000  0.57680000  0.83220000  1.0 0.1292278969
H  H24  1  0.57680000  0.12040000  0.66780000  1.0 0.1292278969
H  H25  1  0.69190000  0.36970000  0.07980000  1.0 0.1292278969
H  H26  1  0.36970000  0.69190000  0.42020000  1.0 0.1218772786
H  H27  1  0.30810000  0.63030000  0.92020000  1.0 0.1292278969
H  H28  1  0.63030000  0.30810000  0.57980000  1.0 0.1292278969
H  H29  1  0.62110000  0.35030000  0.03800000  1.0 0.1292278969
H  H30  1  0.35030000  0.62110000  0.46200000  1.0 0.1292278969
H  H31  1  0.37890000  0.64970000  0.96200000  1.0 0.1292278969
H  H32  1  0.64970000  0.37890000  0.53800000  1.0 0.1292278969
H  H33  1  0.63490000  0.22310000  0.12610000  1.0 0.1292278969
H  H34  1  0.22310000  0.63490000  0.37390000  1.0 0.1292278969
H  H35  1  0.36510000  0.77690000  0.87390000  1.0 0.1292278969
H  H36  1  0.77690000  0.36510000  0.62610000  1.0 0.1292278969
H  H37  1  0.70580000  0.24240000  0.16790000  1.0 0.1292278969
H  H38  1  0.24240000  0.70580000  0.33210000  1.0 0.1292278969
H  H39  1  0.29420000  0.75760000  0.83210000  1.0 0.1218772786
H  H40  1  0.75760000  0.29420000  0.66790000  1.0 0.1218772786
H  H41  1  0.92470000  0.20450000  0.33210000  1.0 0.1292278969
H  H42  1  0.20450000  0.92470000  0.16790000  1.0 0.1292278969
H  H43  1  0.07530000  0.79550000  0.66790000  1.0 0.1292278969
H  H44  1  0.79550000  0.07530000  0.83210000  1.0 0.1292278969
H  H45  1  0.96480000  0.13360000  0.37420000  1.0 0.1292278969
H  H46  1  0.13360000  0.96480000  0.12580000  1.0 0.1292278969
H  H47  1  0.03520000  0.86640000  0.62580000  1.0 0.1292278969
H  H48  1  0.86640000  0.03520000  0.87420000  1.0 0.1292278969
H  H49  1  0.88280000  0.12140000  0.46330000  1.0 0.1292278969
H  H50  1  0.12140000  0.88280000  0.03670000  1.0 0.1292278969
H  H51  1  0.11720000  0.87860000  0.53670000  1.0 0.1292278969
H  H52  1  0.87860000  0.11720000  0.96330000  1.0 0.1292278969
H  H53  1  0.84260000  0.19220000  0.42120000  1.0 0.1292278969
H  H54  1  0.19220000  0.84260000  0.07880000  1.0 0.1292278969
H  H55  1  0.15740000  0.80780000  0.57880000  1.0 0.1292278969
H  H56  1  0.80780000  0.15740000  0.92120000  1.0 0.1292278969
H  H57  1  0.72500000  0.64800000  0.90360000  1.0 0.1292278969
H  H58  1  0.64800000  0.72500000  0.59640000  1.0 0.1218772786
H  H59  1  0.27500000  0.35200000  0.09640000  1.0 0.1292278969
H  H60  1  0.35200000  0.27500000  0.40360000  1.0 0.1218772786
H  H61  1  0.61910000  0.75650000  0.83120000  1.0 0.1292278969
H  H62  1  0.75650000  0.61910000  0.66880000  1.0 0.1292278969
H  H63  1  0.38090000  0.24350000  0.16880000  1.0 0.1292278969
H  H64  1  0.24350000  0.38090000  0.33120000  1.0 0.1292278969
H  H65  1  0.56980000  0.77560000  0.87370000  1.0 0.1292278969
H  H66  1  0.77560000  0.56980000  0.62630000  1.0 0.1292278969
H  H67  1  0.43020000  0.22440000  0.12630000  1.0 0.1292278969
H  H68  1  0.22440000  0.43020000  0.37370000  1.0 0.1292278969
H  H69  1  0.60430000  0.64990000  0.96390000  1.0 0.1292278969
H  H70  1  0.64990000  0.60430000  0.53610000  1.0 0.1292278969
H  H71  1  0.39570000  0.35010000  0.03610000  1.0 0.1292278969
H  H72  1  0.35010000  0.39570000  0.46390000  1.0 0.1292278969
H  H73  1  0.65360000  0.63080000  0.92130000  1.0 0.1218772786
H  H74  1  0.63080000  0.65360000  0.57870000  1.0 0.1218772786
H  H75  1  0.34640000  0.36920000  0.07870000  1.0 0.1218772786
H  H76  1  0.36920000  0.34640000  0.42130000  1.0 0.1218772786
H  H77  1  0.80890000  0.65930000  0.92110000  1.0 0.1218772786
H  H78  1  0.65930000  0.80890000  0.57890000  1.0 0.1218772786
H  H79  1  0.19110000  0.34070000  0.07890000  1.0 0.1218772786
H  H80  1  0.34070000  0.19110000  0.42110000  1.0 0.1218772786
H  H81  1  0.88000000  0.61920000  0.96280000  1.0 0.1292278969
H  H82  1  0.61920000  0.88000000  0.53720000  1.0 0.1292278969
H  H83  1  0.12000000  0.38080000  0.03720000  1.0 0.1292278969
H  H84  1  0.38080000  0.12000000  0.46280000  1.0 0.1292278969
H  H85  1  0.86680000  0.53680000  0.87410000  1.0 0.1292278969
H  H86  1  0.53680000  0.86680000  0.62590000  1.0 0.1292278969
H  H87  1  0.13320000  0.46320000  0.12590000  1.0 0.1292278969
H  H88  1  0.46320000  0.13320000  0.37410000  1.0 0.1292278969
H  H89  1  0.79570000  0.57690000  0.83240000  1.0 0.1292278969
H  H90  1  0.57690000  0.79570000  0.66760000  1.0 0.1292278969
H  H91  1  0.20430000  0.42310000  0.16760000  1.0 0.1292278969
H  H92  1  0.42310000  0.20430000  0.33240000  1.0 0.1292278969
H  H93  1  0.85030000  0.77510000  0.40420000  1.0 0.1292278969
H  H94  1  0.77510000  0.85030000  0.09580000  1.0 0.1218772786
H  H95  1  0.14970000  0.22490000  0.59580000  1.0 0.1292278969
H  H96  1  0.22490000  0.14970000  0.90420000  1.0 0.1292278969
H  H97  1  0.84060000  0.84860000  0.42170000  1.0 0.1218772786
H  H98  1  0.84860000  0.84060000  0.07830000  1.0 0.1218772786
H  H99  1  0.15940000  0.15140000  0.57830000  1.0 0.1218772786
H  H100  1  0.15140000  0.15940000  0.92170000  1.0 0.1218772786
H  H101  1  0.88100000  0.89780000  0.46440000  1.0 0.1292278969
H  H102  1  0.89780000  0.88100000  0.03560000  1.0 0.1292278969
H  H103  1  0.11900000  0.10220000  0.53560000  1.0 0.1292278969
H  H104  1  0.10220000  0.11900000  0.96440000  1.0 0.1292278969
H  H105  1  0.96350000  0.93010000  0.37570000  1.0 0.1292278969
H  H106  1  0.93010000  0.96350000  0.12430000  1.0 0.1292278969
H  H107  1  0.03650000  0.06990000  0.62430000  1.0 0.1292278969
H  H108  1  0.06990000  0.03650000  0.87570000  1.0 0.1292278969
H  H109  1  0.92310000  0.88090000  0.33310000  1.0 0.1292278969
H  H110  1  0.88090000  0.92310000  0.16690000  1.0 0.1292278969
H  H111  1  0.07690000  0.11910000  0.66690000  1.0 0.1292278969
H  H112  1  0.11910000  0.07690000  0.83310000  1.0 0.1292278969
H  H113  1  0.74400000  0.70340000  0.33250000  1.0 0.1292278969
H  H114  1  0.70340000  0.74400000  0.16750000  1.0 0.1292278969
H  H115  1  0.25600000  0.29660000  0.66750000  1.0 0.1292278969
H  H116  1  0.29660000  0.25600000  0.83250000  1.0 0.1292278969
H  H117  1  0.72480000  0.63240000  0.37420000  1.0 0.1292278969
H  H118  1  0.63240000  0.72480000  0.12580000  1.0 0.1292278969
H  H119  1  0.27520000  0.36760000  0.62580000  1.0 0.1292278969
H  H120  1  0.36760000  0.27520000  0.87420000  1.0 0.1292278969
H  H121  1  0.85040000  0.62080000  0.46470000  1.0 0.1292278969
H  H122  1  0.62080000  0.85040000  0.03530000  1.0 0.1292278969
H  H123  1  0.14960000  0.37920000  0.53530000  1.0 0.1292278969
H  H124  1  0.37920000  0.14960000  0.96470000  1.0 0.1292278969
H  H125  1  0.86960000  0.69180000  0.42290000  1.0 0.1218772786
H  H126  1  0.69180000  0.86960000  0.07710000  1.0 0.1218772786
H  H127  1  0.13040000  0.30820000  0.57710000  1.0 0.1218772786
H  H128  1  0.30820000  0.13040000  0.92290000  1.0 0.1218772786
H  H129  1  0.87110000  0.34830000  0.42230000  1.0 0.1292278969
H  H130  1  0.34830000  0.87110000  0.07770000  1.0 0.1292278969
H  H131  1  0.12890000  0.65170000  0.57770000  1.0 0.1292278969
H  H132  1  0.65170000  0.12890000  0.92230000  1.0 0.1292278969
H  H133  1  0.85180000  0.39860000  0.46370000  1.0 0.1292278969
H  H134  1  0.39860000  0.85180000  0.03630000  1.0 0.1292278969
H  H135  1  0.14820000  0.60140000  0.53630000  1.0 0.1292278969
H  H136  1  0.60140000  0.14820000  0.96370000  1.0 0.1292278969
H  H137  1  0.72460000  0.42880000  0.37530000  1.0 0.1292278969
H  H138  1  0.42880000  0.72460000  0.12470000  1.0 0.1292278969
H  H139  1  0.27540000  0.57120000  0.62470000  1.0 0.1292278969
H  H140  1  0.57120000  0.27540000  0.87530000  1.0 0.1292278969
H  H141  1  0.74400000  0.37840000  0.33390000  1.0 0.1292278969
H  H142  1  0.37840000  0.74400000  0.16610000  1.0 0.1292278969
H  H143  1  0.25600000  0.62160000  0.66610000  1.0 0.1292278969
H  H144  1  0.62160000  0.25600000  0.83390000  1.0 0.1292278969
C  C1  1  0.80898000  0.31854000  0.22585000  1.0 -0.105755985
C  C2  1  0.31854000  0.80898000  0.27415000  1.0 -0.1008109778
C  C3  1  0.19102000  0.68146000  0.77415000  1.0 -0.1008109778
C  C4  1  0.68146000  0.19102000  0.72585000  1.0 -0.105755985
C  C5  1  0.83944000  0.34252000  0.20090000  1.0 0.2282404227
C  C6  1  0.34252000  0.83944000  0.29910000  1.0 0.2282404227
C  C7  1  0.16056000  0.65748000  0.79910000  1.0 0.2282404227
C  C8  1  0.65748000  0.16056000  0.70090000  1.0 0.2282404227
C  C9  1  0.82613000  0.35481000  0.15290000  1.0 -0.0298342475
C  C10  1  0.35481000  0.82613000  0.34710000  1.0 -0.0298342475
C  C11  1  0.17387000  0.64519000  0.84710000  1.0 -0.0298342475
C  C12  1  0.64519000  0.17387000  0.65290000  1.0 -0.0298342475
C  C13  1  0.78235000  0.34313000  0.12980000  1.0 -0.1602900149
C  C14  1  0.34313000  0.78235000  0.37020000  1.0 -0.1602900149
C  C15  1  0.21765000  0.65687000  0.87020000  1.0 -0.1602900149
C  C16  1  0.65687000  0.21765000  0.62980000  1.0 -0.1602900149
C  C17  1  0.75189000  0.31915000  0.15470000  1.0 -0.0298342475
C  C18  1  0.31915000  0.75189000  0.34530000  1.0 -0.0298342475
C  C19  1  0.24811000  0.68085000  0.84530000  1.0 -0.0298342475
C  C20  1  0.68085000  0.24811000  0.65470000  1.0 -0.0298342475
C  C21  1  0.76520000  0.30686000  0.20280000  1.0 0.2110607324
C  C22  1  0.30686000  0.76520000  0.29720000  1.0 0.2110607324
C  C23  1  0.23480000  0.69314000  0.79720000  1.0 0.2110607324
C  C24  1  0.69314000  0.23480000  0.70280000  1.0 0.2110607324
C  C25  1  0.81913000  0.30899000  0.27441000  1.0 -0.1008109778
C  C26  1  0.30899000  0.81913000  0.22559000  1.0 -0.105755985
C  C27  1  0.18087000  0.69101000  0.72559000  1.0 -0.1008109778
C  C28  1  0.69101000  0.18087000  0.77441000  1.0 -0.105755985
C  C29  1  0.84248000  0.26524000  0.29730000  1.0 0.2201949207
C  C30  1  0.26524000  0.84248000  0.20270000  1.0 0.2201949207
C  C31  1  0.15752000  0.73476000  0.70270000  1.0 0.2201949207
C  C32  1  0.73476000  0.15752000  0.79730000  1.0 0.2201949207
C  C33  1  0.85451000  0.25189000  0.34540000  1.0 -0.0391957713
C  C34  1  0.25189000  0.85451000  0.15460000  1.0 -0.0298342475
C  C35  1  0.14549000  0.74811000  0.65460000  1.0 -0.0391957713
C  C36  1  0.74811000  0.14549000  0.84540000  1.0 -0.0391957713
C  C37  1  0.84321000  0.28229000  0.37045000  1.0 -0.1602900149
C  C38  1  0.28229000  0.84321000  0.12955000  1.0 -0.1602900149
C  C39  1  0.15679000  0.71771000  0.62955000  1.0 -0.1602900149
C  C40  1  0.71771000  0.15679000  0.87045000  1.0 -0.1602900149
C  C41  1  0.81985000  0.32605000  0.34750000  1.0 -0.0391957713
C  C42  1  0.32605000  0.81985000  0.15250000  1.0 -0.0298342475
C  C43  1  0.18015000  0.67395000  0.65250000  1.0 -0.0391957713
C  C44  1  0.67395000  0.18015000  0.84750000  1.0 -0.0391957713
C  C45  1  0.80782000  0.33940000  0.29950000  1.0 0.2110607324
C  C46  1  0.33940000  0.80782000  0.20050000  1.0 0.2110607324
C  C47  1  0.19218000  0.66060000  0.70050000  1.0 0.2110607324
C  C48  1  0.66060000  0.19218000  0.79950000  1.0 0.2110607324
C  C49  1  0.85837000  0.37783000  0.12780000  1.0 0.0839793605
C  C50  1  0.37783000  0.85837000  0.37220000  1.0 0.0839793605
C  C51  1  0.14163000  0.62217000  0.87220000  1.0 0.0839793605
C  C52  1  0.62217000  0.14163000  0.62780000  1.0 0.0839793605
C  C53  1  0.86360000  0.36514000  0.08830000  1.0 -0.1501566
C  C54  1  0.36514000  0.86360000  0.41170000  1.0 -0.1501566
C  C55  1  0.13640000  0.63486000  0.91170000  1.0 -0.1501566
C  C56  1  0.63486000  0.13640000  0.58830000  1.0 -0.1501566
C  C57  1  0.89339000  0.38943000  0.06273000  1.0 -0.0881345386
C  C58  1  0.38943000  0.89339000  0.43727000  1.0 -0.0881345386
C  C59  1  0.10661000  0.61057000  0.93727000  1.0 -0.0881345386
C  C60  1  0.61057000  0.10661000  0.56273000  1.0 -0.0881345386
C  C61  1  0.91797000  0.42643000  0.07666000  1.0 -0.0298342475
C  C62  1  0.42643000  0.91797000  0.42334000  1.0 -0.0298342475
C  C63  1  0.08203000  0.57357000  0.92334000  1.0 -0.0298342475
C  C64  1  0.57357000  0.08203000  0.57666000  1.0 -0.0298342475
C  C65  1  0.91274000  0.43912000  0.11620000  1.0 -0.0804229892
C  C66  1  0.43912000  0.91274000  0.38380000  1.0 -0.0804229892
C  C67  1  0.08726000  0.56088000  0.88380000  1.0 -0.0881345386
C  C68  1  0.56088000  0.08726000  0.61620000  1.0 -0.0881345386
C  C69  1  0.88295000  0.41483000  0.14172000  1.0 -0.1413674208
C  C70  1  0.41483000  0.88295000  0.35828000  1.0 -0.1413674208
C  C71  1  0.11705000  0.58517000  0.85828000  1.0 -0.1413674208
C  C72  1  0.58517000  0.11705000  0.64172000  1.0 -0.1413674208
C  C73  1  0.70615000  0.30801000  0.12810000  1.0 0.0839793605
C  C74  1  0.30801000  0.70615000  0.37190000  1.0 0.0839793605
C  C75  1  0.29385000  0.69199000  0.87190000  1.0 0.0839793605
C  C76  1  0.69199000  0.29385000  0.62810000  1.0 0.0839793605
C  C77  1  0.68061000  0.34053000  0.08900000  1.0 -0.1602900149
C  C78  1  0.34053000  0.68061000  0.41100000  1.0 -0.1602900149
C  C79  1  0.31939000  0.65947000  0.91100000  1.0 -0.1602900149
C  C80  1  0.65947000  0.31939000  0.58900000  1.0 -0.1602900149
C  C81  1  0.63788000  0.32888000  0.06381000  1.0 -0.0881345386
C  C82  1  0.32888000  0.63788000  0.43619000  1.0 -0.0881345386
C  C83  1  0.36212000  0.67112000  0.93619000  1.0 -0.0881345386
C  C84  1  0.67112000  0.36212000  0.56381000  1.0 -0.0881345386
C  C85  1  0.62070000  0.28472000  0.07775000  1.0 -0.0216580293
C  C86  1  0.28472000  0.62070000  0.42225000  1.0 -0.0216580293
C  C87  1  0.37930000  0.71528000  0.92225000  1.0 -0.0216580293
C  C88  1  0.71528000  0.37930000  0.57775000  1.0 -0.0216580293
C  C89  1  0.64623000  0.25219000  0.11690000  1.0 -0.0804229892
C  C90  1  0.25219000  0.64623000  0.38310000  1.0 -0.0804229892
C  C91  1  0.35377000  0.74781000  0.88310000  1.0 -0.0804229892
C  C92  1  0.74781000  0.35377000  0.61690000  1.0 -0.0804229892
C  C93  1  0.68896000  0.26384000  0.14207000  1.0 -0.1501566
C  C94  1  0.26384000  0.68896000  0.35793000  1.0 -0.1501566
C  C95  1  0.31104000  0.73616000  0.85793000  1.0 -0.1501566
C  C96  1  0.73616000  0.31104000  0.64207000  1.0 -0.1501566
C  C97  1  0.87951000  0.20563000  0.37234000  1.0 0.0953508448
C  C98  1  0.20563000  0.87951000  0.12766000  1.0 0.0891321305
C  C99  1  0.12049000  0.79437000  0.62766000  1.0 0.0891321305
C  C100  1  0.79437000  0.12049000  0.87234000  1.0 0.0891321305
C  C101  1  0.91632000  0.18798000  0.35819000  1.0 -0.1501566
C  C102  1  0.18798000  0.91632000  0.14181000  1.0 -0.1501566
C  C103  1  0.08368000  0.81202000  0.64181000  1.0 -0.1501566
C  C104  1  0.81202000  0.08368000  0.85819000  1.0 -0.1501566
C  C105  1  0.94053000  0.14529000  0.38360000  1.0 -0.0731541223
C  C106  1  0.14529000  0.94053000  0.11640000  1.0 -0.0731541223
C  C107  1  0.05947000  0.85471000  0.61640000  1.0 -0.0731541223
C  C108  1  0.85471000  0.05947000  0.88360000  1.0 -0.0731541223
C  C109  1  0.92793000  0.12027000  0.42310000  1.0 -0.0582886043
C  C110  1  0.12027000  0.92793000  0.07690000  1.0 -0.0582886043
C  C111  1  0.07207000  0.87973000  0.57690000  1.0 -0.0582886043
C  C112  1  0.87973000  0.07207000  0.92310000  1.0 -0.0582886043
C  C113  1  0.89111000  0.13791000  0.43723000  1.0 -0.0731541223
C  C114  1  0.13791000  0.89111000  0.06277000  1.0 -0.0731541223
C  C115  1  0.10889000  0.86209000  0.56277000  1.0 -0.0731541223
C  C116  1  0.86209000  0.10889000  0.93723000  1.0 -0.0731541223
C  C117  1  0.86690000  0.18060000  0.41190000  1.0 -0.1662385019
C  C118  1  0.18060000  0.86690000  0.08810000  1.0 -0.1662385019
C  C119  1  0.13310000  0.81940000  0.58810000  1.0 -0.1662385019
C  C120  1  0.81940000  0.13310000  0.91190000  1.0 -0.1662385019
C  C121  1  0.69656000  0.68122000  0.77585000  1.0 -0.1008109778
C  C122  1  0.68122000  0.69656000  0.72415000  1.0 -0.1008109778
C  C123  1  0.30344000  0.31878000  0.22415000  1.0 -0.1008109778
C  C124  1  0.31878000  0.30344000  0.27585000  1.0 -0.1008109778
C  C125  1  0.66305000  0.68977000  0.79900000  1.0 0.1997653452
C  C126  1  0.68977000  0.66305000  0.70100000  1.0 0.1918577117
C  C127  1  0.33695000  0.31023000  0.20100000  1.0 0.1918577117
C  C128  1  0.31023000  0.33695000  0.29900000  1.0 0.1918577117
C  C129  1  0.67377000  0.67729000  0.84700000  1.0 -0.0216580293
C  C130  1  0.67729000  0.67377000  0.65300000  1.0 -0.0216580293
C  C131  1  0.32623000  0.32271000  0.15300000  1.0 -0.0216580293
C  C132  1  0.32271000  0.32623000  0.34700000  1.0 -0.0216580293
C  C133  1  0.71800000  0.65626000  0.87189000  1.0 -0.1662385019
C  C134  1  0.65626000  0.71800000  0.62811000  1.0 -0.1662385019
C  C135  1  0.28200000  0.34374000  0.12811000  1.0 -0.1662385019
C  C136  1  0.34374000  0.28200000  0.37189000  1.0 -0.1662385019
C  C137  1  0.75151000  0.64773000  0.84880000  1.0 -0.0298342475
C  C138  1  0.64773000  0.75151000  0.65120000  1.0 -0.0298342475
C  C139  1  0.24849000  0.35227000  0.15120000  1.0 -0.0216580293
C  C140  1  0.35227000  0.24849000  0.34880000  1.0 -0.0298342475
C  C141  1  0.74079000  0.66021000  0.80080000  1.0 0.1997653452
C  C142  1  0.66021000  0.74079000  0.69920000  1.0 0.1997653452
C  C143  1  0.25921000  0.33979000  0.19920000  1.0 0.1997653452
C  C144  1  0.33979000  0.25921000  0.30080000  1.0 0.1997653452
C  C145  1  0.64141000  0.69165000  0.87190000  1.0 0.0953508448
C  C146  1  0.69165000  0.64141000  0.62810000  1.0 0.0953508448
C  C147  1  0.35859000  0.30835000  0.12810000  1.0 0.0953508448
C  C148  1  0.30835000  0.35859000  0.37190000  1.0 0.0953508448
C  C149  1  0.61618000  0.73528000  0.85754000  1.0 -0.1413674208
C  C150  1  0.73528000  0.61618000  0.64246000  1.0 -0.1413674208
C  C151  1  0.38382000  0.26472000  0.14246000  1.0 -0.1413674208
C  C152  1  0.26472000  0.38382000  0.35754000  1.0 -0.1413674208
C  C153  1  0.58649000  0.74683000  0.88320000  1.0 -0.0731541223
C  C154  1  0.74683000  0.58649000  0.61680000  1.0 -0.0731541223
C  C155  1  0.41351000  0.25317000  0.11680000  1.0 -0.0731541223
C  C156  1  0.25317000  0.41351000  0.38320000  1.0 -0.0731541223
C  C157  1  0.58199000  0.71471000  0.92317000  1.0 -0.0391957713
C  C158  1  0.71471000  0.58199000  0.57683000  1.0 -0.0454901683
C  C159  1  0.41801000  0.28529000  0.07683000  1.0 -0.0454901683
C  C160  1  0.28529000  0.41801000  0.42317000  1.0 -0.0454901683
C  C161  1  0.60720000  0.67108000  0.93752000  1.0 -0.0804229892
C  C162  1  0.67108000  0.60720000  0.56248000  1.0 -0.0804229892
C  C163  1  0.39280000  0.32892000  0.06248000  1.0 -0.0804229892
C  C164  1  0.32892000  0.39280000  0.43752000  1.0 -0.0804229892
C  C165  1  0.63691000  0.65955000  0.91190000  1.0 -0.1602900149
C  C166  1  0.65955000  0.63691000  0.58810000  1.0 -0.1602900149
C  C167  1  0.36309000  0.34045000  0.08810000  1.0 -0.1602900149
C  C168  1  0.34045000  0.36309000  0.41190000  1.0 -0.1602900149
C  C169  1  0.79506000  0.62224000  0.87250000  1.0 0.0891321305
C  C170  1  0.62224000  0.79506000  0.62750000  1.0 0.0891321305
C  C171  1  0.20494000  0.37776000  0.12750000  1.0 0.0839793605
C  C172  1  0.37776000  0.20494000  0.37250000  1.0 0.0839793605
C  C173  1  0.82043000  0.63499000  0.91180000  1.0 -0.1501566
C  C174  1  0.63499000  0.82043000  0.58820000  1.0 -0.1501566
C  C175  1  0.17957000  0.36501000  0.08820000  1.0 -0.1501566
C  C176  1  0.36501000  0.17957000  0.41180000  1.0 -0.1501566
C  C177  1  0.86322000  0.61082000  0.93692000  1.0 -0.0804229892
C  C178  1  0.61082000  0.86322000  0.56308000  1.0 -0.0804229892
C  C179  1  0.13678000  0.38918000  0.06308000  1.0 -0.0804229892
C  C180  1  0.38918000  0.13678000  0.43692000  1.0 -0.0804229892
C  C181  1  0.88062000  0.57390000  0.92274000  1.0 -0.0298342475
C  C182  1  0.57390000  0.88062000  0.57726000  1.0 -0.0298342475
C  C183  1  0.11938000  0.42610000  0.07726000  1.0 -0.0298342475
C  C184  1  0.42610000  0.11938000  0.42274000  1.0 -0.0298342475
C  C185  1  0.85525000  0.56115000  0.88340000  1.0 -0.0804229892
C  C186  1  0.56115000  0.85525000  0.61660000  1.0 -0.0804229892
C  C187  1  0.14475000  0.43885000  0.11660000  1.0 -0.0804229892
C  C188  1  0.43885000  0.14475000  0.38340000  1.0 -0.0804229892
C  C189  1  0.81246000  0.58532000  0.85830000  1.0 -0.1413674208
C  C190  1  0.58532000  0.81246000  0.64170000  1.0 -0.1413674208
C  C191  1  0.18754000  0.41468000  0.14170000  1.0 -0.1413674208
C  C192  1  0.41468000  0.18754000  0.35830000  1.0 -0.1413674208
C  C193  1  0.81922000  0.80344000  0.27654000  1.0 -0.0881345386
C  C194  1  0.80344000  0.81922000  0.22346000  1.0 -0.0881345386
C  C195  1  0.18078000  0.19656000  0.72346000  1.0 -0.0881345386
C  C196  1  0.19656000  0.18078000  0.77654000  1.0 -0.0881345386
C  C197  1  0.81049000  0.75933000  0.30150000  1.0 0.1997653452
C  C198  1  0.75933000  0.81049000  0.19850000  1.0 0.1997653452
C  C199  1  0.18951000  0.24067000  0.69850000  1.0 0.1997653452
C  C200  1  0.24067000  0.18951000  0.80150000  1.0 0.1997653452
C  C201  1  0.82214000  0.74868000  0.34960000  1.0 -0.0298342475
C  C202  1  0.74868000  0.82214000  0.15040000  1.0 -0.0298342475
C  C203  1  0.17786000  0.25132000  0.65040000  1.0 -0.0298342475
C  C204  1  0.25132000  0.17786000  0.84960000  1.0 -0.0298342475
C  C205  1  0.84253000  0.78215000  0.37258000  1.0 -0.1602900149
C  C206  1  0.78215000  0.84253000  0.12742000  1.0 -0.1602900149
C  C207  1  0.15747000  0.21785000  0.62742000  1.0 -0.1602900149
C  C208  1  0.21785000  0.15747000  0.87258000  1.0 -0.1602900149
C  C209  1  0.85127000  0.82625000  0.34760000  1.0 -0.0216580293
C  C210  1  0.82625000  0.85127000  0.15240000  1.0 -0.0216580293
C  C211  1  0.14873000  0.17375000  0.65240000  1.0 -0.0216580293
C  C212  1  0.17375000  0.14873000  0.84760000  1.0 -0.0216580293
C  C213  1  0.83961000  0.83691000  0.29960000  1.0 0.1918577117
C  C214  1  0.83691000  0.83961000  0.20040000  1.0 0.1997653452
C  C215  1  0.16039000  0.16309000  0.70040000  1.0 0.1918577117
C  C216  1  0.16309000  0.16039000  0.79960000  1.0 0.1918577117
C  C217  1  0.87773000  0.85967000  0.37306000  1.0 0.0953508448
C  C218  1  0.85967000  0.87773000  0.12694000  1.0 0.0953508448
C  C219  1  0.12227000  0.14033000  0.62694000  1.0 0.0953508448
C  C220  1  0.14033000  0.12227000  0.87306000  1.0 0.0953508448
C  C221  1  0.86506000  0.86478000  0.41260000  1.0 -0.1602900149
C  C222  1  0.86478000  0.86506000  0.08740000  1.0 -0.1602900149
C  C223  1  0.13494000  0.13522000  0.58740000  1.0 -0.1602900149
C  C224  1  0.13522000  0.13494000  0.91260000  1.0 -0.1602900149
C  C225  1  0.88943000  0.89445000  0.43828000  1.0 -0.0804229892
C  C226  1  0.89445000  0.88943000  0.06172000  1.0 -0.0804229892
C  C227  1  0.11057000  0.10555000  0.56172000  1.0 -0.0804229892
C  C228  1  0.10555000  0.11057000  0.93828000  1.0 -0.0804229892
C  C229  1  0.92645000  0.91901000  0.42441000  1.0 -0.0391957713
C  C230  1  0.91901000  0.92645000  0.07559000  1.0 -0.0391957713
C  C231  1  0.07355000  0.08099000  0.57559000  1.0 -0.0391957713
C  C232  1  0.08099000  0.07355000  0.92441000  1.0 -0.0391957713
C  C233  1  0.93912000  0.91390000  0.38490000  1.0 -0.0731541223
C  C234  1  0.91390000  0.93912000  0.11510000  1.0 -0.0731541223
C  C235  1  0.06088000  0.08610000  0.61510000  1.0 -0.0731541223
C  C236  1  0.08610000  0.06088000  0.88490000  1.0 -0.0731541223
C  C237  1  0.91476000  0.88424000  0.35919000  1.0 -0.1413674208
C  C238  1  0.88424000  0.91476000  0.14081000  1.0 -0.1501566
C  C239  1  0.08524000  0.11576000  0.64081000  1.0 -0.1501566
C  C240  1  0.11576000  0.08524000  0.85919000  1.0 -0.1501566
C  C241  1  0.80872000  0.70486000  0.37344000  1.0 0.0891321305
C  C242  1  0.70486000  0.80872000  0.12656000  1.0 0.0891321305
C  C243  1  0.19128000  0.29514000  0.62656000  1.0 0.0891321305
C  C244  1  0.29514000  0.19128000  0.87344000  1.0 0.0891321305
C  C245  1  0.76510000  0.68696000  0.35876000  1.0 -0.1413674208
C  C246  1  0.68696000  0.76510000  0.14124000  1.0 -0.1413674208
C  C247  1  0.23490000  0.31304000  0.64124000  1.0 -0.1413674208
C  C248  1  0.31304000  0.23490000  0.85876000  1.0 -0.1413674208
C  C249  1  0.75354000  0.64416000  0.38390000  1.0 -0.0804229892
C  C250  1  0.64416000  0.75354000  0.11610000  1.0 -0.0804229892
C  C251  1  0.24646000  0.35584000  0.61610000  1.0 -0.0804229892
C  C252  1  0.35584000  0.24646000  0.88390000  1.0 -0.0804229892
C  C253  1  0.78560000  0.61926000  0.42371000  1.0 -0.0298342475
C  C254  1  0.61926000  0.78560000  0.07629000  1.0 -0.0298342475
C  C255  1  0.21440000  0.38074000  0.57629000  1.0 -0.0298342475
C  C256  1  0.38074000  0.21440000  0.92371000  1.0 -0.0298342475
C  C257  1  0.82923000  0.63717000  0.43839000  1.0 -0.0804229892
C  C258  1  0.63717000  0.82923000  0.06161000  1.0 -0.0804229892
C  C259  1  0.17077000  0.36283000  0.56161000  1.0 -0.0804229892
C  C260  1  0.36283000  0.17077000  0.93839000  1.0 -0.0804229892
C  C261  1  0.84079000  0.67995000  0.41330000  1.0 -0.1501566
C  C262  1  0.67995000  0.84079000  0.08670000  1.0 -0.1602900149
C  C263  1  0.15921000  0.32005000  0.58670000  1.0 -0.1602900149
C  C264  1  0.32005000  0.15921000  0.91330000  1.0 -0.1602900149
C  C265  1  0.80953000  0.35817000  0.37380000  1.0 0.0891321305
C  C266  1  0.35817000  0.80953000  0.12620000  1.0 0.0891321305
C  C267  1  0.19047000  0.64183000  0.62620000  1.0 0.0891321305
C  C268  1  0.64183000  0.19047000  0.87380000  1.0 0.0891321305
C  C269  1  0.84200000  0.36426000  0.41290000  1.0 -0.1602900149
C  C270  1  0.36426000  0.84200000  0.08710000  1.0 -0.1602900149
C  C271  1  0.15800000  0.63574000  0.58710000  1.0 -0.1602900149
C  C272  1  0.63574000  0.15800000  0.91290000  1.0 -0.1602900149
C  C273  1  0.83035000  0.39463000  0.43790000  1.0 -0.0804229892
C  C274  1  0.39463000  0.83035000  0.06210000  1.0 -0.0804229892
C  C275  1  0.16965000  0.60537000  0.56210000  1.0 -0.0804229892
C  C276  1  0.60537000  0.16965000  0.93790000  1.0 -0.0804229892
C  C277  1  0.78623000  0.41891000  0.42374000  1.0 -0.0391957713
C  C278  1  0.41891000  0.78623000  0.07626000  1.0 -0.0391957713
C  C279  1  0.21377000  0.58109000  0.57626000  1.0 -0.0391957713
C  C280  1  0.58109000  0.21377000  0.92374000  1.0 -0.0391957713
C  C281  1  0.75376000  0.41282000  0.38460000  1.0 -0.0804229892
C  C282  1  0.41282000  0.75376000  0.11540000  1.0 -0.0804229892
C  C283  1  0.24624000  0.58718000  0.61540000  1.0 -0.0731541223
C  C284  1  0.58718000  0.24624000  0.88460000  1.0 -0.0731541223
C  C285  1  0.76542000  0.38244000  0.35967000  1.0 -0.1501566
C  C286  1  0.38244000  0.76542000  0.14033000  1.0 -0.1501566
C  C287  1  0.23458000  0.61756000  0.64033000  1.0 -0.1501566
C  C288  1  0.61756000  0.23458000  0.85967000  1.0 -0.1501566
C  C289  1  0.94910000  0.45190000  0.04790000  1.0 0.5881644306
C  C290  1  0.45190000  0.94910000  0.45210000  1.0 0.5881644306
C  C291  1  0.05090000  0.54810000  0.95210000  1.0 0.5881644306
C  C292  1  0.54810000  0.05090000  0.54790000  1.0 0.5881644306
C  C293  1  0.57420000  0.27400000  0.04790000  1.0 0.5881644306
C  C294  1  0.27400000  0.57420000  0.45210000  1.0 0.5881644306
C  C295  1  0.42580000  0.72600000  0.95210000  1.0 0.5881644306
C  C296  1  0.72600000  0.42580000  0.54790000  1.0 0.5881644306
C  C297  1  0.77630000  0.44870000  0.45310000  1.0 0.5881644306
C  C298  1  0.44870000  0.77630000  0.04690000  1.0 0.5881644306
C  C299  1  0.22370000  0.55130000  0.54690000  1.0 0.5881644306
C  C300  1  0.55130000  0.22370000  0.95310000  1.0 0.5881644306
C  C301  1  0.95150000  0.95010000  0.45260000  1.0 0.5881644306
C  C302  1  0.95010000  0.95150000  0.04740000  1.0 0.5881644306
C  C303  1  0.04850000  0.04990000  0.54740000  1.0 0.5881644306
C  C304  1  0.04990000  0.04850000  0.95260000  1.0 0.5881644306
C  C305  1  0.55090000  0.72610000  0.95090000  1.0 0.598116939
C  C306  1  0.72610000  0.55090000  0.54910000  1.0 0.598116939
C  C307  1  0.44910000  0.27390000  0.04910000  1.0 0.598116939
C  C308  1  0.27390000  0.44910000  0.45090000  1.0 0.598116939
C  C309  1  0.95340000  0.07580000  0.45100000  1.0 0.598116939
C  C310  1  0.07580000  0.95340000  0.04900000  1.0 0.598116939
C  C311  1  0.04660000  0.92420000  0.54900000  1.0 0.598116939
C  C312  1  0.92420000  0.04660000  0.95100000  1.0 0.598116939
C  C313  1  0.92580000  0.54780000  0.95070000  1.0 0.598116939
C  C314  1  0.54780000  0.92580000  0.54930000  1.0 0.598116939
C  C315  1  0.07420000  0.45220000  0.04930000  1.0 0.598116939
C  C316  1  0.45220000  0.07420000  0.45070000  1.0 0.598116939
C  C317  1  0.77380000  0.57420000  0.45240000  1.0 0.5881644306
C  C318  1  0.57420000  0.77380000  0.04760000  1.0 0.5881644306
C  C319  1  0.22620000  0.42580000  0.54760000  1.0 0.5881644306
C  C320  1  0.42580000  0.22620000  0.95240000  1.0 0.5881644306
C  C321  1  0.81610000  0.19750000  0.27450000  1.0 0.3036564438
C  C322  1  0.19750000  0.81610000  0.22550000  1.0 0.2925655691
C  C323  1  0.18390000  0.80250000  0.72550000  1.0 0.3036564438
C  C324  1  0.80250000  0.18390000  0.77450000  1.0 0.3197652099
C  C325  1  0.83490000  0.16710000  0.24490000  1.0 -0.3686875181
C  C326  1  0.16710000  0.83490000  0.25510000  1.0 -0.3686875181
C  C327  1  0.16510000  0.83290000  0.75510000  1.0 -0.3686875181
C  C328  1  0.83290000  0.16510000  0.74490000  1.0 -0.3686875181
C  C329  1  0.91610000  0.31130000  0.23420000  1.0 0.1918577117
C  C330  1  0.31130000  0.91610000  0.26580000  1.0 0.1918577117
C  C331  1  0.08390000  0.68870000  0.76580000  1.0 0.1918577117
C  C332  1  0.68870000  0.08390000  0.73420000  1.0 0.1918577117
C  C333  1  0.96420000  0.32460000  0.26360000  1.0 -0.3205390947
C  C334  1  0.32460000  0.96420000  0.23640000  1.0 -0.3205390947
C  C335  1  0.03580000  0.67540000  0.73640000  1.0 -0.3205390947
C  C336  1  0.67540000  0.03580000  0.76360000  1.0 -0.3205390947
C  C337  1  0.81000000  0.91820000  0.27650000  1.0 0.4670558495
C  C338  1  0.91820000  0.81000000  0.22350000  1.0 0.4670558495
C  C339  1  0.19000000  0.08180000  0.72350000  1.0 0.4670558495
C  C340  1  0.08180000  0.19000000  0.77650000  1.0 0.4670558495
C  C341  1  0.82630000  0.96590000  0.24590000  1.0 -0.469437505
C  C342  1  0.96590000  0.82630000  0.25410000  1.0 -0.4821696313
C  C343  1  0.17370000  0.03410000  0.75410000  1.0 -0.469437505
C  C344  1  0.03410000  0.17370000  0.74590000  1.0 -0.469437505
C  C345  1  0.58630000  0.66890000  0.77630000  1.0 0.4498110113
C  C346  1  0.66890000  0.58630000  0.72370000  1.0 0.4498110113
C  C347  1  0.41370000  0.33110000  0.22370000  1.0 0.4498110113
C  C348  1  0.33110000  0.41370000  0.27630000  1.0 0.4498110113
C  C349  1  0.53790000  0.69750000  0.74980000  1.0 -0.4573026053
C  C350  1  0.69750000  0.53790000  0.75020000  1.0 -0.4431905301
C  C351  1  0.46210000  0.30250000  0.25020000  1.0 -0.4431905301
C  C352  1  0.30250000  0.46210000  0.24980000  1.0 -0.4573026053
C  C353  1  0.82060000  0.41640000  0.26670000  1.0 0.2676022498
C  C354  1  0.41640000  0.82060000  0.23330000  1.0 0.259974852
C  C355  1  0.17940000  0.58360000  0.73330000  1.0 0.259974852
C  C356  1  0.58360000  0.17940000  0.76670000  1.0 0.2751520125
C  C357  1  0.79010000  0.45770000  0.22870000  1.0 -0.3470912503
C  C358  1  0.45770000  0.79010000  0.27130000  1.0 -0.3470912503
C  C359  1  0.20990000  0.54230000  0.77130000  1.0 -0.3470912503
C  C360  1  0.54230000  0.20990000  0.72870000  1.0 -0.3470912503
C  C361  1  0.69890000  0.32330000  0.22650000  1.0 0.3343656657
C  C362  1  0.32330000  0.69890000  0.27350000  1.0 0.3197652099
C  C363  1  0.30110000  0.67670000  0.77350000  1.0 0.3343656657
C  C364  1  0.67670000  0.30110000  0.72650000  1.0 0.3414404837
C  C365  1  0.66850000  0.29050000  0.25670000  1.0 -0.3846864256
C  C366  1  0.29050000  0.66850000  0.24330000  1.0 -0.3867312126
C  C367  1  0.33150000  0.70950000  0.74330000  1.0 -0.3867312126
C  C368  1  0.70950000  0.33150000  0.75670000  1.0 -0.3867312126
C  C369  1  0.17520000  0.30180000  0.73000000  1.0 0.4498110113
C  C370  1  0.30180000  0.17520000  0.77000000  1.0 0.4498110113
C  C371  1  0.82480000  0.69820000  0.27000000  1.0 0.4498110113
C  C372  1  0.69820000  0.82480000  0.23000000  1.0 0.4498110113
C  C373  1  0.20190000  0.33230000  0.76150000  1.0 -0.4573026053
C  C374  1  0.33230000  0.20190000  0.73850000  1.0 -0.469437505
C  C375  1  0.79810000  0.66770000  0.23850000  1.0 -0.469437505
C  C376  1  0.66770000  0.79810000  0.26150000  1.0 -0.469437505
C  C377  1  0.19860000  0.30640000  0.23090000  1.0 0.4498110113
C  C378  1  0.30640000  0.19860000  0.26910000  1.0 0.4498110113
C  C379  1  0.80140000  0.69360000  0.76910000  1.0 0.4498110113
C  C380  1  0.69360000  0.80140000  0.73090000  1.0 0.4498110113
C  C381  1  0.16510000  0.31790000  0.25990000  1.0 -0.4213677498
C  C382  1  0.31790000  0.16510000  0.24010000  1.0 -0.4213677498
C  C383  1  0.83490000  0.68210000  0.74010000  1.0 -0.4260908218
C  C384  1  0.68210000  0.83490000  0.75990000  1.0 -0.4213677498
O  O1  1  0.73275000  0.46665000  0.43920000  1.0 -0.5689785557
O  O2  1  0.46665000  0.73275000  0.06080000  1.0 -0.5689785557
O  O3  1  0.26725000  0.53335000  0.56080000  1.0 -0.5689785557
O  O4  1  0.53335000  0.26725000  0.93920000  1.0 -0.5689785557
O  O5  1  0.80519000  0.45629000  0.48440000  1.0 -0.4821696313
O  O6  1  0.45629000  0.80519000  0.01560000  1.0 -0.4821696313
O  O7  1  0.19481000  0.54371000  0.51560000  1.0 -0.4821696313
O  O8  1  0.54371000  0.19481000  0.98440000  1.0 -0.4821696313
O  O9  1  0.54502000  0.69598000  0.98420000  1.0 -0.5266022237
O  O10  1  0.69598000  0.54502000  0.51580000  1.0 -0.5266022237
O  O11  1  0.45498000  0.30402000  0.01580000  1.0 -0.5266022237
O  O12  1  0.30402000  0.45498000  0.48420000  1.0 -0.5266022237
O  O13  1  0.53303000  0.76821000  0.93830000  1.0 -0.55657792
O  O14  1  0.76821000  0.53303000  0.56170000  1.0 -0.5529645279
O  O15  1  0.46697000  0.23179000  0.06170000  1.0 -0.55657792
O  O16  1  0.23179000  0.46697000  0.43830000  1.0 -0.5529645279
O  O17  1  0.56384000  0.23146000  0.06220000  1.0 -0.5689785557
O  O18  1  0.23146000  0.56384000  0.43780000  1.0 -0.5689785557
O  O19  1  0.43616000  0.76854000  0.93780000  1.0 -0.5689785557
O  O20  1  0.76854000  0.43616000  0.56220000  1.0 -0.5689785557
O  O21  1  0.55158000  0.30426000  0.01630000  1.0 -0.5111787396
O  O22  1  0.30426000  0.55158000  0.48370000  1.0 -0.5111787396
O  O23  1  0.44842000  0.69574000  0.98370000  1.0 -0.5111787396
O  O24  1  0.69574000  0.44842000  0.51630000  1.0 -0.5111787396
O  O25  1  0.73159000  0.56349000  0.43794000  1.0 -0.55657792
O  O26  1  0.56349000  0.73159000  0.06206000  1.0 -0.55657792
O  O27  1  0.26841000  0.43651000  0.56206000  1.0 -0.55657792
O  O28  1  0.43651000  0.26841000  0.93794000  1.0 -0.55657792
O  O29  1  0.80376000  0.55280000  0.48430000  1.0 -0.4961173387
O  O30  1  0.55280000  0.80376000  0.01570000  1.0 -0.4929140858
O  O31  1  0.19624000  0.44720000  0.51570000  1.0 -0.4961173387
O  O32  1  0.44720000  0.19624000  0.98430000  1.0 -0.4929140858
O  O33  1  0.93711000  0.95591000  0.48400000  1.0 -0.4929140858
O  O34  1  0.95591000  0.93711000  0.01600000  1.0 -0.4929140858
O  O35  1  0.06289000  0.04409000  0.51600000  1.0 -0.4929140858
O  O36  1  0.04409000  0.06289000  0.98400000  1.0 -0.4929140858
O  O37  1  0.98705000  0.96703000  0.43830000  1.0 -0.5529645279
O  O38  1  0.96703000  0.98705000  0.06170000  1.0 -0.55657792
O  O39  1  0.01295000  0.03297000  0.56170000  1.0 -0.55657792
O  O40  1  0.03297000  0.01295000  0.93830000  1.0 -0.55657792
O  O41  1  0.96698000  0.48740000  0.06100000  1.0 -0.55657792
O  O42  1  0.48740000  0.96698000  0.43900000  1.0 -0.55657792
O  O43  1  0.03302000  0.51260000  0.93900000  1.0 -0.55657792
O  O44  1  0.51260000  0.03302000  0.56100000  1.0 -0.55657792
O  O45  1  0.95550000  0.43798000  0.01580000  1.0 -0.5111787396
O  O46  1  0.43798000  0.95550000  0.48420000  1.0 -0.5111787396
O  O47  1  0.04450000  0.56202000  0.98420000  1.0 -0.5111787396
O  O48  1  0.56202000  0.04450000  0.51580000  1.0 -0.5111787396
O  O49  1  0.98808000  0.06266000  0.43920000  1.0 -0.5413275661
O  O50  1  0.06266000  0.98808000  0.06080000  1.0 -0.5413275661
O  O51  1  0.01192000  0.93734000  0.56080000  1.0 -0.5413275661
O  O52  1  0.93734000  0.01192000  0.93920000  1.0 -0.5413275661
O  O53  1  0.93904000  0.05244000  0.48400000  1.0 -0.5413275661
O  O54  1  0.05244000  0.93904000  0.01600000  1.0 -0.5413275661
O  O55  1  0.06096000  0.94756000  0.51600000  1.0 -0.5413275661
O  O56  1  0.94756000  0.06096000  0.98400000  1.0 -0.5413275661
O  O57  1  0.94834000  0.56260000  0.98430000  1.0 -0.5529645279
O  O58  1  0.56260000  0.94834000  0.51570000  1.0 -0.5529645279
O  O59  1  0.05166000  0.43740000  0.01570000  1.0 -0.5529645279
O  O60  1  0.43740000  0.05166000  0.48430000  1.0 -0.5529645279
O  O61  1  0.93700000  0.51214000  0.93880000  1.0 -0.5413275661
O  O62  1  0.51214000  0.93700000  0.56120000  1.0 -0.5413275661
O  O63  1  0.06300000  0.48786000  0.06120000  1.0 -0.5413275661
O  O64  1  0.48786000  0.06300000  0.43880000  1.0 -0.5413275661
O  O65  1  0.85090000  0.23390000  0.27480000  1.0 -0.1602900149
O  O66  1  0.23390000  0.85090000  0.22520000  1.0 -0.1602900149
O  O67  1  0.14910000  0.76610000  0.72520000  1.0 -0.1602900149
O  O68  1  0.76610000  0.14910000  0.77480000  1.0 -0.1602900149
O  O69  1  0.88020000  0.35100000  0.22600000  1.0 -0.128390372
O  O70  1  0.35100000  0.88020000  0.27400000  1.0 -0.128390372
O  O71  1  0.11980000  0.64900000  0.77400000  1.0 -0.128390372
O  O72  1  0.64900000  0.11980000  0.72600000  1.0 -0.128390372
O  O73  1  0.84620000  0.88240000  0.27640000  1.0 -0.1998989305
O  O74  1  0.88240000  0.84620000  0.22360000  1.0 -0.1998989305
O  O75  1  0.15380000  0.11760000  0.72360000  1.0 -0.1998989305
O  O76  1  0.11760000  0.15380000  0.77640000  1.0 -0.1998989305
O  O77  1  0.61790000  0.70710000  0.77490000  1.0 -0.1998989305
O  O78  1  0.70710000  0.61790000  0.72510000  1.0 -0.1998989305
O  O79  1  0.38210000  0.29290000  0.22510000  1.0 -0.1998989305
O  O80  1  0.29290000  0.38210000  0.27490000  1.0 -0.1998989305
O  O81  1  0.78650000  0.38050000  0.27360000  1.0 -0.1413674208
O  O82  1  0.38050000  0.78650000  0.22640000  1.0 -0.1413674208
O  O83  1  0.21350000  0.61950000  0.72640000  1.0 -0.1413674208
O  O84  1  0.61950000  0.21350000  0.77360000  1.0 -0.1413674208
O  O85  1  0.73410000  0.28830000  0.22650000  1.0 -0.1602900149
O  O86  1  0.28830000  0.73410000  0.27350000  1.0 -0.1602900149
O  O87  1  0.26590000  0.71170000  0.77350000  1.0 -0.1602900149
O  O88  1  0.71170000  0.26590000  0.72650000  1.0 -0.1602900149
O  O89  1  0.20980000  0.27060000  0.72370000  1.0 -0.1820705591
O  O90  1  0.27060000  0.20980000  0.77630000  1.0 -0.1820705591
O  O91  1  0.79020000  0.72940000  0.27630000  1.0 -0.1820705591
O  O92  1  0.72940000  0.79020000  0.22370000  1.0 -0.1820705591
O  O93  1  0.22890000  0.34630000  0.22520000  1.0 -0.1820705591
O  O94  1  0.34630000  0.22890000  0.27480000  1.0 -0.1820705591
O  O95  1  0.77110000  0.65370000  0.77480000  1.0 -0.1820705591
O  O96  1  0.65370000  0.77110000  0.72520000  1.0 -0.1820705591
