# DDEC6 charges by PACMAN v1.1 (https://github.com/mtap-research/PACMAN-charge/)
data_EFAYEQ_ASR_pacman
_symmetry_space_group_name_H-M   'P 1'
_cell_length_a   29.43920000
_cell_length_b   29.43920000
_cell_length_c   30.96800000
_cell_angle_alpha   76.12770000
_cell_angle_beta   103.87200000
_cell_angle_gamma   89.58710000
_symmetry_Int_Tables_number   1
_chemical_formula_structural   CuH9(C4O)6
_chemical_formula_sum   'Cu16 H144 C384 O96'
_cell_volume   25236.49336042
_cell_formula_units_Z   16
loop_
 _symmetry_equiv_pos_site_id
 _symmetry_equiv_pos_as_xyz
  1  'x, y, z'
loop_
 _atom_site_type_symbol
 _atom_site_label
 _atom_site_symmetry_multiplicity
 _atom_site_fract_x
 _atom_site_fract_y
 _atom_site_fract_z
 _atom_site_occupancy
 _atom_site_charge
Cu  Cu1  1  0.49316000  0.79298000  0.47296000  1.0 0.8511081892
Cu  Cu2  1  0.79298000  0.49316000  0.02704000  1.0 0.8511081892
Cu  Cu3  1  0.50684000  0.20702000  0.52704000  1.0 0.8511081892
Cu  Cu4  1  0.20702000  0.50684000  0.97296000  1.0 0.8511081892
Cu  Cu5  1  0.99338000  0.97058000  0.47331000  1.0 0.8511081892
Cu  Cu6  1  0.97058000  0.99338000  0.02669000  1.0 0.8511081892
Cu  Cu7  1  0.00662000  0.02942000  0.52669000  1.0 0.8511081892
Cu  Cu8  1  0.02942000  0.00662000  0.97331000  1.0 0.8511081892
Cu  Cu9  1  0.50666000  0.70728000  0.52657000  1.0 0.8834000883
Cu  Cu10  1  0.70728000  0.50666000  0.97343000  1.0 0.8834000883
Cu  Cu11  1  0.49334000  0.29272000  0.47343000  1.0 0.8834000883
Cu  Cu12  1  0.29272000  0.49334000  0.02657000  1.0 0.8834000883
Cu  Cu13  1  0.99346000  0.47056000  0.47353000  1.0 0.8511081892
Cu  Cu14  1  0.47056000  0.99346000  0.02647000  1.0 0.8511081892
Cu  Cu15  1  0.00654000  0.52944000  0.52647000  1.0 0.8511081892
Cu  Cu16  1  0.52944000  0.00654000  0.97353000  1.0 0.8511081892
H  H1  1  0.27160000  0.85100000  0.59620000  1.0 0.1308732093
H  H2  1  0.85100000  0.27160000  0.90380000  1.0 0.1308732093
H  H3  1  0.72840000  0.14900000  0.40380000  1.0 0.1308732093
H  H4  1  0.14900000  0.72840000  0.09620000  1.0 0.1308732093
H  H5  1  0.35190000  0.77330000  0.90200000  1.0 0.1308732093
H  H6  1  0.77330000  0.35190000  0.59800000  1.0 0.1308732093
H  H7  1  0.64810000  0.22670000  0.09800000  1.0 0.1308732093
H  H8  1  0.22670000  0.64810000  0.40200000  1.0 0.1308732093
H  H9  1  0.34020000  0.84840000  0.92180000  1.0 0.1308732093
H  H10  1  0.84840000  0.34020000  0.57820000  1.0 0.1308732093
H  H11  1  0.65980000  0.15160000  0.07820000  1.0 0.1308732093
H  H12  1  0.15160000  0.65980000  0.42180000  1.0 0.1308732093
H  H13  1  0.38080000  0.89800000  0.96420000  1.0 0.1308732093
H  H14  1  0.89800000  0.38080000  0.53580000  1.0 0.1308732093
H  H15  1  0.61920000  0.10200000  0.03580000  1.0 0.1366565725
H  H16  1  0.10200000  0.61920000  0.46420000  1.0 0.1308732093
H  H17  1  0.46290000  0.92970000  0.87460000  1.0 0.1366565725
H  H18  1  0.92970000  0.46290000  0.62540000  1.0 0.1366565725
H  H19  1  0.53710000  0.07030000  0.12540000  1.0 0.1366565725
H  H20  1  0.07030000  0.53710000  0.37460000  1.0 0.1366565725
H  H21  1  0.42230000  0.88010000  0.83220000  1.0 0.1308732093
H  H22  1  0.88010000  0.42230000  0.66780000  1.0 0.1308732093
H  H23  1  0.57770000  0.11990000  0.16780000  1.0 0.1308732093
H  H24  1  0.11990000  0.57770000  0.33220000  1.0 0.1308732093
H  H25  1  0.18960000  0.83880000  0.57940000  1.0 0.1308732093
H  H26  1  0.83880000  0.18960000  0.92060000  1.0 0.1308732093
H  H27  1  0.81040000  0.16120000  0.42060000  1.0 0.1308732093
H  H28  1  0.16120000  0.81040000  0.07940000  1.0 0.1308732093
H  H29  1  0.11940000  0.88120000  0.53580000  1.0 0.1366565725
H  H30  1  0.88120000  0.11940000  0.96420000  1.0 0.1366565725
H  H31  1  0.88060000  0.11880000  0.46420000  1.0 0.1366565725
H  H32  1  0.11880000  0.88060000  0.03580000  1.0 0.1366565725
H  H33  1  0.13400000  0.96540000  0.62370000  1.0 0.1366565725
H  H34  1  0.96540000  0.13400000  0.87630000  1.0 0.1366565725
H  H35  1  0.86600000  0.03460000  0.37630000  1.0 0.1366565725
H  H36  1  0.03460000  0.86600000  0.12370000  1.0 0.1366565725
H  H37  1  0.20420000  0.92300000  0.66730000  1.0 0.1308732093
H  H38  1  0.92300000  0.20420000  0.83270000  1.0 0.1308732093
H  H39  1  0.79580000  0.07700000  0.33270000  1.0 0.1308732093
H  H40  1  0.07700000  0.79580000  0.16730000  1.0 0.1308732093
H  H41  1  0.38110000  0.74610000  0.66820000  1.0 0.1308732093
H  H42  1  0.74610000  0.38110000  0.83180000  1.0 0.1308732093
H  H43  1  0.61890000  0.25390000  0.33180000  1.0 0.1308732093
H  H44  1  0.25390000  0.61890000  0.16820000  1.0 0.1308732093
H  H45  1  0.43010000  0.72470000  0.62590000  1.0 0.1366565725
H  H46  1  0.72470000  0.43010000  0.87410000  1.0 0.1366565725
H  H47  1  0.56990000  0.27530000  0.37410000  1.0 0.1366565725
H  H48  1  0.27530000  0.56990000  0.12590000  1.0 0.1366565725
H  H49  1  0.39610000  0.85030000  0.53290000  1.0 0.1308732093
H  H50  1  0.85030000  0.39610000  0.96710000  1.0 0.1308732093
H  H51  1  0.60390000  0.14970000  0.46710000  1.0 0.1308732093
H  H52  1  0.14970000  0.60390000  0.03290000  1.0 0.1308732093
H  H53  1  0.34710000  0.87170000  0.57510000  1.0 0.1308732093
H  H54  1  0.87170000  0.34710000  0.92490000  1.0 0.1308732093
H  H55  1  0.65290000  0.12830000  0.42490000  1.0 0.1308732093
H  H56  1  0.12830000  0.65290000  0.07510000  1.0 0.1308732093
H  H57  1  0.68960000  0.87300000  0.57570000  1.0 0.1308732093
H  H58  1  0.87300000  0.68960000  0.92430000  1.0 0.1308732093
H  H59  1  0.31040000  0.12700000  0.42430000  1.0 0.1308732093
H  H60  1  0.12700000  0.31040000  0.07570000  1.0 0.1308732093
H  H61  1  0.61850000  0.85330000  0.53380000  1.0 0.1308732093
H  H62  1  0.85330000  0.61850000  0.96620000  1.0 0.1308732093
H  H63  1  0.38150000  0.14670000  0.46620000  1.0 0.1308732093
H  H64  1  0.14670000  0.38150000  0.03380000  1.0 0.1308732093
H  H65  1  0.63320000  0.72620000  0.62430000  1.0 0.1308732093
H  H66  1  0.72620000  0.63320000  0.87570000  1.0 0.1308732093
H  H67  1  0.36680000  0.27380000  0.37570000  1.0 0.1308732093
H  H68  1  0.27380000  0.36680000  0.12430000  1.0 0.1308732093
H  H69  1  0.70430000  0.74590000  0.66620000  1.0 0.1308732093
H  H70  1  0.74590000  0.70430000  0.83380000  1.0 0.1308732093
H  H71  1  0.29570000  0.25410000  0.33380000  1.0 0.1308732093
H  H72  1  0.25410000  0.29570000  0.16620000  1.0 0.1308732093
H  H73  1  0.77420000  0.85100000  0.59460000  1.0 0.1308732093
H  H74  1  0.85100000  0.77420000  0.90540000  1.0 0.1308732093
H  H75  1  0.22580000  0.14900000  0.40540000  1.0 0.1308732093
H  H76  1  0.14900000  0.22580000  0.09460000  1.0 0.1308732093
H  H77  1  0.81050000  0.66150000  0.42230000  1.0 0.1244219319
H  H78  1  0.66150000  0.81050000  0.07770000  1.0 0.1244219319
H  H79  1  0.18950000  0.33850000  0.57770000  1.0 0.1244219319
H  H80  1  0.33850000  0.18950000  0.92230000  1.0 0.1244219319
H  H81  1  0.88190000  0.62050000  0.46480000  1.0 0.1308732093
H  H82  1  0.62050000  0.88190000  0.03520000  1.0 0.1308732093
H  H83  1  0.11810000  0.37950000  0.53520000  1.0 0.1308732093
H  H84  1  0.37950000  0.11810000  0.96480000  1.0 0.1308732093
H  H85  1  0.86890000  0.53790000  0.37560000  1.0 0.1366565725
H  H86  1  0.53790000  0.86890000  0.12440000  1.0 0.1366565725
H  H87  1  0.13110000  0.46210000  0.62440000  1.0 0.1366565725
H  H88  1  0.46210000  0.13110000  0.87560000  1.0 0.1366565725
H  H89  1  0.79750000  0.57890000  0.33310000  1.0 0.1366565725
H  H90  1  0.57890000  0.79750000  0.16690000  1.0 0.1366565725
H  H91  1  0.20250000  0.42110000  0.66690000  1.0 0.1366565725
H  H92  1  0.42110000  0.20250000  0.83310000  1.0 0.1366565725
H  H93  1  0.72420000  0.64800000  0.40540000  1.0 0.1308732093
H  H94  1  0.64800000  0.72420000  0.09460000  1.0 0.1308732093
H  H95  1  0.27580000  0.35200000  0.59460000  1.0 0.1308732093
H  H96  1  0.35200000  0.27580000  0.90540000  1.0 0.1308732093
H  H97  1  0.65340000  0.62920000  0.42340000  1.0 0.1244219319
H  H98  1  0.62920000  0.65340000  0.07660000  1.0 0.1244219319
H  H99  1  0.34660000  0.37080000  0.57660000  1.0 0.1244219319
H  H100  1  0.37080000  0.34660000  0.92340000  1.0 0.1244219319
H  H101  1  0.60460000  0.64940000  0.46640000  1.0 0.1366565725
H  H102  1  0.64940000  0.60460000  0.03360000  1.0 0.1366565725
H  H103  1  0.39540000  0.35060000  0.53360000  1.0 0.1366565725
H  H104  1  0.35060000  0.39540000  0.96640000  1.0 0.1308732093
H  H105  1  0.56840000  0.77520000  0.37390000  1.0 0.1366565725
H  H106  1  0.77520000  0.56840000  0.12610000  1.0 0.1366565725
H  H107  1  0.43160000  0.22480000  0.62610000  1.0 0.1366565725
H  H108  1  0.22480000  0.43160000  0.87390000  1.0 0.1366565725
H  H109  1  0.61720000  0.75500000  0.33090000  1.0 0.1308732093
H  H110  1  0.75500000  0.61720000  0.16910000  1.0 0.1308732093
H  H111  1  0.38280000  0.24500000  0.66910000  1.0 0.1366565725
H  H112  1  0.24500000  0.38280000  0.83090000  1.0 0.1308732093
H  H113  1  0.24240000  0.70460000  0.83210000  1.0 0.1308732093
H  H114  1  0.70460000  0.24240000  0.66790000  1.0 0.1308732093
H  H115  1  0.75760000  0.29540000  0.16790000  1.0 0.1308732093
H  H116  1  0.29540000  0.75760000  0.33210000  1.0 0.1308732093
H  H117  1  0.22330000  0.63330000  0.87410000  1.0 0.1366565725
H  H118  1  0.63330000  0.22330000  0.62590000  1.0 0.1366565725
H  H119  1  0.77670000  0.36670000  0.12590000  1.0 0.1366565725
H  H120  1  0.36670000  0.77670000  0.37410000  1.0 0.1366565725
H  H121  1  0.35060000  0.61960000  0.96440000  1.0 0.1308732093
H  H122  1  0.61960000  0.35060000  0.53560000  1.0 0.1308732093
H  H123  1  0.64940000  0.38040000  0.03560000  1.0 0.1308732093
H  H124  1  0.38040000  0.64940000  0.46440000  1.0 0.1308732093
H  H125  1  0.36970000  0.69090000  0.92240000  1.0 0.1308732093
H  H126  1  0.69090000  0.36970000  0.57760000  1.0 0.1308732093
H  H127  1  0.63030000  0.30910000  0.07760000  1.0 0.1308732093
H  H128  1  0.30910000  0.63030000  0.42240000  1.0 0.1308732093
H  H129  1  0.84850000  0.84130000  0.57720000  1.0 0.1244219319
H  H130  1  0.84130000  0.84850000  0.92280000  1.0 0.1244219319
H  H131  1  0.15150000  0.15870000  0.42280000  1.0 0.1244219319
H  H132  1  0.15870000  0.15150000  0.07720000  1.0 0.1244219319
H  H133  1  0.89790000  0.88170000  0.53440000  1.0 0.1308732093
H  H134  1  0.88170000  0.89790000  0.96560000  1.0 0.1308732093
H  H135  1  0.10210000  0.11830000  0.46560000  1.0 0.1308732093
H  H136  1  0.11830000  0.10210000  0.03440000  1.0 0.1308732093
H  H137  1  0.93110000  0.96350000  0.62420000  1.0 0.1366565725
H  H138  1  0.96350000  0.93110000  0.87580000  1.0 0.1366565725
H  H139  1  0.06890000  0.03650000  0.37580000  1.0 0.1366565725
H  H140  1  0.03650000  0.06890000  0.12420000  1.0 0.1366565725
H  H141  1  0.88170000  0.92310000  0.66700000  1.0 0.1366565725
H  H142  1  0.92310000  0.88170000  0.83300000  1.0 0.1366565725
H  H143  1  0.11830000  0.07690000  0.33300000  1.0 0.1366565725
H  H144  1  0.07690000  0.11830000  0.16700000  1.0 0.1366565725
C  C1  1  0.92720000  0.54460000  0.45240000  1.0 0.5701016618
C  C2  1  0.54460000  0.92720000  0.04760000  1.0 0.5701016618
C  C3  1  0.07280000  0.45540000  0.54760000  1.0 0.5701016618
C  C4  1  0.45540000  0.07280000  0.95240000  1.0 0.5701016618
C  C5  1  0.95100000  0.95300000  0.54630000  1.0 0.5701016618
C  C6  1  0.95300000  0.95100000  0.95370000  1.0 0.5701016618
C  C7  1  0.04900000  0.04700000  0.45370000  1.0 0.5701016618
C  C8  1  0.04700000  0.04900000  0.04630000  1.0 0.5701016618
C  C9  1  0.30741000  0.81941000  0.72490000  1.0 -0.1076346759
C  C10  1  0.81941000  0.30741000  0.77510000  1.0 -0.1076346759
C  C11  1  0.69259000  0.18059000  0.27510000  1.0 -0.1076346759
C  C12  1  0.18059000  0.69259000  0.22490000  1.0 -0.1076346759
C  C13  1  0.26287000  0.84207000  0.70150000  1.0 0.2110958604
C  C14  1  0.84207000  0.26287000  0.79850000  1.0 0.2158768532
C  C15  1  0.73713000  0.15793000  0.29850000  1.0 0.2110958604
C  C16  1  0.15793000  0.73713000  0.20150000  1.0 0.2110958604
C  C17  1  0.24942000  0.85390000  0.65310000  1.0 -0.0293909926
C  C18  1  0.85390000  0.24942000  0.84690000  1.0 -0.0293909926
C  C19  1  0.75058000  0.14610000  0.34690000  1.0 -0.0293909926
C  C20  1  0.14610000  0.75058000  0.15310000  1.0 -0.0293909926
C  C21  1  0.28050000  0.84310000  0.62810000  1.0 -0.1687048265
C  C22  1  0.84310000  0.28050000  0.87190000  1.0 -0.1602722433
C  C23  1  0.71950000  0.15690000  0.37190000  1.0 -0.1687048265
C  C24  1  0.15690000  0.71950000  0.12810000  1.0 -0.1687048265
C  C25  1  0.32501000  0.82047000  0.65150000  1.0 -0.0293909926
C  C26  1  0.82047000  0.32501000  0.84850000  1.0 -0.0293909926
C  C27  1  0.67499000  0.17953000  0.34850000  1.0 -0.0293909926
C  C28  1  0.17953000  0.67499000  0.15150000  1.0 -0.0293909926
C  C29  1  0.33846000  0.80862000  0.69990000  1.0 0.1942546201
C  C30  1  0.80862000  0.33846000  0.80010000  1.0 0.1942546201
C  C31  1  0.66154000  0.19138000  0.30010000  1.0 0.1942546201
C  C32  1  0.19138000  0.66154000  0.19990000  1.0 0.1942546201
C  C33  1  0.31784000  0.80896000  0.77320000  1.0 -0.1076346759
C  C34  1  0.80896000  0.31784000  0.72680000  1.0 -0.1076346759
C  C35  1  0.68216000  0.19104000  0.22680000  1.0 -0.1076346759
C  C36  1  0.19104000  0.68216000  0.27320000  1.0 -0.1076346759
C  C37  1  0.30790000  0.76436000  0.79670000  1.0 0.2110958604
C  C38  1  0.76436000  0.30790000  0.70330000  1.0 0.2110958604
C  C39  1  0.69210000  0.23564000  0.20330000  1.0 0.2110958604
C  C40  1  0.23564000  0.69210000  0.29670000  1.0 0.2110958604
C  C41  1  0.32071000  0.75091000  0.84510000  1.0 -0.0293909926
C  C42  1  0.75091000  0.32071000  0.65490000  1.0 -0.0293909926
C  C43  1  0.67929000  0.24909000  0.15490000  1.0 -0.0293909926
C  C44  1  0.24909000  0.67929000  0.34510000  1.0 -0.0293909926
C  C45  1  0.34349000  0.78211000  0.87000000  1.0 -0.1687048265
C  C46  1  0.78211000  0.34349000  0.63000000  1.0 -0.1602722433
C  C47  1  0.65651000  0.21789000  0.13000000  1.0 -0.1602722433
C  C48  1  0.21789000  0.65651000  0.37000000  1.0 -0.1602722433
C  C49  1  0.35341000  0.82669000  0.84660000  1.0 -0.0206042741
C  C50  1  0.82669000  0.35341000  0.65340000  1.0 -0.0206042741
C  C51  1  0.64659000  0.17331000  0.15340000  1.0 -0.0206042741
C  C52  1  0.17331000  0.64659000  0.34660000  1.0 -0.0206042741
C  C53  1  0.34061000  0.84013000  0.79820000  1.0 0.1942546201
C  C54  1  0.84013000  0.34061000  0.70180000  1.0 0.1942546201
C  C55  1  0.65939000  0.15987000  0.20180000  1.0 0.1942546201
C  C56  1  0.15987000  0.65939000  0.29820000  1.0 0.1942546201
C  C57  1  0.37704000  0.85918000  0.87270000  1.0 0.0821995355
C  C58  1  0.85918000  0.37704000  0.62730000  1.0 0.0821995355
C  C59  1  0.62296000  0.14082000  0.12730000  1.0 0.0821995355
C  C60  1  0.14082000  0.62296000  0.37270000  1.0 0.0821995355
C  C61  1  0.36454000  0.86456000  0.91240000  1.0 -0.1602722433
C  C62  1  0.86456000  0.36454000  0.58760000  1.0 -0.1602722433
C  C63  1  0.63546000  0.13544000  0.08760000  1.0 -0.1602722433
C  C64  1  0.13544000  0.63546000  0.41240000  1.0 -0.1602722433
C  C65  1  0.38903000  0.89443000  0.93800000  1.0 -0.088528687
C  C66  1  0.89443000  0.38903000  0.56200000  1.0 -0.088528687
C  C67  1  0.61097000  0.10557000  0.06200000  1.0 -0.088528687
C  C68  1  0.10557000  0.61097000  0.43800000  1.0 -0.088528687
C  C69  1  0.42602000  0.91890000  0.92380000  1.0 -0.0131453787
C  C70  1  0.91890000  0.42602000  0.57620000  1.0 -0.0131453787
C  C71  1  0.57398000  0.08110000  0.07620000  1.0 -0.0131453787
C  C72  1  0.08110000  0.57398000  0.42380000  1.0 -0.0131453787
C  C73  1  0.43852000  0.91352000  0.88400000  1.0 -0.0966027014
C  C74  1  0.91352000  0.43852000  0.61600000  1.0 -0.0966027014
C  C75  1  0.56148000  0.08648000  0.11600000  1.0 -0.0966027014
C  C76  1  0.08648000  0.56148000  0.38400000  1.0 -0.0966027014
C  C77  1  0.41403000  0.88365000  0.85840000  1.0 -0.1426076422
C  C78  1  0.88365000  0.41403000  0.64160000  1.0 -0.1426076422
C  C79  1  0.58597000  0.11635000  0.14160000  1.0 -0.1426076422
C  C80  1  0.11635000  0.58597000  0.35840000  1.0 -0.1426076422
C  C81  1  0.20414000  0.87656000  0.62780000  1.0 0.0821995355
C  C82  1  0.87656000  0.20414000  0.87220000  1.0 0.0821995355
C  C83  1  0.79586000  0.12344000  0.37220000  1.0 0.0821995355
C  C84  1  0.12344000  0.79586000  0.12780000  1.0 0.0821995355
C  C85  1  0.17858000  0.86398000  0.58820000  1.0 -0.1602722433
C  C86  1  0.86398000  0.17858000  0.91180000  1.0 -0.1602722433
C  C87  1  0.82142000  0.13602000  0.41180000  1.0 -0.1602722433
C  C88  1  0.13602000  0.82142000  0.08820000  1.0 -0.1602722433
C  C89  1  0.13625000  0.88953000  0.56190000  1.0 -0.088528687
C  C90  1  0.88953000  0.13625000  0.93810000  1.0 -0.088528687
C  C91  1  0.86375000  0.11047000  0.43810000  1.0 -0.088528687
C  C92  1  0.11047000  0.86375000  0.06190000  1.0 -0.088528687
C  C93  1  0.11946000  0.92766000  0.57530000  1.0 0.0007704067
C  C94  1  0.92766000  0.11946000  0.92470000  1.0 0.0007704067
C  C95  1  0.88054000  0.07234000  0.42470000  1.0 0.0007704067
C  C96  1  0.07234000  0.88054000  0.07530000  1.0 -0.0031441746
C  C97  1  0.14501000  0.94023000  0.61490000  1.0 -0.088528687
C  C98  1  0.94023000  0.14501000  0.88510000  1.0 -0.088528687
C  C99  1  0.85499000  0.05977000  0.38510000  1.0 -0.088528687
C  C100  1  0.05977000  0.85499000  0.11490000  1.0 -0.088528687
C  C101  1  0.18735000  0.91467000  0.64120000  1.0 -0.1426076422
C  C102  1  0.91467000  0.18735000  0.85880000  1.0 -0.1426076422
C  C103  1  0.81265000  0.08533000  0.35880000  1.0 -0.1426076422
C  C104  1  0.08533000  0.81265000  0.14120000  1.0 -0.1426076422
C  C105  1  0.35901000  0.81107000  0.62600000  1.0 0.0893799164
C  C106  1  0.81107000  0.35901000  0.87400000  1.0 0.0893799164
C  C107  1  0.64099000  0.18893000  0.37400000  1.0 0.0893799164
C  C108  1  0.18893000  0.64099000  0.12600000  1.0 0.0893799164
C  C109  1  0.38400000  0.76680000  0.64128000  1.0 -0.1479561148
C  C110  1  0.76680000  0.38400000  0.85872000  1.0 -0.1479561148
C  C111  1  0.61600000  0.23320000  0.35872000  1.0 -0.1479561148
C  C112  1  0.23320000  0.61600000  0.14128000  1.0 -0.1479561148
C  C113  1  0.41354000  0.75392000  0.61580000  1.0 -0.088528687
C  C114  1  0.75392000  0.41354000  0.88420000  1.0 -0.088528687
C  C115  1  0.58646000  0.24608000  0.38420000  1.0 -0.088528687
C  C116  1  0.24608000  0.58646000  0.11580000  1.0 -0.088528687
C  C117  1  0.41807000  0.78531000  0.57510000  1.0 -0.0206042741
C  C118  1  0.78531000  0.41807000  0.92490000  1.0 -0.0206042741
C  C119  1  0.58193000  0.21469000  0.42490000  1.0 -0.0206042741
C  C120  1  0.21469000  0.58193000  0.07510000  1.0 -0.0206042741
C  C121  1  0.39307000  0.82959000  0.55980000  1.0 -0.0807751993
C  C122  1  0.82959000  0.39307000  0.94020000  1.0 -0.0807751993
C  C123  1  0.60693000  0.17041000  0.44020000  1.0 -0.088528687
C  C124  1  0.17041000  0.60693000  0.05980000  1.0 -0.088528687
C  C125  1  0.36354000  0.84248000  0.58520000  1.0 -0.1602722433
C  C126  1  0.84248000  0.36354000  0.91480000  1.0 -0.1602722433
C  C127  1  0.63646000  0.15752000  0.41480000  1.0 -0.1602722433
C  C128  1  0.15752000  0.63646000  0.08520000  1.0 -0.1602722433
C  C129  1  0.70425000  0.81147000  0.62530000  1.0 0.0893799164
C  C130  1  0.81147000  0.70425000  0.87470000  1.0 0.0893799164
C  C131  1  0.29575000  0.18853000  0.37470000  1.0 0.0893799164
C  C132  1  0.18853000  0.29575000  0.12530000  1.0 0.0893799164
C  C133  1  0.67841000  0.84385000  0.58540000  1.0 -0.1602722433
C  C134  1  0.84385000  0.67841000  0.91460000  1.0 -0.1602722433
C  C135  1  0.32159000  0.15615000  0.41460000  1.0 -0.1602722433
C  C136  1  0.15615000  0.32159000  0.08540000  1.0 -0.1602722433
C  C137  1  0.63560000  0.83200000  0.56010000  1.0 -0.0691691654
C  C138  1  0.83200000  0.63560000  0.93990000  1.0 -0.0691691654
C  C139  1  0.36440000  0.16800000  0.43990000  1.0 -0.0691691654
C  C140  1  0.16800000  0.36440000  0.06010000  1.0 -0.0691691654
C  C141  1  0.61860000  0.78772000  0.57480000  1.0 -0.059475283
C  C142  1  0.78772000  0.61860000  0.92520000  1.0 -0.059475283
C  C143  1  0.38140000  0.21228000  0.42520000  1.0 -0.059475283
C  C144  1  0.21228000  0.38140000  0.07480000  1.0 -0.059475283
C  C145  1  0.64444000  0.75534000  0.61470000  1.0 -0.0691691654
C  C146  1  0.75534000  0.64444000  0.88530000  1.0 -0.0691691654
C  C147  1  0.35556000  0.24466000  0.38530000  1.0 -0.0691691654
C  C148  1  0.24466000  0.35556000  0.11470000  1.0 -0.0691691654
C  C149  1  0.68727000  0.76721000  0.63990000  1.0 -0.1426076422
C  C150  1  0.76721000  0.68727000  0.86010000  1.0 -0.1426076422
C  C151  1  0.31273000  0.23279000  0.36010000  1.0 -0.1479561148
C  C152  1  0.23279000  0.31273000  0.13990000  1.0 -0.1426076422
C  C153  1  0.82680000  0.85044000  0.65130000  1.0 -0.0293909926
C  C154  1  0.85044000  0.82680000  0.84870000  1.0 -0.0293909926
C  C155  1  0.17320000  0.14956000  0.34870000  1.0 -0.0293909926
C  C156  1  0.14956000  0.17320000  0.15130000  1.0 -0.0293909926
C  C157  1  0.78183000  0.84301000  0.62653000  1.0 -0.1602722433
C  C158  1  0.84301000  0.78183000  0.87347000  1.0 -0.1602722433
C  C159  1  0.21817000  0.15699000  0.37347000  1.0 -0.1602722433
C  C160  1  0.15699000  0.21817000  0.12653000  1.0 -0.1602722433
C  C161  1  0.74838000  0.82338000  0.65010000  1.0 -0.0293909926
C  C162  1  0.82338000  0.74838000  0.84990000  1.0 -0.0293909926
C  C163  1  0.25162000  0.17662000  0.34990000  1.0 -0.0293909926
C  C164  1  0.17662000  0.25162000  0.15010000  1.0 -0.0293909926
C  C165  1  0.75991000  0.81117000  0.69850000  1.0 0.1813281198
C  C166  1  0.81117000  0.75991000  0.80150000  1.0 0.1813281198
C  C167  1  0.24009000  0.18883000  0.30150000  1.0 0.1813281198
C  C168  1  0.18883000  0.24009000  0.19850000  1.0 0.1813281198
C  C169  1  0.80488000  0.81860000  0.72336000  1.0 -0.1076346759
C  C170  1  0.81860000  0.80488000  0.77664000  1.0 -0.1076346759
C  C171  1  0.19512000  0.18140000  0.27664000  1.0 -0.1076346759
C  C172  1  0.18140000  0.19512000  0.22336000  1.0 -0.1076346759
C  C173  1  0.83833000  0.83823000  0.69980000  1.0 0.2110958604
C  C174  1  0.83823000  0.83833000  0.80020000  1.0 0.2110958604
C  C175  1  0.16167000  0.16177000  0.30020000  1.0 0.2110958604
C  C176  1  0.16177000  0.16167000  0.19980000  1.0 0.2110958604
C  C177  1  0.79673000  0.62439000  0.37330000  1.0 0.0893799164
C  C178  1  0.62439000  0.79673000  0.12670000  1.0 0.0893799164
C  C179  1  0.20327000  0.37561000  0.62670000  1.0 0.0893799164
C  C180  1  0.37561000  0.20327000  0.87330000  1.0 0.0893799164
C  C181  1  0.82213000  0.63695000  0.41300000  1.0 -0.1602722433
C  C182  1  0.63695000  0.82213000  0.08700000  1.0 -0.1602722433
C  C183  1  0.17787000  0.36305000  0.58700000  1.0 -0.1602722433
C  C184  1  0.36305000  0.17787000  0.91300000  1.0 -0.1602722433
C  C185  1  0.86510000  0.61230000  0.43870000  1.0 -0.0807751993
C  C186  1  0.61230000  0.86510000  0.06130000  1.0 -0.0807751993
C  C187  1  0.13490000  0.38770000  0.56130000  1.0 -0.0807751993
C  C188  1  0.38770000  0.13490000  0.93870000  1.0 -0.0807751993
C  C189  1  0.88271000  0.57505000  0.42460000  1.0 -0.0206042741
C  C190  1  0.57505000  0.88271000  0.07540000  1.0 -0.0206042741
C  C191  1  0.11729000  0.42495000  0.57540000  1.0 -0.0206042741
C  C192  1  0.42495000  0.11729000  0.92460000  1.0 -0.0206042741
C  C193  1  0.85731000  0.56249000  0.38490000  1.0 -0.0807751993
C  C194  1  0.56249000  0.85731000  0.11510000  1.0 -0.0807751993
C  C195  1  0.14269000  0.43751000  0.61510000  1.0 -0.0807751993
C  C196  1  0.43751000  0.14269000  0.88490000  1.0 -0.0807751993
C  C197  1  0.81432000  0.58716000  0.35930000  1.0 -0.1479561148
C  C198  1  0.58716000  0.81432000  0.14070000  1.0 -0.1479561148
C  C199  1  0.18568000  0.41284000  0.64070000  1.0 -0.1479561148
C  C200  1  0.41284000  0.18568000  0.85930000  1.0 -0.1479561148
C  C201  1  0.69580000  0.68120000  0.27670000  1.0 -0.0966027014
C  C202  1  0.68120000  0.69580000  0.22330000  1.0 -0.0966027014
C  C203  1  0.30420000  0.31880000  0.72330000  1.0 -0.0966027014
C  C204  1  0.31880000  0.30420000  0.77670000  1.0 -0.0966027014
C  C205  1  0.66131000  0.68819000  0.29960000  1.0 0.2044696567
C  C206  1  0.68819000  0.66131000  0.20040000  1.0 0.2044696567
C  C207  1  0.33869000  0.31181000  0.70040000  1.0 0.2044696567
C  C208  1  0.31181000  0.33869000  0.79960000  1.0 0.2044696567
C  C209  1  0.67197000  0.67569000  0.34800000  1.0 -0.0293909926
C  C210  1  0.67569000  0.67197000  0.15200000  1.0 -0.0293909926
C  C211  1  0.32803000  0.32431000  0.65200000  1.0 -0.0293909926
C  C212  1  0.32431000  0.32803000  0.84800000  1.0 -0.0293909926
C  C213  1  0.71715000  0.65625000  0.37350000  1.0 -0.1687048265
C  C214  1  0.65625000  0.71715000  0.12650000  1.0 -0.1687048265
C  C215  1  0.28285000  0.34375000  0.62650000  1.0 -0.1602722433
C  C216  1  0.34375000  0.28285000  0.87350000  1.0 -0.1602722433
C  C217  1  0.75164000  0.64932000  0.35060000  1.0 -0.0293909926
C  C218  1  0.64932000  0.75164000  0.14940000  1.0 -0.0293909926
C  C219  1  0.24836000  0.35068000  0.64940000  1.0 -0.0293909926
C  C220  1  0.35068000  0.24836000  0.85060000  1.0 -0.0293909926
C  C221  1  0.74099000  0.66183000  0.30220000  1.0 0.1813281198
C  C222  1  0.66183000  0.74099000  0.19780000  1.0 0.1813281198
C  C223  1  0.25901000  0.33817000  0.69780000  1.0 0.1813281198
C  C224  1  0.33817000  0.25901000  0.80220000  1.0 0.1813281198
C  C225  1  0.64032000  0.69008000  0.37270000  1.0 0.0893799164
C  C226  1  0.69008000  0.64032000  0.12730000  1.0 0.0893799164
C  C227  1  0.35968000  0.30992000  0.62730000  1.0 0.0893799164
C  C228  1  0.30992000  0.35968000  0.87270000  1.0 0.0893799164
C  C229  1  0.63651000  0.65827000  0.41350000  1.0 -0.1602722433
C  C230  1  0.65827000  0.63651000  0.08650000  1.0 -0.1602722433
C  C231  1  0.36349000  0.34173000  0.58650000  1.0 -0.1602722433
C  C232  1  0.34173000  0.36349000  0.91350000  1.0 -0.1602722433
C  C233  1  0.60710000  0.67042000  0.43950000  1.0 -0.088528687
C  C234  1  0.67042000  0.60710000  0.06050000  1.0 -0.088528687
C  C235  1  0.39290000  0.32958000  0.56050000  1.0 -0.088528687
C  C236  1  0.32958000  0.39290000  0.93950000  1.0 -0.088528687
C  C237  1  0.58149000  0.71437000  0.42460000  1.0 -0.0031441746
C  C238  1  0.71437000  0.58149000  0.07540000  1.0 -0.0031441746
C  C239  1  0.41851000  0.28563000  0.57540000  1.0 -0.0031441746
C  C240  1  0.28563000  0.41851000  0.92460000  1.0 -0.0031441746
C  C241  1  0.58529000  0.74617000  0.38380000  1.0 -0.088528687
C  C242  1  0.74617000  0.58529000  0.11620000  1.0 -0.088528687
C  C243  1  0.41471000  0.25383000  0.61620000  1.0 -0.088528687
C  C244  1  0.25383000  0.41471000  0.88380000  1.0 -0.088528687
C  C245  1  0.61472000  0.73402000  0.35780000  1.0 -0.1426076422
C  C246  1  0.73402000  0.61472000  0.14220000  1.0 -0.1479561148
C  C247  1  0.38528000  0.26598000  0.64220000  1.0 -0.1479561148
C  C248  1  0.26598000  0.38528000  0.85780000  1.0 -0.1479561148
C  C249  1  0.30795000  0.70509000  0.87300000  1.0 0.0893799164
C  C250  1  0.70509000  0.30795000  0.62700000  1.0 0.0893799164
C  C251  1  0.69205000  0.29491000  0.12700000  1.0 0.0893799164
C  C252  1  0.29491000  0.69205000  0.37300000  1.0 0.0893799164
C  C253  1  0.26387000  0.68773000  0.85840000  1.0 -0.1479561148
C  C254  1  0.68773000  0.26387000  0.64160000  1.0 -0.1479561148
C  C255  1  0.73613000  0.31227000  0.14160000  1.0 -0.1479561148
C  C256  1  0.31227000  0.73613000  0.35840000  1.0 -0.1479561148
C  C257  1  0.25238000  0.64474000  0.88370000  1.0 -0.088528687
C  C258  1  0.64474000  0.25238000  0.61630000  1.0 -0.088528687
C  C259  1  0.74762000  0.35526000  0.11630000  1.0 -0.088528687
C  C260  1  0.35526000  0.74762000  0.38370000  1.0 -0.088528687
C  C261  1  0.28498000  0.61910000  0.92360000  1.0 -0.0206042741
C  C262  1  0.61910000  0.28498000  0.57640000  1.0 -0.0206042741
C  C263  1  0.71502000  0.38090000  0.07640000  1.0 -0.0206042741
C  C264  1  0.38090000  0.71502000  0.42360000  1.0 -0.0206042741
C  C265  1  0.32906000  0.63646000  0.93810000  1.0 -0.088528687
C  C266  1  0.63646000  0.32906000  0.56190000  1.0 -0.088528687
C  C267  1  0.67094000  0.36354000  0.06190000  1.0 -0.088528687
C  C268  1  0.36354000  0.67094000  0.43810000  1.0 -0.088528687
C  C269  1  0.34055000  0.67945000  0.91280000  1.0 -0.1602722433
C  C270  1  0.67945000  0.34055000  0.58720000  1.0 -0.1602722433
C  C271  1  0.65945000  0.32055000  0.08720000  1.0 -0.1602722433
C  C272  1  0.32055000  0.65945000  0.41280000  1.0 -0.1602722433
C  C273  1  0.86005000  0.87805000  0.62650000  1.0 0.0893799164
C  C274  1  0.87805000  0.86005000  0.87350000  1.0 0.0893799164
C  C275  1  0.13995000  0.12195000  0.37350000  1.0 0.0893799164
C  C276  1  0.12195000  0.13995000  0.12650000  1.0 0.0893799164
C  C277  1  0.86492000  0.86556000  0.58650000  1.0 -0.1602722433
C  C278  1  0.86556000  0.86492000  0.91350000  1.0 -0.1602722433
C  C279  1  0.13508000  0.13444000  0.41350000  1.0 -0.1602722433
C  C280  1  0.13444000  0.13508000  0.08650000  1.0 -0.1602722433
C  C281  1  0.89469000  0.88987000  0.56070000  1.0 -0.0807751993
C  C282  1  0.88987000  0.89469000  0.93930000  1.0 -0.0807751993
C  C283  1  0.10531000  0.11013000  0.43930000  1.0 -0.0807751993
C  C284  1  0.11013000  0.10531000  0.06070000  1.0 -0.0807751993
C  C285  1  0.91959000  0.92667000  0.57490000  1.0 -0.0131453787
C  C286  1  0.92667000  0.91959000  0.92510000  1.0 -0.0131453787
C  C287  1  0.08041000  0.07333000  0.42510000  1.0 -0.0131453787
C  C288  1  0.07333000  0.08041000  0.07490000  1.0 -0.0131453787
C  C289  1  0.91470000  0.93916000  0.61480000  1.0 -0.0807751993
C  C290  1  0.93916000  0.91470000  0.88520000  1.0 -0.0807751993
C  C291  1  0.08530000  0.06084000  0.38520000  1.0 -0.0807751993
C  C292  1  0.06084000  0.08530000  0.11480000  1.0 -0.0807751993
C  C293  1  0.88494000  0.91486000  0.64060000  1.0 -0.1479561148
C  C294  1  0.91486000  0.88494000  0.85940000  1.0 -0.1479561148
C  C295  1  0.11506000  0.08514000  0.35940000  1.0 -0.1479561148
C  C296  1  0.08514000  0.11506000  0.14060000  1.0 -0.1479561148
C  C297  1  0.07150000  0.95390000  0.54600000  1.0 0.5584025738
C  C298  1  0.95390000  0.07150000  0.95400000  1.0 0.5584025738
C  C299  1  0.92850000  0.04610000  0.45400000  1.0 0.5584025738
C  C300  1  0.04610000  0.92850000  0.04600000  1.0 0.5584025738
C  C301  1  0.44920000  0.77560000  0.54610000  1.0 0.5584025738
C  C302  1  0.77560000  0.44920000  0.95390000  1.0 0.5584025738
C  C303  1  0.55080000  0.22440000  0.45390000  1.0 0.5584025738
C  C304  1  0.22440000  0.55080000  0.04610000  1.0 0.5584025738
C  C305  1  0.57430000  0.77610000  0.54810000  1.0 0.5701016618
C  C306  1  0.77610000  0.57430000  0.95190000  1.0 0.5701016618
C  C307  1  0.42570000  0.22390000  0.45190000  1.0 0.5701016618
C  C308  1  0.22390000  0.42570000  0.04810000  1.0 0.5701016618
C  C309  1  0.54900000  0.73240000  0.45010000  1.0 0.5584025738
C  C310  1  0.73240000  0.54900000  0.04990000  1.0 0.5537972805
C  C311  1  0.45100000  0.26760000  0.54990000  1.0 0.5584025738
C  C312  1  0.26760000  0.45100000  0.95010000  1.0 0.5537972805
C  C313  1  0.27180000  0.57360000  0.95230000  1.0 0.5785378871
C  C314  1  0.57360000  0.27180000  0.54770000  1.0 0.5785378871
C  C315  1  0.72820000  0.42640000  0.04770000  1.0 0.5785378871
C  C316  1  0.42640000  0.72820000  0.45230000  1.0 0.5785378871
C  C317  1  0.45380000  0.95120000  0.95160000  1.0 0.5701016618
C  C318  1  0.95120000  0.45380000  0.54840000  1.0 0.5701016618
C  C319  1  0.54620000  0.04880000  0.04840000  1.0 0.5701016618
C  C320  1  0.04880000  0.54620000  0.45160000  1.0 0.5701016618
C  C321  1  0.91880000  0.80980000  0.72720000  1.0 0.4573620615
C  C322  1  0.80980000  0.91880000  0.77280000  1.0 0.4573620615
C  C323  1  0.08120000  0.19020000  0.27280000  1.0 0.4506463018
C  C324  1  0.19020000  0.08120000  0.22720000  1.0 0.4506463018
C  C325  1  0.96670000  0.83330000  0.74240000  1.0 -0.4219608548
C  C326  1  0.83330000  0.96670000  0.75760000  1.0 -0.4219608548
C  C327  1  0.03330000  0.16670000  0.25760000  1.0 -0.4219608548
C  C328  1  0.16670000  0.03330000  0.24240000  1.0 -0.4219608548
C  C329  1  0.80390000  0.69070000  0.27380000  1.0 0.4400136416
C  C330  1  0.69070000  0.80390000  0.22620000  1.0 0.4400136416
C  C331  1  0.19610000  0.30930000  0.72620000  1.0 0.4400136416
C  C332  1  0.30930000  0.19610000  0.77380000  1.0 0.4400136416
C  C333  1  0.83310000  0.68970000  0.23810000  1.0 -0.4104236903
C  C334  1  0.68970000  0.83310000  0.26190000  1.0 -0.4104236903
C  C335  1  0.16690000  0.31030000  0.76190000  1.0 -0.4104236903
C  C336  1  0.31030000  0.16690000  0.73810000  1.0 -0.4104236903
C  C337  1  0.41200000  0.82460000  0.73460000  1.0 0.3381518382
C  C338  1  0.82460000  0.41200000  0.76540000  1.0 0.3381518382
C  C339  1  0.58800000  0.17540000  0.26540000  1.0 0.3381518382
C  C340  1  0.17540000  0.58800000  0.23460000  1.0 0.3505938508
C  C341  1  0.45900000  0.80360000  0.77150000  1.0 -0.3466198685
C  C342  1  0.80360000  0.45900000  0.72850000  1.0 -0.3466198685
C  C343  1  0.54100000  0.19640000  0.22850000  1.0 -0.3466198685
C  C344  1  0.19640000  0.54100000  0.27150000  1.0 -0.3397298547
C  C345  1  0.31050000  0.91590000  0.76450000  1.0 0.3554074225
C  C346  1  0.91590000  0.31050000  0.73550000  1.0 0.3651219664
C  C347  1  0.68950000  0.08410000  0.23550000  1.0 0.3505938508
C  C348  1  0.08410000  0.68950000  0.26450000  1.0 0.3505938508
C  C349  1  0.31630000  0.95790000  0.72470000  1.0 -0.3619379344
C  C350  1  0.95790000  0.31630000  0.77530000  1.0 -0.3619379344
C  C351  1  0.68370000  0.04210000  0.27530000  1.0 -0.3662627581
C  C352  1  0.04210000  0.68370000  0.22470000  1.0 -0.3662627581
C  C353  1  0.69770000  0.82630000  0.72720000  1.0 0.4400136416
C  C354  1  0.82630000  0.69770000  0.77280000  1.0 0.4400136416
C  C355  1  0.30230000  0.17370000  0.27280000  1.0 0.4400136416
C  C356  1  0.17370000  0.30230000  0.22720000  1.0 0.4400136416
C  C357  1  0.66880000  0.80760000  0.76300000  1.0 -0.4683190527
C  C358  1  0.80760000  0.66880000  0.73700000  1.0 -0.4683190527
C  C359  1  0.33120000  0.19240000  0.23700000  1.0 -0.4683190527
C  C360  1  0.19240000  0.33120000  0.26300000  1.0 -0.4683190527
C  C361  1  0.58220000  0.67700000  0.27300000  1.0 0.4506463018
C  C362  1  0.67700000  0.58220000  0.22700000  1.0 0.4506463018
C  C363  1  0.41780000  0.32300000  0.72700000  1.0 0.4506463018
C  C364  1  0.32300000  0.41780000  0.77300000  1.0 0.4506463018
C  C365  1  0.53580000  0.70860000  0.24640000  1.0 -0.4897429588
C  C366  1  0.70860000  0.53580000  0.25360000  1.0 -0.4807494609
C  C367  1  0.46420000  0.29140000  0.75360000  1.0 -0.4807494609
C  C368  1  0.29140000  0.46420000  0.74640000  1.0 -0.4807494609
C  C369  1  0.20330000  0.81330000  0.73160000  1.0 0.2831662156
C  C370  1  0.81330000  0.20330000  0.76840000  1.0 0.2831662156
C  C371  1  0.79670000  0.18670000  0.26840000  1.0 0.2831662156
C  C372  1  0.18670000  0.79670000  0.23160000  1.0 0.2872853336
C  C373  1  0.16210000  0.83530000  0.74700000  1.0 -0.3335772199
C  C374  1  0.83530000  0.16210000  0.75300000  1.0 -0.3397298547
C  C375  1  0.83790000  0.16470000  0.25300000  1.0 -0.3335772199
C  C376  1  0.16470000  0.83790000  0.24700000  1.0 -0.3335772199
C  C377  1  0.31650000  0.70270000  0.76590000  1.0 0.3019712327
C  C378  1  0.70270000  0.31650000  0.73410000  1.0 0.3019712327
C  C379  1  0.68350000  0.29730000  0.23410000  1.0 0.3019712327
C  C380  1  0.29730000  0.68350000  0.26590000  1.0 0.3019712327
C  C381  1  0.28270000  0.67070000  0.73440000  1.0 -0.5408301892
C  C382  1  0.67070000  0.28270000  0.76560000  1.0 -0.5408301892
C  C383  1  0.71730000  0.32930000  0.26560000  1.0 -0.5408301892
C  C384  1  0.32930000  0.71730000  0.23440000  1.0 -0.5408301892
O  O1  1  0.94855000  0.56309000  0.48270000  1.0 -0.4999781045
O  O2  1  0.56309000  0.94855000  0.01730000  1.0 -0.4999781045
O  O3  1  0.05145000  0.43691000  0.51730000  1.0 -0.4999781045
O  O4  1  0.43691000  0.05145000  0.98270000  1.0 -0.4999781045
O  O5  1  0.93815000  0.51153000  0.43830000  1.0 -0.4807494609
O  O6  1  0.51153000  0.93815000  0.06170000  1.0 -0.4807494609
O  O7  1  0.06185000  0.48847000  0.56170000  1.0 -0.4807494609
O  O8  1  0.48847000  0.06185000  0.93830000  1.0 -0.4807494609
O  O9  1  0.95644000  0.93718000  0.51390000  1.0 -0.4999781045
O  O10  1  0.93718000  0.95644000  0.98610000  1.0 -0.4999781045
O  O11  1  0.04356000  0.06282000  0.48610000  1.0 -0.4999781045
O  O12  1  0.06282000  0.04356000  0.01390000  1.0 -0.4999781045
O  O13  1  0.96899000  0.98845000  0.56110000  1.0 -0.5476304732
O  O14  1  0.98845000  0.96899000  0.93890000  1.0 -0.5476304732
O  O15  1  0.03101000  0.01155000  0.43890000  1.0 -0.5476304732
O  O16  1  0.01155000  0.03101000  0.06110000  1.0 -0.5476304732
O  O17  1  0.48981000  0.96877000  0.93990000  1.0 -0.5318615789
O  O18  1  0.96877000  0.48981000  0.56010000  1.0 -0.5318615789
O  O19  1  0.51019000  0.03123000  0.06010000  1.0 -0.5318615789
O  O20  1  0.03123000  0.51019000  0.43990000  1.0 -0.5318615789
O  O21  1  0.56253000  0.73263000  0.56000000  1.0 -0.5476304732
O  O22  1  0.73263000  0.56253000  0.94000000  1.0 -0.5476304732
O  O23  1  0.43747000  0.26737000  0.44000000  1.0 -0.5476304732
O  O24  1  0.26737000  0.43747000  0.06000000  1.0 -0.5476304732
O  O25  1  0.55050000  0.80398000  0.51460000  1.0 -0.4683190527
O  O26  1  0.80398000  0.55050000  0.98540000  1.0 -0.4683190527
O  O27  1  0.44950000  0.19602000  0.48540000  1.0 -0.4683190527
O  O28  1  0.19602000  0.44950000  0.01460000  1.0 -0.4683190527
O  O29  1  0.45693000  0.80493000  0.51600000  1.0 -0.4376511442
O  O30  1  0.80493000  0.45693000  0.98400000  1.0 -0.4376511442
O  O31  1  0.54307000  0.19507000  0.48400000  1.0 -0.4376511442
O  O32  1  0.19507000  0.54307000  0.01600000  1.0 -0.4376511442
O  O33  1  0.46739000  0.73187000  0.56140000  1.0 -0.5476304732
O  O34  1  0.73187000  0.46739000  0.93860000  1.0 -0.5476304732
O  O35  1  0.53261000  0.26813000  0.43860000  1.0 -0.5476304732
O  O36  1  0.26813000  0.53261000  0.06140000  1.0 -0.5476304732
O  O37  1  0.30373000  0.54953000  0.98590000  1.0 -0.5318615789
O  O38  1  0.54953000  0.30373000  0.51410000  1.0 -0.5318615789
O  O39  1  0.69627000  0.45047000  0.01410000  1.0 -0.5318615789
O  O40  1  0.45047000  0.69627000  0.48590000  1.0 -0.5318615789
O  O41  1  0.23018000  0.56120000  0.94070000  1.0 -0.5318615789
O  O42  1  0.56120000  0.23018000  0.55930000  1.0 -0.5318615789
O  O43  1  0.76982000  0.43880000  0.05930000  1.0 -0.5318615789
O  O44  1  0.43880000  0.76982000  0.44070000  1.0 -0.5318615789
O  O45  1  0.53122000  0.76986000  0.43940000  1.0 -0.4268848144
O  O46  1  0.76986000  0.53122000  0.06060000  1.0 -0.4268848144
O  O47  1  0.46878000  0.23014000  0.56060000  1.0 -0.4219608548
O  O48  1  0.23014000  0.46878000  0.93940000  1.0 -0.4268848144
O  O49  1  0.54418000  0.69676000  0.48340000  1.0 -0.5408301892
O  O50  1  0.69676000  0.54418000  0.01660000  1.0 -0.5408301892
O  O51  1  0.45582000  0.30324000  0.51660000  1.0 -0.5408301892
O  O52  1  0.30324000  0.45582000  0.98340000  1.0 -0.5408301892
O  O53  1  0.43807000  0.95721000  0.98520000  1.0 -0.5408301892
O  O54  1  0.95721000  0.43807000  0.51480000  1.0 -0.5408301892
O  O55  1  0.56193000  0.04279000  0.01480000  1.0 -0.5408301892
O  O56  1  0.04279000  0.56193000  0.48520000  1.0 -0.5408301892
O  O57  1  0.05102000  0.93740000  0.51540000  1.0 -0.4683190527
O  O58  1  0.93740000  0.05102000  0.98460000  1.0 -0.4683190527
O  O59  1  0.94898000  0.06260000  0.48460000  1.0 -0.4683190527
O  O60  1  0.06260000  0.94898000  0.01540000  1.0 -0.4683190527
O  O61  1  0.06233000  0.98889000  0.56150000  1.0 -0.5318615789
O  O62  1  0.98889000  0.06233000  0.93850000  1.0 -0.5318615789
O  O63  1  0.93767000  0.01111000  0.43850000  1.0 -0.5318615789
O  O64  1  0.01111000  0.93767000  0.06150000  1.0 -0.5318615789
O  O65  1  0.88140000  0.84680000  0.72190000  1.0 -0.1687048265
O  O66  1  0.84680000  0.88140000  0.77810000  1.0 -0.1687048265
O  O67  1  0.11860000  0.15320000  0.27810000  1.0 -0.1687048265
O  O68  1  0.15320000  0.11860000  0.22190000  1.0 -0.1687048265
O  O69  1  0.77160000  0.65400000  0.27640000  1.0 -0.1810976446
O  O70  1  0.65400000  0.77160000  0.22360000  1.0 -0.1810976446
O  O71  1  0.22840000  0.34600000  0.72360000  1.0 -0.1810976446
O  O72  1  0.34600000  0.22840000  0.77640000  1.0 -0.1810976446
O  O73  1  0.38090000  0.78830000  0.72600000  1.0 -0.1479561148
O  O74  1  0.78830000  0.38090000  0.77400000  1.0 -0.1479561148
O  O75  1  0.61910000  0.21170000  0.27400000  1.0 -0.1479561148
O  O76  1  0.21170000  0.61910000  0.22600000  1.0 -0.1479561148
O  O77  1  0.35000000  0.88280000  0.77450000  1.0 -0.1602722433
O  O78  1  0.88280000  0.35000000  0.72550000  1.0 -0.1602722433
O  O79  1  0.65000000  0.11720000  0.22550000  1.0 -0.1602722433
O  O80  1  0.11720000  0.65000000  0.27450000  1.0 -0.1602722433
O  O81  1  0.72880000  0.78940000  0.72350000  1.0 -0.1810976446
O  O82  1  0.78940000  0.72880000  0.77650000  1.0 -0.1810976446
O  O83  1  0.27120000  0.21060000  0.27650000  1.0 -0.1810976446
O  O84  1  0.21060000  0.27120000  0.22350000  1.0 -0.1810976446
O  O85  1  0.61880000  0.70960000  0.27550000  1.0 -0.1810976446
O  O86  1  0.70960000  0.61880000  0.22450000  1.0 -0.1810976446
O  O87  1  0.38120000  0.29040000  0.72450000  1.0 -0.1810976446
O  O88  1  0.29040000  0.38120000  0.77550000  1.0 -0.1810976446
O  O89  1  0.23320000  0.85040000  0.72520000  1.0 -0.1426076422
O  O90  1  0.85040000  0.23320000  0.77480000  1.0 -0.1426076422
O  O91  1  0.76680000  0.14960000  0.27480000  1.0 -0.1426076422
O  O92  1  0.14960000  0.76680000  0.22520000  1.0 -0.1426076422
O  O93  1  0.28600000  0.73520000  0.77290000  1.0 -0.1687048265
O  O94  1  0.73520000  0.28600000  0.72710000  1.0 -0.1687048265
O  O95  1  0.71400000  0.26480000  0.22710000  1.0 -0.1687048265
O  O96  1  0.26480000  0.71400000  0.27290000  1.0 -0.1687048265
