# DDEC6 charges by PACMAN v1.1 (https://github.com/mtap-research/PACMAN-charge/)
data_EFESIT_ASR_pacman
_symmetry_space_group_name_H-M   'P 1'
_cell_length_a   25.55600000
_cell_length_b   25.55600000
_cell_length_c   22.75100000
_cell_angle_alpha   90.00000000
_cell_angle_beta   90.00000000
_cell_angle_gamma   90.00000000
_symmetry_Int_Tables_number   1
_chemical_formula_structural   K2Zn5H72C100S2(NO15)2
_chemical_formula_sum   'K8 Zn20 H288 C400 S8 N8 O120'
_cell_volume   14858.88595314
_cell_formula_units_Z   4
loop_
 _symmetry_equiv_pos_site_id
 _symmetry_equiv_pos_as_xyz
  1  'x, y, z'
loop_
 _atom_site_type_symbol
 _atom_site_label
 _atom_site_symmetry_multiplicity
 _atom_site_fract_x
 _atom_site_fract_y
 _atom_site_fract_z
 _atom_site_occupancy
 _atom_site_charge
K  K1  1  0.94872000  0.78220000  0.72000000  1.0 0.8256890692
K  K2  1  0.05128000  0.21780000  0.72000000  1.0 0.8247962086
K  K3  1  0.28220000  0.44872000  0.22000000  1.0 0.8256890692
K  K4  1  0.71780000  0.55128000  0.22000000  1.0 0.8256890692
K  K5  1  0.55128000  0.28220000  0.78000000  1.0 0.8256890692
K  K6  1  0.44872000  0.71780000  0.78000000  1.0 0.8256890692
K  K7  1  0.21780000  0.94872000  0.28000000  1.0 0.8256890692
K  K8  1  0.78220000  0.05128000  0.28000000  1.0 0.8256890692
Zn  Zn1  1  0.38314000  0.96017000  0.02208000  1.0 0.9783087237
Zn  Zn2  1  0.61686000  0.03983000  0.02208000  1.0 0.9783087237
Zn  Zn3  1  0.46017000  0.88314000  0.52208000  1.0 0.9783087237
Zn  Zn4  1  0.53983000  0.11686000  0.52208000  1.0 0.9783087237
Zn  Zn5  1  0.44991000  0.88301000  0.94288000  1.0 0.9185630171
Zn  Zn6  1  0.55009000  0.11699000  0.94288000  1.0 0.9185630171
Zn  Zn7  1  0.38301000  0.94991000  0.44288000  1.0 0.9185630171
Zn  Zn8  1  0.61699000  0.05009000  0.44288000  1.0 0.9185630171
Zn  Zn9  1  0.50000000  0.00000000  0.96901000  1.0 1.0860720365
Zn  Zn10  1  0.50000000  0.00000000  0.46901000  1.0 1.0860720365
Zn  Zn11  1  0.11686000  0.46017000  0.47792000  1.0 0.9783087237
Zn  Zn12  1  0.88314000  0.53983000  0.47792000  1.0 0.9783087237
Zn  Zn13  1  0.03983000  0.38314000  0.97792000  1.0 0.9783087237
Zn  Zn14  1  0.96017000  0.61686000  0.97792000  1.0 0.9783087237
Zn  Zn15  1  0.05009000  0.38301000  0.55712000  1.0 0.9185630171
Zn  Zn16  1  0.94991000  0.61699000  0.55712000  1.0 0.9185630171
Zn  Zn17  1  0.11699000  0.44991000  0.05712000  1.0 0.9185630171
Zn  Zn18  1  0.88301000  0.55009000  0.05712000  1.0 0.9185630171
Zn  Zn19  1  0.00000000  0.50000000  0.53099000  1.0 1.0860720365
Zn  Zn20  1  0.00000000  0.50000000  0.03099000  1.0 1.0860720365
H  H1  1  0.31730000  0.79920000  0.86220000  1.0 0.092404922
H  H2  1  0.68270000  0.20080000  0.86220000  1.0 0.092404922
H  H3  1  0.29920000  0.81730000  0.36220000  1.0 0.092404922
H  H4  1  0.70080000  0.18270000  0.36220000  1.0 0.092404922
H  H5  1  0.23570000  0.76870000  0.81970000  1.0 0.1091362132
H  H6  1  0.76430000  0.23130000  0.81970000  1.0 0.1091362132
H  H7  1  0.26870000  0.73570000  0.31970000  1.0 0.1091362132
H  H8  1  0.73130000  0.26430000  0.31970000  1.0 0.1091362132
H  H9  1  0.21510000  0.91270000  0.76180000  1.0 0.1194796499
H  H10  1  0.78490000  0.08730000  0.76180000  1.0 0.1194796499
H  H11  1  0.41270000  0.71510000  0.26180000  1.0 0.1194796499
H  H12  1  0.58730000  0.28490000  0.26180000  1.0 0.1194796499
H  H13  1  0.29390000  0.94350000  0.80430000  1.0 0.1194796499
H  H14  1  0.70610000  0.05650000  0.80430000  1.0 0.1194796499
H  H15  1  0.44350000  0.79390000  0.30430000  1.0 0.1194796499
H  H16  1  0.55650000  0.20610000  0.30430000  1.0 0.1194796499
H  H17  1  0.90310000  0.72320000  0.84950000  1.0 0.1003722083
H  H18  1  0.09690000  0.27680000  0.84950000  1.0 0.1003722083
H  H19  1  0.22320000  0.40310000  0.34950000  1.0 0.1003722083
H  H20  1  0.77680000  0.59690000  0.34950000  1.0 0.1003722083
H  H21  1  0.91140000  0.75730000  0.90570000  1.0 0.1003722083
H  H22  1  0.08860000  0.24270000  0.90570000  1.0 0.1003722083
H  H23  1  0.25730000  0.41140000  0.40570000  1.0 0.1003722083
H  H24  1  0.74270000  0.58860000  0.40570000  1.0 0.1003722083
H  H25  1  0.82640000  0.77390000  0.86340000  1.0 0.1003722083
H  H26  1  0.17360000  0.22610000  0.86340000  1.0 0.1003722083
H  H27  1  0.27390000  0.32640000  0.36340000  1.0 0.1003722083
H  H28  1  0.72610000  0.67360000  0.36340000  1.0 0.1003722083
H  H29  1  0.85950000  0.82620000  0.86380000  1.0 0.1091362132
H  H30  1  0.14050000  0.17380000  0.86380000  1.0 0.1091362132
H  H31  1  0.32620000  0.35950000  0.36380000  1.0 0.1091362132
H  H32  1  0.67380000  0.64050000  0.36380000  1.0 0.1091362132
H  H33  1  0.89880000  0.77700000  0.52830000  1.0 0.1003722083
H  H34  1  0.10120000  0.22300000  0.52830000  1.0 0.1003722083
H  H35  1  0.27700000  0.39880000  0.02830000  1.0 0.1003722083
H  H36  1  0.72300000  0.60120000  0.02830000  1.0 0.1003722083
H  H37  1  0.89350000  0.73580000  0.57990000  1.0 0.1194796499
H  H38  1  0.10650000  0.26420000  0.57990000  1.0 0.1194796499
H  H39  1  0.23580000  0.39350000  0.07990000  1.0 0.1194796499
H  H40  1  0.76420000  0.60650000  0.07990000  1.0 0.1194796499
H  H41  1  0.99040000  0.76500000  0.53240000  1.0 0.1091362132
H  H42  1  0.00960000  0.23500000  0.53240000  1.0 0.1091362132
H  H43  1  0.26500000  0.49040000  0.03240000  1.0 0.1091362132
H  H44  1  0.73500000  0.50960000  0.03240000  1.0 0.1091362132
H  H45  1  0.98540000  0.72630000  0.58610000  1.0 0.1194796499
H  H46  1  0.01460000  0.27370000  0.58610000  1.0 0.1194796499
H  H47  1  0.22630000  0.48540000  0.08610000  1.0 0.1194796499
H  H48  1  0.77370000  0.51460000  0.08610000  1.0 0.1194796499
H  H49  1  0.66180000  0.79460000  0.81550000  1.0 0.1091362132
H  H50  1  0.33820000  0.20540000  0.81550000  1.0 0.1091362132
H  H51  1  0.29460000  0.16180000  0.31550000  1.0 0.1091362132
H  H52  1  0.70540000  0.83820000  0.31550000  1.0 0.1091362132
H  H53  1  0.59050000  0.81960000  0.87340000  1.0 0.1091362132
H  H54  1  0.40950000  0.18040000  0.87340000  1.0 0.1091362132
H  H55  1  0.31960000  0.09050000  0.37340000  1.0 0.1091362132
H  H56  1  0.68040000  0.90950000  0.37340000  1.0 0.1091362132
H  H57  1  0.61680000  0.96780000  0.84500000  1.0 0.139669077
H  H58  1  0.38320000  0.03220000  0.84500000  1.0 0.139669077
H  H59  1  0.46780000  0.11680000  0.34500000  1.0 0.139669077
H  H60  1  0.53220000  0.88320000  0.34500000  1.0 0.139669077
H  H61  1  0.68780000  0.94580000  0.78640000  1.0 0.1194796499
H  H62  1  0.31220000  0.05420000  0.78640000  1.0 0.1194796499
H  H63  1  0.44580000  0.18780000  0.28640000  1.0 0.1194796499
H  H64  1  0.55420000  0.81220000  0.28640000  1.0 0.1194796499
H  H65  1  0.13550000  0.80690000  0.81480000  1.0 0.139669077
H  H66  1  0.86450000  0.19310000  0.81480000  1.0 0.139669077
H  H67  1  0.30690000  0.63550000  0.31480000  1.0 0.139669077
H  H68  1  0.69310000  0.36450000  0.31480000  1.0 0.139669077
H  H69  1  0.13030000  0.81650000  0.61540000  1.0 0.1275132472
H  H70  1  0.86970000  0.18350000  0.61540000  1.0 0.1194796499
H  H71  1  0.31650000  0.63030000  0.11540000  1.0 0.1275132472
H  H72  1  0.68350000  0.36970000  0.11540000  1.0 0.1194796499
H  H73  1  0.26670000  0.79770000  0.67720000  1.0 0.1275132472
H  H74  1  0.73330000  0.20230000  0.67720000  1.0 0.1275132472
H  H75  1  0.29770000  0.76670000  0.17720000  1.0 0.1275132472
H  H76  1  0.70230000  0.23330000  0.17720000  1.0 0.1275132472
H  H77  1  0.33710000  0.83120000  0.62700000  1.0 0.1194796499
H  H78  1  0.66290000  0.16880000  0.62700000  1.0 0.1194796499
H  H79  1  0.33120000  0.83710000  0.12700000  1.0 0.1194796499
H  H80  1  0.66880000  0.16290000  0.12700000  1.0 0.1194796499
H  H81  1  0.25400000  0.94450000  0.56760000  1.0 0.1194796499
H  H82  1  0.74600000  0.05550000  0.56760000  1.0 0.1194796499
H  H83  1  0.44450000  0.75400000  0.06760000  1.0 0.1194796499
H  H84  1  0.55550000  0.24600000  0.06760000  1.0 0.1194796499
H  H85  1  0.18750000  0.92130000  0.62110000  1.0 0.1275132472
H  H86  1  0.81250000  0.07870000  0.62110000  1.0 0.1275132472
H  H87  1  0.42130000  0.68750000  0.12110000  1.0 0.1275132472
H  H88  1  0.57870000  0.31250000  0.12110000  1.0 0.1275132472
H  H89  1  0.07490000  0.75280000  0.84960000  1.0 0.1091362132
H  H90  1  0.92510000  0.24720000  0.84960000  1.0 0.1091362132
H  H91  1  0.25280000  0.57490000  0.34960000  1.0 0.1091362132
H  H92  1  0.74720000  0.42510000  0.34960000  1.0 0.1091362132
H  H93  1  0.04400000  0.80580000  0.84830000  1.0 0.1003722083
H  H94  1  0.95600000  0.19420000  0.84830000  1.0 0.1003722083
H  H95  1  0.30580000  0.54400000  0.34830000  1.0 0.1003722083
H  H96  1  0.69420000  0.45600000  0.34830000  1.0 0.1003722083
H  H97  1  0.99740000  0.73970000  0.90270000  1.0 0.1194796499
H  H98  1  0.00260000  0.26030000  0.90270000  1.0 0.1194796499
H  H99  1  0.23970000  0.49740000  0.40270000  1.0 0.1194796499
H  H100  1  0.76030000  0.50260000  0.40270000  1.0 0.1194796499
H  H101  1  0.99160000  0.70720000  0.84400000  1.0 0.1091362132
H  H102  1  0.00840000  0.29280000  0.84400000  1.0 0.1091362132
H  H103  1  0.20720000  0.49160000  0.34400000  1.0 0.1091362132
H  H104  1  0.79280000  0.50840000  0.34400000  1.0 0.1091362132
H  H105  1  0.82330000  0.79670000  0.58350000  1.0 0.1091362132
H  H106  1  0.17670000  0.20330000  0.58350000  1.0 0.1091362132
H  H107  1  0.29670000  0.32330000  0.08350000  1.0 0.1091362132
H  H108  1  0.70330000  0.67670000  0.08350000  1.0 0.1091362132
H  H109  1  0.86380000  0.84240000  0.58900000  1.0 0.1091362132
H  H110  1  0.13620000  0.15760000  0.58900000  1.0 0.1091362132
H  H111  1  0.34240000  0.36380000  0.08900000  1.0 0.1091362132
H  H112  1  0.65760000  0.63620000  0.08900000  1.0 0.1091362132
H  H113  1  0.03810000  0.82020000  0.58850000  1.0 0.1091362132
H  H114  1  0.96190000  0.17980000  0.58850000  1.0 0.1091362132
H  H115  1  0.32020000  0.53810000  0.08850000  1.0 0.1091362132
H  H116  1  0.67980000  0.46190000  0.08850000  1.0 0.1091362132
H  H117  1  0.06540000  0.76580000  0.58190000  1.0 0.1091362132
H  H118  1  0.93460000  0.23420000  0.58190000  1.0 0.1091362132
H  H119  1  0.26580000  0.56540000  0.08190000  1.0 0.1091362132
H  H120  1  0.73420000  0.43460000  0.08190000  1.0 0.1091362132
H  H121  1  0.76940000  0.82630000  0.82530000  1.0 0.1275132472
H  H122  1  0.23060000  0.17370000  0.82530000  1.0 0.1275132472
H  H123  1  0.32630000  0.26940000  0.32530000  1.0 0.1275132472
H  H124  1  0.67370000  0.73060000  0.32530000  1.0 0.1275132472
H  H125  1  0.77810000  0.85740000  0.62410000  1.0 0.1194796499
H  H126  1  0.22190000  0.14260000  0.62410000  1.0 0.1194796499
H  H127  1  0.35740000  0.27810000  0.12410000  1.0 0.1194796499
H  H128  1  0.64260000  0.72190000  0.12410000  1.0 0.1194796499
H  H129  1  0.72020000  0.94720000  0.62780000  1.0 0.1091362132
H  H130  1  0.27980000  0.05280000  0.62780000  1.0 0.1091362132
H  H131  1  0.44720000  0.22020000  0.12780000  1.0 0.1091362132
H  H132  1  0.55280000  0.77980000  0.12780000  1.0 0.1091362132
H  H133  1  0.64640000  0.97480000  0.57240000  1.0 0.1194796499
H  H134  1  0.35360000  0.02520000  0.57240000  1.0 0.1194796499
H  H135  1  0.47480000  0.14640000  0.07240000  1.0 0.1194796499
H  H136  1  0.52520000  0.85360000  0.07240000  1.0 0.1194796499
H  H137  1  0.55860000  0.86400000  0.65150000  1.0 0.1091362132
H  H138  1  0.44140000  0.13600000  0.65150000  1.0 0.1091362132
H  H139  1  0.36400000  0.05860000  0.15150000  1.0 0.1091362132
H  H140  1  0.63600000  0.94140000  0.15150000  1.0 0.1091362132
H  H141  1  0.63340000  0.82970000  0.69450000  1.0 0.1091362132
H  H142  1  0.36660000  0.17030000  0.69450000  1.0 0.1091362132
H  H143  1  0.32970000  0.13340000  0.19450000  1.0 0.1091362132
H  H144  1  0.67030000  0.86660000  0.19450000  1.0 0.1091362132
H  H145  1  0.18270000  0.29920000  0.63780000  1.0 0.092404922
H  H146  1  0.81730000  0.70080000  0.63780000  1.0 0.092404922
H  H147  1  0.20080000  0.31730000  0.13780000  1.0 0.092404922
H  H148  1  0.79920000  0.68270000  0.13780000  1.0 0.092404922
H  H149  1  0.26430000  0.26870000  0.68030000  1.0 0.1091362132
H  H150  1  0.73570000  0.73130000  0.68030000  1.0 0.1091362132
H  H151  1  0.23130000  0.23570000  0.18030000  1.0 0.1091362132
H  H152  1  0.76870000  0.76430000  0.18030000  1.0 0.1091362132
H  H153  1  0.28490000  0.41270000  0.73820000  1.0 0.1194796499
H  H154  1  0.71510000  0.58730000  0.73820000  1.0 0.1194796499
H  H155  1  0.08730000  0.21510000  0.23820000  1.0 0.1194796499
H  H156  1  0.91270000  0.78490000  0.23820000  1.0 0.1194796499
H  H157  1  0.20610000  0.44350000  0.69570000  1.0 0.1194796499
H  H158  1  0.79390000  0.55650000  0.69570000  1.0 0.1194796499
H  H159  1  0.05650000  0.29390000  0.19570000  1.0 0.1194796499
H  H160  1  0.94350000  0.70610000  0.19570000  1.0 0.1194796499
H  H161  1  0.59690000  0.22320000  0.65050000  1.0 0.1003722083
H  H162  1  0.40310000  0.77680000  0.65050000  1.0 0.1003722083
H  H163  1  0.27680000  0.90310000  0.15050000  1.0 0.1003722083
H  H164  1  0.72320000  0.09690000  0.15050000  1.0 0.1003722083
H  H165  1  0.58860000  0.25730000  0.59430000  1.0 0.1003722083
H  H166  1  0.41140000  0.74270000  0.59430000  1.0 0.1003722083
H  H167  1  0.24270000  0.91140000  0.09430000  1.0 0.1003722083
H  H168  1  0.75730000  0.08860000  0.09430000  1.0 0.1003722083
H  H169  1  0.67360000  0.27390000  0.63660000  1.0 0.1003722083
H  H170  1  0.32640000  0.72610000  0.63660000  1.0 0.1003722083
H  H171  1  0.22610000  0.82640000  0.13660000  1.0 0.1003722083
H  H172  1  0.77390000  0.17360000  0.13660000  1.0 0.1003722083
H  H173  1  0.64050000  0.32620000  0.63620000  1.0 0.1091362132
H  H174  1  0.35950000  0.67380000  0.63620000  1.0 0.1091362132
H  H175  1  0.17380000  0.85950000  0.13620000  1.0 0.1091362132
H  H176  1  0.82620000  0.14050000  0.13620000  1.0 0.1091362132
H  H177  1  0.60120000  0.27700000  0.97170000  1.0 0.1003722083
H  H178  1  0.39880000  0.72300000  0.97170000  1.0 0.1003722083
H  H179  1  0.22300000  0.89880000  0.47170000  1.0 0.1003722083
H  H180  1  0.77700000  0.10120000  0.47170000  1.0 0.1003722083
H  H181  1  0.60650000  0.23580000  0.92010000  1.0 0.1194796499
H  H182  1  0.39350000  0.76420000  0.92010000  1.0 0.1194796499
H  H183  1  0.26420000  0.89350000  0.42010000  1.0 0.1194796499
H  H184  1  0.73580000  0.10650000  0.42010000  1.0 0.1194796499
H  H185  1  0.50960000  0.26500000  0.96760000  1.0 0.1091362132
H  H186  1  0.49040000  0.73500000  0.96760000  1.0 0.1091362132
H  H187  1  0.23500000  0.99040000  0.46760000  1.0 0.1091362132
H  H188  1  0.76500000  0.00960000  0.46760000  1.0 0.1091362132
H  H189  1  0.51460000  0.22630000  0.91390000  1.0 0.1194796499
H  H190  1  0.48540000  0.77370000  0.91390000  1.0 0.1194796499
H  H191  1  0.27370000  0.98540000  0.41390000  1.0 0.1194796499
H  H192  1  0.72630000  0.01460000  0.41390000  1.0 0.1194796499
H  H193  1  0.83820000  0.29460000  0.68450000  1.0 0.1091362132
H  H194  1  0.16180000  0.70540000  0.68450000  1.0 0.1091362132
H  H195  1  0.20540000  0.66180000  0.18450000  1.0 0.1091362132
H  H196  1  0.79460000  0.33820000  0.18450000  1.0 0.1091362132
H  H197  1  0.90950000  0.31960000  0.62660000  1.0 0.1091362132
H  H198  1  0.09050000  0.68040000  0.62660000  1.0 0.1091362132
H  H199  1  0.18040000  0.59050000  0.12660000  1.0 0.1091362132
H  H200  1  0.81960000  0.40950000  0.12660000  1.0 0.1091362132
H  H201  1  0.88320000  0.46780000  0.65500000  1.0 0.139669077
H  H202  1  0.11680000  0.53220000  0.65500000  1.0 0.139669077
H  H203  1  0.03220000  0.61680000  0.15500000  1.0 0.139669077
H  H204  1  0.96780000  0.38320000  0.15500000  1.0 0.139669077
H  H205  1  0.81220000  0.44580000  0.71360000  1.0 0.1194796499
H  H206  1  0.18780000  0.55420000  0.71360000  1.0 0.1194796499
H  H207  1  0.05420000  0.68780000  0.21360000  1.0 0.1194796499
H  H208  1  0.94580000  0.31220000  0.21360000  1.0 0.1194796499
H  H209  1  0.36450000  0.30690000  0.68520000  1.0 0.139669077
H  H210  1  0.63550000  0.69310000  0.68520000  1.0 0.139669077
H  H211  1  0.19310000  0.13550000  0.18520000  1.0 0.139669077
H  H212  1  0.80690000  0.86450000  0.18520000  1.0 0.139669077
H  H213  1  0.36970000  0.31650000  0.88460000  1.0 0.1194796499
H  H214  1  0.63030000  0.68350000  0.88460000  1.0 0.1275132472
H  H215  1  0.18350000  0.13030000  0.38460000  1.0 0.1194796499
H  H216  1  0.81650000  0.86970000  0.38460000  1.0 0.1275132472
H  H217  1  0.23330000  0.29770000  0.82280000  1.0 0.1275132472
H  H218  1  0.76670000  0.70230000  0.82280000  1.0 0.1275132472
H  H219  1  0.20230000  0.26670000  0.32280000  1.0 0.1275132472
H  H220  1  0.79770000  0.73330000  0.32280000  1.0 0.1275132472
H  H221  1  0.16290000  0.33120000  0.87300000  1.0 0.1194796499
H  H222  1  0.83710000  0.66880000  0.87300000  1.0 0.1194796499
H  H223  1  0.16880000  0.33710000  0.37300000  1.0 0.1194796499
H  H224  1  0.83120000  0.66290000  0.37300000  1.0 0.1194796499
H  H225  1  0.24600000  0.44450000  0.93240000  1.0 0.1194796499
H  H226  1  0.75400000  0.55550000  0.93240000  1.0 0.1194796499
H  H227  1  0.05550000  0.25400000  0.43240000  1.0 0.1194796499
H  H228  1  0.94450000  0.74600000  0.43240000  1.0 0.1194796499
H  H229  1  0.31250000  0.42130000  0.87890000  1.0 0.1275132472
H  H230  1  0.68750000  0.57870000  0.87890000  1.0 0.1275132472
H  H231  1  0.07870000  0.18750000  0.37890000  1.0 0.1275132472
H  H232  1  0.92130000  0.81250000  0.37890000  1.0 0.1275132472
H  H233  1  0.42510000  0.25280000  0.65040000  1.0 0.1091362132
H  H234  1  0.57490000  0.74720000  0.65040000  1.0 0.1091362132
H  H235  1  0.24720000  0.07490000  0.15040000  1.0 0.1091362132
H  H236  1  0.75280000  0.92510000  0.15040000  1.0 0.1091362132
H  H237  1  0.45600000  0.30580000  0.65170000  1.0 0.1003722083
H  H238  1  0.54400000  0.69420000  0.65170000  1.0 0.1003722083
H  H239  1  0.19420000  0.04400000  0.15170000  1.0 0.1003722083
H  H240  1  0.80580000  0.95600000  0.15170000  1.0 0.1003722083
H  H241  1  0.50260000  0.23970000  0.59730000  1.0 0.1194796499
H  H242  1  0.49740000  0.76030000  0.59730000  1.0 0.1194796499
H  H243  1  0.26030000  0.99740000  0.09730000  1.0 0.1194796499
H  H244  1  0.73970000  0.00260000  0.09730000  1.0 0.1194796499
H  H245  1  0.50840000  0.20720000  0.65600000  1.0 0.1091362132
H  H246  1  0.49160000  0.79280000  0.65600000  1.0 0.1091362132
H  H247  1  0.29280000  0.99160000  0.15600000  1.0 0.1091362132
H  H248  1  0.70720000  0.00840000  0.15600000  1.0 0.1091362132
H  H249  1  0.67670000  0.29670000  0.91650000  1.0 0.1091362132
H  H250  1  0.32330000  0.70330000  0.91650000  1.0 0.1091362132
H  H251  1  0.20330000  0.82330000  0.41650000  1.0 0.1091362132
H  H252  1  0.79670000  0.17670000  0.41650000  1.0 0.1091362132
H  H253  1  0.63620000  0.34240000  0.91100000  1.0 0.1091362132
H  H254  1  0.36380000  0.65760000  0.91100000  1.0 0.1091362132
H  H255  1  0.15760000  0.86380000  0.41100000  1.0 0.1091362132
H  H256  1  0.84240000  0.13620000  0.41100000  1.0 0.1091362132
H  H257  1  0.46190000  0.32020000  0.91150000  1.0 0.1091362132
H  H258  1  0.53810000  0.67980000  0.91150000  1.0 0.1091362132
H  H259  1  0.17980000  0.03810000  0.41150000  1.0 0.1091362132
H  H260  1  0.82020000  0.96190000  0.41150000  1.0 0.1091362132
H  H261  1  0.43460000  0.26580000  0.91810000  1.0 0.1091362132
H  H262  1  0.56540000  0.73420000  0.91810000  1.0 0.1091362132
H  H263  1  0.23420000  0.06540000  0.41810000  1.0 0.1091362132
H  H264  1  0.76580000  0.93460000  0.41810000  1.0 0.1091362132
H  H265  1  0.73060000  0.32630000  0.67470000  1.0 0.1275132472
H  H266  1  0.26940000  0.67370000  0.67470000  1.0 0.1275132472
H  H267  1  0.17370000  0.76940000  0.17470000  1.0 0.1275132472
H  H268  1  0.82630000  0.23060000  0.17470000  1.0 0.1275132472
H  H269  1  0.72190000  0.35740000  0.87590000  1.0 0.1194796499
H  H270  1  0.27810000  0.64260000  0.87590000  1.0 0.1194796499
H  H271  1  0.14260000  0.77810000  0.37590000  1.0 0.1194796499
H  H272  1  0.85740000  0.22190000  0.37590000  1.0 0.1194796499
H  H273  1  0.77980000  0.44720000  0.87220000  1.0 0.1091362132
H  H274  1  0.22020000  0.55280000  0.87220000  1.0 0.1091362132
H  H275  1  0.05280000  0.72020000  0.37220000  1.0 0.1091362132
H  H276  1  0.94720000  0.27980000  0.37220000  1.0 0.1091362132
H  H277  1  0.85360000  0.47480000  0.92760000  1.0 0.1194796499
H  H278  1  0.14640000  0.52520000  0.92760000  1.0 0.1194796499
H  H279  1  0.02520000  0.64640000  0.42760000  1.0 0.1194796499
H  H280  1  0.97480000  0.35360000  0.42760000  1.0 0.1194796499
H  H281  1  0.94140000  0.36400000  0.84850000  1.0 0.1091362132
H  H282  1  0.05860000  0.63600000  0.84850000  1.0 0.1091362132
H  H283  1  0.13600000  0.55860000  0.34850000  1.0 0.1091362132
H  H284  1  0.86400000  0.44140000  0.34850000  1.0 0.1091362132
H  H285  1  0.86660000  0.32970000  0.80550000  1.0 0.1091362132
H  H286  1  0.13340000  0.67030000  0.80550000  1.0 0.1091362132
H  H287  1  0.17030000  0.63340000  0.30550000  1.0 0.1091362132
H  H288  1  0.82970000  0.36660000  0.30550000  1.0 0.1091362132
C  C1  1  0.36870000  0.88820000  0.86830000  1.0 0.5440836339
C  C2  1  0.63130000  0.11180000  0.86830000  1.0 0.5440836339
C  C3  1  0.38820000  0.86870000  0.36830000  1.0 0.5440836339
C  C4  1  0.61180000  0.13130000  0.36830000  1.0 0.5440836339
C  C5  1  0.31840000  0.87770000  0.84130000  1.0 -0.058701477
C  C6  1  0.68160000  0.12230000  0.84130000  1.0 -0.058701477
C  C7  1  0.37770000  0.81840000  0.34130000  1.0 -0.058701477
C  C8  1  0.62230000  0.18160000  0.34130000  1.0 -0.058701477
C  C9  1  0.29710000  0.82360000  0.84210000  1.0 -0.1208384452
C  C10  1  0.70290000  0.17640000  0.84210000  1.0 -0.1208384452
C  C11  1  0.32360000  0.79710000  0.34210000  1.0 -0.1208384452
C  C12  1  0.67640000  0.20290000  0.34210000  1.0 -0.1208384452
C  C13  1  0.24810000  0.80270000  0.81530000  1.0 -0.2035484822
C  C14  1  0.75190000  0.19730000  0.81530000  1.0 -0.2035484822
C  C15  1  0.30270000  0.74810000  0.31530000  1.0 -0.2035484822
C  C16  1  0.69730000  0.25190000  0.31530000  1.0 -0.2035484822
C  C17  1  0.23660000  0.88900000  0.78120000  1.0 -0.1208384452
C  C18  1  0.76340000  0.11100000  0.78120000  1.0 -0.1208384452
C  C19  1  0.38900000  0.73660000  0.28120000  1.0 -0.1208384452
C  C20  1  0.61100000  0.26340000  0.28120000  1.0 -0.1208384452
C  C21  1  0.28530000  0.90830000  0.80900000  1.0 -0.0808717266
C  C22  1  0.71470000  0.09170000  0.80900000  1.0 -0.0808717266
C  C23  1  0.40830000  0.78530000  0.30900000  1.0 -0.0808717266
C  C24  1  0.59170000  0.21470000  0.30900000  1.0 -0.0808717266
C  C25  1  0.90820000  0.75880000  0.86330000  1.0 -0.0110246972
C  C26  1  0.09180000  0.24120000  0.86330000  1.0 -0.0110246972
C  C27  1  0.25880000  0.40820000  0.36330000  1.0 -0.0110246972
C  C28  1  0.74120000  0.59180000  0.36330000  1.0 -0.0110246972
C  C29  1  0.85760000  0.79090000  0.84830000  1.0 -0.1333655179
C  C30  1  0.14240000  0.20910000  0.84830000  1.0 -0.1333655179
C  C31  1  0.29090000  0.35760000  0.34830000  1.0 -0.1333655179
C  C32  1  0.70910000  0.64240000  0.34830000  1.0 -0.1333655179
C  C33  1  0.89840000  0.77250000  0.57060000  1.0 -0.0808717266
C  C34  1  0.10160000  0.22750000  0.57060000  1.0 -0.0808717266
C  C35  1  0.27250000  0.39840000  0.07060000  1.0 -0.0808717266
C  C36  1  0.72750000  0.60160000  0.07060000  1.0 -0.0808717266
C  C37  1  0.98950000  0.76270000  0.57500000  1.0 -0.1118665924
C  C38  1  0.01050000  0.23730000  0.57500000  1.0 -0.1118665924
C  C39  1  0.26270000  0.48950000  0.07500000  1.0 -0.1118665924
C  C40  1  0.73730000  0.51050000  0.07500000  1.0 -0.1118665924
C  C41  1  0.81780000  0.82280000  0.69330000  1.0 0.180970944
C  C42  1  0.18220000  0.17720000  0.69330000  1.0 0.180970944
C  C43  1  0.32280000  0.31780000  0.19330000  1.0 0.180970944
C  C44  1  0.67720000  0.68220000  0.19330000  1.0 0.180970944
C  C45  1  0.81270000  0.81520000  0.75260000  1.0 0.0787321964
C  C46  1  0.18730000  0.18480000  0.75260000  1.0 0.0787321964
C  C47  1  0.31520000  0.31270000  0.25260000  1.0 0.0787321964
C  C48  1  0.68480000  0.68730000  0.25260000  1.0 0.0787321964
C  C49  1  0.68330000  0.86730000  0.79470000  1.0 0.0713854707
C  C50  1  0.31670000  0.13270000  0.79470000  1.0 0.0713854707
C  C51  1  0.36730000  0.18330000  0.29470000  1.0 0.0713854707
C  C52  1  0.63270000  0.81670000  0.29470000  1.0 0.0713854707
C  C53  1  0.65380000  0.82980000  0.82040000  1.0 -0.1800062568
C  C54  1  0.34620000  0.17020000  0.82040000  1.0 -0.1800062568
C  C55  1  0.32980000  0.15380000  0.32040000  1.0 -0.1800062568
C  C56  1  0.67020000  0.84620000  0.32040000  1.0 -0.1800062568
C  C57  1  0.61050000  0.84510000  0.85480000  1.0 -0.0904782714
C  C58  1  0.38950000  0.15490000  0.85480000  1.0 -0.0904782714
C  C59  1  0.34510000  0.11050000  0.35480000  1.0 -0.0904782714
C  C60  1  0.65490000  0.88950000  0.35480000  1.0 -0.0904782714
C  C61  1  0.59820000  0.89340000  0.86110000  1.0 -0.072224854
C  C62  1  0.40180000  0.10660000  0.86110000  1.0 -0.072224854
C  C63  1  0.39340000  0.09820000  0.36110000  1.0 -0.072224854
C  C64  1  0.60660000  0.90180000  0.36110000  1.0 -0.072224854
C  C65  1  0.62570000  0.93300000  0.83820000  1.0 -0.0490306779
C  C66  1  0.37430000  0.06700000  0.83820000  1.0 -0.0490306779
C  C67  1  0.43300000  0.12570000  0.33820000  1.0 -0.0490306779
C  C68  1  0.56700000  0.87430000  0.33820000  1.0 -0.0490306779
C  C69  1  0.66830000  0.91930000  0.80400000  1.0 -0.1618115764
C  C70  1  0.33170000  0.08070000  0.80400000  1.0 -0.1503291106
C  C71  1  0.41930000  0.16830000  0.30400000  1.0 -0.1503291106
C  C72  1  0.58070000  0.83170000  0.30400000  1.0 -0.1503291106
C  C73  1  0.55230000  0.90320000  0.88970000  1.0 0.5062331571
C  C74  1  0.44770000  0.09680000  0.88970000  1.0 0.5062331571
C  C75  1  0.40320000  0.05230000  0.38970000  1.0 0.5062331571
C  C76  1  0.59680000  0.94770000  0.38970000  1.0 0.5062331571
C  C77  1  0.27030000  0.99150000  0.96890000  1.0 0.2968511521
C  C78  1  0.72970000  0.00850000  0.96890000  1.0 0.2968511521
C  C79  1  0.49150000  0.77030000  0.46890000  1.0 0.2968511521
C  C80  1  0.50850000  0.22970000  0.46890000  1.0 0.2968511521
C  C81  1  0.22360000  0.84220000  0.78270000  1.0 0.0787321964
C  C82  1  0.77640000  0.15780000  0.78270000  1.0 0.0787321964
C  C83  1  0.34220000  0.72360000  0.28270000  1.0 0.0787321964
C  C84  1  0.65780000  0.27640000  0.28270000  1.0 0.0787321964
C  C85  1  0.17510000  0.82990000  0.74720000  1.0 0.0017159749
C  C86  1  0.82490000  0.17010000  0.74720000  1.0 0.0017159749
C  C87  1  0.32990000  0.67510000  0.24720000  1.0 0.0017159749
C  C88  1  0.67010000  0.32490000  0.24720000  1.0 0.0017159749
C  C89  1  0.13390000  0.80950000  0.77400000  1.0 -0.248515571
C  C90  1  0.86610000  0.19050000  0.77400000  1.0 -0.248515571
C  C91  1  0.30950000  0.63390000  0.27400000  1.0 -0.248515571
C  C92  1  0.69050000  0.36610000  0.27400000  1.0 -0.248515571
C  C93  1  0.09010000  0.79870000  0.68620000  1.0 0.092404922
C  C94  1  0.90990000  0.20130000  0.68620000  1.0 0.092404922
C  C95  1  0.29870000  0.59010000  0.18620000  1.0 0.092404922
C  C96  1  0.70130000  0.40990000  0.18620000  1.0 0.092404922
C  C97  1  0.12940000  0.81670000  0.65630000  1.0 -0.2237799009
C  C98  1  0.87060000  0.18330000  0.65630000  1.0 -0.2237799009
C  C99  1  0.31670000  0.62940000  0.15630000  1.0 -0.2237799009
C  C100  1  0.68330000  0.37060000  0.15630000  1.0 -0.2237799009
C  C101  1  0.17000000  0.83640000  0.69010000  1.0 -0.0300079642
C  C102  1  0.83000000  0.16360000  0.69010000  1.0 -0.0300079642
C  C103  1  0.33640000  0.67000000  0.19010000  1.0 -0.0300079642
C  C104  1  0.66360000  0.33000000  0.19010000  1.0 -0.0300079642
C  C105  1  0.21550000  0.85560000  0.65180000  1.0 0.0787321964
C  C106  1  0.78450000  0.14440000  0.65180000  1.0 0.0787321964
C  C107  1  0.35560000  0.71550000  0.15180000  1.0 0.0787321964
C  C108  1  0.64440000  0.28450000  0.15180000  1.0 0.0787321964
C  C109  1  0.26330000  0.82780000  0.65460000  1.0 -0.1665927139
C  C110  1  0.73670000  0.17220000  0.65460000  1.0 -0.1665927139
C  C111  1  0.32780000  0.76330000  0.15460000  1.0 -0.1665927139
C  C112  1  0.67220000  0.23670000  0.15460000  1.0 -0.1665927139
C  C113  1  0.30480000  0.84740000  0.62210000  1.0 -0.1118665924
C  C114  1  0.69520000  0.15260000  0.62210000  1.0 -0.1118665924
C  C115  1  0.34740000  0.80480000  0.12210000  1.0 -0.1118665924
C  C116  1  0.65260000  0.19520000  0.12210000  1.0 -0.1118665924
C  C117  1  0.30270000  0.88570000  0.58590000  1.0 -0.0110246972
C  C118  1  0.69730000  0.11430000  0.58590000  1.0 -0.0110246972
C  C119  1  0.38570000  0.80270000  0.08590000  1.0 -0.0110246972
C  C120  1  0.61430000  0.19730000  0.08590000  1.0 -0.0110246972
C  C121  1  0.25660000  0.91370000  0.58920000  1.0 -0.1414146633
C  C122  1  0.74340000  0.08630000  0.58920000  1.0 -0.1414146633
C  C123  1  0.41370000  0.75660000  0.08920000  1.0 -0.1414146633
C  C124  1  0.58630000  0.24340000  0.08920000  1.0 -0.1414146633
C  C125  1  0.21670000  0.89970000  0.62050000  1.0 -0.1208384452
C  C126  1  0.78330000  0.10030000  0.62050000  1.0 -0.1208384452
C  C127  1  0.39970000  0.71670000  0.12050000  1.0 -0.1208384452
C  C128  1  0.60030000  0.28330000  0.12050000  1.0 -0.1208384452
C  C129  1  0.34950000  0.90360000  0.54740000  1.0 0.584190981
C  C130  1  0.65050000  0.09640000  0.54740000  1.0 0.584190981
C  C131  1  0.40360000  0.84950000  0.04740000  1.0 0.584190981
C  C132  1  0.59640000  0.15050000  0.04740000  1.0 0.584190981
C  C133  1  0.04360000  0.76980000  0.83480000  1.0 -0.0490306779
C  C134  1  0.95640000  0.23020000  0.83480000  1.0 -0.0490306779
C  C135  1  0.26980000  0.54360000  0.33480000  1.0 -0.0490306779
C  C136  1  0.73020000  0.45640000  0.33480000  1.0 -0.0490306779
C  C137  1  0.99530000  0.74210000  0.86020000  1.0 -0.1208384452
C  C138  1  0.00470000  0.25790000  0.86020000  1.0 -0.1208384452
C  C139  1  0.24210000  0.49530000  0.36020000  1.0 -0.1208384452
C  C140  1  0.75790000  0.50470000  0.36020000  1.0 -0.1208384452
C  C141  1  0.85730000  0.80620000  0.59930000  1.0 -0.0808717266
C  C142  1  0.14270000  0.19380000  0.59930000  1.0 -0.0808717266
C  C143  1  0.30620000  0.35730000  0.09930000  1.0 -0.0808717266
C  C144  1  0.69380000  0.64270000  0.09930000  1.0 -0.0808717266
C  C145  1  0.03580000  0.78360000  0.59950000  1.0 -0.058701477
C  C146  1  0.96420000  0.21640000  0.59950000  1.0 -0.058701477
C  C147  1  0.28360000  0.53580000  0.09950000  1.0 -0.058701477
C  C148  1  0.71640000  0.46420000  0.09950000  1.0 -0.058701477
C  C149  1  0.77010000  0.83110000  0.78480000  1.0 -0.2410584134
C  C150  1  0.22990000  0.16890000  0.78480000  1.0 -0.2410584134
C  C151  1  0.33110000  0.27010000  0.28480000  1.0 -0.2410584134
C  C152  1  0.66890000  0.72990000  0.28480000  1.0 -0.2410584134
C  C153  1  0.72840000  0.85440000  0.75620000  1.0 0.0122806527
C  C154  1  0.27160000  0.14560000  0.75620000  1.0 0.0122806527
C  C155  1  0.35440000  0.22840000  0.25620000  1.0 0.0122806527
C  C156  1  0.64560000  0.77160000  0.25620000  1.0 0.0122806527
C  C157  1  0.72730000  0.86280000  0.69680000  1.0 0.0317792212
C  C158  1  0.27270000  0.13720000  0.69680000  1.0 0.0317792212
C  C159  1  0.36280000  0.22730000  0.19680000  1.0 0.0317792212
C  C160  1  0.63720000  0.77270000  0.19680000  1.0 0.0317792212
C  C161  1  0.77530000  0.84910000  0.66380000  1.0 -0.333200621
C  C162  1  0.22470000  0.15090000  0.66380000  1.0 -0.333200621
C  C163  1  0.34910000  0.27530000  0.16380000  1.0 -0.333200621
C  C164  1  0.65090000  0.72470000  0.16380000  1.0 -0.333200621
C  C165  1  0.68350000  0.88540000  0.66810000  1.0 0.0713854707
C  C166  1  0.31650000  0.11460000  0.66810000  1.0 0.0713854707
C  C167  1  0.38540000  0.18350000  0.16810000  1.0 0.0713854707
C  C168  1  0.61460000  0.81650000  0.16810000  1.0 0.0713854707
C  C169  1  0.68850000  0.92950000  0.63080000  1.0 -0.1618115764
C  C170  1  0.31150000  0.07050000  0.63080000  1.0 -0.1618115764
C  C171  1  0.42950000  0.18850000  0.13080000  1.0 -0.1618115764
C  C172  1  0.57050000  0.81150000  0.13080000  1.0 -0.1618115764
C  C173  1  0.64360000  0.94640000  0.59780000  1.0 -0.0986786164
C  C174  1  0.35640000  0.05360000  0.59780000  1.0 -0.0986786164
C  C175  1  0.44640000  0.14360000  0.09780000  1.0 -0.0986786164
C  C176  1  0.55360000  0.85640000  0.09780000  1.0 -0.0986786164
C  C177  1  0.59460000  0.91960000  0.60380000  1.0 -0.0110246972
C  C178  1  0.40540000  0.08040000  0.60380000  1.0 -0.0110246972
C  C179  1  0.41960000  0.09460000  0.10380000  1.0 -0.0110246972
C  C180  1  0.58040000  0.90540000  0.10380000  1.0 -0.0110246972
C  C181  1  0.59100000  0.87900000  0.64360000  1.0 -0.0986786164
C  C182  1  0.40900000  0.12100000  0.64360000  1.0 -0.0986786164
C  C183  1  0.37900000  0.09100000  0.14360000  1.0 -0.0986786164
C  C184  1  0.62100000  0.90900000  0.14360000  1.0 -0.0986786164
C  C185  1  0.63580000  0.86010000  0.67210000  1.0 -0.1503291106
C  C186  1  0.36420000  0.13990000  0.67210000  1.0 -0.1503291106
C  C187  1  0.36010000  0.13580000  0.17210000  1.0 -0.1503291106
C  C188  1  0.63990000  0.86420000  0.17210000  1.0 -0.1503291106
C  C189  1  0.54860000  0.93920000  0.56850000  1.0 0.5899668126
C  C190  1  0.45140000  0.06080000  0.56850000  1.0 0.5899668126
C  C191  1  0.43920000  0.04860000  0.06850000  1.0 0.5899668126
C  C192  1  0.56080000  0.95140000  0.06850000  1.0 0.5899668126
C  C193  1  0.09010000  0.79230000  0.74810000  1.0 0.1091362132
C  C194  1  0.90990000  0.20770000  0.74810000  1.0 0.1091362132
C  C195  1  0.29230000  0.59010000  0.24810000  1.0 0.1091362132
C  C196  1  0.70770000  0.40990000  0.24810000  1.0 0.1091362132
C  C197  1  0.94960000  0.78520000  0.71860000  1.0 0.4422166585
C  C198  1  0.05040000  0.21480000  0.71860000  1.0 0.4422166585
C  C199  1  0.28520000  0.44960000  0.21860000  1.0 0.4422166585
C  C200  1  0.71480000  0.55040000  0.21860000  1.0 0.4422166585
C  C201  1  0.13130000  0.38820000  0.63170000  1.0 0.5440836339
C  C202  1  0.86870000  0.61180000  0.63170000  1.0 0.5440836339
C  C203  1  0.11180000  0.36870000  0.13170000  1.0 0.5440836339
C  C204  1  0.88820000  0.63130000  0.13170000  1.0 0.5440836339
C  C205  1  0.18160000  0.37770000  0.65870000  1.0 -0.058701477
C  C206  1  0.81840000  0.62230000  0.65870000  1.0 -0.058701477
C  C207  1  0.12230000  0.31840000  0.15870000  1.0 -0.058701477
C  C208  1  0.87770000  0.68160000  0.15870000  1.0 -0.058701477
C  C209  1  0.20290000  0.32360000  0.65790000  1.0 -0.1208384452
C  C210  1  0.79710000  0.67640000  0.65790000  1.0 -0.1208384452
C  C211  1  0.17640000  0.29710000  0.15790000  1.0 -0.1208384452
C  C212  1  0.82360000  0.70290000  0.15790000  1.0 -0.1208384452
C  C213  1  0.25190000  0.30270000  0.68470000  1.0 -0.2035484822
C  C214  1  0.74810000  0.69730000  0.68470000  1.0 -0.2035484822
C  C215  1  0.19730000  0.24810000  0.18470000  1.0 -0.2035484822
C  C216  1  0.80270000  0.75190000  0.18470000  1.0 -0.2035484822
C  C217  1  0.26340000  0.38900000  0.71880000  1.0 -0.1208384452
C  C218  1  0.73660000  0.61100000  0.71880000  1.0 -0.1208384452
C  C219  1  0.11100000  0.23660000  0.21880000  1.0 -0.1208384452
C  C220  1  0.88900000  0.76340000  0.21880000  1.0 -0.1208384452
C  C221  1  0.21470000  0.40830000  0.69100000  1.0 -0.0808717266
C  C222  1  0.78530000  0.59170000  0.69100000  1.0 -0.0808717266
C  C223  1  0.09170000  0.28530000  0.19100000  1.0 -0.0808717266
C  C224  1  0.90830000  0.71470000  0.19100000  1.0 -0.0808717266
C  C225  1  0.59180000  0.25880000  0.63670000  1.0 -0.0110246972
C  C226  1  0.40820000  0.74120000  0.63670000  1.0 -0.0110246972
C  C227  1  0.24120000  0.90820000  0.13670000  1.0 -0.0110246972
C  C228  1  0.75880000  0.09180000  0.13670000  1.0 -0.0110246972
C  C229  1  0.64240000  0.29090000  0.65170000  1.0 -0.1333655179
C  C230  1  0.35760000  0.70910000  0.65170000  1.0 -0.1333655179
C  C231  1  0.20910000  0.85760000  0.15170000  1.0 -0.1333655179
C  C232  1  0.79090000  0.14240000  0.15170000  1.0 -0.1333655179
C  C233  1  0.60160000  0.27250000  0.92940000  1.0 -0.0904782714
C  C234  1  0.39840000  0.72750000  0.92940000  1.0 -0.0904782714
C  C235  1  0.22750000  0.89840000  0.42940000  1.0 -0.0808717266
C  C236  1  0.77250000  0.10160000  0.42940000  1.0 -0.0808717266
C  C237  1  0.51050000  0.26270000  0.92500000  1.0 -0.1118665924
C  C238  1  0.48950000  0.73730000  0.92500000  1.0 -0.1118665924
C  C239  1  0.23730000  0.98950000  0.42500000  1.0 -0.1118665924
C  C240  1  0.76270000  0.01050000  0.42500000  1.0 -0.1118665924
C  C241  1  0.68220000  0.32280000  0.80670000  1.0 0.180970944
C  C242  1  0.31780000  0.67720000  0.80670000  1.0 0.180970944
C  C243  1  0.17720000  0.81780000  0.30670000  1.0 0.180970944
C  C244  1  0.82280000  0.18220000  0.30670000  1.0 0.180970944
C  C245  1  0.68730000  0.31520000  0.74740000  1.0 0.0787321964
C  C246  1  0.31270000  0.68480000  0.74740000  1.0 0.0787321964
C  C247  1  0.18480000  0.81270000  0.24740000  1.0 0.0787321964
C  C248  1  0.81520000  0.18730000  0.24740000  1.0 0.0787321964
C  C249  1  0.81670000  0.36730000  0.70530000  1.0 0.0713854707
C  C250  1  0.18330000  0.63270000  0.70530000  1.0 0.0713854707
C  C251  1  0.13270000  0.68330000  0.20530000  1.0 0.0713854707
C  C252  1  0.86730000  0.31670000  0.20530000  1.0 0.0713854707
C  C253  1  0.84620000  0.32980000  0.67960000  1.0 -0.1800062568
C  C254  1  0.15380000  0.67020000  0.67960000  1.0 -0.1800062568
C  C255  1  0.17020000  0.65380000  0.17960000  1.0 -0.1800062568
C  C256  1  0.82980000  0.34620000  0.17960000  1.0 -0.1800062568
C  C257  1  0.88950000  0.34510000  0.64520000  1.0 -0.0904782714
C  C258  1  0.11050000  0.65490000  0.64520000  1.0 -0.0904782714
C  C259  1  0.15490000  0.61050000  0.14520000  1.0 -0.0904782714
C  C260  1  0.84510000  0.38950000  0.14520000  1.0 -0.0904782714
C  C261  1  0.90180000  0.39340000  0.63890000  1.0 -0.072224854
C  C262  1  0.09820000  0.60660000  0.63890000  1.0 -0.072224854
C  C263  1  0.10660000  0.59820000  0.13890000  1.0 -0.072224854
C  C264  1  0.89340000  0.40180000  0.13890000  1.0 -0.072224854
C  C265  1  0.87430000  0.43300000  0.66180000  1.0 -0.0490306779
C  C266  1  0.12570000  0.56700000  0.66180000  1.0 -0.0490306779
C  C267  1  0.06700000  0.62570000  0.16180000  1.0 -0.0490306779
C  C268  1  0.93300000  0.37430000  0.16180000  1.0 -0.0490306779
C  C269  1  0.83170000  0.41930000  0.69600000  1.0 -0.1503291106
C  C270  1  0.16830000  0.58070000  0.69600000  1.0 -0.1618115764
C  C271  1  0.08070000  0.66830000  0.19600000  1.0 -0.1503291106
C  C272  1  0.91930000  0.33170000  0.19600000  1.0 -0.1503291106
C  C273  1  0.94770000  0.40320000  0.61030000  1.0 0.5062331571
C  C274  1  0.05230000  0.59680000  0.61030000  1.0 0.5062331571
C  C275  1  0.09680000  0.55230000  0.11030000  1.0 0.5062331571
C  C276  1  0.90320000  0.44770000  0.11030000  1.0 0.5062331571
C  C277  1  0.22970000  0.49150000  0.53110000  1.0 0.2968511521
C  C278  1  0.77030000  0.50850000  0.53110000  1.0 0.2968511521
C  C279  1  0.00850000  0.27030000  0.03110000  1.0 0.2968511521
C  C280  1  0.99150000  0.72970000  0.03110000  1.0 0.2968511521
C  C281  1  0.27640000  0.34220000  0.71730000  1.0 0.0787321964
C  C282  1  0.72360000  0.65780000  0.71730000  1.0 0.0787321964
C  C283  1  0.15780000  0.22360000  0.21730000  1.0 0.0787321964
C  C284  1  0.84220000  0.77640000  0.21730000  1.0 0.0787321964
C  C285  1  0.32490000  0.32990000  0.75280000  1.0 0.0017159749
C  C286  1  0.67510000  0.67010000  0.75280000  1.0 0.0017159749
C  C287  1  0.17010000  0.17510000  0.25280000  1.0 0.0017159749
C  C288  1  0.82990000  0.82490000  0.25280000  1.0 0.0017159749
C  C289  1  0.36610000  0.30950000  0.72600000  1.0 -0.248515571
C  C290  1  0.63390000  0.69050000  0.72600000  1.0 -0.248515571
C  C291  1  0.19050000  0.13390000  0.22600000  1.0 -0.248515571
C  C292  1  0.80950000  0.86610000  0.22600000  1.0 -0.248515571
C  C293  1  0.40990000  0.29870000  0.81380000  1.0 0.092404922
C  C294  1  0.59010000  0.70130000  0.81380000  1.0 0.092404922
C  C295  1  0.20130000  0.09010000  0.31380000  1.0 0.092404922
C  C296  1  0.79870000  0.90990000  0.31380000  1.0 0.092404922
C  C297  1  0.37060000  0.31670000  0.84370000  1.0 -0.2237799009
C  C298  1  0.62940000  0.68330000  0.84370000  1.0 -0.2237799009
C  C299  1  0.18330000  0.12940000  0.34370000  1.0 -0.2237799009
C  C300  1  0.81670000  0.87060000  0.34370000  1.0 -0.2237799009
C  C301  1  0.33000000  0.33640000  0.80990000  1.0 -0.0300079642
C  C302  1  0.67000000  0.66360000  0.80990000  1.0 -0.0300079642
C  C303  1  0.16360000  0.17000000  0.30990000  1.0 -0.0300079642
C  C304  1  0.83640000  0.83000000  0.30990000  1.0 -0.0300079642
C  C305  1  0.28450000  0.35560000  0.84820000  1.0 0.0787321964
C  C306  1  0.71550000  0.64440000  0.84820000  1.0 0.0787321964
C  C307  1  0.14440000  0.21550000  0.34820000  1.0 0.0787321964
C  C308  1  0.85560000  0.78450000  0.34820000  1.0 0.0787321964
C  C309  1  0.23670000  0.32780000  0.84540000  1.0 -0.1665927139
C  C310  1  0.76330000  0.67220000  0.84540000  1.0 -0.1665927139
C  C311  1  0.17220000  0.26330000  0.34540000  1.0 -0.1665927139
C  C312  1  0.82780000  0.73670000  0.34540000  1.0 -0.1665927139
C  C313  1  0.19520000  0.34740000  0.87790000  1.0 -0.1118665924
C  C314  1  0.80480000  0.65260000  0.87790000  1.0 -0.1118665924
C  C315  1  0.15260000  0.30480000  0.37790000  1.0 -0.1118665924
C  C316  1  0.84740000  0.69520000  0.37790000  1.0 -0.1118665924
C  C317  1  0.19730000  0.38570000  0.91410000  1.0 -0.0110246972
C  C318  1  0.80270000  0.61430000  0.91410000  1.0 -0.0110246972
C  C319  1  0.11430000  0.30270000  0.41410000  1.0 -0.0110246972
C  C320  1  0.88570000  0.69730000  0.41410000  1.0 -0.0110246972
C  C321  1  0.24340000  0.41370000  0.91080000  1.0 -0.1414146633
C  C322  1  0.75660000  0.58630000  0.91080000  1.0 -0.1414146633
C  C323  1  0.08630000  0.25660000  0.41080000  1.0 -0.1414146633
C  C324  1  0.91370000  0.74340000  0.41080000  1.0 -0.1414146633
C  C325  1  0.28330000  0.39970000  0.87950000  1.0 -0.1208384452
C  C326  1  0.71670000  0.60030000  0.87950000  1.0 -0.1208384452
C  C327  1  0.10030000  0.21670000  0.37950000  1.0 -0.1208384452
C  C328  1  0.89970000  0.78330000  0.37950000  1.0 -0.1208384452
C  C329  1  0.15050000  0.40360000  0.95260000  1.0 0.584190981
C  C330  1  0.84950000  0.59640000  0.95260000  1.0 0.584190981
C  C331  1  0.09640000  0.34950000  0.45260000  1.0 0.584190981
C  C332  1  0.90360000  0.65050000  0.45260000  1.0 0.584190981
C  C333  1  0.45640000  0.26980000  0.66520000  1.0 -0.0490306779
C  C334  1  0.54360000  0.73020000  0.66520000  1.0 -0.0490306779
C  C335  1  0.23020000  0.04360000  0.16520000  1.0 -0.0490306779
C  C336  1  0.76980000  0.95640000  0.16520000  1.0 -0.0490306779
C  C337  1  0.50470000  0.24210000  0.63980000  1.0 -0.1208384452
C  C338  1  0.49530000  0.75790000  0.63980000  1.0 -0.1208384452
C  C339  1  0.25790000  0.99530000  0.13980000  1.0 -0.1208384452
C  C340  1  0.74210000  0.00470000  0.13980000  1.0 -0.1208384452
C  C341  1  0.64270000  0.30620000  0.90070000  1.0 -0.0808717266
C  C342  1  0.35730000  0.69380000  0.90070000  1.0 -0.0808717266
C  C343  1  0.19380000  0.85730000  0.40070000  1.0 -0.0808717266
C  C344  1  0.80620000  0.14270000  0.40070000  1.0 -0.0808717266
C  C345  1  0.46420000  0.28360000  0.90050000  1.0 -0.058701477
C  C346  1  0.53580000  0.71640000  0.90050000  1.0 -0.058701477
C  C347  1  0.21640000  0.03580000  0.40050000  1.0 -0.058701477
C  C348  1  0.78360000  0.96420000  0.40050000  1.0 -0.058701477
C  C349  1  0.72990000  0.33110000  0.71520000  1.0 -0.2410584134
C  C350  1  0.27010000  0.66890000  0.71520000  1.0 -0.2410584134
C  C351  1  0.16890000  0.77010000  0.21520000  1.0 -0.2410584134
C  C352  1  0.83110000  0.22990000  0.21520000  1.0 -0.2410584134
C  C353  1  0.77160000  0.35440000  0.74380000  1.0 0.0122806527
C  C354  1  0.22840000  0.64560000  0.74380000  1.0 0.0122806527
C  C355  1  0.14560000  0.72840000  0.24380000  1.0 0.0122806527
C  C356  1  0.85440000  0.27160000  0.24380000  1.0 0.0122806527
C  C357  1  0.77270000  0.36280000  0.80320000  1.0 0.0317792212
C  C358  1  0.22730000  0.63720000  0.80320000  1.0 0.0317792212
C  C359  1  0.13720000  0.72730000  0.30320000  1.0 0.0317792212
C  C360  1  0.86280000  0.27270000  0.30320000  1.0 0.0317792212
C  C361  1  0.72470000  0.34910000  0.83620000  1.0 -0.333200621
C  C362  1  0.27530000  0.65090000  0.83620000  1.0 -0.333200621
C  C363  1  0.15090000  0.77530000  0.33620000  1.0 -0.333200621
C  C364  1  0.84910000  0.22470000  0.33620000  1.0 -0.333200621
C  C365  1  0.81650000  0.38540000  0.83190000  1.0 0.0713854707
C  C366  1  0.18350000  0.61460000  0.83190000  1.0 0.0713854707
C  C367  1  0.11460000  0.68350000  0.33190000  1.0 0.0713854707
C  C368  1  0.88540000  0.31650000  0.33190000  1.0 0.0713854707
C  C369  1  0.81150000  0.42950000  0.86920000  1.0 -0.1618115764
C  C370  1  0.18850000  0.57050000  0.86920000  1.0 -0.1618115764
C  C371  1  0.07050000  0.68850000  0.36920000  1.0 -0.1618115764
C  C372  1  0.92950000  0.31150000  0.36920000  1.0 -0.1618115764
C  C373  1  0.85640000  0.44640000  0.90220000  1.0 -0.0986786164
C  C374  1  0.14360000  0.55360000  0.90220000  1.0 -0.0986786164
C  C375  1  0.05360000  0.64360000  0.40220000  1.0 -0.0986786164
C  C376  1  0.94640000  0.35640000  0.40220000  1.0 -0.0986786164
C  C377  1  0.90540000  0.41960000  0.89620000  1.0 -0.0110246972
C  C378  1  0.09460000  0.58040000  0.89620000  1.0 -0.0110246972
C  C379  1  0.08040000  0.59460000  0.39620000  1.0 -0.0110246972
C  C380  1  0.91960000  0.40540000  0.39620000  1.0 -0.0110246972
C  C381  1  0.90900000  0.37900000  0.85640000  1.0 -0.0986786164
C  C382  1  0.09100000  0.62100000  0.85640000  1.0 -0.0986786164
C  C383  1  0.12100000  0.59100000  0.35640000  1.0 -0.0986786164
C  C384  1  0.87900000  0.40900000  0.35640000  1.0 -0.0986786164
C  C385  1  0.86420000  0.36010000  0.82790000  1.0 -0.1503291106
C  C386  1  0.13580000  0.63990000  0.82790000  1.0 -0.1503291106
C  C387  1  0.13990000  0.63580000  0.32790000  1.0 -0.1503291106
C  C388  1  0.86010000  0.36420000  0.32790000  1.0 -0.1503291106
C  C389  1  0.95140000  0.43920000  0.93150000  1.0 0.5899668126
C  C390  1  0.04860000  0.56080000  0.93150000  1.0 0.5899668126
C  C391  1  0.06080000  0.54860000  0.43150000  1.0 0.5899668126
C  C392  1  0.93920000  0.45140000  0.43150000  1.0 0.5899668126
C  C393  1  0.40990000  0.29230000  0.75190000  1.0 0.1091362132
C  C394  1  0.59010000  0.70770000  0.75190000  1.0 0.1091362132
C  C395  1  0.20770000  0.09010000  0.25190000  1.0 0.1091362132
C  C396  1  0.79230000  0.90990000  0.25190000  1.0 0.1091362132
C  C397  1  0.55040000  0.28520000  0.78140000  1.0 0.4422166585
C  C398  1  0.44960000  0.71480000  0.78140000  1.0 0.4422166585
C  C399  1  0.21480000  0.94960000  0.28140000  1.0 0.4422166585
C  C400  1  0.78520000  0.05040000  0.28140000  1.0 0.4422166585
S  S1  1  0.21990000  0.01550000  0.95760000  1.0 -0.2796442011
S  S2  1  0.78010000  0.98450000  0.95760000  1.0 -0.2796442011
S  S3  1  0.51550000  0.71990000  0.45760000  1.0 -0.2796442011
S  S4  1  0.48450000  0.28010000  0.45760000  1.0 -0.2796442011
S  S5  1  0.28010000  0.51550000  0.54240000  1.0 -0.2796442011
S  S6  1  0.71990000  0.48450000  0.54240000  1.0 -0.2796442011
S  S7  1  0.98450000  0.21990000  0.04240000  1.0 -0.2796442011
S  S8  1  0.01550000  0.78010000  0.04240000  1.0 -0.2796442011
N  N1  1  0.31640000  0.98320000  0.99740000  1.0 -0.6900765882
N  N2  1  0.68360000  0.01680000  0.99740000  1.0 -0.6900765882
N  N3  1  0.48320000  0.81640000  0.49740000  1.0 -0.6900765882
N  N4  1  0.51680000  0.18360000  0.49740000  1.0 -0.6900765882
N  N5  1  0.18360000  0.48320000  0.50260000  1.0 -0.6900765882
N  N6  1  0.81640000  0.51680000  0.50260000  1.0 -0.6900765882
N  N7  1  0.01680000  0.31640000  0.00260000  1.0 -0.6900765882
N  N8  1  0.98320000  0.68360000  0.00260000  1.0 -0.6900765882
O  O1  1  0.43440000  0.95630000  0.95930000  1.0 -0.8352190764
O  O2  1  0.56560000  0.04370000  0.95930000  1.0 -0.8347781808
O  O3  1  0.45630000  0.93440000  0.45930000  1.0 -0.8352190764
O  O4  1  0.54370000  0.06560000  0.45930000  1.0 -0.8347781808
O  O5  1  0.39180000  0.85850000  0.89690000  1.0 -0.5082262281
O  O6  1  0.60820000  0.14150000  0.89690000  1.0 -0.5082262281
O  O7  1  0.35850000  0.89180000  0.39690000  1.0 -0.5082262281
O  O8  1  0.64150000  0.10820000  0.39690000  1.0 -0.5082262281
O  O9  1  0.38060000  0.93910000  0.85900000  1.0 -0.4862827384
O  O10  1  0.61940000  0.06090000  0.85900000  1.0 -0.4862827384
O  O11  1  0.43910000  0.88060000  0.35900000  1.0 -0.4862827384
O  O12  1  0.56090000  0.11940000  0.35900000  1.0 -0.4862827384
O  O13  1  0.50870000  0.91190000  0.58090000  1.0 -0.5305899889
O  O14  1  0.49130000  0.08810000  0.58090000  1.0 -0.5305899889
O  O15  1  0.41190000  0.00870000  0.08090000  1.0 -0.5305899889
O  O16  1  0.58810000  0.99130000  0.08090000  1.0 -0.5305899889
O  O17  1  0.55360000  0.97210000  0.53020000  1.0 -0.5082262281
O  O18  1  0.44640000  0.02790000  0.53020000  1.0 -0.5082262281
O  O19  1  0.47210000  0.05360000  0.03020000  1.0 -0.5082262281
O  O20  1  0.52790000  0.94640000  0.03020000  1.0 -0.5082262281
O  O21  1  0.51920000  0.86840000  0.91310000  1.0 -0.5764018209
O  O22  1  0.48080000  0.13160000  0.91310000  1.0 -0.5764018209
O  O23  1  0.36840000  0.01920000  0.41310000  1.0 -0.5764018209
O  O24  1  0.63160000  0.98080000  0.41310000  1.0 -0.5764018209
O  O25  1  0.53430000  0.95090000  0.90170000  1.0 -0.447296361
O  O26  1  0.46570000  0.04910000  0.90170000  1.0 -0.447296361
O  O27  1  0.45090000  0.03430000  0.40170000  1.0 -0.447296361
O  O28  1  0.54910000  0.96570000  0.40170000  1.0 -0.447296361
O  O29  1  0.03990000  0.78010000  0.65790000  1.0 -0.2237799009
O  O30  1  0.96010000  0.21990000  0.65790000  1.0 -0.2253701748
O  O31  1  0.28010000  0.53990000  0.15790000  1.0 -0.2253701748
O  O32  1  0.71990000  0.46010000  0.15790000  1.0 -0.2253701748
O  O33  1  0.94680000  0.79390000  0.59840000  1.0 -0.2237799009
O  O34  1  0.05320000  0.20610000  0.59840000  1.0 -0.2237799009
O  O35  1  0.29390000  0.44680000  0.09840000  1.0 -0.2237799009
O  O36  1  0.70610000  0.55320000  0.09840000  1.0 -0.2237799009
O  O37  1  0.85560000  0.80180000  0.66180000  1.0 -0.2035484822
O  O38  1  0.14440000  0.19820000  0.66180000  1.0 -0.2035484822
O  O39  1  0.30180000  0.35560000  0.16180000  1.0 -0.2035484822
O  O40  1  0.69820000  0.64440000  0.16180000  1.0 -0.2035484822
O  O41  1  0.85860000  0.79070000  0.77800000  1.0 -0.2796442011
O  O42  1  0.14140000  0.20930000  0.77800000  1.0 -0.2796442011
O  O43  1  0.29070000  0.35860000  0.27800000  1.0 -0.2796442011
O  O44  1  0.70930000  0.64140000  0.27800000  1.0 -0.2796442011
O  O45  1  0.95220000  0.77570000  0.84210000  1.0 -0.1618115764
O  O46  1  0.04780000  0.22430000  0.84210000  1.0 -0.1618115764
O  O47  1  0.27570000  0.45220000  0.34210000  1.0 -0.1618115764
O  O48  1  0.72430000  0.54780000  0.34210000  1.0 -0.1618115764
O  O49  1  0.04460000  0.76910000  0.77310000  1.0 -0.2410584134
O  O50  1  0.95540000  0.23090000  0.77310000  1.0 -0.2410584134
O  O51  1  0.26910000  0.54460000  0.27310000  1.0 -0.2410584134
O  O52  1  0.73090000  0.45540000  0.27310000  1.0 -0.2410584134
O  O53  1  0.38910000  0.87630000  0.55660000  1.0 -0.515309027
O  O54  1  0.61090000  0.12370000  0.55660000  1.0 -0.515309027
O  O55  1  0.37630000  0.88910000  0.05660000  1.0 -0.515309027
O  O56  1  0.62370000  0.11090000  0.05660000  1.0 -0.5082262281
O  O57  1  0.34260000  0.93910000  0.51280000  1.0 -0.5003109486
O  O58  1  0.65740000  0.06090000  0.51280000  1.0 -0.5003109486
O  O59  1  0.43910000  0.84260000  0.01280000  1.0 -0.5003109486
O  O60  1  0.56090000  0.15740000  0.01280000  1.0 -0.5003109486
O  O61  1  0.06560000  0.45630000  0.54070000  1.0 -0.8347781808
O  O62  1  0.93440000  0.54370000  0.54070000  1.0 -0.8352190764
O  O63  1  0.04370000  0.43440000  0.04070000  1.0 -0.8347781808
O  O64  1  0.95630000  0.56560000  0.04070000  1.0 -0.8352190764
O  O65  1  0.10820000  0.35850000  0.60310000  1.0 -0.5082262281
O  O66  1  0.89180000  0.64150000  0.60310000  1.0 -0.5082262281
O  O67  1  0.14150000  0.39180000  0.10310000  1.0 -0.5082262281
O  O68  1  0.85850000  0.60820000  0.10310000  1.0 -0.5082262281
O  O69  1  0.11940000  0.43910000  0.64100000  1.0 -0.4862827384
O  O70  1  0.88060000  0.56090000  0.64100000  1.0 -0.4862827384
O  O71  1  0.06090000  0.38060000  0.14100000  1.0 -0.4862827384
O  O72  1  0.93910000  0.61940000  0.14100000  1.0 -0.4862827384
O  O73  1  0.99130000  0.41190000  0.91910000  1.0 -0.5305899889
O  O74  1  0.00870000  0.58810000  0.91910000  1.0 -0.5305899889
O  O75  1  0.08810000  0.50870000  0.41910000  1.0 -0.5305899889
O  O76  1  0.91190000  0.49130000  0.41910000  1.0 -0.5305899889
O  O77  1  0.94640000  0.47210000  0.96980000  1.0 -0.5082262281
O  O78  1  0.05360000  0.52790000  0.96980000  1.0 -0.5082262281
O  O79  1  0.02790000  0.55360000  0.46980000  1.0 -0.5082262281
O  O80  1  0.97210000  0.44640000  0.46980000  1.0 -0.5082262281
O  O81  1  0.98080000  0.36840000  0.58690000  1.0 -0.5764018209
O  O82  1  0.01920000  0.63160000  0.58690000  1.0 -0.5764018209
O  O83  1  0.13160000  0.51920000  0.08690000  1.0 -0.5764018209
O  O84  1  0.86840000  0.48080000  0.08690000  1.0 -0.5764018209
O  O85  1  0.96570000  0.45090000  0.59830000  1.0 -0.447296361
O  O86  1  0.03430000  0.54910000  0.59830000  1.0 -0.447296361
O  O87  1  0.04910000  0.53430000  0.09830000  1.0 -0.447296361
O  O88  1  0.95090000  0.46570000  0.09830000  1.0 -0.447296361
O  O89  1  0.46010000  0.28010000  0.84210000  1.0 -0.2253701748
O  O90  1  0.53990000  0.71990000  0.84210000  1.0 -0.2237799009
O  O91  1  0.21990000  0.03990000  0.34210000  1.0 -0.2253701748
O  O92  1  0.78010000  0.96010000  0.34210000  1.0 -0.2237799009
O  O93  1  0.55320000  0.29390000  0.90160000  1.0 -0.2237799009
O  O94  1  0.44680000  0.70610000  0.90160000  1.0 -0.2237799009
O  O95  1  0.20610000  0.94680000  0.40160000  1.0 -0.2237799009
O  O96  1  0.79390000  0.05320000  0.40160000  1.0 -0.2237799009
O  O97  1  0.64440000  0.30180000  0.83820000  1.0 -0.2035484822
O  O98  1  0.35560000  0.69820000  0.83820000  1.0 -0.2035484822
O  O99  1  0.19820000  0.85560000  0.33820000  1.0 -0.2035484822
O  O100  1  0.80180000  0.14440000  0.33820000  1.0 -0.2035484822
O  O101  1  0.64140000  0.29070000  0.72200000  1.0 -0.2796442011
O  O102  1  0.35860000  0.70930000  0.72200000  1.0 -0.2796442011
O  O103  1  0.20930000  0.85860000  0.22200000  1.0 -0.2796442011
O  O104  1  0.79070000  0.14140000  0.22200000  1.0 -0.2796442011
O  O105  1  0.54780000  0.27570000  0.65790000  1.0 -0.1618115764
O  O106  1  0.45220000  0.72430000  0.65790000  1.0 -0.1618115764
O  O107  1  0.22430000  0.95220000  0.15790000  1.0 -0.1618115764
O  O108  1  0.77570000  0.04780000  0.15790000  1.0 -0.1618115764
O  O109  1  0.45540000  0.26910000  0.72690000  1.0 -0.2410584134
O  O110  1  0.54460000  0.73090000  0.72690000  1.0 -0.2410584134
O  O111  1  0.23090000  0.04460000  0.22690000  1.0 -0.2410584134
O  O112  1  0.76910000  0.95540000  0.22690000  1.0 -0.2410584134
O  O113  1  0.11090000  0.37630000  0.94340000  1.0 -0.515309027
O  O114  1  0.88910000  0.62370000  0.94340000  1.0 -0.515309027
O  O115  1  0.12370000  0.38910000  0.44340000  1.0 -0.515309027
O  O116  1  0.87630000  0.61090000  0.44340000  1.0 -0.515309027
O  O117  1  0.15740000  0.43910000  0.98720000  1.0 -0.5003109486
O  O118  1  0.84260000  0.56090000  0.98720000  1.0 -0.5003109486
O  O119  1  0.06090000  0.34260000  0.48720000  1.0 -0.5003109486
O  O120  1  0.93910000  0.65740000  0.48720000  1.0 -0.5003109486
