# DDEC6 charges by PACMAN v1.1 (https://github.com/mtap-research/PACMAN-charge/)
data_EFESOZ_ion_pacman
_symmetry_space_group_name_H-M   'P 1'
_cell_length_a   25.12200000
_cell_length_b   25.12200000
_cell_length_c   23.41200000
_cell_angle_alpha   90.00000000
_cell_angle_beta   90.00000000
_cell_angle_gamma   90.00000000
_symmetry_Int_Tables_number   1
_chemical_formula_structural   Zn5H100C108N4(ClO17)2
_chemical_formula_sum   'Zn20 H400 C432 N16 Cl8 O136'
_cell_volume   14775.66166421
_cell_formula_units_Z   4
loop_
 _symmetry_equiv_pos_site_id
 _symmetry_equiv_pos_as_xyz
  1  'x, y, z'
loop_
 _atom_site_type_symbol
 _atom_site_label
 _atom_site_symmetry_multiplicity
 _atom_site_fract_x
 _atom_site_fract_y
 _atom_site_fract_z
 _atom_site_occupancy
 _atom_site_charge
Zn  Zn1  1  0.40700000  0.03750000  0.54850000  1.0 0.9462102194
Zn  Zn2  1  0.59300000  0.96250000  0.54850000  1.0 0.9462102194
Zn  Zn3  1  0.53750000  0.90700000  0.04850000  1.0 0.9462102194
Zn  Zn4  1  0.46250000  0.09300000  0.04850000  1.0 0.9462102194
Zn  Zn5  1  0.44180000  0.11930000  0.44550000  1.0 0.9270479222
Zn  Zn6  1  0.55820000  0.88070000  0.44550000  1.0 0.9270479222
Zn  Zn7  1  0.61930000  0.94180000  0.94550000  1.0 0.9270479222
Zn  Zn8  1  0.38070000  0.05820000  0.94550000  1.0 0.9270479222
Zn  Zn9  1  0.50000000  0.00000000  0.46750000  1.0 1.012670958
Zn  Zn10  1  0.50000000  0.00000000  0.96750000  1.0 1.012670958
Zn  Zn11  1  0.09300000  0.53750000  0.95150000  1.0 0.9462102194
Zn  Zn12  1  0.90700000  0.46250000  0.95150000  1.0 0.9462102194
Zn  Zn13  1  0.96250000  0.40700000  0.45150000  1.0 0.9462102194
Zn  Zn14  1  0.03750000  0.59300000  0.45150000  1.0 0.9462102194
Zn  Zn15  1  0.05820000  0.61930000  0.05450000  1.0 0.9270479222
Zn  Zn16  1  0.94180000  0.38070000  0.05450000  1.0 0.9270479222
Zn  Zn17  1  0.88070000  0.44180000  0.55450000  1.0 0.9270479222
Zn  Zn18  1  0.11930000  0.55820000  0.55450000  1.0 0.9270479222
Zn  Zn19  1  0.00000000  0.50000000  0.03250000  1.0 1.012670958
Zn  Zn20  1  0.00000000  0.50000000  0.53250000  1.0 1.015031739
H  H1  1  0.29020000  0.04400000  0.31000000  1.0 0.1203071016
H  H2  1  0.70980000  0.95600000  0.31000000  1.0 0.1203071016
H  H3  1  0.54400000  0.79020000  0.81000000  1.0 0.1203071016
H  H4  1  0.45600000  0.20980000  0.81000000  1.0 0.1203071016
H  H5  1  0.03320000  0.20610000  0.35160000  1.0 0.1103741281
H  H6  1  0.96680000  0.79390000  0.35160000  1.0 0.1103741281
H  H7  1  0.70610000  0.53320000  0.85160000  1.0 0.1103741281
H  H8  1  0.29390000  0.46680000  0.85160000  1.0 0.1103741281
H  H9  1  0.06610000  0.25570000  0.32910000  1.0 0.1103741281
H  H10  1  0.93390000  0.74430000  0.32910000  1.0 0.1103741281
H  H11  1  0.75570000  0.56610000  0.82910000  1.0 0.1103741281
H  H12  1  0.24430000  0.43390000  0.82910000  1.0 0.1103741281
H  H13  1  0.97200000  0.28430000  0.28780000  1.0 0.1203071016
H  H14  1  0.02800000  0.71570000  0.28780000  1.0 0.1203071016
H  H15  1  0.78430000  0.47200000  0.78780000  1.0 0.1203071016
H  H16  1  0.21570000  0.52800000  0.78780000  1.0 0.1203071016
H  H17  1  0.98320000  0.29880000  0.35280000  1.0 0.1103741281
H  H18  1  0.01680000  0.70120000  0.35280000  1.0 0.1103741281
H  H19  1  0.79880000  0.48320000  0.85280000  1.0 0.1103741281
H  H20  1  0.20120000  0.51680000  0.85280000  1.0 0.1103741281
H  H21  1  0.89590000  0.24900000  0.39790000  1.0 0.1203071016
H  H22  1  0.10410000  0.75100000  0.39790000  1.0 0.1203071016
H  H23  1  0.74900000  0.39590000  0.89790000  1.0 0.1203071016
H  H24  1  0.25100000  0.60410000  0.89790000  1.0 0.1203071016
H  H25  1  0.90080000  0.28890000  0.34740000  1.0 0.1103741281
H  H26  1  0.09920000  0.71110000  0.34740000  1.0 0.1103741281
H  H27  1  0.78890000  0.40080000  0.84740000  1.0 0.1103741281
H  H28  1  0.21110000  0.59920000  0.84740000  1.0 0.1103741281
H  H29  1  0.84490000  0.19650000  0.34810000  1.0 0.1103741281
H  H30  1  0.15510000  0.80350000  0.34810000  1.0 0.1103741281
H  H31  1  0.69650000  0.34490000  0.84810000  1.0 0.1103741281
H  H32  1  0.30350000  0.65510000  0.84810000  1.0 0.1103741281
H  H33  1  0.82190000  0.25430000  0.34900000  1.0 0.1103741281
H  H34  1  0.17810000  0.74570000  0.34900000  1.0 0.1103741281
H  H35  1  0.75430000  0.32190000  0.84900000  1.0 0.1103741281
H  H36  1  0.24570000  0.67810000  0.84900000  1.0 0.1103741281
H  H37  1  0.84910000  0.16620000  0.08990000  1.0 0.1203071016
H  H38  1  0.15090000  0.83380000  0.08990000  1.0 0.1203071016
H  H39  1  0.66620000  0.34910000  0.58990000  1.0 0.1203071016
H  H40  1  0.33380000  0.65090000  0.58990000  1.0 0.1203071016
H  H41  1  0.81030000  0.21560000  0.08520000  1.0 0.1203071016
H  H42  1  0.18970000  0.78440000  0.08520000  1.0 0.1203071016
H  H43  1  0.71560000  0.31030000  0.58520000  1.0 0.1203071016
H  H44  1  0.28440000  0.68970000  0.58520000  1.0 0.1203071016
H  H45  1  0.89640000  0.27390000  0.09230000  1.0 0.1203071016
H  H46  1  0.10360000  0.72610000  0.09230000  1.0 0.1203071016
H  H47  1  0.77390000  0.39640000  0.59230000  1.0 0.1203071016
H  H48  1  0.22610000  0.60360000  0.59230000  1.0 0.1203071016
H  H49  1  0.88990000  0.24520000  0.03230000  1.0 0.1025406051
H  H50  1  0.11010000  0.75480000  0.03230000  1.0 0.1025406051
H  H51  1  0.74520000  0.38990000  0.53230000  1.0 0.1025406051
H  H52  1  0.25480000  0.61010000  0.53230000  1.0 0.1025406051
H  H53  1  0.98910000  0.23580000  0.03530000  1.0 0.1103741281
H  H54  1  0.01090000  0.76420000  0.03530000  1.0 0.1103741281
H  H55  1  0.73580000  0.48910000  0.53530000  1.0 0.1103741281
H  H56  1  0.26420000  0.51090000  0.53530000  1.0 0.1103741281
H  H57  1  0.98470000  0.26480000  0.09490000  1.0 0.1203071016
H  H58  1  0.01530000  0.73520000  0.09490000  1.0 0.1203071016
H  H59  1  0.76480000  0.48470000  0.59490000  1.0 0.1203071016
H  H60  1  0.23520000  0.51530000  0.59490000  1.0 0.1203071016
H  H61  1  0.06280000  0.21170000  0.08300000  1.0 0.1103741281
H  H62  1  0.93720000  0.78830000  0.08300000  1.0 0.1103741281
H  H63  1  0.71170000  0.56280000  0.58300000  1.0 0.1103741281
H  H64  1  0.28830000  0.43720000  0.58300000  1.0 0.1103741281
H  H65  1  0.02500000  0.16170000  0.08610000  1.0 0.1025406051
H  H66  1  0.97500000  0.83830000  0.08610000  1.0 0.1025406051
H  H67  1  0.66170000  0.52500000  0.58610000  1.0 0.1025406051
H  H68  1  0.33830000  0.47500000  0.58610000  1.0 0.1025406051
H  H69  1  0.69390000  0.06820000  0.29480000  1.0 0.1103741281
H  H70  1  0.30610000  0.93180000  0.29480000  1.0 0.1103741281
H  H71  1  0.56820000  0.19390000  0.79480000  1.0 0.1103741281
H  H72  1  0.43180000  0.80610000  0.79480000  1.0 0.1103741281
H  H73  1  0.62260000  0.04540000  0.35680000  1.0 0.1305552598
H  H74  1  0.37740000  0.95460000  0.35680000  1.0 0.1305552598
H  H75  1  0.54540000  0.12260000  0.85680000  1.0 0.1305552598
H  H76  1  0.45460000  0.87740000  0.85680000  1.0 0.1305552598
H  H77  1  0.56560000  0.18680000  0.35070000  1.0 0.1203071016
H  H78  1  0.43440000  0.81320000  0.35070000  1.0 0.1203071016
H  H79  1  0.68680000  0.06560000  0.85070000  1.0 0.1203071016
H  H80  1  0.31320000  0.93440000  0.85070000  1.0 0.1203071016
H  H81  1  0.64140000  0.22040000  0.29810000  1.0 0.1103741281
H  H82  1  0.35860000  0.77960000  0.29810000  1.0 0.1103741281
H  H83  1  0.72040000  0.14140000  0.79810000  1.0 0.1103741281
H  H84  1  0.27960000  0.85860000  0.79810000  1.0 0.1103741281
H  H85  1  0.31580000  0.01890000  0.45570000  1.0 0.1203071016
H  H86  1  0.68420000  0.98110000  0.45570000  1.0 0.1203071016
H  H87  1  0.51890000  0.81580000  0.95570000  1.0 0.1203071016
H  H88  1  0.48110000  0.18420000  0.95570000  1.0 0.1203071016
H  H89  1  0.23100000  0.91760000  0.42790000  1.0 0.1403351057
H  H90  1  0.76900000  0.08240000  0.42790000  1.0 0.1403351057
H  H91  1  0.41760000  0.73100000  0.92790000  1.0 0.1403351057
H  H92  1  0.58240000  0.26900000  0.92790000  1.0 0.1403351057
H  H93  1  0.26060000  0.96660000  0.40130000  1.0 0.1305552598
H  H94  1  0.73940000  0.03340000  0.40130000  1.0 0.1305552598
H  H95  1  0.46660000  0.76060000  0.90130000  1.0 0.1305552598
H  H96  1  0.53340000  0.23940000  0.90130000  1.0 0.1305552598
H  H97  1  0.29330000  0.91910000  0.42690000  1.0 0.1403351057
H  H98  1  0.70670000  0.08090000  0.42690000  1.0 0.1403351057
H  H99  1  0.41910000  0.79330000  0.92690000  1.0 0.1403351057
H  H100  1  0.58090000  0.20670000  0.92690000  1.0 0.1403351057
H  H101  1  0.24450000  0.96020000  0.57150000  1.0 0.1103741281
H  H102  1  0.75550000  0.03980000  0.57150000  1.0 0.1103741281
H  H103  1  0.46020000  0.74450000  0.07150000  1.0 0.1103741281
H  H104  1  0.53980000  0.25550000  0.07150000  1.0 0.1103741281
H  H105  1  0.20530000  0.92610000  0.53430000  1.0 0.1305552598
H  H106  1  0.79470000  0.07390000  0.53430000  1.0 0.1305552598
H  H107  1  0.42610000  0.70530000  0.03430000  1.0 0.1305552598
H  H108  1  0.57390000  0.29470000  0.03430000  1.0 0.1305552598
H  H109  1  0.26320000  0.90550000  0.54620000  1.0 0.1403351057
H  H110  1  0.73680000  0.09450000  0.54620000  1.0 0.1403351057
H  H111  1  0.40550000  0.76320000  0.04620000  1.0 0.1403351057
H  H112  1  0.59450000  0.23680000  0.04620000  1.0 0.1403351057
H  H113  1  0.39670000  0.08710000  0.66000000  1.0 0.1025406051
H  H114  1  0.60330000  0.91290000  0.66000000  1.0 0.1025406051
H  H115  1  0.58710000  0.89670000  0.16000000  1.0 0.1025406051
H  H116  1  0.41290000  0.10330000  0.16000000  1.0 0.1025406051
H  H117  1  0.41990000  0.98030000  0.77770000  1.0 0.1305552598
H  H118  1  0.58010000  0.01970000  0.77770000  1.0 0.1305552598
H  H119  1  0.48030000  0.91990000  0.27770000  1.0 0.1305552598
H  H120  1  0.51970000  0.08010000  0.27770000  1.0 0.1305552598
H  H121  1  0.36870000  0.97880000  0.73950000  1.0 0.1305552598
H  H122  1  0.63130000  0.02120000  0.73950000  1.0 0.1305552598
H  H123  1  0.47880000  0.86870000  0.23950000  1.0 0.1305552598
H  H124  1  0.52120000  0.13130000  0.23950000  1.0 0.1305552598
H  H125  1  0.42360000  0.96120000  0.71410000  1.0 0.1403351057
H  H126  1  0.57640000  0.03880000  0.71410000  1.0 0.1403351057
H  H127  1  0.46120000  0.92360000  0.21410000  1.0 0.1403351057
H  H128  1  0.53880000  0.07640000  0.21410000  1.0 0.1403351057
H  H129  1  0.44130000  0.05190000  0.80090000  1.0 0.1505563882
H  H130  1  0.55870000  0.94810000  0.80090000  1.0 0.1505563882
H  H131  1  0.55190000  0.94130000  0.30090000  1.0 0.1505563882
H  H132  1  0.44810000  0.05870000  0.30090000  1.0 0.1505563882
H  H133  1  0.45910000  0.09600000  0.75760000  1.0 0.1403351057
H  H134  1  0.54090000  0.90400000  0.75760000  1.0 0.1403351057
H  H135  1  0.59600000  0.95910000  0.25760000  1.0 0.1403351057
H  H136  1  0.40400000  0.04090000  0.25760000  1.0 0.1403351057
H  H137  1  0.40010000  0.09430000  0.77950000  1.0 0.1403351057
H  H138  1  0.59990000  0.90570000  0.77950000  1.0 0.1403351057
H  H139  1  0.59430000  0.90010000  0.27950000  1.0 0.1403351057
H  H140  1  0.40570000  0.09990000  0.27950000  1.0 0.1403351057
H  H141  1  0.29810000  0.18820000  0.36810000  1.0 0.1103741281
H  H142  1  0.70190000  0.81180000  0.36810000  1.0 0.1103741281
H  H143  1  0.68820000  0.79810000  0.86810000  1.0 0.1103741281
H  H144  1  0.31180000  0.20190000  0.86810000  1.0 0.1103741281
H  H145  1  0.21580000  0.20400000  0.32820000  1.0 0.1305552598
H  H146  1  0.78420000  0.79600000  0.32820000  1.0 0.1305552598
H  H147  1  0.70400000  0.71580000  0.82820000  1.0 0.1203071016
H  H148  1  0.29600000  0.28420000  0.82820000  1.0 0.1203071016
H  H149  1  0.20860000  0.06430000  0.26650000  1.0 0.1203071016
H  H150  1  0.79140000  0.93570000  0.26650000  1.0 0.1203071016
H  H151  1  0.56430000  0.70860000  0.76650000  1.0 0.1203071016
H  H152  1  0.43570000  0.29140000  0.76650000  1.0 0.1203071016
H  H153  1  0.11830000  0.18440000  0.31490000  1.0 0.1305552598
H  H154  1  0.88170000  0.81560000  0.31490000  1.0 0.1305552598
H  H155  1  0.68440000  0.61830000  0.81490000  1.0 0.1305552598
H  H156  1  0.31560000  0.38170000  0.81490000  1.0 0.1305552598
H  H157  1  0.11230000  0.15410000  0.12030000  1.0 0.1305552598
H  H158  1  0.88770000  0.84590000  0.12030000  1.0 0.1305552598
H  H159  1  0.65410000  0.61230000  0.62030000  1.0 0.1305552598
H  H160  1  0.34590000  0.38770000  0.62030000  1.0 0.1305552598
H  H161  1  0.17710000  0.07120000  0.11510000  1.0 0.1305552598
H  H162  1  0.82290000  0.92880000  0.11510000  1.0 0.1305552598
H  H163  1  0.57120000  0.67710000  0.61510000  1.0 0.1305552598
H  H164  1  0.42880000  0.32290000  0.61510000  1.0 0.1305552598
H  H165  1  0.24900000  0.05600000  0.05940000  1.0 0.1305552598
H  H166  1  0.75100000  0.94400000  0.05940000  1.0 0.1305552598
H  H167  1  0.55600000  0.74900000  0.55940000  1.0 0.1305552598
H  H168  1  0.44400000  0.25100000  0.55940000  1.0 0.1305552598
H  H169  1  0.33040000  0.16380000  0.13260000  1.0 0.1025406051
H  H170  1  0.66960000  0.83620000  0.13260000  1.0 0.1025406051
H  H171  1  0.66380000  0.83040000  0.63260000  1.0 0.1025406051
H  H172  1  0.33620000  0.16960000  0.63260000  1.0 0.1025406051
H  H173  1  0.26100000  0.18370000  0.19330000  1.0 0.1203071016
H  H174  1  0.73900000  0.81630000  0.19330000  1.0 0.1203071016
H  H175  1  0.68370000  0.76100000  0.69330000  1.0 0.1203071016
H  H176  1  0.31630000  0.23900000  0.69330000  1.0 0.1203071016
H  H177  1  0.77030000  0.18750000  0.31720000  1.0 0.1305552598
H  H178  1  0.22970000  0.81250000  0.31720000  1.0 0.1305552598
H  H179  1  0.68750000  0.27030000  0.81720000  1.0 0.1305552598
H  H180  1  0.31250000  0.72970000  0.81720000  1.0 0.1305552598
H  H181  1  0.76520000  0.15880000  0.12470000  1.0 0.1403351057
H  H182  1  0.23480000  0.84120000  0.12470000  1.0 0.1403351057
H  H183  1  0.65880000  0.26520000  0.62470000  1.0 0.1403351057
H  H184  1  0.34120000  0.73480000  0.62470000  1.0 0.1403351057
H  H185  1  0.70740000  0.05060000  0.19420000  1.0 0.1203071016
H  H186  1  0.29260000  0.94940000  0.19420000  1.0 0.1203071016
H  H187  1  0.55060000  0.20740000  0.69420000  1.0 0.1203071016
H  H188  1  0.44940000  0.79260000  0.69420000  1.0 0.1203071016
H  H189  1  0.65340000  0.99870000  0.13360000  1.0 0.1103741281
H  H190  1  0.34660000  0.00130000  0.13360000  1.0 0.1103741281
H  H191  1  0.49870000  0.15340000  0.63360000  1.0 0.1103741281
H  H192  1  0.50130000  0.84660000  0.63360000  1.0 0.1103741281
H  H193  1  0.58090000  0.13280000  0.07950000  1.0 0.1203071016
H  H194  1  0.41910000  0.86720000  0.07950000  1.0 0.1203071016
H  H195  1  0.63280000  0.08090000  0.57950000  1.0 0.1203071016
H  H196  1  0.36720000  0.91910000  0.57950000  1.0 0.1203071016
H  H197  1  0.63170000  0.17650000  0.15310000  1.0 0.1103741281
H  H198  1  0.36830000  0.82350000  0.15310000  1.0 0.1103741281
H  H199  1  0.67650000  0.13170000  0.65310000  1.0 0.1103741281
H  H200  1  0.32350000  0.86830000  0.65310000  1.0 0.1103741281
H  H201  1  0.20980000  0.54400000  0.19000000  1.0 0.1203071016
H  H202  1  0.79020000  0.45600000  0.19000000  1.0 0.1203071016
H  H203  1  0.95600000  0.29020000  0.69000000  1.0 0.1203071016
H  H204  1  0.04400000  0.70980000  0.69000000  1.0 0.1203071016
H  H205  1  0.46680000  0.70610000  0.14840000  1.0 0.1103741281
H  H206  1  0.53320000  0.29390000  0.14840000  1.0 0.1103741281
H  H207  1  0.79390000  0.03320000  0.64840000  1.0 0.1103741281
H  H208  1  0.20610000  0.96680000  0.64840000  1.0 0.1103741281
H  H209  1  0.43390000  0.75570000  0.17090000  1.0 0.1103741281
H  H210  1  0.56610000  0.24430000  0.17090000  1.0 0.1103741281
H  H211  1  0.74430000  0.06610000  0.67090000  1.0 0.1103741281
H  H212  1  0.25570000  0.93390000  0.67090000  1.0 0.1103741281
H  H213  1  0.52800000  0.78430000  0.21220000  1.0 0.1203071016
H  H214  1  0.47200000  0.21570000  0.21220000  1.0 0.1203071016
H  H215  1  0.71570000  0.97200000  0.71220000  1.0 0.1203071016
H  H216  1  0.28430000  0.02800000  0.71220000  1.0 0.1203071016
H  H217  1  0.51680000  0.79880000  0.14720000  1.0 0.1103741281
H  H218  1  0.48320000  0.20120000  0.14720000  1.0 0.1103741281
H  H219  1  0.70120000  0.98320000  0.64720000  1.0 0.1103741281
H  H220  1  0.29880000  0.01680000  0.64720000  1.0 0.1103741281
H  H221  1  0.60410000  0.74900000  0.10210000  1.0 0.1203071016
H  H222  1  0.39590000  0.25100000  0.10210000  1.0 0.1203071016
H  H223  1  0.75100000  0.89590000  0.60210000  1.0 0.1203071016
H  H224  1  0.24900000  0.10410000  0.60210000  1.0 0.1203071016
H  H225  1  0.59920000  0.78890000  0.15260000  1.0 0.1103741281
H  H226  1  0.40080000  0.21110000  0.15260000  1.0 0.1103741281
H  H227  1  0.71110000  0.90080000  0.65260000  1.0 0.1103741281
H  H228  1  0.28890000  0.09920000  0.65260000  1.0 0.1103741281
H  H229  1  0.65510000  0.69650000  0.15190000  1.0 0.1103741281
H  H230  1  0.34490000  0.30350000  0.15190000  1.0 0.1103741281
H  H231  1  0.80350000  0.84490000  0.65190000  1.0 0.1103741281
H  H232  1  0.19650000  0.15510000  0.65190000  1.0 0.1103741281
H  H233  1  0.67810000  0.75430000  0.15100000  1.0 0.1103741281
H  H234  1  0.32190000  0.24570000  0.15100000  1.0 0.1103741281
H  H235  1  0.74570000  0.82190000  0.65100000  1.0 0.1103741281
H  H236  1  0.25430000  0.17810000  0.65100000  1.0 0.1103741281
H  H237  1  0.65090000  0.66620000  0.41010000  1.0 0.1203071016
H  H238  1  0.34910000  0.33380000  0.41010000  1.0 0.1203071016
H  H239  1  0.83380000  0.84910000  0.91010000  1.0 0.1203071016
H  H240  1  0.16620000  0.15090000  0.91010000  1.0 0.1203071016
H  H241  1  0.68970000  0.71560000  0.41480000  1.0 0.1203071016
H  H242  1  0.31030000  0.28440000  0.41480000  1.0 0.1203071016
H  H243  1  0.78440000  0.81030000  0.91480000  1.0 0.1203071016
H  H244  1  0.21560000  0.18970000  0.91480000  1.0 0.1203071016
H  H245  1  0.60360000  0.77390000  0.40770000  1.0 0.1203071016
H  H246  1  0.39640000  0.22610000  0.40770000  1.0 0.1203071016
H  H247  1  0.72610000  0.89640000  0.90770000  1.0 0.1203071016
H  H248  1  0.27390000  0.10360000  0.90770000  1.0 0.1203071016
H  H249  1  0.61010000  0.74520000  0.46770000  1.0 0.1025406051
H  H250  1  0.38990000  0.25480000  0.46770000  1.0 0.1025406051
H  H251  1  0.75480000  0.88990000  0.96770000  1.0 0.1025406051
H  H252  1  0.24520000  0.11010000  0.96770000  1.0 0.1025406051
H  H253  1  0.51090000  0.73580000  0.46470000  1.0 0.1103741281
H  H254  1  0.48910000  0.26420000  0.46470000  1.0 0.1103741281
H  H255  1  0.76420000  0.98910000  0.96470000  1.0 0.1103741281
H  H256  1  0.23580000  0.01090000  0.96470000  1.0 0.1103741281
H  H257  1  0.51530000  0.76480000  0.40510000  1.0 0.1203071016
H  H258  1  0.48470000  0.23520000  0.40510000  1.0 0.1203071016
H  H259  1  0.73520000  0.98470000  0.90510000  1.0 0.1203071016
H  H260  1  0.26480000  0.01530000  0.90510000  1.0 0.1203071016
H  H261  1  0.43720000  0.71170000  0.41700000  1.0 0.1103741281
H  H262  1  0.56280000  0.28830000  0.41700000  1.0 0.1103741281
H  H263  1  0.78830000  0.06280000  0.91700000  1.0 0.1103741281
H  H264  1  0.21170000  0.93720000  0.91700000  1.0 0.1103741281
H  H265  1  0.47500000  0.66170000  0.41390000  1.0 0.1025406051
H  H266  1  0.52500000  0.33830000  0.41390000  1.0 0.1025406051
H  H267  1  0.83830000  0.02500000  0.91390000  1.0 0.1025406051
H  H268  1  0.16170000  0.97500000  0.91390000  1.0 0.1025406051
H  H269  1  0.80610000  0.56820000  0.20520000  1.0 0.1103741281
H  H270  1  0.19390000  0.43180000  0.20520000  1.0 0.1103741281
H  H271  1  0.93180000  0.69390000  0.70520000  1.0 0.1103741281
H  H272  1  0.06820000  0.30610000  0.70520000  1.0 0.1103741281
H  H273  1  0.87740000  0.54540000  0.14320000  1.0 0.1305552598
H  H274  1  0.12260000  0.45460000  0.14320000  1.0 0.1305552598
H  H275  1  0.95460000  0.62260000  0.64320000  1.0 0.1305552598
H  H276  1  0.04540000  0.37740000  0.64320000  1.0 0.1305552598
H  H277  1  0.93440000  0.68680000  0.14930000  1.0 0.1203071016
H  H278  1  0.06560000  0.31320000  0.14930000  1.0 0.1203071016
H  H279  1  0.81320000  0.56560000  0.64930000  1.0 0.1203071016
H  H280  1  0.18680000  0.43440000  0.64930000  1.0 0.1203071016
H  H281  1  0.85860000  0.72040000  0.20190000  1.0 0.1103741281
H  H282  1  0.14140000  0.27960000  0.20190000  1.0 0.1103741281
H  H283  1  0.77960000  0.64140000  0.70190000  1.0 0.1103741281
H  H284  1  0.22040000  0.35860000  0.70190000  1.0 0.1103741281
H  H285  1  0.18420000  0.51890000  0.04430000  1.0 0.1203071016
H  H286  1  0.81580000  0.48110000  0.04430000  1.0 0.1203071016
H  H287  1  0.98110000  0.31580000  0.54430000  1.0 0.1203071016
H  H288  1  0.01890000  0.68420000  0.54430000  1.0 0.1203071016
H  H289  1  0.26900000  0.41760000  0.07210000  1.0 0.1403351057
H  H290  1  0.73100000  0.58240000  0.07210000  1.0 0.1403351057
H  H291  1  0.08240000  0.23100000  0.57210000  1.0 0.1403351057
H  H292  1  0.91760000  0.76900000  0.57210000  1.0 0.1403351057
H  H293  1  0.23940000  0.46660000  0.09870000  1.0 0.1305552598
H  H294  1  0.76060000  0.53340000  0.09870000  1.0 0.1305552598
H  H295  1  0.03340000  0.26060000  0.59870000  1.0 0.1305552598
H  H296  1  0.96660000  0.73940000  0.59870000  1.0 0.1305552598
H  H297  1  0.20670000  0.41910000  0.07310000  1.0 0.1403351057
H  H298  1  0.79330000  0.58090000  0.07310000  1.0 0.1403351057
H  H299  1  0.08090000  0.29330000  0.57310000  1.0 0.1403351057
H  H300  1  0.91910000  0.70670000  0.57310000  1.0 0.1403351057
H  H301  1  0.25550000  0.46020000  0.92850000  1.0 0.1103741281
H  H302  1  0.74450000  0.53980000  0.92850000  1.0 0.1103741281
H  H303  1  0.03980000  0.24450000  0.42850000  1.0 0.1103741281
H  H304  1  0.96020000  0.75550000  0.42850000  1.0 0.1103741281
H  H305  1  0.29470000  0.42610000  0.96570000  1.0 0.1305552598
H  H306  1  0.70530000  0.57390000  0.96570000  1.0 0.1305552598
H  H307  1  0.07390000  0.20530000  0.46570000  1.0 0.1305552598
H  H308  1  0.92610000  0.79470000  0.46570000  1.0 0.1305552598
H  H309  1  0.23680000  0.40550000  0.95380000  1.0 0.1403351057
H  H310  1  0.76320000  0.59450000  0.95380000  1.0 0.1403351057
H  H311  1  0.09450000  0.26320000  0.45380000  1.0 0.1403351057
H  H312  1  0.90550000  0.73680000  0.45380000  1.0 0.1403351057
H  H313  1  0.10330000  0.58710000  0.84000000  1.0 0.1025406051
H  H314  1  0.89670000  0.41290000  0.84000000  1.0 0.1025406051
H  H315  1  0.91290000  0.39670000  0.34000000  1.0 0.1025406051
H  H316  1  0.08710000  0.60330000  0.34000000  1.0 0.1025406051
H  H317  1  0.08010000  0.48030000  0.72230000  1.0 0.1305552598
H  H318  1  0.91990000  0.51970000  0.72230000  1.0 0.1305552598
H  H319  1  0.01970000  0.41990000  0.22230000  1.0 0.1305552598
H  H320  1  0.98030000  0.58010000  0.22230000  1.0 0.1305552598
H  H321  1  0.13130000  0.47880000  0.76050000  1.0 0.1305552598
H  H322  1  0.86870000  0.52120000  0.76050000  1.0 0.1305552598
H  H323  1  0.02120000  0.36870000  0.26050000  1.0 0.1305552598
H  H324  1  0.97880000  0.63130000  0.26050000  1.0 0.1305552598
H  H325  1  0.07640000  0.46120000  0.78590000  1.0 0.1403351057
H  H326  1  0.92360000  0.53880000  0.78590000  1.0 0.1403351057
H  H327  1  0.03880000  0.42360000  0.28590000  1.0 0.1403351057
H  H328  1  0.96120000  0.57640000  0.28590000  1.0 0.1403351057
H  H329  1  0.05870000  0.55190000  0.69910000  1.0 0.1505563882
H  H330  1  0.94130000  0.44810000  0.69910000  1.0 0.1505563882
H  H331  1  0.94810000  0.44130000  0.19910000  1.0 0.1505563882
H  H332  1  0.05190000  0.55870000  0.19910000  1.0 0.1505563882
H  H333  1  0.04090000  0.59600000  0.74240000  1.0 0.1403351057
H  H334  1  0.95910000  0.40400000  0.74240000  1.0 0.1403351057
H  H335  1  0.90400000  0.45910000  0.24240000  1.0 0.1403351057
H  H336  1  0.09600000  0.54090000  0.24240000  1.0 0.1403351057
H  H337  1  0.09990000  0.59430000  0.72050000  1.0 0.1403351057
H  H338  1  0.90010000  0.40570000  0.72050000  1.0 0.1403351057
H  H339  1  0.90570000  0.40010000  0.22050000  1.0 0.1403351057
H  H340  1  0.09430000  0.59990000  0.22050000  1.0 0.1403351057
H  H341  1  0.20190000  0.68820000  0.13190000  1.0 0.1103741281
H  H342  1  0.79810000  0.31180000  0.13190000  1.0 0.1103741281
H  H343  1  0.81180000  0.29810000  0.63190000  1.0 0.1103741281
H  H344  1  0.18820000  0.70190000  0.63190000  1.0 0.1103741281
H  H345  1  0.28420000  0.70400000  0.17180000  1.0 0.1203071016
H  H346  1  0.71580000  0.29600000  0.17180000  1.0 0.1203071016
H  H347  1  0.79600000  0.21580000  0.67180000  1.0 0.1203071016
H  H348  1  0.20400000  0.78420000  0.67180000  1.0 0.1305552598
H  H349  1  0.29140000  0.56430000  0.23350000  1.0 0.1203071016
H  H350  1  0.70860000  0.43570000  0.23350000  1.0 0.1203071016
H  H351  1  0.93570000  0.20860000  0.73350000  1.0 0.1203071016
H  H352  1  0.06430000  0.79140000  0.73350000  1.0 0.1203071016
H  H353  1  0.38170000  0.68440000  0.18510000  1.0 0.1305552598
H  H354  1  0.61830000  0.31560000  0.18510000  1.0 0.1305552598
H  H355  1  0.81560000  0.11830000  0.68510000  1.0 0.1305552598
H  H356  1  0.18440000  0.88170000  0.68510000  1.0 0.1305552598
H  H357  1  0.38770000  0.65410000  0.37970000  1.0 0.1305552598
H  H358  1  0.61230000  0.34590000  0.37970000  1.0 0.1305552598
H  H359  1  0.84590000  0.11230000  0.87970000  1.0 0.1305552598
H  H360  1  0.15410000  0.88770000  0.87970000  1.0 0.1305552598
H  H361  1  0.32290000  0.57120000  0.38490000  1.0 0.1305552598
H  H362  1  0.67710000  0.42880000  0.38490000  1.0 0.1305552598
H  H363  1  0.92880000  0.17710000  0.88490000  1.0 0.1305552598
H  H364  1  0.07120000  0.82290000  0.88490000  1.0 0.1305552598
H  H365  1  0.25100000  0.55600000  0.44060000  1.0 0.1305552598
H  H366  1  0.74900000  0.44400000  0.44060000  1.0 0.1305552598
H  H367  1  0.94400000  0.24900000  0.94060000  1.0 0.1305552598
H  H368  1  0.05600000  0.75100000  0.94060000  1.0 0.1305552598
H  H369  1  0.16960000  0.66380000  0.36740000  1.0 0.1025406051
H  H370  1  0.83040000  0.33620000  0.36740000  1.0 0.1025406051
H  H371  1  0.83620000  0.33040000  0.86740000  1.0 0.1025406051
H  H372  1  0.16380000  0.66960000  0.86740000  1.0 0.1025406051
H  H373  1  0.23900000  0.68370000  0.30670000  1.0 0.1203071016
H  H374  1  0.76100000  0.31630000  0.30670000  1.0 0.1203071016
H  H375  1  0.81630000  0.26100000  0.80670000  1.0 0.1203071016
H  H376  1  0.18370000  0.73900000  0.80670000  1.0 0.1203071016
H  H377  1  0.72970000  0.68750000  0.18280000  1.0 0.1305552598
H  H378  1  0.27030000  0.31250000  0.18280000  1.0 0.1305552598
H  H379  1  0.81250000  0.77030000  0.68280000  1.0 0.1305552598
H  H380  1  0.18750000  0.22970000  0.68280000  1.0 0.1305552598
H  H381  1  0.73480000  0.65880000  0.37530000  1.0 0.1403351057
H  H382  1  0.26520000  0.34120000  0.37530000  1.0 0.1403351057
H  H383  1  0.84120000  0.76520000  0.87530000  1.0 0.1403351057
H  H384  1  0.15880000  0.23480000  0.87530000  1.0 0.1403351057
H  H385  1  0.79260000  0.55060000  0.30580000  1.0 0.1203071016
H  H386  1  0.20740000  0.44940000  0.30580000  1.0 0.1203071016
H  H387  1  0.94940000  0.70740000  0.80580000  1.0 0.1203071016
H  H388  1  0.05060000  0.29260000  0.80580000  1.0 0.1203071016
H  H389  1  0.84660000  0.49870000  0.36640000  1.0 0.1103741281
H  H390  1  0.15340000  0.50130000  0.36640000  1.0 0.1103741281
H  H391  1  0.00130000  0.65340000  0.86640000  1.0 0.1103741281
H  H392  1  0.99870000  0.34660000  0.86640000  1.0 0.1103741281
H  H393  1  0.91910000  0.63280000  0.42050000  1.0 0.1203071016
H  H394  1  0.08090000  0.36720000  0.42050000  1.0 0.1203071016
H  H395  1  0.86720000  0.58090000  0.92050000  1.0 0.1203071016
H  H396  1  0.13280000  0.41910000  0.92050000  1.0 0.1203071016
H  H397  1  0.86830000  0.67650000  0.34690000  1.0 0.1103741281
H  H398  1  0.13170000  0.32350000  0.34690000  1.0 0.1103741281
H  H399  1  0.82350000  0.63170000  0.84690000  1.0 0.1103741281
H  H400  1  0.17650000  0.36830000  0.84690000  1.0 0.1103741281
C  C1  1  0.35000000  0.09800000  0.38000000  1.0 0.5604332899
C  C2  1  0.65000000  0.90200000  0.38000000  1.0 0.5604332899
C  C3  1  0.59800000  0.85000000  0.88000000  1.0 0.5604332899
C  C4  1  0.40200000  0.15000000  0.88000000  1.0 0.5604332899
C  C5  1  0.30200000  0.11000000  0.34600000  1.0 -0.0351365741
C  C6  1  0.69800000  0.89000000  0.34600000  1.0 -0.0351365741
C  C7  1  0.61000000  0.80200000  0.84600000  1.0 -0.0351365741
C  C8  1  0.39000000  0.19800000  0.84600000  1.0 -0.0351365741
C  C9  1  0.27600000  0.07800000  0.31500000  1.0 -0.1200567946
C  C10  1  0.72400000  0.92200000  0.31500000  1.0 -0.1200567946
C  C11  1  0.57800000  0.77600000  0.81500000  1.0 -0.1200567946
C  C12  1  0.42200000  0.22400000  0.81500000  1.0 -0.1200567946
C  C13  1  0.03420000  0.23460000  0.32370000  1.0 -0.0513870339
C  C14  1  0.96580000  0.76540000  0.32370000  1.0 -0.0513870339
C  C15  1  0.73460000  0.53420000  0.82370000  1.0 -0.0513870339
C  C16  1  0.26540000  0.46580000  0.82370000  1.0 -0.0513870339
C  C17  1  0.98120000  0.27020000  0.32510000  1.0 -0.0910370249
C  C18  1  0.01880000  0.72980000  0.32510000  1.0 -0.0910370249
C  C19  1  0.77020000  0.48120000  0.82510000  1.0 -0.0910370249
C  C20  1  0.22980000  0.51880000  0.82510000  1.0 -0.0910370249
C  C21  1  0.89900000  0.25100000  0.35700000  1.0 -0.0910370249
C  C22  1  0.10100000  0.74900000  0.35700000  1.0 -0.0910370249
C  C23  1  0.75100000  0.39900000  0.85700000  1.0 -0.0910370249
C  C24  1  0.24900000  0.60100000  0.85700000  1.0 -0.0910370249
C  C25  1  0.85000000  0.23200000  0.33400000  1.0 -0.0910370249
C  C26  1  0.15000000  0.76800000  0.33400000  1.0 -0.0910370249
C  C27  1  0.73200000  0.35000000  0.83400000  1.0 -0.0910370249
C  C28  1  0.26800000  0.65000000  0.83400000  1.0 -0.0910370249
C  C29  1  0.84500000  0.20400000  0.09900000  1.0 -0.0513870339
C  C30  1  0.15500000  0.79600000  0.09900000  1.0 -0.0513870339
C  C31  1  0.70400000  0.34500000  0.59900000  1.0 -0.0513870339
C  C32  1  0.29600000  0.65500000  0.59900000  1.0 -0.0513870339
C  C33  1  0.89300000  0.24000000  0.07300000  1.0 -0.1120596427
C  C34  1  0.10700000  0.76000000  0.07300000  1.0 -0.1120596427
C  C35  1  0.74000000  0.39300000  0.57300000  1.0 -0.1120596427
C  C36  1  0.26000000  0.60700000  0.57300000  1.0 -0.1120596427
C  C37  1  0.98600000  0.23000000  0.07600000  1.0 -0.0513870339
C  C38  1  0.01400000  0.77000000  0.07600000  1.0 -0.0513870339
C  C39  1  0.73000000  0.48600000  0.57600000  1.0 -0.0513870339
C  C40  1  0.27000000  0.51400000  0.57600000  1.0 -0.0513870339
C  C41  1  0.02900000  0.19900000  0.09800000  1.0 -0.0741210935
C  C42  1  0.97100000  0.80100000  0.09800000  1.0 -0.0741210935
C  C43  1  0.69900000  0.52900000  0.59800000  1.0 -0.0741210935
C  C44  1  0.30100000  0.47100000  0.59800000  1.0 -0.0741210935
C  C45  1  0.67600000  0.14500000  0.29300000  1.0 0.072893967
C  C46  1  0.32400000  0.85500000  0.29300000  1.0 0.072893967
C  C47  1  0.64500000  0.17600000  0.79300000  1.0 0.072893967
C  C48  1  0.35500000  0.82400000  0.79300000  1.0 0.072893967
C  C49  1  0.67000000  0.09400000  0.30800000  1.0 -0.151521112
C  C50  1  0.33000000  0.90600000  0.30800000  1.0 -0.151521112
C  C51  1  0.59400000  0.17000000  0.80800000  1.0 -0.151521112
C  C52  1  0.40600000  0.83000000  0.80800000  1.0 -0.151521112
C  C53  1  0.62600000  0.08000000  0.34400000  1.0 -0.0910370249
C  C54  1  0.37400000  0.92000000  0.34400000  1.0 -0.0910370249
C  C55  1  0.58000000  0.12600000  0.84400000  1.0 -0.0910370249
C  C56  1  0.42000000  0.87400000  0.84400000  1.0 -0.0910370249
C  C57  1  0.59000000  0.11500000  0.36000000  1.0 -0.0224364205
C  C58  1  0.41000000  0.88500000  0.36000000  1.0 -0.0224364205
C  C59  1  0.61500000  0.09000000  0.86000000  1.0 -0.0224364205
C  C60  1  0.38500000  0.91000000  0.86000000  1.0 -0.0224364205
C  C61  1  0.59300000  0.16400000  0.34200000  1.0 -0.0910370249
C  C62  1  0.40700000  0.83600000  0.34200000  1.0 -0.0910370249
C  C63  1  0.66400000  0.09300000  0.84200000  1.0 -0.0910370249
C  C64  1  0.33600000  0.90700000  0.84200000  1.0 -0.0910370249
C  C65  1  0.63800000  0.18500000  0.30800000  1.0 -0.160699146
C  C66  1  0.36200000  0.81500000  0.30800000  1.0 -0.160699146
C  C67  1  0.68500000  0.13800000  0.80800000  1.0 -0.160699146
C  C68  1  0.31500000  0.86200000  0.80800000  1.0 -0.160699146
C  C69  1  0.54100000  0.09900000  0.39400000  1.0 0.5824038823
C  C70  1  0.45900000  0.90100000  0.39400000  1.0 0.5824038823
C  C71  1  0.59900000  0.04100000  0.89400000  1.0 0.5824038823
C  C72  1  0.40100000  0.95900000  0.89400000  1.0 0.5824038823
C  C73  1  0.30750000  0.99940000  0.48830000  1.0 0.2628148225
C  C74  1  0.69250000  0.00060000  0.48830000  1.0 0.2628148225
C  C75  1  0.49940000  0.80750000  0.98830000  1.0 0.2628148225
C  C76  1  0.50060000  0.19250000  0.98830000  1.0 0.2628148225
C  C77  1  0.26170000  0.94010000  0.43090000  1.0 -0.3301354049
C  C78  1  0.73830000  0.05990000  0.43090000  1.0 -0.3301354049
C  C79  1  0.44010000  0.76170000  0.93090000  1.0 -0.3301354049
C  C80  1  0.55990000  0.23830000  0.93090000  1.0 -0.3301354049
C  C81  1  0.24180000  0.93650000  0.53940000  1.0 -0.3585040579
C  C82  1  0.75820000  0.06350000  0.53940000  1.0 -0.3585040579
C  C83  1  0.43650000  0.74180000  0.03940000  1.0 -0.3585040579
C  C84  1  0.56350000  0.25820000  0.03940000  1.0 -0.3585040579
C  C85  1  0.40100000  0.05100000  0.66900000  1.0 0.2664801207
C  C86  1  0.59900000  0.94900000  0.66900000  1.0 0.2664801207
C  C87  1  0.55100000  0.90100000  0.16900000  1.0 0.2664801207
C  C88  1  0.44900000  0.09900000  0.16900000  1.0 0.2664801207
C  C89  1  0.40630000  0.98540000  0.73980000  1.0 -0.3301354049
C  C90  1  0.59370000  0.01460000  0.73980000  1.0 -0.3301354049
C  C91  1  0.48540000  0.90630000  0.23980000  1.0 -0.3301354049
C  C92  1  0.51460000  0.09370000  0.23980000  1.0 -0.3301354049
C  C93  1  0.43000000  0.07300000  0.76900000  1.0 -0.3301354049
C  C94  1  0.57000000  0.92700000  0.76900000  1.0 -0.3301354049
C  C95  1  0.57300000  0.93000000  0.26900000  1.0 -0.3301354049
C  C96  1  0.42700000  0.07000000  0.26900000  1.0 -0.3301354049
C  C97  1  0.28000000  0.16100000  0.34800000  1.0 -0.1325009339
C  C98  1  0.72000000  0.83900000  0.34800000  1.0 -0.1325009339
C  C99  1  0.66100000  0.78000000  0.84800000  1.0 -0.1325009339
C  C100  1  0.33900000  0.22000000  0.84800000  1.0 -0.1325009339
C  C101  1  0.23200000  0.17200000  0.32100000  1.0 -0.160699146
C  C102  1  0.76800000  0.82800000  0.32100000  1.0 -0.160699146
C  C103  1  0.67200000  0.73200000  0.82100000  1.0 -0.160699146
C  C104  1  0.32800000  0.26800000  0.82100000  1.0 -0.160699146
C  C105  1  0.20900000  0.14000000  0.28700000  1.0 0.072893967
C  C106  1  0.79100000  0.86000000  0.28700000  1.0 0.072893967
C  C107  1  0.64000000  0.70900000  0.78700000  1.0 0.072893967
C  C108  1  0.36000000  0.29100000  0.78700000  1.0 0.072893967
C  C109  1  0.22700000  0.09100000  0.28600000  1.0 -0.166481101
C  C110  1  0.77300000  0.90900000  0.28600000  1.0 -0.166481101
C  C111  1  0.59100000  0.72700000  0.78600000  1.0 -0.166481101
C  C112  1  0.40900000  0.27300000  0.78600000  1.0 -0.166481101
C  C113  1  0.16200000  0.15600000  0.25200000  1.0 0.0390787313
C  C114  1  0.83800000  0.84400000  0.25200000  1.0 0.0390787313
C  C115  1  0.65600000  0.66200000  0.75200000  1.0 0.0390787313
C  C116  1  0.34400000  0.33800000  0.75200000  1.0 0.0390787313
C  C117  1  0.11800000  0.17800000  0.27600000  1.0 -0.2504255381
C  C118  1  0.88200000  0.82200000  0.27600000  1.0 -0.2504255381
C  C119  1  0.67800000  0.61800000  0.77600000  1.0 -0.2504255381
C  C120  1  0.32200000  0.38200000  0.77600000  1.0 -0.2504255381
C  C121  1  0.07500000  0.19200000  0.24800000  1.0 0.1505563882
C  C122  1  0.92500000  0.80800000  0.24800000  1.0 0.1505563882
C  C123  1  0.69200000  0.57500000  0.74800000  1.0 0.1505563882
C  C124  1  0.30800000  0.42500000  0.74800000  1.0 0.1505563882
C  C125  1  0.07500000  0.18500000  0.18700000  1.0 0.1505563882
C  C126  1  0.92500000  0.81500000  0.18700000  1.0 0.1505563882
C  C127  1  0.68500000  0.57500000  0.68700000  1.0 0.1505563882
C  C128  1  0.31500000  0.42500000  0.68700000  1.0 0.1505563882
C  C129  1  0.11500000  0.16100000  0.15900000  1.0 -0.2504255381
C  C130  1  0.88500000  0.83900000  0.15900000  1.0 -0.2504255381
C  C131  1  0.66100000  0.61500000  0.65900000  1.0 -0.2504255381
C  C132  1  0.33900000  0.38500000  0.65900000  1.0 -0.2504255381
C  C133  1  0.16200000  0.14500000  0.19100000  1.0 0.0390787313
C  C134  1  0.83800000  0.85500000  0.19100000  1.0 0.0390787313
C  C135  1  0.64500000  0.66200000  0.69100000  1.0 0.0390787313
C  C136  1  0.35500000  0.33800000  0.69100000  1.0 0.0390787313
C  C137  1  0.20900000  0.13300000  0.15800000  1.0 0.072893967
C  C138  1  0.79100000  0.86700000  0.15800000  1.0 0.072893967
C  C139  1  0.63300000  0.70900000  0.65800000  1.0 0.072893967
C  C140  1  0.36700000  0.29100000  0.65800000  1.0 0.072893967
C  C141  1  0.20700000  0.09200000  0.11900000  1.0 -0.1401265088
C  C142  1  0.79300000  0.90800000  0.11900000  1.0 -0.1401265088
C  C143  1  0.59200000  0.70700000  0.61900000  1.0 -0.1401265088
C  C144  1  0.40800000  0.29300000  0.61900000  1.0 -0.1401265088
C  C145  1  0.25100000  0.08300000  0.08700000  1.0 -0.1200567946
C  C146  1  0.74900000  0.91700000  0.08700000  1.0 -0.1200567946
C  C147  1  0.58300000  0.75100000  0.58700000  1.0 -0.1200567946
C  C148  1  0.41700000  0.24900000  0.58700000  1.0 -0.1200567946
C  C149  1  0.29500000  0.10700000  0.09000000  1.0 -0.0011363915
C  C150  1  0.70500000  0.89300000  0.09000000  1.0 -0.0011363915
C  C151  1  0.60700000  0.79500000  0.59000000  1.0 -0.0011363915
C  C152  1  0.39300000  0.20500000  0.59000000  1.0 -0.0011363915
C  C153  1  0.29900000  0.14500000  0.12900000  1.0 -0.151521112
C  C154  1  0.70100000  0.85500000  0.12900000  1.0 -0.151521112
C  C155  1  0.64500000  0.79900000  0.62900000  1.0 -0.151521112
C  C156  1  0.35500000  0.20100000  0.62900000  1.0 -0.151521112
C  C157  1  0.25600000  0.15800000  0.16500000  1.0 -0.151521112
C  C158  1  0.74400000  0.84200000  0.16500000  1.0 -0.151521112
C  C159  1  0.65800000  0.75600000  0.66500000  1.0 -0.151521112
C  C160  1  0.34200000  0.24400000  0.66500000  1.0 -0.151521112
C  C161  1  0.34300000  0.09600000  0.05000000  1.0 0.5824038823
C  C162  1  0.65700000  0.90400000  0.05000000  1.0 0.5824038823
C  C163  1  0.59600000  0.84300000  0.55000000  1.0 0.5824038823
C  C164  1  0.40400000  0.15700000  0.55000000  1.0 0.5824038823
C  C165  1  0.80900000  0.19600000  0.18800000  1.0 0.2138738473
C  C166  1  0.19100000  0.80400000  0.18800000  1.0 0.2138738473
C  C167  1  0.69600000  0.30900000  0.68800000  1.0 0.2138738473
C  C168  1  0.30400000  0.69100000  0.68800000  1.0 0.2138738473
C  C169  1  0.80700000  0.20500000  0.24900000  1.0 0.1595810343
C  C170  1  0.19300000  0.79500000  0.24900000  1.0 0.1595810343
C  C171  1  0.70500000  0.30700000  0.74900000  1.0 0.1595810343
C  C172  1  0.29500000  0.69300000  0.74900000  1.0 0.1595810343
C  C173  1  0.76700000  0.18600000  0.27800000  1.0 -0.3027034096
C  C174  1  0.23300000  0.81400000  0.27800000  1.0 -0.3027034096
C  C175  1  0.68600000  0.26700000  0.77800000  1.0 -0.3027034096
C  C176  1  0.31400000  0.73300000  0.77800000  1.0 -0.3027034096
C  C177  1  0.71900000  0.16200000  0.25600000  1.0 0.0186566952
C  C178  1  0.28100000  0.83800000  0.25600000  1.0 0.0186566952
C  C179  1  0.66200000  0.21900000  0.75600000  1.0 0.0186566952
C  C180  1  0.33800000  0.78100000  0.75600000  1.0 0.0186566952
C  C181  1  0.72200000  0.15100000  0.19700000  1.0 0.0390787313
C  C182  1  0.27800000  0.84900000  0.19700000  1.0 0.0390787313
C  C183  1  0.65100000  0.22200000  0.69700000  1.0 0.0390787313
C  C184  1  0.34900000  0.77800000  0.69700000  1.0 0.0390787313
C  C185  1  0.76500000  0.16700000  0.16300000  1.0 -0.3027034096
C  C186  1  0.23500000  0.83300000  0.16300000  1.0 -0.3027034096
C  C187  1  0.66700000  0.26500000  0.66300000  1.0 -0.3027034096
C  C188  1  0.33300000  0.73500000  0.66300000  1.0 -0.3027034096
C  C189  1  0.68000000  0.11800000  0.17000000  1.0 0.072893967
C  C190  1  0.32000000  0.88200000  0.17000000  1.0 0.072893967
C  C191  1  0.61800000  0.18000000  0.67000000  1.0 0.072893967
C  C192  1  0.38200000  0.82000000  0.67000000  1.0 0.072893967
C  C193  1  0.68300000  0.06700000  0.17100000  1.0 -0.1401265088
C  C194  1  0.31700000  0.93300000  0.17100000  1.0 -0.1401265088
C  C195  1  0.56700000  0.18300000  0.67100000  1.0 -0.1401265088
C  C196  1  0.43300000  0.81700000  0.67100000  1.0 -0.1401265088
C  C197  1  0.64800000  0.03500000  0.13600000  1.0 -0.0628208265
C  C198  1  0.35200000  0.96500000  0.13600000  1.0 -0.0628208265
C  C199  1  0.53500000  0.14800000  0.63600000  1.0 -0.0628208265
C  C200  1  0.46500000  0.85200000  0.63600000  1.0 -0.0628208265
C  C201  1  0.60600000  0.06000000  0.10500000  1.0 -0.0513870339
C  C202  1  0.39400000  0.94000000  0.10500000  1.0 -0.0513870339
C  C203  1  0.56000000  0.10600000  0.60500000  1.0 -0.0513870339
C  C204  1  0.44000000  0.89400000  0.60500000  1.0 -0.0513870339
C  C205  1  0.60300000  0.11400000  0.10400000  1.0 -0.0628208265
C  C206  1  0.39700000  0.88600000  0.10400000  1.0 -0.0628208265
C  C207  1  0.61400000  0.10300000  0.60400000  1.0 -0.0628208265
C  C208  1  0.38600000  0.89700000  0.60400000  1.0 -0.0628208265
C  C209  1  0.63900000  0.14100000  0.14400000  1.0 -0.160699146
C  C210  1  0.36100000  0.85900000  0.14400000  1.0 -0.160699146
C  C211  1  0.64100000  0.13900000  0.64400000  1.0 -0.160699146
C  C212  1  0.35900000  0.86100000  0.64400000  1.0 -0.160699146
C  C213  1  0.57100000  0.02600000  0.07100000  1.0 0.5824038823
C  C214  1  0.42900000  0.97400000  0.07100000  1.0 0.5824038823
C  C215  1  0.52600000  0.07100000  0.57100000  1.0 0.5824038823
C  C216  1  0.47400000  0.92900000  0.57100000  1.0 0.5824038823
C  C217  1  0.15000000  0.59800000  0.12000000  1.0 0.5604332899
C  C218  1  0.85000000  0.40200000  0.12000000  1.0 0.5604332899
C  C219  1  0.90200000  0.35000000  0.62000000  1.0 0.5604332899
C  C220  1  0.09800000  0.65000000  0.62000000  1.0 0.5604332899
C  C221  1  0.19800000  0.61000000  0.15400000  1.0 -0.0351365741
C  C222  1  0.80200000  0.39000000  0.15400000  1.0 -0.0351365741
C  C223  1  0.89000000  0.30200000  0.65400000  1.0 -0.0351365741
C  C224  1  0.11000000  0.69800000  0.65400000  1.0 -0.0351365741
C  C225  1  0.22400000  0.57800000  0.18500000  1.0 -0.1200567946
C  C226  1  0.77600000  0.42200000  0.18500000  1.0 -0.1200567946
C  C227  1  0.92200000  0.27600000  0.68500000  1.0 -0.1200567946
C  C228  1  0.07800000  0.72400000  0.68500000  1.0 -0.1200567946
C  C229  1  0.46580000  0.73460000  0.17630000  1.0 -0.0513870339
C  C230  1  0.53420000  0.26540000  0.17630000  1.0 -0.0513870339
C  C231  1  0.76540000  0.03420000  0.67630000  1.0 -0.0513870339
C  C232  1  0.23460000  0.96580000  0.67630000  1.0 -0.0513870339
C  C233  1  0.51880000  0.77020000  0.17490000  1.0 -0.0910370249
C  C234  1  0.48120000  0.22980000  0.17490000  1.0 -0.0910370249
C  C235  1  0.72980000  0.98120000  0.67490000  1.0 -0.0910370249
C  C236  1  0.27020000  0.01880000  0.67490000  1.0 -0.0910370249
C  C237  1  0.60100000  0.75100000  0.14300000  1.0 -0.0910370249
C  C238  1  0.39900000  0.24900000  0.14300000  1.0 -0.0910370249
C  C239  1  0.74900000  0.89900000  0.64300000  1.0 -0.0910370249
C  C240  1  0.25100000  0.10100000  0.64300000  1.0 -0.0910370249
C  C241  1  0.65000000  0.73200000  0.16600000  1.0 -0.0910370249
C  C242  1  0.35000000  0.26800000  0.16600000  1.0 -0.0910370249
C  C243  1  0.76800000  0.85000000  0.66600000  1.0 -0.0910370249
C  C244  1  0.23200000  0.15000000  0.66600000  1.0 -0.0910370249
C  C245  1  0.65500000  0.70400000  0.40100000  1.0 -0.0513870339
C  C246  1  0.34500000  0.29600000  0.40100000  1.0 -0.0513870339
C  C247  1  0.79600000  0.84500000  0.90100000  1.0 -0.0513870339
C  C248  1  0.20400000  0.15500000  0.90100000  1.0 -0.0513870339
C  C249  1  0.60700000  0.74000000  0.42700000  1.0 -0.1120596427
C  C250  1  0.39300000  0.26000000  0.42700000  1.0 -0.1120596427
C  C251  1  0.76000000  0.89300000  0.92700000  1.0 -0.1120596427
C  C252  1  0.24000000  0.10700000  0.92700000  1.0 -0.1120596427
C  C253  1  0.51400000  0.73000000  0.42400000  1.0 -0.0513870339
C  C254  1  0.48600000  0.27000000  0.42400000  1.0 -0.0513870339
C  C255  1  0.77000000  0.98600000  0.92400000  1.0 -0.0513870339
C  C256  1  0.23000000  0.01400000  0.92400000  1.0 -0.0513870339
C  C257  1  0.47100000  0.69900000  0.40200000  1.0 -0.0741210935
C  C258  1  0.52900000  0.30100000  0.40200000  1.0 -0.0741210935
C  C259  1  0.80100000  0.02900000  0.90200000  1.0 -0.0741210935
C  C260  1  0.19900000  0.97100000  0.90200000  1.0 -0.0741210935
C  C261  1  0.82400000  0.64500000  0.20700000  1.0 0.072893967
C  C262  1  0.17600000  0.35500000  0.20700000  1.0 0.072893967
C  C263  1  0.85500000  0.67600000  0.70700000  1.0 0.072893967
C  C264  1  0.14500000  0.32400000  0.70700000  1.0 0.072893967
C  C265  1  0.83000000  0.59400000  0.19200000  1.0 -0.151521112
C  C266  1  0.17000000  0.40600000  0.19200000  1.0 -0.151521112
C  C267  1  0.90600000  0.67000000  0.69200000  1.0 -0.151521112
C  C268  1  0.09400000  0.33000000  0.69200000  1.0 -0.151521112
C  C269  1  0.87400000  0.58000000  0.15600000  1.0 -0.0910370249
C  C270  1  0.12600000  0.42000000  0.15600000  1.0 -0.0910370249
C  C271  1  0.92000000  0.62600000  0.65600000  1.0 -0.0910370249
C  C272  1  0.08000000  0.37400000  0.65600000  1.0 -0.0910370249
C  C273  1  0.91000000  0.61500000  0.14000000  1.0 -0.0224364205
C  C274  1  0.09000000  0.38500000  0.14000000  1.0 -0.0224364205
C  C275  1  0.88500000  0.59000000  0.64000000  1.0 -0.0224364205
C  C276  1  0.11500000  0.41000000  0.64000000  1.0 -0.0224364205
C  C277  1  0.90700000  0.66400000  0.15800000  1.0 -0.0910370249
C  C278  1  0.09300000  0.33600000  0.15800000  1.0 -0.0910370249
C  C279  1  0.83600000  0.59300000  0.65800000  1.0 -0.0910370249
C  C280  1  0.16400000  0.40700000  0.65800000  1.0 -0.0910370249
C  C281  1  0.86200000  0.68500000  0.19200000  1.0 -0.160699146
C  C282  1  0.13800000  0.31500000  0.19200000  1.0 -0.160699146
C  C283  1  0.81500000  0.63800000  0.69200000  1.0 -0.160699146
C  C284  1  0.18500000  0.36200000  0.69200000  1.0 -0.160699146
C  C285  1  0.95900000  0.59900000  0.10600000  1.0 0.5824038823
C  C286  1  0.04100000  0.40100000  0.10600000  1.0 0.5824038823
C  C287  1  0.90100000  0.54100000  0.60600000  1.0 0.5824038823
C  C288  1  0.09900000  0.45900000  0.60600000  1.0 0.5824038823
C  C289  1  0.19250000  0.49940000  0.01170000  1.0 0.2628148225
C  C290  1  0.80750000  0.50060000  0.01170000  1.0 0.2628148225
C  C291  1  0.00060000  0.30750000  0.51170000  1.0 0.2628148225
C  C292  1  0.99940000  0.69250000  0.51170000  1.0 0.2628148225
C  C293  1  0.23830000  0.44010000  0.06910000  1.0 -0.3301354049
C  C294  1  0.76170000  0.55990000  0.06910000  1.0 -0.3301354049
C  C295  1  0.05990000  0.26170000  0.56910000  1.0 -0.3301354049
C  C296  1  0.94010000  0.73830000  0.56910000  1.0 -0.3301354049
C  C297  1  0.25820000  0.43650000  0.96060000  1.0 -0.3585040579
C  C298  1  0.74180000  0.56350000  0.96060000  1.0 -0.3585040579
C  C299  1  0.06350000  0.24180000  0.46060000  1.0 -0.3585040579
C  C300  1  0.93650000  0.75820000  0.46060000  1.0 -0.3585040579
C  C301  1  0.09900000  0.55100000  0.83100000  1.0 0.2664801207
C  C302  1  0.90100000  0.44900000  0.83100000  1.0 0.2664801207
C  C303  1  0.94900000  0.40100000  0.33100000  1.0 0.2664801207
C  C304  1  0.05100000  0.59900000  0.33100000  1.0 0.2664801207
C  C305  1  0.09370000  0.48540000  0.76020000  1.0 -0.3301354049
C  C306  1  0.90630000  0.51460000  0.76020000  1.0 -0.3301354049
C  C307  1  0.01460000  0.40630000  0.26020000  1.0 -0.3301354049
C  C308  1  0.98540000  0.59370000  0.26020000  1.0 -0.3301354049
C  C309  1  0.07000000  0.57300000  0.73100000  1.0 -0.3301354049
C  C310  1  0.93000000  0.42700000  0.73100000  1.0 -0.3301354049
C  C311  1  0.92700000  0.43000000  0.23100000  1.0 -0.3301354049
C  C312  1  0.07300000  0.57000000  0.23100000  1.0 -0.3301354049
C  C313  1  0.22000000  0.66100000  0.15200000  1.0 -0.1325009339
C  C314  1  0.78000000  0.33900000  0.15200000  1.0 -0.1325009339
C  C315  1  0.83900000  0.28000000  0.65200000  1.0 -0.1325009339
C  C316  1  0.16100000  0.72000000  0.65200000  1.0 -0.1325009339
C  C317  1  0.26800000  0.67200000  0.17900000  1.0 -0.160699146
C  C318  1  0.73200000  0.32800000  0.17900000  1.0 -0.160699146
C  C319  1  0.82800000  0.23200000  0.67900000  1.0 -0.160699146
C  C320  1  0.17200000  0.76800000  0.67900000  1.0 -0.160699146
C  C321  1  0.29100000  0.64000000  0.21300000  1.0 0.072893967
C  C322  1  0.70900000  0.36000000  0.21300000  1.0 0.072893967
C  C323  1  0.86000000  0.20900000  0.71300000  1.0 0.072893967
C  C324  1  0.14000000  0.79100000  0.71300000  1.0 0.072893967
C  C325  1  0.27300000  0.59100000  0.21400000  1.0 -0.166481101
C  C326  1  0.72700000  0.40900000  0.21400000  1.0 -0.166481101
C  C327  1  0.90900000  0.22700000  0.71400000  1.0 -0.166481101
C  C328  1  0.09100000  0.77300000  0.71400000  1.0 -0.166481101
C  C329  1  0.33800000  0.65600000  0.24800000  1.0 0.0390787313
C  C330  1  0.66200000  0.34400000  0.24800000  1.0 0.0390787313
C  C331  1  0.84400000  0.16200000  0.74800000  1.0 0.0390787313
C  C332  1  0.15600000  0.83800000  0.74800000  1.0 0.0390787313
C  C333  1  0.38200000  0.67800000  0.22400000  1.0 -0.2504255381
C  C334  1  0.61800000  0.32200000  0.22400000  1.0 -0.2504255381
C  C335  1  0.82200000  0.11800000  0.72400000  1.0 -0.2504255381
C  C336  1  0.17800000  0.88200000  0.72400000  1.0 -0.2504255381
C  C337  1  0.42500000  0.69200000  0.25200000  1.0 0.1505563882
C  C338  1  0.57500000  0.30800000  0.25200000  1.0 0.1505563882
C  C339  1  0.80800000  0.07500000  0.75200000  1.0 0.1505563882
C  C340  1  0.19200000  0.92500000  0.75200000  1.0 0.1505563882
C  C341  1  0.42500000  0.68500000  0.31300000  1.0 0.1505563882
C  C342  1  0.57500000  0.31500000  0.31300000  1.0 0.1505563882
C  C343  1  0.81500000  0.07500000  0.81300000  1.0 0.1505563882
C  C344  1  0.18500000  0.92500000  0.81300000  1.0 0.1505563882
C  C345  1  0.38500000  0.66100000  0.34100000  1.0 -0.2504255381
C  C346  1  0.61500000  0.33900000  0.34100000  1.0 -0.2504255381
C  C347  1  0.83900000  0.11500000  0.84100000  1.0 -0.2504255381
C  C348  1  0.16100000  0.88500000  0.84100000  1.0 -0.2504255381
C  C349  1  0.33800000  0.64500000  0.30900000  1.0 0.0390787313
C  C350  1  0.66200000  0.35500000  0.30900000  1.0 0.0390787313
C  C351  1  0.85500000  0.16200000  0.80900000  1.0 0.0390787313
C  C352  1  0.14500000  0.83800000  0.80900000  1.0 0.0390787313
C  C353  1  0.29100000  0.63300000  0.34200000  1.0 0.072893967
C  C354  1  0.70900000  0.36700000  0.34200000  1.0 0.072893967
C  C355  1  0.86700000  0.20900000  0.84200000  1.0 0.072893967
C  C356  1  0.13300000  0.79100000  0.84200000  1.0 0.072893967
C  C357  1  0.29300000  0.59200000  0.38100000  1.0 -0.1401265088
C  C358  1  0.70700000  0.40800000  0.38100000  1.0 -0.1401265088
C  C359  1  0.90800000  0.20700000  0.88100000  1.0 -0.1401265088
C  C360  1  0.09200000  0.79300000  0.88100000  1.0 -0.1401265088
C  C361  1  0.24900000  0.58300000  0.41300000  1.0 -0.1200567946
C  C362  1  0.75100000  0.41700000  0.41300000  1.0 -0.1200567946
C  C363  1  0.91700000  0.25100000  0.91300000  1.0 -0.1200567946
C  C364  1  0.08300000  0.74900000  0.91300000  1.0 -0.1200567946
C  C365  1  0.20500000  0.60700000  0.41000000  1.0 -0.0011363915
C  C366  1  0.79500000  0.39300000  0.41000000  1.0 -0.0011363915
C  C367  1  0.89300000  0.29500000  0.91000000  1.0 -0.0011363915
C  C368  1  0.10700000  0.70500000  0.91000000  1.0 -0.0011363915
C  C369  1  0.20100000  0.64500000  0.37100000  1.0 -0.151521112
C  C370  1  0.79900000  0.35500000  0.37100000  1.0 -0.151521112
C  C371  1  0.85500000  0.29900000  0.87100000  1.0 -0.151521112
C  C372  1  0.14500000  0.70100000  0.87100000  1.0 -0.151521112
C  C373  1  0.24400000  0.65800000  0.33500000  1.0 -0.151521112
C  C374  1  0.75600000  0.34200000  0.33500000  1.0 -0.151521112
C  C375  1  0.84200000  0.25600000  0.83500000  1.0 -0.151521112
C  C376  1  0.15800000  0.74400000  0.83500000  1.0 -0.151521112
C  C377  1  0.15700000  0.59600000  0.45000000  1.0 0.5824038823
C  C378  1  0.84300000  0.40400000  0.45000000  1.0 0.5824038823
C  C379  1  0.90400000  0.34300000  0.95000000  1.0 0.5824038823
C  C380  1  0.09600000  0.65700000  0.95000000  1.0 0.5824038823
C  C381  1  0.69100000  0.69600000  0.31200000  1.0 0.2138738473
C  C382  1  0.30900000  0.30400000  0.31200000  1.0 0.2138738473
C  C383  1  0.80400000  0.80900000  0.81200000  1.0 0.2138738473
C  C384  1  0.19600000  0.19100000  0.81200000  1.0 0.2138738473
C  C385  1  0.69300000  0.70500000  0.25100000  1.0 0.1595810343
C  C386  1  0.30700000  0.29500000  0.25100000  1.0 0.1595810343
C  C387  1  0.79500000  0.80700000  0.75100000  1.0 0.1595810343
C  C388  1  0.20500000  0.19300000  0.75100000  1.0 0.1595810343
C  C389  1  0.73300000  0.68600000  0.22200000  1.0 -0.3027034096
C  C390  1  0.26700000  0.31400000  0.22200000  1.0 -0.3027034096
C  C391  1  0.81400000  0.76700000  0.72200000  1.0 -0.3027034096
C  C392  1  0.18600000  0.23300000  0.72200000  1.0 -0.3027034096
C  C393  1  0.78100000  0.66200000  0.24400000  1.0 0.0186566952
C  C394  1  0.21900000  0.33800000  0.24400000  1.0 0.0186566952
C  C395  1  0.83800000  0.71900000  0.74400000  1.0 0.0186566952
C  C396  1  0.16200000  0.28100000  0.74400000  1.0 0.0186566952
C  C397  1  0.77800000  0.65100000  0.30300000  1.0 0.0390787313
C  C398  1  0.22200000  0.34900000  0.30300000  1.0 0.0390787313
C  C399  1  0.84900000  0.72200000  0.80300000  1.0 0.0390787313
C  C400  1  0.15100000  0.27800000  0.80300000  1.0 0.0390787313
C  C401  1  0.73500000  0.66700000  0.33700000  1.0 -0.3027034096
C  C402  1  0.26500000  0.33300000  0.33700000  1.0 -0.3027034096
C  C403  1  0.83300000  0.76500000  0.83700000  1.0 -0.3027034096
C  C404  1  0.16700000  0.23500000  0.83700000  1.0 -0.3027034096
C  C405  1  0.82000000  0.61800000  0.33000000  1.0 0.072893967
C  C406  1  0.18000000  0.38200000  0.33000000  1.0 0.072893967
C  C407  1  0.88200000  0.68000000  0.83000000  1.0 0.072893967
C  C408  1  0.11800000  0.32000000  0.83000000  1.0 0.072893967
C  C409  1  0.81700000  0.56700000  0.32900000  1.0 -0.1401265088
C  C410  1  0.18300000  0.43300000  0.32900000  1.0 -0.1401265088
C  C411  1  0.93300000  0.68300000  0.82900000  1.0 -0.1401265088
C  C412  1  0.06700000  0.31700000  0.82900000  1.0 -0.1401265088
C  C413  1  0.85200000  0.53500000  0.36400000  1.0 -0.0628208265
C  C414  1  0.14800000  0.46500000  0.36400000  1.0 -0.0628208265
C  C415  1  0.96500000  0.64800000  0.86400000  1.0 -0.0628208265
C  C416  1  0.03500000  0.35200000  0.86400000  1.0 -0.0628208265
C  C417  1  0.89400000  0.56000000  0.39500000  1.0 -0.0513870339
C  C418  1  0.10600000  0.44000000  0.39500000  1.0 -0.0513870339
C  C419  1  0.94000000  0.60600000  0.89500000  1.0 -0.0513870339
C  C420  1  0.06000000  0.39400000  0.89500000  1.0 -0.0513870339
C  C421  1  0.89700000  0.61400000  0.39600000  1.0 -0.0628208265
C  C422  1  0.10300000  0.38600000  0.39600000  1.0 -0.0628208265
C  C423  1  0.88600000  0.60300000  0.89600000  1.0 -0.0628208265
C  C424  1  0.11400000  0.39700000  0.89600000  1.0 -0.0628208265
C  C425  1  0.86100000  0.64100000  0.35600000  1.0 -0.160699146
C  C426  1  0.13900000  0.35900000  0.35600000  1.0 -0.160699146
C  C427  1  0.85900000  0.63900000  0.85600000  1.0 -0.160699146
C  C428  1  0.14100000  0.36100000  0.85600000  1.0 -0.160699146
C  C429  1  0.92900000  0.52600000  0.42900000  1.0 0.5824038823
C  C430  1  0.07100000  0.47400000  0.42900000  1.0 0.5824038823
C  C431  1  0.97400000  0.57100000  0.92900000  1.0 0.5824038823
C  C432  1  0.02600000  0.42900000  0.92900000  1.0 0.5824038823
N  N1  1  0.26180000  0.96540000  0.48470000  1.0 0.0624421732
N  N2  1  0.73820000  0.03460000  0.48470000  1.0 0.0624421732
N  N3  1  0.46540000  0.76180000  0.98470000  1.0 0.0624421732
N  N4  1  0.53460000  0.23820000  0.98470000  1.0 0.0624421732
N  N5  1  0.41600000  0.03900000  0.72200000  1.0 0.0304426124
N  N6  1  0.58400000  0.96100000  0.72200000  1.0 0.0304426124
N  N7  1  0.53900000  0.91600000  0.22200000  1.0 0.0304426124
N  N8  1  0.46100000  0.08400000  0.22200000  1.0 0.0304426124
N  N9  1  0.23820000  0.46540000  0.01530000  1.0 0.0624421732
N  N10  1  0.76180000  0.53460000  0.01530000  1.0 0.0624421732
N  N11  1  0.03460000  0.26180000  0.51530000  1.0 0.0624421732
N  N12  1  0.96540000  0.73820000  0.51530000  1.0 0.0624421732
N  N13  1  0.08400000  0.53900000  0.77800000  1.0 0.0304426124
N  N14  1  0.91600000  0.46100000  0.77800000  1.0 0.0304426124
N  N15  1  0.96100000  0.41600000  0.27800000  1.0 0.0304426124
N  N16  1  0.03900000  0.58400000  0.27800000  1.0 0.0304426124
Cl  Cl1  1  0.22000000  0.35300000  0.51200000  1.0 -0.6711935784
Cl  Cl2  1  0.28000000  0.85300000  0.98800000  1.0 -0.6711935784
Cl  Cl3  1  0.72000000  0.14700000  0.98800000  1.0 -0.6711935784
Cl  Cl4  1  0.78000000  0.64700000  0.51200000  1.0 -0.6711935784
Cl  Cl5  1  0.35300000  0.78000000  0.48800000  1.0 -0.6711935784
Cl  Cl6  1  0.14700000  0.28000000  0.01200000  1.0 -0.6711935784
Cl  Cl7  1  0.64700000  0.22000000  0.48800000  1.0 -0.6711935784
Cl  Cl8  1  0.85300000  0.72000000  0.01200000  1.0 -0.6711935784
O  O1  1  0.37800000  0.13400000  0.40000000  1.0 -0.5315090875
O  O2  1  0.62200000  0.86600000  0.40000000  1.0 -0.5315090875
O  O3  1  0.63400000  0.87800000  0.90000000  1.0 -0.5315090875
O  O4  1  0.36600000  0.12200000  0.90000000  1.0 -0.5315090875
O  O5  1  0.36200000  0.04800000  0.38200000  1.0 -0.517793839
O  O6  1  0.63800000  0.95200000  0.38200000  1.0 -0.517793839
O  O7  1  0.54800000  0.86200000  0.88200000  1.0 -0.517793839
O  O8  1  0.45200000  0.13800000  0.88200000  1.0 -0.517793839
O  O9  1  0.03000000  0.21600000  0.26900000  1.0 -0.1325009339
O  O10  1  0.97000000  0.78400000  0.26900000  1.0 -0.1325009339
O  O11  1  0.71600000  0.53000000  0.76900000  1.0 -0.1325009339
O  O12  1  0.28400000  0.47000000  0.76900000  1.0 -0.1325009339
O  O13  1  0.94700000  0.22900000  0.34200000  1.0 -0.1027310296
O  O14  1  0.05300000  0.77100000  0.34200000  1.0 -0.1027310296
O  O15  1  0.72900000  0.44700000  0.84200000  1.0 -0.1027310296
O  O16  1  0.27100000  0.55300000  0.84200000  1.0 -0.1027310296
O  O17  1  0.84600000  0.23100000  0.27400000  1.0 -0.1325009339
O  O18  1  0.15400000  0.76900000  0.27400000  1.0 -0.1325009339
O  O19  1  0.73100000  0.34600000  0.77400000  1.0 -0.1325009339
O  O20  1  0.26900000  0.65400000  0.77400000  1.0 -0.1325009339
O  O21  1  0.84900000  0.21200000  0.15800000  1.0 -0.1027310296
O  O22  1  0.15100000  0.78800000  0.15800000  1.0 -0.1027310296
O  O23  1  0.71200000  0.34900000  0.65800000  1.0 -0.1027310296
O  O24  1  0.28800000  0.65100000  0.65800000  1.0 -0.1027310296
O  O25  1  0.94000000  0.20200000  0.08800000  1.0 -0.160699146
O  O26  1  0.06000000  0.79800000  0.08800000  1.0 -0.160699146
O  O27  1  0.70200000  0.44000000  0.58800000  1.0 -0.160699146
O  O28  1  0.29800000  0.56000000  0.58800000  1.0 -0.160699146
O  O29  1  0.02800000  0.20300000  0.15900000  1.0 -0.2118316843
O  O30  1  0.97200000  0.79700000  0.15900000  1.0 -0.2118316843
O  O31  1  0.70300000  0.52800000  0.65900000  1.0 -0.2118316843
O  O32  1  0.29700000  0.47200000  0.65900000  1.0 -0.2118316843
O  O33  1  0.33400000  0.06300000  0.01000000  1.0 -0.5315090875
O  O34  1  0.66600000  0.93700000  0.01000000  1.0 -0.5315090875
O  O35  1  0.56300000  0.83400000  0.51000000  1.0 -0.5315090875
O  O36  1  0.43700000  0.16600000  0.51000000  1.0 -0.5315090875
O  O37  1  0.38400000  0.12100000  0.05600000  1.0 -0.5085001747
O  O38  1  0.61600000  0.87900000  0.05600000  1.0 -0.5085001747
O  O39  1  0.62100000  0.88400000  0.55600000  1.0 -0.5085001747
O  O40  1  0.37900000  0.11600000  0.55600000  1.0 -0.5085001747
O  O41  1  0.54000000  0.04560000  0.03500000  1.0 -0.5009756024
O  O42  1  0.46000000  0.95440000  0.03500000  1.0 -0.5009756024
O  O43  1  0.54560000  0.04000000  0.53500000  1.0 -0.5009756024
O  O44  1  0.45440000  0.96000000  0.53500000  1.0 -0.5009756024
O  O45  1  0.57300000  0.97700000  0.07800000  1.0 -0.5315090875
O  O46  1  0.42700000  0.02300000  0.07800000  1.0 -0.5315090875
O  O47  1  0.47700000  0.07300000  0.57800000  1.0 -0.5315090875
O  O48  1  0.52300000  0.92700000  0.57800000  1.0 -0.5315090875
O  O49  1  0.50900000  0.13300000  0.40800000  1.0 -0.517793839
O  O50  1  0.49100000  0.86700000  0.40800000  1.0 -0.517793839
O  O51  1  0.63300000  0.00900000  0.90800000  1.0 -0.517793839
O  O52  1  0.36700000  0.99100000  0.90800000  1.0 -0.517793839
O  O53  1  0.53800000  0.04900000  0.40660000  1.0 -0.5009756024
O  O54  1  0.46200000  0.95100000  0.40660000  1.0 -0.5009756024
O  O55  1  0.54900000  0.03800000  0.90660000  1.0 -0.5009756024
O  O56  1  0.45100000  0.96200000  0.90660000  1.0 -0.5009756024
O  O57  1  0.33570000  0.00540000  0.52810000  1.0 -0.3930995549
O  O58  1  0.66430000  0.99460000  0.52810000  1.0 -0.3930995549
O  O59  1  0.50540000  0.83570000  0.02810000  1.0 -0.3930995549
O  O60  1  0.49460000  0.16430000  0.02810000  1.0 -0.3930995549
O  O61  1  0.39400000  0.01700000  0.63200000  1.0 -0.4521524768
O  O62  1  0.60600000  0.98300000  0.63200000  1.0 -0.4521524768
O  O63  1  0.51700000  0.89400000  0.13200000  1.0 -0.4521524768
O  O64  1  0.48300000  0.10600000  0.13200000  1.0 -0.4521524768
O  O65  1  0.43500000  0.04600000  0.46700000  1.0 -0.7512979145
O  O66  1  0.56500000  0.95400000  0.46700000  1.0 -0.7512979145
O  O67  1  0.54600000  0.93500000  0.96700000  1.0 -0.7512979145
O  O68  1  0.45400000  0.06500000  0.96700000  1.0 -0.7512979145
O  O69  1  0.12200000  0.63400000  0.10000000  1.0 -0.5315090875
O  O70  1  0.87800000  0.36600000  0.10000000  1.0 -0.5315090875
O  O71  1  0.86600000  0.37800000  0.60000000  1.0 -0.5315090875
O  O72  1  0.13400000  0.62200000  0.60000000  1.0 -0.5315090875
O  O73  1  0.13800000  0.54800000  0.11800000  1.0 -0.517793839
O  O74  1  0.86200000  0.45200000  0.11800000  1.0 -0.517793839
O  O75  1  0.95200000  0.36200000  0.61800000  1.0 -0.517793839
O  O76  1  0.04800000  0.63800000  0.61800000  1.0 -0.517793839
O  O77  1  0.47000000  0.71600000  0.23100000  1.0 -0.1325009339
O  O78  1  0.53000000  0.28400000  0.23100000  1.0 -0.1325009339
O  O79  1  0.78400000  0.03000000  0.73100000  1.0 -0.1325009339
O  O80  1  0.21600000  0.97000000  0.73100000  1.0 -0.1325009339
O  O81  1  0.55300000  0.72900000  0.15800000  1.0 -0.1027310296
O  O82  1  0.44700000  0.27100000  0.15800000  1.0 -0.1027310296
O  O83  1  0.77100000  0.94700000  0.65800000  1.0 -0.1027310296
O  O84  1  0.22900000  0.05300000  0.65800000  1.0 -0.1027310296
O  O85  1  0.65400000  0.73100000  0.22600000  1.0 -0.1325009339
O  O86  1  0.34600000  0.26900000  0.22600000  1.0 -0.1325009339
O  O87  1  0.76900000  0.84600000  0.72600000  1.0 -0.1325009339
O  O88  1  0.23100000  0.15400000  0.72600000  1.0 -0.1325009339
O  O89  1  0.65100000  0.71200000  0.34200000  1.0 -0.1027310296
O  O90  1  0.34900000  0.28800000  0.34200000  1.0 -0.1027310296
O  O91  1  0.78800000  0.84900000  0.84200000  1.0 -0.1027310296
O  O92  1  0.21200000  0.15100000  0.84200000  1.0 -0.1027310296
O  O93  1  0.56000000  0.70200000  0.41200000  1.0 -0.160699146
O  O94  1  0.44000000  0.29800000  0.41200000  1.0 -0.160699146
O  O95  1  0.79800000  0.94000000  0.91200000  1.0 -0.160699146
O  O96  1  0.20200000  0.06000000  0.91200000  1.0 -0.160699146
O  O97  1  0.47200000  0.70300000  0.34100000  1.0 -0.2118316843
O  O98  1  0.52800000  0.29700000  0.34100000  1.0 -0.2118316843
O  O99  1  0.79700000  0.02800000  0.84100000  1.0 -0.2118316843
O  O100  1  0.20300000  0.97200000  0.84100000  1.0 -0.2118316843
O  O101  1  0.16600000  0.56300000  0.49000000  1.0 -0.5315090875
O  O102  1  0.83400000  0.43700000  0.49000000  1.0 -0.5315090875
O  O103  1  0.93700000  0.33400000  0.99000000  1.0 -0.5315090875
O  O104  1  0.06300000  0.66600000  0.99000000  1.0 -0.5315090875
O  O105  1  0.11600000  0.62100000  0.44400000  1.0 -0.5085001747
O  O106  1  0.88400000  0.37900000  0.44400000  1.0 -0.5085001747
O  O107  1  0.87900000  0.38400000  0.94400000  1.0 -0.5085001747
O  O108  1  0.12100000  0.61600000  0.94400000  1.0 -0.5085001747
O  O109  1  0.96000000  0.54560000  0.46500000  1.0 -0.5009756024
O  O110  1  0.04000000  0.45440000  0.46500000  1.0 -0.5009756024
O  O111  1  0.95440000  0.54000000  0.96500000  1.0 -0.5009756024
O  O112  1  0.04560000  0.46000000  0.96500000  1.0 -0.5009756024
O  O113  1  0.92700000  0.47700000  0.42200000  1.0 -0.5315090875
O  O114  1  0.07300000  0.52300000  0.42200000  1.0 -0.5315090875
O  O115  1  0.02300000  0.57300000  0.92200000  1.0 -0.5315090875
O  O116  1  0.97700000  0.42700000  0.92200000  1.0 -0.5315090875
O  O117  1  0.99100000  0.63300000  0.09200000  1.0 -0.517793839
O  O118  1  0.00900000  0.36700000  0.09200000  1.0 -0.517793839
O  O119  1  0.86700000  0.50900000  0.59200000  1.0 -0.517793839
O  O120  1  0.13300000  0.49100000  0.59200000  1.0 -0.517793839
O  O121  1  0.96200000  0.54900000  0.09340000  1.0 -0.5009756024
O  O122  1  0.03800000  0.45100000  0.09340000  1.0 -0.5009756024
O  O123  1  0.95100000  0.53800000  0.59340000  1.0 -0.5009756024
O  O124  1  0.04900000  0.46200000  0.59340000  1.0 -0.5009756024
O  O125  1  0.16430000  0.50540000  0.97190000  1.0 -0.3930995549
O  O126  1  0.83570000  0.49460000  0.97190000  1.0 -0.3930995549
O  O127  1  0.99460000  0.33570000  0.47190000  1.0 -0.3930995549
O  O128  1  0.00540000  0.66430000  0.47190000  1.0 -0.3930995549
O  O129  1  0.10600000  0.51700000  0.86800000  1.0 -0.4521524768
O  O130  1  0.89400000  0.48300000  0.86800000  1.0 -0.4521524768
O  O131  1  0.98300000  0.39400000  0.36800000  1.0 -0.4521524768
O  O132  1  0.01700000  0.60600000  0.36800000  1.0 -0.4521524768
O  O133  1  0.06500000  0.54600000  0.03300000  1.0 -0.7512979145
O  O134  1  0.93500000  0.45400000  0.03300000  1.0 -0.7512979145
O  O135  1  0.95400000  0.43500000  0.53300000  1.0 -0.7512979145
O  O136  1  0.04600000  0.56500000  0.53300000  1.0 -0.7512979145
