# DDEC6 charges by PACMAN v1.1 (https://github.com/mtap-research/PACMAN-charge/)
data_EFIMOV_ASR_pacman
_symmetry_space_group_name_H-M   'P 1'
_cell_length_a   13.05600000
_cell_length_b   13.05600000
_cell_length_c   9.48500000
_cell_angle_alpha   90.00000000
_cell_angle_beta   90.00000000
_cell_angle_gamma   120.00000000
_symmetry_Int_Tables_number   1
_chemical_formula_structural   NaBe2P2H2O9
_chemical_formula_sum   'Na6 Be12 P12 H12 O54'
_cell_volume   1400.19412066
_cell_formula_units_Z   6
loop_
 _symmetry_equiv_pos_site_id
 _symmetry_equiv_pos_as_xyz
  1  'x, y, z'
loop_
 _atom_site_type_symbol
 _atom_site_label
 _atom_site_symmetry_multiplicity
 _atom_site_fract_x
 _atom_site_fract_y
 _atom_site_fract_z
 _atom_site_occupancy
 _atom_site_charge
Na  Na1  1  0.66666667  0.33333333  0.08110000  1.0 0.8035204004
Na  Na2  1  0.66666667  0.33333333  0.41890000  1.0 0.8035204004
Na  Na3  1  0.33333333  0.66666667  0.91890000  1.0 0.8035204004
Na  Na4  1  0.33333333  0.66666667  0.58110000  1.0 0.8035204004
Na  Na5  1  0.33333333  0.66666667  0.25000000  1.0 0.7114924382
Na  Na6  1  0.66666667  0.33333333  0.75000000  1.0 0.7114924382
Be  Be1  1  0.66340000  0.10830000  0.90070000  1.0 1.2004350911
Be  Be2  1  0.89170000  0.55510000  0.90070000  1.0 1.2004350911
Be  Be3  1  0.89170000  0.33660000  0.59930000  1.0 1.2004350911
Be  Be4  1  0.44490000  0.33660000  0.90070000  1.0 1.2004350911
Be  Be5  1  0.66340000  0.55510000  0.59930000  1.0 1.2004350911
Be  Be6  1  0.44490000  0.10830000  0.59930000  1.0 1.2004350911
Be  Be7  1  0.33660000  0.89170000  0.09930000  1.0 1.2004350911
Be  Be8  1  0.10830000  0.44490000  0.09930000  1.0 1.2004350911
Be  Be9  1  0.10830000  0.66340000  0.40070000  1.0 1.2004350911
Be  Be10  1  0.55510000  0.66340000  0.09930000  1.0 1.2004350911
Be  Be11  1  0.33660000  0.44490000  0.40070000  1.0 1.2004350911
Be  Be12  1  0.55510000  0.89170000  0.40070000  1.0 1.2004350911
P  P1  1  0.55655000  0.88758000  0.08991000  1.0 1.2402403445
P  P2  1  0.11242000  0.66897000  0.08991000  1.0 1.2402403445
P  P3  1  0.11242000  0.44345000  0.41009000  1.0 1.2402403445
P  P4  1  0.33103000  0.44345000  0.08991000  1.0 1.2402403445
P  P5  1  0.55655000  0.66897000  0.41009000  1.0 1.2402403445
P  P6  1  0.33103000  0.88758000  0.41009000  1.0 1.2402403445
P  P7  1  0.44345000  0.11242000  0.91009000  1.0 1.2402403445
P  P8  1  0.88758000  0.33103000  0.91009000  1.0 1.2402403445
P  P9  1  0.88758000  0.55655000  0.58991000  1.0 1.2402403445
P  P10  1  0.66897000  0.55655000  0.91009000  1.0 1.2402403445
P  P11  1  0.44345000  0.33103000  0.58991000  1.0 1.2402403445
P  P12  1  0.66897000  0.11242000  0.58991000  1.0 1.2402403445
H  H1  1  0.87320000  0.42740000  0.17640000  1.0 0.3127878572
H  H2  1  0.57260000  0.44580000  0.17640000  1.0 0.3127878572
H  H3  1  0.57260000  0.12680000  0.32360000  1.0 0.3127878572
H  H4  1  0.55420000  0.12680000  0.17640000  1.0 0.3127878572
H  H5  1  0.87320000  0.44580000  0.32360000  1.0 0.3127878572
H  H6  1  0.55420000  0.42740000  0.32360000  1.0 0.3127878572
H  H7  1  0.12680000  0.57260000  0.82360000  1.0 0.3127878572
H  H8  1  0.42740000  0.55420000  0.82360000  1.0 0.3127878572
H  H9  1  0.42740000  0.87320000  0.67640000  1.0 0.3127878572
H  H10  1  0.44580000  0.87320000  0.82360000  1.0 0.3127878572
H  H11  1  0.12680000  0.55420000  0.67640000  1.0 0.3127878572
H  H12  1  0.44580000  0.57260000  0.67640000  1.0 0.3127878572
O  O1  1  0.83500000  0.41750000  0.25000000  1.0 -0.7863762189
O  O2  1  0.58250000  0.41750000  0.25000000  1.0 -0.7863762189
O  O3  1  0.58250000  0.16500000  0.25000000  1.0 -0.7863762189
O  O4  1  0.16500000  0.58250000  0.75000000  1.0 -0.7863762189
O  O5  1  0.41750000  0.58250000  0.75000000  1.0 -0.7863762189
O  O6  1  0.41750000  0.83500000  0.75000000  1.0 -0.7863762189
O  O7  1  0.61770000  0.99210000  0.99220000  1.0 -0.621662722
O  O8  1  0.00790000  0.62560000  0.99220000  1.0 -0.621662722
O  O9  1  0.00790000  0.38230000  0.50780000  1.0 -0.621662722
O  O10  1  0.37440000  0.38230000  0.99220000  1.0 -0.621662722
O  O11  1  0.61770000  0.62560000  0.50780000  1.0 -0.621662722
O  O12  1  0.37440000  0.99210000  0.50780000  1.0 -0.621662722
O  O13  1  0.38230000  0.00790000  0.00780000  1.0 -0.621662722
O  O14  1  0.99210000  0.37440000  0.00780000  1.0 -0.621662722
O  O15  1  0.99210000  0.61770000  0.49220000  1.0 -0.621662722
O  O16  1  0.62560000  0.61770000  0.00780000  1.0 -0.621662722
O  O17  1  0.38230000  0.37440000  0.49220000  1.0 -0.621662722
O  O18  1  0.62560000  0.00790000  0.49220000  1.0 -0.621662722
O  O19  1  0.58530000  0.79330000  0.04030000  1.0 -0.6591522628
O  O20  1  0.20670000  0.79200000  0.04030000  1.0 -0.6591522628
O  O21  1  0.20670000  0.41470000  0.45970000  1.0 -0.6591522628
O  O22  1  0.20800000  0.41470000  0.04030000  1.0 -0.6591522628
O  O23  1  0.58530000  0.79200000  0.45970000  1.0 -0.6591522628
O  O24  1  0.20800000  0.79330000  0.45970000  1.0 -0.6591522628
O  O25  1  0.41470000  0.20670000  0.95970000  1.0 -0.6591522628
O  O26  1  0.79330000  0.20800000  0.95970000  1.0 -0.6591522628
O  O27  1  0.79330000  0.58530000  0.54030000  1.0 -0.6591522628
O  O28  1  0.79200000  0.58530000  0.95970000  1.0 -0.6591522628
O  O29  1  0.41470000  0.20800000  0.54030000  1.0 -0.6591522628
O  O30  1  0.79200000  0.20670000  0.54030000  1.0 -0.6591522628
O  O31  1  0.42080000  0.83120000  0.08310000  1.0 -0.8067301421
O  O32  1  0.16880000  0.58960000  0.08310000  1.0 -0.8067301421
O  O33  1  0.16880000  0.57920000  0.41690000  1.0 -0.8067301421
O  O34  1  0.41040000  0.57920000  0.08310000  1.0 -0.8067301421
O  O35  1  0.42080000  0.58960000  0.41690000  1.0 -0.8067301421
O  O36  1  0.41040000  0.83120000  0.41690000  1.0 -0.8067301421
O  O37  1  0.57920000  0.16880000  0.91690000  1.0 -0.8067301421
O  O38  1  0.83120000  0.41040000  0.91690000  1.0 -0.8067301421
O  O39  1  0.83120000  0.42080000  0.58310000  1.0 -0.8067301421
O  O40  1  0.58960000  0.42080000  0.91690000  1.0 -0.8067301421
O  O41  1  0.57920000  0.41040000  0.58310000  1.0 -0.8067301421
O  O42  1  0.58960000  0.16880000  0.58310000  1.0 -0.8067301421
O  O43  1  0.59910000  0.92680000  0.23920000  1.0 -0.6591522628
O  O44  1  0.07320000  0.67230000  0.23920000  1.0 -0.6591522628
O  O45  1  0.07320000  0.40090000  0.26080000  1.0 -0.6591522628
O  O46  1  0.32770000  0.40090000  0.23920000  1.0 -0.6591522628
O  O47  1  0.59910000  0.67230000  0.26080000  1.0 -0.6591522628
O  O48  1  0.32770000  0.92680000  0.26080000  1.0 -0.6591522628
O  O49  1  0.40090000  0.07320000  0.76080000  1.0 -0.6591522628
O  O50  1  0.92680000  0.32770000  0.76080000  1.0 -0.6591522628
O  O51  1  0.92680000  0.59910000  0.73920000  1.0 -0.6591522628
O  O52  1  0.67230000  0.59910000  0.76080000  1.0 -0.6591522628
O  O53  1  0.40090000  0.32770000  0.73920000  1.0 -0.6591522628
O  O54  1  0.67230000  0.07320000  0.73920000  1.0 -0.6591522628
