# DDEC6 charges by PACMAN v1.1 (https://github.com/mtap-research/PACMAN-charge/)
data_EFOGOX_ion_pacman
_symmetry_space_group_name_H-M   'P 1'
_cell_length_a   27.55530000
_cell_length_b   27.55530000
_cell_length_c   27.55530000
_cell_angle_alpha   109.47100000
_cell_angle_beta   109.47100000
_cell_angle_gamma   109.47100000
_symmetry_Int_Tables_number   1
_chemical_formula_structural   CdH32C38N16(ClO4)2
_chemical_formula_sum   'Cd12 H384 C456 N192 Cl24 O96'
_cell_volume   16106.34834754
_cell_formula_units_Z   12
loop_
 _symmetry_equiv_pos_site_id
 _symmetry_equiv_pos_as_xyz
  1  'x, y, z'
loop_
 _atom_site_type_symbol
 _atom_site_label
 _atom_site_symmetry_multiplicity
 _atom_site_fract_x
 _atom_site_fract_y
 _atom_site_fract_z
 _atom_site_occupancy
 _atom_site_charge
Cd  Cd1  1  0.75000000  0.37500000  0.62500000  1.0 0.7187475687
Cd  Cd2  1  0.37500000  0.25000000  0.62500000  1.0 0.7187475687
Cd  Cd3  1  0.25000000  0.12500000  0.87500000  1.0 0.7187475687
Cd  Cd4  1  0.12500000  0.75000000  0.87500000  1.0 0.7187475687
Cd  Cd5  1  0.62500000  0.75000000  0.37500000  1.0 0.7187475687
Cd  Cd6  1  0.75000000  0.87500000  0.12500000  1.0 0.7187475687
Cd  Cd7  1  0.87500000  0.25000000  0.12500000  1.0 0.7187475687
Cd  Cd8  1  0.25000000  0.62500000  0.37500000  1.0 0.7187475687
Cd  Cd9  1  0.37500000  0.62500000  0.75000000  1.0 0.7187475687
Cd  Cd10  1  0.87500000  0.12500000  0.75000000  1.0 0.7187475687
Cd  Cd11  1  0.62500000  0.37500000  0.25000000  1.0 0.7187475687
Cd  Cd12  1  0.12500000  0.87500000  0.25000000  1.0 0.7187475687
H  H1  1  0.70130000  0.53190000  0.74840000  1.0 0.1222333716
H  H2  1  0.53190000  0.28350000  0.83060000  1.0 0.1222333716
H  H3  1  0.28350000  0.95290000  0.75160000  1.0 0.1222333716
H  H4  1  0.95290000  0.70130000  0.66940000  1.0 0.1222333716
H  H5  1  0.79870000  0.54710000  0.83060000  1.0 0.1222333716
H  H6  1  0.54710000  0.21650000  0.74840000  1.0 0.1222333716
H  H7  1  0.21650000  0.96810000  0.66940000  1.0 0.1222333716
H  H8  1  0.96810000  0.79870000  0.75160000  1.0 0.1222333716
H  H9  1  0.74840000  0.70130000  0.53190000  1.0 0.1222333716
H  H10  1  0.70130000  0.66940000  0.95290000  1.0 0.1222333716
H  H11  1  0.66940000  0.21650000  0.96810000  1.0 0.1222333716
H  H12  1  0.21650000  0.74840000  0.54710000  1.0 0.1222333716
H  H13  1  0.75160000  0.28350000  0.95290000  1.0 0.1222333716
H  H14  1  0.28350000  0.83060000  0.53190000  1.0 0.1222333716
H  H15  1  0.83060000  0.79870000  0.54710000  1.0 0.1222333716
H  H16  1  0.79870000  0.75160000  0.96810000  1.0 0.1222333716
H  H17  1  0.53190000  0.74840000  0.70130000  1.0 0.1222333716
H  H18  1  0.75160000  0.96810000  0.79870000  1.0 0.1222333716
H  H19  1  0.74840000  0.54710000  0.21650000  1.0 0.1222333716
H  H20  1  0.66940000  0.95290000  0.70130000  1.0 0.1222333716
H  H21  1  0.83060000  0.53190000  0.28350000  1.0 0.1222333716
H  H22  1  0.96810000  0.66940000  0.21650000  1.0 0.1222333716
H  H23  1  0.54710000  0.83060000  0.79870000  1.0 0.1222333716
H  H24  1  0.95290000  0.75160000  0.28350000  1.0 0.1222333716
H  H25  1  0.29870000  0.46810000  0.25160000  1.0 0.1222333716
H  H26  1  0.46810000  0.71650000  0.16940000  1.0 0.1222333716
H  H27  1  0.71650000  0.04710000  0.24840000  1.0 0.1222333716
H  H28  1  0.04710000  0.29870000  0.33060000  1.0 0.1222333716
H  H29  1  0.20130000  0.45290000  0.16940000  1.0 0.1222333716
H  H30  1  0.45290000  0.78350000  0.25160000  1.0 0.1222333716
H  H31  1  0.78350000  0.03190000  0.33060000  1.0 0.1222333716
H  H32  1  0.03190000  0.20130000  0.24840000  1.0 0.1222333716
H  H33  1  0.25160000  0.29870000  0.46810000  1.0 0.1222333716
H  H34  1  0.29870000  0.33060000  0.04710000  1.0 0.1222333716
H  H35  1  0.33060000  0.78350000  0.03190000  1.0 0.1222333716
H  H36  1  0.78350000  0.25160000  0.45290000  1.0 0.1222333716
H  H37  1  0.24840000  0.71650000  0.04710000  1.0 0.1222333716
H  H38  1  0.71650000  0.16940000  0.46810000  1.0 0.1222333716
H  H39  1  0.16940000  0.20130000  0.45290000  1.0 0.1222333716
H  H40  1  0.20130000  0.24840000  0.03190000  1.0 0.1222333716
H  H41  1  0.46810000  0.25160000  0.29870000  1.0 0.1222333716
H  H42  1  0.24840000  0.03190000  0.20130000  1.0 0.1222333716
H  H43  1  0.25160000  0.45290000  0.78350000  1.0 0.1222333716
H  H44  1  0.33060000  0.04710000  0.29870000  1.0 0.1222333716
H  H45  1  0.16940000  0.46810000  0.71650000  1.0 0.1222333716
H  H46  1  0.03190000  0.33060000  0.78350000  1.0 0.1222333716
H  H47  1  0.45290000  0.16940000  0.20130000  1.0 0.1222333716
H  H48  1  0.04710000  0.24840000  0.71650000  1.0 0.1222333716
H  H49  1  0.71950000  0.62610000  0.76140000  1.0 0.1222333716
H  H50  1  0.62610000  0.36470000  0.90660000  1.0 0.1222333716
H  H51  1  0.36470000  0.95810000  0.73860000  1.0 0.1222333716
H  H52  1  0.95810000  0.71950000  0.59340000  1.0 0.1222333716
H  H53  1  0.78050000  0.54190000  0.90660000  1.0 0.1222333716
H  H54  1  0.54190000  0.13530000  0.76140000  1.0 0.1222333716
H  H55  1  0.13530000  0.87390000  0.59340000  1.0 0.1222333716
H  H56  1  0.87390000  0.78050000  0.73860000  1.0 0.1222333716
H  H57  1  0.76140000  0.71950000  0.62610000  1.0 0.1222333716
H  H58  1  0.71950000  0.59340000  0.95810000  1.0 0.1222333716
H  H59  1  0.59340000  0.13530000  0.87390000  1.0 0.1222333716
H  H60  1  0.13530000  0.76140000  0.54190000  1.0 0.1222333716
H  H61  1  0.73860000  0.36470000  0.95810000  1.0 0.1222333716
H  H62  1  0.36470000  0.90660000  0.62610000  1.0 0.1222333716
H  H63  1  0.90660000  0.78050000  0.54190000  1.0 0.1222333716
H  H64  1  0.78050000  0.73860000  0.87390000  1.0 0.1222333716
H  H65  1  0.62610000  0.76140000  0.71950000  1.0 0.1222333716
H  H66  1  0.73860000  0.87390000  0.78050000  1.0 0.1222333716
H  H67  1  0.76140000  0.54190000  0.13530000  1.0 0.1222333716
H  H68  1  0.59340000  0.95810000  0.71950000  1.0 0.1222333716
H  H69  1  0.90660000  0.62610000  0.36470000  1.0 0.1222333716
H  H70  1  0.87390000  0.59340000  0.13530000  1.0 0.1222333716
H  H71  1  0.54190000  0.90660000  0.78050000  1.0 0.1222333716
H  H72  1  0.95810000  0.73860000  0.36470000  1.0 0.1222333716
H  H73  1  0.28050000  0.37390000  0.23860000  1.0 0.1222333716
H  H74  1  0.37390000  0.63530000  0.09340000  1.0 0.1222333716
H  H75  1  0.63530000  0.04190000  0.26140000  1.0 0.1222333716
H  H76  1  0.04190000  0.28050000  0.40660000  1.0 0.1222333716
H  H77  1  0.21950000  0.45810000  0.09340000  1.0 0.1222333716
H  H78  1  0.45810000  0.86470000  0.23860000  1.0 0.1222333716
H  H79  1  0.86470000  0.12610000  0.40660000  1.0 0.1222333716
H  H80  1  0.12610000  0.21950000  0.26140000  1.0 0.1222333716
H  H81  1  0.23860000  0.28050000  0.37390000  1.0 0.1222333716
H  H82  1  0.28050000  0.40660000  0.04190000  1.0 0.1222333716
H  H83  1  0.40660000  0.86470000  0.12610000  1.0 0.1222333716
H  H84  1  0.86470000  0.23860000  0.45810000  1.0 0.1222333716
H  H85  1  0.26140000  0.63530000  0.04190000  1.0 0.1222333716
H  H86  1  0.63530000  0.09340000  0.37390000  1.0 0.1222333716
H  H87  1  0.09340000  0.21950000  0.45810000  1.0 0.1222333716
H  H88  1  0.21950000  0.26140000  0.12610000  1.0 0.1222333716
H  H89  1  0.37390000  0.23860000  0.28050000  1.0 0.1222333716
H  H90  1  0.26140000  0.12610000  0.21950000  1.0 0.1222333716
H  H91  1  0.23860000  0.45810000  0.86470000  1.0 0.1222333716
H  H92  1  0.40660000  0.04190000  0.28050000  1.0 0.1222333716
H  H93  1  0.09340000  0.37390000  0.63530000  1.0 0.1222333716
H  H94  1  0.12610000  0.40660000  0.86470000  1.0 0.1222333716
H  H95  1  0.45810000  0.09340000  0.21950000  1.0 0.1222333716
H  H96  1  0.04190000  0.26140000  0.63530000  1.0 0.1222333716
H  H97  1  0.72970000  0.64990000  0.69060000  1.0 0.1073384839
H  H98  1  0.64990000  0.45930000  0.92020000  1.0 0.1073384839
H  H99  1  0.45930000  0.03910000  0.80940000  1.0 0.1073384839
H  H100  1  0.03910000  0.72970000  0.57980000  1.0 0.1073384839
H  H101  1  0.77030000  0.46090000  0.92020000  1.0 0.1073384839
H  H102  1  0.46090000  0.04070000  0.69060000  1.0 0.1073384839
H  H103  1  0.04070000  0.85010000  0.57980000  1.0 0.1073384839
H  H104  1  0.85010000  0.77030000  0.80940000  1.0 0.1073384839
H  H105  1  0.69060000  0.72970000  0.64990000  1.0 0.1073384839
H  H106  1  0.72970000  0.57980000  0.03910000  1.0 0.1073384839
H  H107  1  0.57980000  0.04070000  0.85010000  1.0 0.1073384839
H  H108  1  0.04070000  0.69060000  0.46090000  1.0 0.1073384839
H  H109  1  0.80940000  0.45930000  0.03910000  1.0 0.1073384839
H  H110  1  0.45930000  0.92020000  0.64990000  1.0 0.1073384839
H  H111  1  0.92020000  0.77030000  0.46090000  1.0 0.1073384839
H  H112  1  0.77030000  0.80940000  0.85010000  1.0 0.1073384839
H  H113  1  0.64990000  0.69060000  0.72970000  1.0 0.1073384839
H  H114  1  0.80940000  0.85010000  0.77030000  1.0 0.1073384839
H  H115  1  0.69060000  0.46090000  0.04070000  1.0 0.1073384839
H  H116  1  0.57980000  0.03910000  0.72970000  1.0 0.1073384839
H  H117  1  0.92020000  0.64990000  0.45930000  1.0 0.1073384839
H  H118  1  0.85010000  0.57980000  0.04070000  1.0 0.1073384839
H  H119  1  0.46090000  0.92020000  0.77030000  1.0 0.1073384839
H  H120  1  0.03910000  0.80940000  0.45930000  1.0 0.1073384839
H  H121  1  0.27030000  0.35010000  0.30940000  1.0 0.1073384839
H  H122  1  0.35010000  0.54070000  0.07980000  1.0 0.1073384839
H  H123  1  0.54070000  0.96090000  0.19060000  1.0 0.1073384839
H  H124  1  0.96090000  0.27030000  0.42020000  1.0 0.1073384839
H  H125  1  0.22970000  0.53910000  0.07980000  1.0 0.1073384839
H  H126  1  0.53910000  0.95930000  0.30940000  1.0 0.1073384839
H  H127  1  0.95930000  0.14990000  0.42020000  1.0 0.1073384839
H  H128  1  0.14990000  0.22970000  0.19060000  1.0 0.1073384839
H  H129  1  0.30940000  0.27030000  0.35010000  1.0 0.1073384839
H  H130  1  0.27030000  0.42020000  0.96090000  1.0 0.1073384839
H  H131  1  0.42020000  0.95930000  0.14990000  1.0 0.1073384839
H  H132  1  0.95930000  0.30940000  0.53910000  1.0 0.1073384839
H  H133  1  0.19060000  0.54070000  0.96090000  1.0 0.1073384839
H  H134  1  0.54070000  0.07980000  0.35010000  1.0 0.1073384839
H  H135  1  0.07980000  0.22970000  0.53910000  1.0 0.1073384839
H  H136  1  0.22970000  0.19060000  0.14990000  1.0 0.1073384839
H  H137  1  0.35010000  0.30940000  0.27030000  1.0 0.1073384839
H  H138  1  0.19060000  0.14990000  0.22970000  1.0 0.1073384839
H  H139  1  0.30940000  0.53910000  0.95930000  1.0 0.1073384839
H  H140  1  0.42020000  0.96090000  0.27030000  1.0 0.1073384839
H  H141  1  0.07980000  0.35010000  0.54070000  1.0 0.1073384839
H  H142  1  0.14990000  0.42020000  0.95930000  1.0 0.1073384839
H  H143  1  0.53910000  0.07980000  0.22970000  1.0 0.1073384839
H  H144  1  0.96090000  0.19060000  0.54070000  1.0 0.1073384839
H  H145  1  0.71990000  0.58020000  0.60570000  1.0 0.1222333716
H  H146  1  0.58020000  0.47450000  0.86030000  1.0 0.1222333716
H  H147  1  0.47450000  0.11420000  0.89430000  1.0 0.1222333716
H  H148  1  0.11420000  0.71990000  0.63970000  1.0 0.1222333716
H  H149  1  0.78010000  0.38580000  0.86030000  1.0 0.1222333716
H  H150  1  0.38580000  0.02550000  0.60570000  1.0 0.1222333716
H  H151  1  0.02550000  0.91980000  0.63970000  1.0 0.1222333716
H  H152  1  0.91980000  0.78010000  0.89430000  1.0 0.1222333716
H  H153  1  0.60570000  0.71990000  0.58020000  1.0 0.1222333716
H  H154  1  0.71990000  0.63970000  0.11420000  1.0 0.1222333716
H  H155  1  0.63970000  0.02550000  0.91980000  1.0 0.1222333716
H  H156  1  0.02550000  0.60570000  0.38580000  1.0 0.1222333716
H  H157  1  0.89430000  0.47450000  0.11420000  1.0 0.1222333716
H  H158  1  0.47450000  0.86030000  0.58020000  1.0 0.1222333716
H  H159  1  0.86030000  0.78010000  0.38580000  1.0 0.1222333716
H  H160  1  0.78010000  0.89430000  0.91980000  1.0 0.1222333716
H  H161  1  0.58020000  0.60570000  0.71990000  1.0 0.1222333716
H  H162  1  0.89430000  0.91980000  0.78010000  1.0 0.1222333716
H  H163  1  0.60570000  0.38580000  0.02550000  1.0 0.1222333716
H  H164  1  0.63970000  0.11420000  0.71990000  1.0 0.1222333716
H  H165  1  0.86030000  0.58020000  0.47450000  1.0 0.1222333716
H  H166  1  0.91980000  0.63970000  0.02550000  1.0 0.1222333716
H  H167  1  0.38580000  0.86030000  0.78010000  1.0 0.1222333716
H  H168  1  0.11420000  0.89430000  0.47450000  1.0 0.1222333716
H  H169  1  0.28010000  0.41980000  0.39430000  1.0 0.1222333716
H  H170  1  0.41980000  0.52550000  0.13970000  1.0 0.1222333716
H  H171  1  0.52550000  0.88580000  0.10570000  1.0 0.1222333716
H  H172  1  0.88580000  0.28010000  0.36030000  1.0 0.1222333716
H  H173  1  0.21990000  0.61420000  0.13970000  1.0 0.1222333716
H  H174  1  0.61420000  0.97450000  0.39430000  1.0 0.1222333716
H  H175  1  0.97450000  0.08020000  0.36030000  1.0 0.1222333716
H  H176  1  0.08020000  0.21990000  0.10570000  1.0 0.1222333716
H  H177  1  0.39430000  0.28010000  0.41980000  1.0 0.1222333716
H  H178  1  0.28010000  0.36030000  0.88580000  1.0 0.1222333716
H  H179  1  0.36030000  0.97450000  0.08020000  1.0 0.1222333716
H  H180  1  0.97450000  0.39430000  0.61420000  1.0 0.1222333716
H  H181  1  0.10570000  0.52550000  0.88580000  1.0 0.1222333716
H  H182  1  0.52550000  0.13970000  0.41980000  1.0 0.1222333716
H  H183  1  0.13970000  0.21990000  0.61420000  1.0 0.1222333716
H  H184  1  0.21990000  0.10570000  0.08020000  1.0 0.1222333716
H  H185  1  0.41980000  0.39430000  0.28010000  1.0 0.1222333716
H  H186  1  0.10570000  0.08020000  0.21990000  1.0 0.1222333716
H  H187  1  0.39430000  0.61420000  0.97450000  1.0 0.1222333716
H  H188  1  0.36030000  0.88580000  0.28010000  1.0 0.1222333716
H  H189  1  0.13970000  0.41980000  0.52550000  1.0 0.1222333716
H  H190  1  0.08020000  0.36030000  0.97450000  1.0 0.1222333716
H  H191  1  0.61420000  0.13970000  0.21990000  1.0 0.1222333716
H  H192  1  0.88580000  0.10570000  0.52550000  1.0 0.1222333716
H  H193  1  0.70320000  0.48640000  0.59360000  1.0 0.1222333716
H  H194  1  0.48640000  0.39280000  0.78320000  1.0 0.1222333716
H  H195  1  0.39280000  0.10960000  0.90640000  1.0 0.1222333716
H  H196  1  0.10960000  0.70320000  0.71680000  1.0 0.1222333716
H  H197  1  0.79680000  0.39040000  0.78320000  1.0 0.1222333716
H  H198  1  0.39040000  0.10720000  0.59360000  1.0 0.1222333716
H  H199  1  0.10720000  0.01360000  0.71680000  1.0 0.1222333716
H  H200  1  0.01360000  0.79680000  0.90640000  1.0 0.1222333716
H  H201  1  0.59360000  0.70320000  0.48640000  1.0 0.1222333716
H  H202  1  0.70320000  0.71680000  0.10960000  1.0 0.1222333716
H  H203  1  0.71680000  0.10720000  0.01360000  1.0 0.1222333716
H  H204  1  0.10720000  0.59360000  0.39040000  1.0 0.1222333716
H  H205  1  0.90640000  0.39280000  0.10960000  1.0 0.1222333716
H  H206  1  0.39280000  0.78320000  0.48640000  1.0 0.1222333716
H  H207  1  0.78320000  0.79680000  0.39040000  1.0 0.1222333716
H  H208  1  0.79680000  0.90640000  0.01360000  1.0 0.1222333716
H  H209  1  0.48640000  0.59360000  0.70320000  1.0 0.1222333716
H  H210  1  0.90640000  0.01360000  0.79680000  1.0 0.1222333716
H  H211  1  0.59360000  0.39040000  0.10720000  1.0 0.1222333716
H  H212  1  0.71680000  0.10960000  0.70320000  1.0 0.1222333716
H  H213  1  0.78320000  0.48640000  0.39280000  1.0 0.1222333716
H  H214  1  0.01360000  0.71680000  0.10720000  1.0 0.1222333716
H  H215  1  0.39040000  0.78320000  0.79680000  1.0 0.1222333716
H  H216  1  0.10960000  0.90640000  0.39280000  1.0 0.1222333716
H  H217  1  0.29680000  0.51360000  0.40640000  1.0 0.1222333716
H  H218  1  0.51360000  0.60720000  0.21680000  1.0 0.1222333716
H  H219  1  0.60720000  0.89040000  0.09360000  1.0 0.1222333716
H  H220  1  0.89040000  0.29680000  0.28320000  1.0 0.1222333716
H  H221  1  0.20320000  0.60960000  0.21680000  1.0 0.1222333716
H  H222  1  0.60960000  0.89280000  0.40640000  1.0 0.1222333716
H  H223  1  0.89280000  0.98640000  0.28320000  1.0 0.1222333716
H  H224  1  0.98640000  0.20320000  0.09360000  1.0 0.1222333716
H  H225  1  0.40640000  0.29680000  0.51360000  1.0 0.1222333716
H  H226  1  0.29680000  0.28320000  0.89040000  1.0 0.1222333716
H  H227  1  0.28320000  0.89280000  0.98640000  1.0 0.1222333716
H  H228  1  0.89280000  0.40640000  0.60960000  1.0 0.1222333716
H  H229  1  0.09360000  0.60720000  0.89040000  1.0 0.1222333716
H  H230  1  0.60720000  0.21680000  0.51360000  1.0 0.1222333716
H  H231  1  0.21680000  0.20320000  0.60960000  1.0 0.1222333716
H  H232  1  0.20320000  0.09360000  0.98640000  1.0 0.1222333716
H  H233  1  0.51360000  0.40640000  0.29680000  1.0 0.1222333716
H  H234  1  0.09360000  0.98640000  0.20320000  1.0 0.1222333716
H  H235  1  0.40640000  0.60960000  0.89280000  1.0 0.1222333716
H  H236  1  0.28320000  0.89040000  0.29680000  1.0 0.1222333716
H  H237  1  0.21680000  0.51360000  0.60720000  1.0 0.1222333716
H  H238  1  0.98640000  0.28320000  0.89280000  1.0 0.1222333716
H  H239  1  0.60960000  0.21680000  0.20320000  1.0 0.1222333716
H  H240  1  0.89040000  0.09360000  0.60720000  1.0 0.1222333716
H  H241  1  0.67990000  0.26160000  0.64710000  1.0 0.1312341493
H  H242  1  0.26160000  0.11450000  0.58170000  1.0 0.1312341493
H  H243  1  0.11450000  0.03280000  0.85290000  1.0 0.1312341493
H  H244  1  0.03280000  0.67990000  0.91830000  1.0 0.1312341493
H  H245  1  0.82010000  0.46720000  0.58170000  1.0 0.1312341493
H  H246  1  0.46720000  0.38550000  0.64710000  1.0 0.1312341493
H  H247  1  0.38550000  0.23840000  0.91830000  1.0 0.1312341493
H  H248  1  0.23840000  0.82010000  0.85290000  1.0 0.1312341493
H  H249  1  0.64710000  0.67990000  0.26160000  1.0 0.1312341493
H  H250  1  0.67990000  0.91830000  0.03280000  1.0 0.1312341493
H  H251  1  0.91830000  0.38550000  0.23840000  1.0 0.1312341493
H  H252  1  0.38550000  0.64710000  0.46720000  1.0 0.1312341493
H  H253  1  0.85290000  0.11450000  0.03280000  1.0 0.1312341493
H  H254  1  0.11450000  0.58170000  0.26160000  1.0 0.1312341493
H  H255  1  0.58170000  0.82010000  0.46720000  1.0 0.1312341493
H  H256  1  0.82010000  0.85290000  0.23840000  1.0 0.1312341493
H  H257  1  0.26160000  0.64710000  0.67990000  1.0 0.1312341493
H  H258  1  0.85290000  0.23840000  0.82010000  1.0 0.1312341493
H  H259  1  0.64710000  0.46720000  0.38550000  1.0 0.1312341493
H  H260  1  0.91830000  0.03280000  0.67990000  1.0 0.1312341493
H  H261  1  0.58170000  0.26160000  0.11450000  1.0 0.1312341493
H  H262  1  0.23840000  0.91830000  0.38550000  1.0 0.1312341493
H  H263  1  0.46720000  0.58170000  0.82010000  1.0 0.1312341493
H  H264  1  0.03280000  0.85290000  0.11450000  1.0 0.1312341493
H  H265  1  0.32010000  0.73840000  0.35290000  1.0 0.1312341493
H  H266  1  0.73840000  0.88550000  0.41830000  1.0 0.1312341493
H  H267  1  0.88550000  0.96720000  0.14710000  1.0 0.1312341493
H  H268  1  0.96720000  0.32010000  0.08170000  1.0 0.1312341493
H  H269  1  0.17990000  0.53280000  0.41830000  1.0 0.1312341493
H  H270  1  0.53280000  0.61450000  0.35290000  1.0 0.1312341493
H  H271  1  0.61450000  0.76160000  0.08170000  1.0 0.1312341493
H  H272  1  0.76160000  0.17990000  0.14710000  1.0 0.1312341493
H  H273  1  0.35290000  0.32010000  0.73840000  1.0 0.1312341493
H  H274  1  0.32010000  0.08170000  0.96720000  1.0 0.1312341493
H  H275  1  0.08170000  0.61450000  0.76160000  1.0 0.1312341493
H  H276  1  0.61450000  0.35290000  0.53280000  1.0 0.1312341493
H  H277  1  0.14710000  0.88550000  0.96720000  1.0 0.1312341493
H  H278  1  0.88550000  0.41830000  0.73840000  1.0 0.1312341493
H  H279  1  0.41830000  0.17990000  0.53280000  1.0 0.1312341493
H  H280  1  0.17990000  0.14710000  0.76160000  1.0 0.1312341493
H  H281  1  0.73840000  0.35290000  0.32010000  1.0 0.1312341493
H  H282  1  0.14710000  0.76160000  0.17990000  1.0 0.1312341493
H  H283  1  0.35290000  0.53280000  0.61450000  1.0 0.1312341493
H  H284  1  0.08170000  0.96720000  0.32010000  1.0 0.1312341493
H  H285  1  0.41830000  0.73840000  0.88550000  1.0 0.1312341493
H  H286  1  0.76160000  0.08170000  0.61450000  1.0 0.1312341493
H  H287  1  0.53280000  0.41830000  0.17990000  1.0 0.1312341493
H  H288  1  0.96720000  0.14710000  0.88550000  1.0 0.1312341493
H  H289  1  0.63530000  0.27100000  0.71230000  1.0 0.1312341493
H  H290  1  0.27100000  0.05870000  0.63570000  1.0 0.1312341493
H  H291  1  0.05870000  0.92300000  0.78770000  1.0 0.1312341493
H  H292  1  0.92300000  0.63530000  0.86430000  1.0 0.1312341493
H  H293  1  0.86470000  0.57700000  0.63570000  1.0 0.1312341493
H  H294  1  0.57700000  0.44130000  0.71230000  1.0 0.1312341493
H  H295  1  0.44130000  0.22900000  0.86430000  1.0 0.1312341493
H  H296  1  0.22900000  0.86470000  0.78770000  1.0 0.1312341493
H  H297  1  0.71230000  0.63530000  0.27100000  1.0 0.1312341493
H  H298  1  0.63530000  0.86430000  0.92300000  1.0 0.1312341493
H  H299  1  0.86430000  0.44130000  0.22900000  1.0 0.1312341493
H  H300  1  0.44130000  0.71230000  0.57700000  1.0 0.1312341493
H  H301  1  0.78770000  0.05870000  0.92300000  1.0 0.1312341493
H  H302  1  0.05870000  0.63570000  0.27100000  1.0 0.1312341493
H  H303  1  0.63570000  0.86470000  0.57700000  1.0 0.1312341493
H  H304  1  0.86470000  0.78770000  0.22900000  1.0 0.1312341493
H  H305  1  0.27100000  0.71230000  0.63530000  1.0 0.1312341493
H  H306  1  0.78770000  0.22900000  0.86470000  1.0 0.1312341493
H  H307  1  0.71230000  0.57700000  0.44130000  1.0 0.1312341493
H  H308  1  0.86430000  0.92300000  0.63530000  1.0 0.1312341493
H  H309  1  0.63570000  0.27100000  0.05870000  1.0 0.1312341493
H  H310  1  0.22900000  0.86430000  0.44130000  1.0 0.1312341493
H  H311  1  0.57700000  0.63570000  0.86470000  1.0 0.1312341493
H  H312  1  0.92300000  0.78770000  0.05870000  1.0 0.1312341493
H  H313  1  0.36470000  0.72900000  0.28770000  1.0 0.1312341493
H  H314  1  0.72900000  0.94130000  0.36430000  1.0 0.1312341493
H  H315  1  0.94130000  0.07700000  0.21230000  1.0 0.1312341493
H  H316  1  0.07700000  0.36470000  0.13570000  1.0 0.1312341493
H  H317  1  0.13530000  0.42300000  0.36430000  1.0 0.1312341493
H  H318  1  0.42300000  0.55870000  0.28770000  1.0 0.1312341493
H  H319  1  0.55870000  0.77100000  0.13570000  1.0 0.1312341493
H  H320  1  0.77100000  0.13530000  0.21230000  1.0 0.1312341493
H  H321  1  0.28770000  0.36470000  0.72900000  1.0 0.1312341493
H  H322  1  0.36470000  0.13570000  0.07700000  1.0 0.1312341493
H  H323  1  0.13570000  0.55870000  0.77100000  1.0 0.1312341493
H  H324  1  0.55870000  0.28770000  0.42300000  1.0 0.1312341493
H  H325  1  0.21230000  0.94130000  0.07700000  1.0 0.1312341493
H  H326  1  0.94130000  0.36430000  0.72900000  1.0 0.1312341493
H  H327  1  0.36430000  0.13530000  0.42300000  1.0 0.1312341493
H  H328  1  0.13530000  0.21230000  0.77100000  1.0 0.1312341493
H  H329  1  0.72900000  0.28770000  0.36470000  1.0 0.1312341493
H  H330  1  0.21230000  0.77100000  0.13530000  1.0 0.1312341493
H  H331  1  0.28770000  0.42300000  0.55870000  1.0 0.1312341493
H  H332  1  0.13570000  0.07700000  0.36470000  1.0 0.1312341493
H  H333  1  0.36430000  0.72900000  0.94130000  1.0 0.1312341493
H  H334  1  0.77100000  0.13570000  0.55870000  1.0 0.1312341493
H  H335  1  0.42300000  0.36430000  0.13530000  1.0 0.1312341493
H  H336  1  0.07700000  0.21230000  0.94130000  1.0 0.1312341493
H  H337  1  0.65140000  0.41770000  0.77430000  1.0 0.1369626399
H  H338  1  0.41770000  0.14340000  0.76630000  1.0 0.1369626399
H  H339  1  0.14340000  0.87710000  0.72570000  1.0 0.1369626399
H  H340  1  0.87710000  0.65140000  0.73370000  1.0 0.1369626399
H  H341  1  0.84860000  0.62290000  0.76630000  1.0 0.1369626399
H  H342  1  0.62290000  0.35660000  0.77430000  1.0 0.1369626399
H  H343  1  0.35660000  0.08230000  0.73370000  1.0 0.1369626399
H  H344  1  0.08230000  0.84860000  0.72570000  1.0 0.1369626399
H  H345  1  0.77430000  0.65140000  0.41770000  1.0 0.1369626399
H  H346  1  0.65140000  0.73370000  0.87710000  1.0 0.1369626399
H  H347  1  0.73370000  0.35660000  0.08230000  1.0 0.1369626399
H  H348  1  0.35660000  0.77430000  0.62290000  1.0 0.1369626399
H  H349  1  0.72570000  0.14340000  0.87710000  1.0 0.1369626399
H  H350  1  0.14340000  0.76630000  0.41770000  1.0 0.1369626399
H  H351  1  0.76630000  0.84860000  0.62290000  1.0 0.1369626399
H  H352  1  0.84860000  0.72570000  0.08230000  1.0 0.1369626399
H  H353  1  0.41770000  0.77430000  0.65140000  1.0 0.1369626399
H  H354  1  0.72570000  0.08230000  0.84860000  1.0 0.1369626399
H  H355  1  0.77430000  0.62290000  0.35660000  1.0 0.1369626399
H  H356  1  0.73370000  0.87710000  0.65140000  1.0 0.1369626399
H  H357  1  0.76630000  0.41770000  0.14340000  1.0 0.1369626399
H  H358  1  0.08230000  0.73370000  0.35660000  1.0 0.1369626399
H  H359  1  0.62290000  0.76630000  0.84860000  1.0 0.1369626399
H  H360  1  0.87710000  0.72570000  0.14340000  1.0 0.1369626399
H  H361  1  0.34860000  0.58230000  0.22570000  1.0 0.1369626399
H  H362  1  0.58230000  0.85660000  0.23370000  1.0 0.1369626399
H  H363  1  0.85660000  0.12290000  0.27430000  1.0 0.1369626399
H  H364  1  0.12290000  0.34860000  0.26630000  1.0 0.1369626399
H  H365  1  0.15140000  0.37710000  0.23370000  1.0 0.1369626399
H  H366  1  0.37710000  0.64340000  0.22570000  1.0 0.1369626399
H  H367  1  0.64340000  0.91770000  0.26630000  1.0 0.1369626399
H  H368  1  0.91770000  0.15140000  0.27430000  1.0 0.1369626399
H  H369  1  0.22570000  0.34860000  0.58230000  1.0 0.1369626399
H  H370  1  0.34860000  0.26630000  0.12290000  1.0 0.1369626399
H  H371  1  0.26630000  0.64340000  0.91770000  1.0 0.1369626399
H  H372  1  0.64340000  0.22570000  0.37710000  1.0 0.1369626399
H  H373  1  0.27430000  0.85660000  0.12290000  1.0 0.1369626399
H  H374  1  0.85660000  0.23370000  0.58230000  1.0 0.1369626399
H  H375  1  0.23370000  0.15140000  0.37710000  1.0 0.1369626399
H  H376  1  0.15140000  0.27430000  0.91770000  1.0 0.1369626399
H  H377  1  0.58230000  0.22570000  0.34860000  1.0 0.1369626399
H  H378  1  0.27430000  0.91770000  0.15140000  1.0 0.1369626399
H  H379  1  0.22570000  0.37710000  0.64340000  1.0 0.1369626399
H  H380  1  0.26630000  0.12290000  0.34860000  1.0 0.1369626399
H  H381  1  0.23370000  0.58230000  0.85660000  1.0 0.1369626399
H  H382  1  0.91770000  0.26630000  0.64340000  1.0 0.1369626399
H  H383  1  0.37710000  0.23370000  0.15140000  1.0 0.1369626399
H  H384  1  0.12290000  0.27430000  0.85660000  1.0 0.1369626399
C  C1  1  0.70522000  0.54209000  0.71967000  1.0 -0.1318068019
C  C2  1  0.54209000  0.32242000  0.83687000  1.0 -0.1318068019
C  C3  1  0.32242000  0.98555000  0.78033000  1.0 -0.1318068019
C  C4  1  0.98555000  0.70522000  0.66313000  1.0 -0.1318068019
C  C5  1  0.79478000  0.51445000  0.83687000  1.0 -0.1318068019
C  C6  1  0.51445000  0.17758000  0.71967000  1.0 -0.1318068019
C  C7  1  0.17758000  0.95791000  0.66313000  1.0 -0.1318068019
C  C8  1  0.95791000  0.79478000  0.78033000  1.0 -0.1318068019
C  C9  1  0.71967000  0.70522000  0.54209000  1.0 -0.1318068019
C  C10  1  0.70522000  0.66313000  0.98555000  1.0 -0.1318068019
C  C11  1  0.66313000  0.17758000  0.95791000  1.0 -0.1318068019
C  C12  1  0.17758000  0.71967000  0.51445000  1.0 -0.1318068019
C  C13  1  0.78033000  0.32242000  0.98555000  1.0 -0.1318068019
C  C14  1  0.32242000  0.83687000  0.54209000  1.0 -0.1318068019
C  C15  1  0.83687000  0.79478000  0.51445000  1.0 -0.1318068019
C  C16  1  0.79478000  0.78033000  0.95791000  1.0 -0.1318068019
C  C17  1  0.54209000  0.71967000  0.70522000  1.0 -0.1318068019
C  C18  1  0.78033000  0.95791000  0.79478000  1.0 -0.1318068019
C  C19  1  0.71967000  0.51445000  0.17758000  1.0 -0.1318068019
C  C20  1  0.66313000  0.98555000  0.70522000  1.0 -0.1318068019
C  C21  1  0.83687000  0.54209000  0.32242000  1.0 -0.1318068019
C  C22  1  0.95791000  0.66313000  0.17758000  1.0 -0.1318068019
C  C23  1  0.51445000  0.83687000  0.79478000  1.0 -0.1318068019
C  C24  1  0.98555000  0.78033000  0.32242000  1.0 -0.1318068019
C  C25  1  0.29478000  0.45791000  0.28033000  1.0 -0.1318068019
C  C26  1  0.45791000  0.67758000  0.16313000  1.0 -0.1318068019
C  C27  1  0.67758000  0.01445000  0.21967000  1.0 -0.1318068019
C  C28  1  0.01445000  0.29478000  0.33687000  1.0 -0.1318068019
C  C29  1  0.20522000  0.48555000  0.16313000  1.0 -0.1318068019
C  C30  1  0.48555000  0.82242000  0.28033000  1.0 -0.1318068019
C  C31  1  0.82242000  0.04209000  0.33687000  1.0 -0.1318068019
C  C32  1  0.04209000  0.20522000  0.21967000  1.0 -0.1318068019
C  C33  1  0.28033000  0.29478000  0.45791000  1.0 -0.1318068019
C  C34  1  0.29478000  0.33687000  0.01445000  1.0 -0.1318068019
C  C35  1  0.33687000  0.82242000  0.04209000  1.0 -0.1318068019
C  C36  1  0.82242000  0.28033000  0.48555000  1.0 -0.1318068019
C  C37  1  0.21967000  0.67758000  0.01445000  1.0 -0.1318068019
C  C38  1  0.67758000  0.16313000  0.45791000  1.0 -0.1318068019
C  C39  1  0.16313000  0.20522000  0.48555000  1.0 -0.1318068019
C  C40  1  0.20522000  0.21967000  0.04209000  1.0 -0.1318068019
C  C41  1  0.45791000  0.28033000  0.29478000  1.0 -0.1318068019
C  C42  1  0.21967000  0.04209000  0.20522000  1.0 -0.1318068019
C  C43  1  0.28033000  0.48555000  0.82242000  1.0 -0.1318068019
C  C44  1  0.33687000  0.01445000  0.29478000  1.0 -0.1318068019
C  C45  1  0.16313000  0.45791000  0.67758000  1.0 -0.1318068019
C  C46  1  0.04209000  0.33687000  0.82242000  1.0 -0.1318068019
C  C47  1  0.48555000  0.16313000  0.20522000  1.0 -0.1318068019
C  C48  1  0.01445000  0.21967000  0.67758000  1.0 -0.1318068019
C  C49  1  0.71620000  0.59780000  0.72740000  1.0 -0.0703047499
C  C50  1  0.59780000  0.37040000  0.88160000  1.0 -0.0703047499
C  C51  1  0.37040000  0.98880000  0.77260000  1.0 -0.0703047499
C  C52  1  0.98880000  0.71620000  0.61840000  1.0 -0.0703047499
C  C53  1  0.78380000  0.51120000  0.88160000  1.0 -0.0703047499
C  C54  1  0.51120000  0.12960000  0.72740000  1.0 -0.0703047499
C  C55  1  0.12960000  0.90220000  0.61840000  1.0 -0.0703047499
C  C56  1  0.90220000  0.78380000  0.77260000  1.0 -0.0703047499
C  C57  1  0.72740000  0.71620000  0.59780000  1.0 -0.0703047499
C  C58  1  0.71620000  0.61840000  0.98880000  1.0 -0.0703047499
C  C59  1  0.61840000  0.12960000  0.90220000  1.0 -0.0703047499
C  C60  1  0.12960000  0.72740000  0.51120000  1.0 -0.0703047499
C  C61  1  0.77260000  0.37040000  0.98880000  1.0 -0.0703047499
C  C62  1  0.37040000  0.88160000  0.59780000  1.0 -0.0703047499
C  C63  1  0.88160000  0.78380000  0.51120000  1.0 -0.0703047499
C  C64  1  0.78380000  0.77260000  0.90220000  1.0 -0.0703047499
C  C65  1  0.59780000  0.72740000  0.71620000  1.0 -0.0703047499
C  C66  1  0.77260000  0.90220000  0.78380000  1.0 -0.0703047499
C  C67  1  0.72740000  0.51120000  0.12960000  1.0 -0.0703047499
C  C68  1  0.61840000  0.98880000  0.71620000  1.0 -0.0703047499
C  C69  1  0.88160000  0.59780000  0.37040000  1.0 -0.0703047499
C  C70  1  0.90220000  0.61840000  0.12960000  1.0 -0.0703047499
C  C71  1  0.51120000  0.88160000  0.78380000  1.0 -0.0703047499
C  C72  1  0.98880000  0.77260000  0.37040000  1.0 -0.0703047499
C  C73  1  0.28380000  0.40220000  0.27260000  1.0 -0.0703047499
C  C74  1  0.40220000  0.62960000  0.11840000  1.0 -0.0703047499
C  C75  1  0.62960000  0.01120000  0.22740000  1.0 -0.0703047499
C  C76  1  0.01120000  0.28380000  0.38160000  1.0 -0.0703047499
C  C77  1  0.21620000  0.48880000  0.11840000  1.0 -0.0703047499
C  C78  1  0.48880000  0.87040000  0.27260000  1.0 -0.0703047499
C  C79  1  0.87040000  0.09780000  0.38160000  1.0 -0.0703047499
C  C80  1  0.09780000  0.21620000  0.22740000  1.0 -0.0703047499
C  C81  1  0.27260000  0.28380000  0.40220000  1.0 -0.0703047499
C  C82  1  0.28380000  0.38160000  0.01120000  1.0 -0.0703047499
C  C83  1  0.38160000  0.87040000  0.09780000  1.0 -0.0703047499
C  C84  1  0.87040000  0.27260000  0.48880000  1.0 -0.0703047499
C  C85  1  0.22740000  0.62960000  0.01120000  1.0 -0.0703047499
C  C86  1  0.62960000  0.11840000  0.40220000  1.0 -0.0703047499
C  C87  1  0.11840000  0.21620000  0.48880000  1.0 -0.0703047499
C  C88  1  0.21620000  0.22740000  0.09780000  1.0 -0.0703047499
C  C89  1  0.40220000  0.27260000  0.28380000  1.0 -0.0703047499
C  C90  1  0.22740000  0.09780000  0.21620000  1.0 -0.0703047499
C  C91  1  0.27260000  0.48880000  0.87040000  1.0 -0.0703047499
C  C92  1  0.38160000  0.01120000  0.28380000  1.0 -0.0703047499
C  C93  1  0.11840000  0.40220000  0.62960000  1.0 -0.0703047499
C  C94  1  0.09780000  0.38160000  0.87040000  1.0 -0.0703047499
C  C95  1  0.48880000  0.11840000  0.21620000  1.0 -0.0703047499
C  C96  1  0.01120000  0.22740000  0.62960000  1.0 -0.0703047499
C  C97  1  0.72190000  0.61170000  0.68520000  1.0 -0.0988959287
C  C98  1  0.61170000  0.42650000  0.88980000  1.0 -0.0988959287
C  C99  1  0.42650000  0.03670000  0.81480000  1.0 -0.0988959287
C  C100  1  0.03670000  0.72190000  0.61020000  1.0 -0.0988959287
C  C101  1  0.77810000  0.46330000  0.88980000  1.0 -0.0988959287
C  C102  1  0.46330000  0.07350000  0.68520000  1.0 -0.0988959287
C  C103  1  0.07350000  0.88830000  0.61020000  1.0 -0.0988959287
C  C104  1  0.88830000  0.77810000  0.81480000  1.0 -0.0988959287
C  C105  1  0.68520000  0.72190000  0.61170000  1.0 -0.0988959287
C  C106  1  0.72190000  0.61020000  0.03670000  1.0 -0.0988959287
C  C107  1  0.61020000  0.07350000  0.88830000  1.0 -0.0988959287
C  C108  1  0.07350000  0.68520000  0.46330000  1.0 -0.0988959287
C  C109  1  0.81480000  0.42650000  0.03670000  1.0 -0.0988959287
C  C110  1  0.42650000  0.88980000  0.61170000  1.0 -0.0988959287
C  C111  1  0.88980000  0.77810000  0.46330000  1.0 -0.0988959287
C  C112  1  0.77810000  0.81480000  0.88830000  1.0 -0.0988959287
C  C113  1  0.61170000  0.68520000  0.72190000  1.0 -0.0988959287
C  C114  1  0.81480000  0.88830000  0.77810000  1.0 -0.0988959287
C  C115  1  0.68520000  0.46330000  0.07350000  1.0 -0.0988959287
C  C116  1  0.61020000  0.03670000  0.72190000  1.0 -0.0988959287
C  C117  1  0.88980000  0.61170000  0.42650000  1.0 -0.0988959287
C  C118  1  0.88830000  0.61020000  0.07350000  1.0 -0.0988959287
C  C119  1  0.46330000  0.88980000  0.77810000  1.0 -0.0988959287
C  C120  1  0.03670000  0.81480000  0.42650000  1.0 -0.0988959287
C  C121  1  0.27810000  0.38830000  0.31480000  1.0 -0.0988959287
C  C122  1  0.38830000  0.57350000  0.11020000  1.0 -0.0988959287
C  C123  1  0.57350000  0.96330000  0.18520000  1.0 -0.0988959287
C  C124  1  0.96330000  0.27810000  0.38980000  1.0 -0.0988959287
C  C125  1  0.22190000  0.53670000  0.11020000  1.0 -0.0988959287
C  C126  1  0.53670000  0.92650000  0.31480000  1.0 -0.0988959287
C  C127  1  0.92650000  0.11170000  0.38980000  1.0 -0.0988959287
C  C128  1  0.11170000  0.22190000  0.18520000  1.0 -0.0988959287
C  C129  1  0.31480000  0.27810000  0.38830000  1.0 -0.0988959287
C  C130  1  0.27810000  0.38980000  0.96330000  1.0 -0.0988959287
C  C131  1  0.38980000  0.92650000  0.11170000  1.0 -0.0988959287
C  C132  1  0.92650000  0.31480000  0.53670000  1.0 -0.0988959287
C  C133  1  0.18520000  0.57350000  0.96330000  1.0 -0.0988959287
C  C134  1  0.57350000  0.11020000  0.38830000  1.0 -0.0988959287
C  C135  1  0.11020000  0.22190000  0.53670000  1.0 -0.0988959287
C  C136  1  0.22190000  0.18520000  0.11170000  1.0 -0.0988959287
C  C137  1  0.38830000  0.31480000  0.27810000  1.0 -0.0988959287
C  C138  1  0.18520000  0.11170000  0.22190000  1.0 -0.0988959287
C  C139  1  0.31480000  0.53670000  0.92650000  1.0 -0.0988959287
C  C140  1  0.38980000  0.96330000  0.27810000  1.0 -0.0988959287
C  C141  1  0.11020000  0.38830000  0.57350000  1.0 -0.0988959287
C  C142  1  0.11170000  0.38980000  0.92650000  1.0 -0.0988959287
C  C143  1  0.53670000  0.11020000  0.22190000  1.0 -0.0988959287
C  C144  1  0.96330000  0.18520000  0.57350000  1.0 -0.0988959287
C  C145  1  0.71650000  0.57040000  0.63470000  1.0 -0.0703047499
C  C146  1  0.57040000  0.43570000  0.85390000  1.0 -0.0703047499
C  C147  1  0.43570000  0.08180000  0.86530000  1.0 -0.0703047499
C  C148  1  0.08180000  0.71650000  0.64610000  1.0 -0.0703047499
C  C149  1  0.78350000  0.41820000  0.85390000  1.0 -0.0703047499
C  C150  1  0.41820000  0.06430000  0.63470000  1.0 -0.0703047499
C  C151  1  0.06430000  0.92960000  0.64610000  1.0 -0.0703047499
C  C152  1  0.92960000  0.78350000  0.86530000  1.0 -0.0703047499
C  C153  1  0.63470000  0.71650000  0.57040000  1.0 -0.0703047499
C  C154  1  0.71650000  0.64610000  0.08180000  1.0 -0.0703047499
C  C155  1  0.64610000  0.06430000  0.92960000  1.0 -0.0703047499
C  C156  1  0.06430000  0.63470000  0.41820000  1.0 -0.0703047499
C  C157  1  0.86530000  0.43570000  0.08180000  1.0 -0.0703047499
C  C158  1  0.43570000  0.85390000  0.57040000  1.0 -0.0703047499
C  C159  1  0.85390000  0.78350000  0.41820000  1.0 -0.0703047499
C  C160  1  0.78350000  0.86530000  0.92960000  1.0 -0.0703047499
C  C161  1  0.57040000  0.63470000  0.71650000  1.0 -0.0703047499
C  C162  1  0.86530000  0.92960000  0.78350000  1.0 -0.0703047499
C  C163  1  0.63470000  0.41820000  0.06430000  1.0 -0.0703047499
C  C164  1  0.64610000  0.08180000  0.71650000  1.0 -0.0703047499
C  C165  1  0.85390000  0.57040000  0.43570000  1.0 -0.0703047499
C  C166  1  0.92960000  0.64610000  0.06430000  1.0 -0.0703047499
C  C167  1  0.41820000  0.85390000  0.78350000  1.0 -0.0703047499
C  C168  1  0.08180000  0.86530000  0.43570000  1.0 -0.0703047499
C  C169  1  0.28350000  0.42960000  0.36530000  1.0 -0.0703047499
C  C170  1  0.42960000  0.56430000  0.14610000  1.0 -0.0703047499
C  C171  1  0.56430000  0.91820000  0.13470000  1.0 -0.0703047499
C  C172  1  0.91820000  0.28350000  0.35390000  1.0 -0.0703047499
C  C173  1  0.21650000  0.58180000  0.14610000  1.0 -0.0703047499
C  C174  1  0.58180000  0.93570000  0.36530000  1.0 -0.0703047499
C  C175  1  0.93570000  0.07040000  0.35390000  1.0 -0.0703047499
C  C176  1  0.07040000  0.21650000  0.13470000  1.0 -0.0703047499
C  C177  1  0.36530000  0.28350000  0.42960000  1.0 -0.0703047499
C  C178  1  0.28350000  0.35390000  0.91820000  1.0 -0.0703047499
C  C179  1  0.35390000  0.93570000  0.07040000  1.0 -0.0703047499
C  C180  1  0.93570000  0.36530000  0.58180000  1.0 -0.0703047499
C  C181  1  0.13470000  0.56430000  0.91820000  1.0 -0.0703047499
C  C182  1  0.56430000  0.14610000  0.42960000  1.0 -0.0703047499
C  C183  1  0.14610000  0.21650000  0.58180000  1.0 -0.0703047499
C  C184  1  0.21650000  0.13470000  0.07040000  1.0 -0.0703047499
C  C185  1  0.42960000  0.36530000  0.28350000  1.0 -0.0703047499
C  C186  1  0.13470000  0.07040000  0.21650000  1.0 -0.0703047499
C  C187  1  0.36530000  0.58180000  0.93570000  1.0 -0.0703047499
C  C188  1  0.35390000  0.91820000  0.28350000  1.0 -0.0703047499
C  C189  1  0.14610000  0.42960000  0.56430000  1.0 -0.0703047499
C  C190  1  0.07040000  0.35390000  0.93570000  1.0 -0.0703047499
C  C191  1  0.58180000  0.14610000  0.21650000  1.0 -0.0703047499
C  C192  1  0.91820000  0.13470000  0.56430000  1.0 -0.0703047499
C  C193  1  0.70605000  0.51475000  0.62730000  1.0 -0.153695695
C  C194  1  0.51475000  0.38745000  0.80870000  1.0 -0.153695695
C  C195  1  0.38745000  0.07875000  0.87270000  1.0 -0.153695695
C  C196  1  0.07875000  0.70605000  0.69130000  1.0 -0.153695695
C  C197  1  0.79395000  0.42125000  0.80870000  1.0 -0.153695695
C  C198  1  0.42125000  0.11255000  0.62730000  1.0 -0.153695695
C  C199  1  0.11255000  0.98525000  0.69130000  1.0 -0.153695695
C  C200  1  0.98525000  0.79395000  0.87270000  1.0 -0.153695695
C  C201  1  0.62730000  0.70605000  0.51475000  1.0 -0.153695695
C  C202  1  0.70605000  0.69130000  0.07875000  1.0 -0.153695695
C  C203  1  0.69130000  0.11255000  0.98525000  1.0 -0.153695695
C  C204  1  0.11255000  0.62730000  0.42125000  1.0 -0.153695695
C  C205  1  0.87270000  0.38745000  0.07875000  1.0 -0.153695695
C  C206  1  0.38745000  0.80870000  0.51475000  1.0 -0.153695695
C  C207  1  0.80870000  0.79395000  0.42125000  1.0 -0.153695695
C  C208  1  0.79395000  0.87270000  0.98525000  1.0 -0.153695695
C  C209  1  0.51475000  0.62730000  0.70605000  1.0 -0.153695695
C  C210  1  0.87270000  0.98525000  0.79395000  1.0 -0.153695695
C  C211  1  0.62730000  0.42125000  0.11255000  1.0 -0.153695695
C  C212  1  0.69130000  0.07875000  0.70605000  1.0 -0.153695695
C  C213  1  0.80870000  0.51475000  0.38745000  1.0 -0.153695695
C  C214  1  0.98525000  0.69130000  0.11255000  1.0 -0.153695695
C  C215  1  0.42125000  0.80870000  0.79395000  1.0 -0.153695695
C  C216  1  0.07875000  0.87270000  0.38745000  1.0 -0.153695695
C  C217  1  0.29395000  0.48525000  0.37270000  1.0 -0.153695695
C  C218  1  0.48525000  0.61255000  0.19130000  1.0 -0.153695695
C  C219  1  0.61255000  0.92125000  0.12730000  1.0 -0.153695695
C  C220  1  0.92125000  0.29395000  0.30870000  1.0 -0.153695695
C  C221  1  0.20605000  0.57875000  0.19130000  1.0 -0.153695695
C  C222  1  0.57875000  0.88745000  0.37270000  1.0 -0.153695695
C  C223  1  0.88745000  0.01475000  0.30870000  1.0 -0.153695695
C  C224  1  0.01475000  0.20605000  0.12730000  1.0 -0.153695695
C  C225  1  0.37270000  0.29395000  0.48525000  1.0 -0.153695695
C  C226  1  0.29395000  0.30870000  0.92125000  1.0 -0.153695695
C  C227  1  0.30870000  0.88745000  0.01475000  1.0 -0.153695695
C  C228  1  0.88745000  0.37270000  0.57875000  1.0 -0.153695695
C  C229  1  0.12730000  0.61255000  0.92125000  1.0 -0.153695695
C  C230  1  0.61255000  0.19130000  0.48525000  1.0 -0.153695695
C  C231  1  0.19130000  0.20605000  0.57875000  1.0 -0.153695695
C  C232  1  0.20605000  0.12730000  0.01475000  1.0 -0.153695695
C  C233  1  0.48525000  0.37270000  0.29395000  1.0 -0.153695695
C  C234  1  0.12730000  0.01475000  0.20605000  1.0 -0.153695695
C  C235  1  0.37270000  0.57875000  0.88745000  1.0 -0.153695695
C  C236  1  0.30870000  0.92125000  0.29395000  1.0 -0.153695695
C  C237  1  0.19130000  0.48525000  0.61255000  1.0 -0.153695695
C  C238  1  0.01475000  0.30870000  0.88745000  1.0 -0.153695695
C  C239  1  0.57875000  0.19130000  0.20605000  1.0 -0.153695695
C  C240  1  0.92125000  0.12730000  0.61255000  1.0 -0.153695695
C  C241  1  0.70003000  0.50144000  0.66939000  1.0 0.1590114275
C  C242  1  0.50144000  0.33205000  0.80141000  1.0 0.1590114275
C  C243  1  0.33205000  0.03064000  0.83061000  1.0 0.1590114275
C  C244  1  0.03064000  0.70003000  0.69859000  1.0 0.1590114275
C  C245  1  0.79997000  0.46936000  0.80141000  1.0 0.1590114275
C  C246  1  0.46936000  0.16795000  0.66939000  1.0 0.1590114275
C  C247  1  0.16795000  0.99856000  0.69859000  1.0 0.1590114275
C  C248  1  0.99856000  0.79997000  0.83061000  1.0 0.1590114275
C  C249  1  0.66939000  0.70003000  0.50144000  1.0 0.1590114275
C  C250  1  0.70003000  0.69859000  0.03064000  1.0 0.1590114275
C  C251  1  0.69859000  0.16795000  0.99856000  1.0 0.1590114275
C  C252  1  0.16795000  0.66939000  0.46936000  1.0 0.1590114275
C  C253  1  0.83061000  0.33205000  0.03064000  1.0 0.1590114275
C  C254  1  0.33205000  0.80141000  0.50144000  1.0 0.1590114275
C  C255  1  0.80141000  0.79997000  0.46936000  1.0 0.1590114275
C  C256  1  0.79997000  0.83061000  0.99856000  1.0 0.1590114275
C  C257  1  0.50144000  0.66939000  0.70003000  1.0 0.1590114275
C  C258  1  0.83061000  0.99856000  0.79997000  1.0 0.1590114275
C  C259  1  0.66939000  0.46936000  0.16795000  1.0 0.1590114275
C  C260  1  0.69859000  0.03064000  0.70003000  1.0 0.1590114275
C  C261  1  0.80141000  0.50144000  0.33205000  1.0 0.1590114275
C  C262  1  0.99856000  0.69859000  0.16795000  1.0 0.1590114275
C  C263  1  0.46936000  0.80141000  0.79997000  1.0 0.1590114275
C  C264  1  0.03064000  0.83061000  0.33205000  1.0 0.1590114275
C  C265  1  0.29997000  0.49856000  0.33061000  1.0 0.1590114275
C  C266  1  0.49856000  0.66795000  0.19859000  1.0 0.1590114275
C  C267  1  0.66795000  0.96936000  0.16939000  1.0 0.1590114275
C  C268  1  0.96936000  0.29997000  0.30141000  1.0 0.1590114275
C  C269  1  0.20003000  0.53064000  0.19859000  1.0 0.1590114275
C  C270  1  0.53064000  0.83205000  0.33061000  1.0 0.1590114275
C  C271  1  0.83205000  0.00144000  0.30141000  1.0 0.1590114275
C  C272  1  0.00144000  0.20003000  0.16939000  1.0 0.1590114275
C  C273  1  0.33061000  0.29997000  0.49856000  1.0 0.1590114275
C  C274  1  0.29997000  0.30141000  0.96936000  1.0 0.1590114275
C  C275  1  0.30141000  0.83205000  0.00144000  1.0 0.1590114275
C  C276  1  0.83205000  0.33061000  0.53064000  1.0 0.1590114275
C  C277  1  0.16939000  0.66795000  0.96936000  1.0 0.1590114275
C  C278  1  0.66795000  0.19859000  0.49856000  1.0 0.1590114275
C  C279  1  0.19859000  0.20003000  0.53064000  1.0 0.1590114275
C  C280  1  0.20003000  0.16939000  0.00144000  1.0 0.1590114275
C  C281  1  0.49856000  0.33061000  0.29997000  1.0 0.1590114275
C  C282  1  0.16939000  0.00144000  0.20003000  1.0 0.1590114275
C  C283  1  0.33061000  0.53064000  0.83205000  1.0 0.1590114275
C  C284  1  0.30141000  0.96936000  0.29997000  1.0 0.1590114275
C  C285  1  0.19859000  0.49856000  0.66795000  1.0 0.1590114275
C  C286  1  0.00144000  0.30141000  0.83205000  1.0 0.1590114275
C  C287  1  0.53064000  0.19859000  0.20003000  1.0 0.1590114275
C  C288  1  0.96936000  0.16939000  0.66795000  1.0 0.1590114275
C  C289  1  0.66950000  0.37390000  0.68422000  1.0 0.3099598817
C  C290  1  0.37390000  0.18968000  0.70440000  1.0 0.3099598817
C  C291  1  0.18968000  0.98528000  0.81578000  1.0 0.3099598817
C  C292  1  0.98528000  0.66950000  0.79560000  1.0 0.3099598817
C  C293  1  0.83050000  0.51472000  0.70440000  1.0 0.3099598817
C  C294  1  0.51472000  0.31032000  0.68422000  1.0 0.3099598817
C  C295  1  0.31032000  0.12610000  0.79560000  1.0 0.3099598817
C  C296  1  0.12610000  0.83050000  0.81578000  1.0 0.3099598817
C  C297  1  0.68422000  0.66950000  0.37390000  1.0 0.3099598817
C  C298  1  0.66950000  0.79560000  0.98528000  1.0 0.3099598817
C  C299  1  0.79560000  0.31032000  0.12610000  1.0 0.3099598817
C  C300  1  0.31032000  0.68422000  0.51472000  1.0 0.3099598817
C  C301  1  0.81578000  0.18968000  0.98528000  1.0 0.3099598817
C  C302  1  0.18968000  0.70440000  0.37390000  1.0 0.3099598817
C  C303  1  0.70440000  0.83050000  0.51472000  1.0 0.3099598817
C  C304  1  0.83050000  0.81578000  0.12610000  1.0 0.3099598817
C  C305  1  0.37390000  0.68422000  0.66950000  1.0 0.3099598817
C  C306  1  0.81578000  0.12610000  0.83050000  1.0 0.3099598817
C  C307  1  0.68422000  0.51472000  0.31032000  1.0 0.3099598817
C  C308  1  0.79560000  0.98528000  0.66950000  1.0 0.3099598817
C  C309  1  0.70440000  0.37390000  0.18968000  1.0 0.3099598817
C  C310  1  0.12610000  0.79560000  0.31032000  1.0 0.3099598817
C  C311  1  0.51472000  0.70440000  0.83050000  1.0 0.3099598817
C  C312  1  0.98528000  0.81578000  0.18968000  1.0 0.3099598817
C  C313  1  0.33050000  0.62610000  0.31578000  1.0 0.3099598817
C  C314  1  0.62610000  0.81032000  0.29560000  1.0 0.3099598817
C  C315  1  0.81032000  0.01472000  0.18422000  1.0 0.3099598817
C  C316  1  0.01472000  0.33050000  0.20440000  1.0 0.3099598817
C  C317  1  0.16950000  0.48528000  0.29560000  1.0 0.3099598817
C  C318  1  0.48528000  0.68968000  0.31578000  1.0 0.3099598817
C  C319  1  0.68968000  0.87390000  0.20440000  1.0 0.3099598817
C  C320  1  0.87390000  0.16950000  0.18422000  1.0 0.3099598817
C  C321  1  0.31578000  0.33050000  0.62610000  1.0 0.3099598817
C  C322  1  0.33050000  0.20440000  0.01472000  1.0 0.3099598817
C  C323  1  0.20440000  0.68968000  0.87390000  1.0 0.3099598817
C  C324  1  0.68968000  0.31578000  0.48528000  1.0 0.3099598817
C  C325  1  0.18422000  0.81032000  0.01472000  1.0 0.3099598817
C  C326  1  0.81032000  0.29560000  0.62610000  1.0 0.3099598817
C  C327  1  0.29560000  0.16950000  0.48528000  1.0 0.3099598817
C  C328  1  0.16950000  0.18422000  0.87390000  1.0 0.3099598817
C  C329  1  0.62610000  0.31578000  0.33050000  1.0 0.3099598817
C  C330  1  0.18422000  0.87390000  0.16950000  1.0 0.3099598817
C  C331  1  0.31578000  0.48528000  0.68968000  1.0 0.3099598817
C  C332  1  0.20440000  0.01472000  0.33050000  1.0 0.3099598817
C  C333  1  0.29560000  0.62610000  0.81032000  1.0 0.3099598817
C  C334  1  0.87390000  0.20440000  0.68968000  1.0 0.3099598817
C  C335  1  0.48528000  0.29560000  0.16950000  1.0 0.3099598817
C  C336  1  0.01472000  0.18422000  0.81032000  1.0 0.3099598817
C  C337  1  0.67311000  0.29325000  0.66336000  1.0 -0.0113855561
C  C338  1  0.29325000  0.12989000  0.62014000  1.0 -0.0113855561
C  C339  1  0.12989000  0.00975000  0.83664000  1.0 -0.0113855561
C  C340  1  0.00975000  0.67311000  0.87986000  1.0 -0.0113855561
C  C341  1  0.82689000  0.49025000  0.62014000  1.0 -0.0113855561
C  C342  1  0.49025000  0.37011000  0.66336000  1.0 -0.0113855561
C  C343  1  0.37011000  0.20675000  0.87986000  1.0 -0.0113855561
C  C344  1  0.20675000  0.82689000  0.83664000  1.0 -0.0113855561
C  C345  1  0.66336000  0.67311000  0.29325000  1.0 -0.0113855561
C  C346  1  0.67311000  0.87986000  0.00975000  1.0 -0.0113855561
C  C347  1  0.87986000  0.37011000  0.20675000  1.0 -0.0113855561
C  C348  1  0.37011000  0.66336000  0.49025000  1.0 -0.0113855561
C  C349  1  0.83664000  0.12989000  0.00975000  1.0 -0.0113855561
C  C350  1  0.12989000  0.62014000  0.29325000  1.0 -0.0113855561
C  C351  1  0.62014000  0.82689000  0.49025000  1.0 -0.0113855561
C  C352  1  0.82689000  0.83664000  0.20675000  1.0 -0.0113855561
C  C353  1  0.29325000  0.66336000  0.67311000  1.0 -0.0113855561
C  C354  1  0.83664000  0.20675000  0.82689000  1.0 -0.0113855561
C  C355  1  0.66336000  0.49025000  0.37011000  1.0 -0.0113855561
C  C356  1  0.87986000  0.00975000  0.67311000  1.0 -0.0113855561
C  C357  1  0.62014000  0.29325000  0.12989000  1.0 -0.0113855561
C  C358  1  0.20675000  0.87986000  0.37011000  1.0 -0.0113855561
C  C359  1  0.49025000  0.62014000  0.82689000  1.0 -0.0113855561
C  C360  1  0.00975000  0.83664000  0.12989000  1.0 -0.0113855561
C  C361  1  0.32689000  0.70675000  0.33664000  1.0 -0.0113855561
C  C362  1  0.70675000  0.87011000  0.37986000  1.0 -0.0113855561
C  C363  1  0.87011000  0.99025000  0.16336000  1.0 -0.0113855561
C  C364  1  0.99025000  0.32689000  0.12014000  1.0 -0.0113855561
C  C365  1  0.17311000  0.50975000  0.37986000  1.0 -0.0113855561
C  C366  1  0.50975000  0.62989000  0.33664000  1.0 -0.0113855561
C  C367  1  0.62989000  0.79325000  0.12014000  1.0 -0.0113855561
C  C368  1  0.79325000  0.17311000  0.16336000  1.0 -0.0113855561
C  C369  1  0.33664000  0.32689000  0.70675000  1.0 -0.0113855561
C  C370  1  0.32689000  0.12014000  0.99025000  1.0 -0.0113855561
C  C371  1  0.12014000  0.62989000  0.79325000  1.0 -0.0113855561
C  C372  1  0.62989000  0.33664000  0.50975000  1.0 -0.0113855561
C  C373  1  0.16336000  0.87011000  0.99025000  1.0 -0.0113855561
C  C374  1  0.87011000  0.37986000  0.70675000  1.0 -0.0113855561
C  C375  1  0.37986000  0.17311000  0.50975000  1.0 -0.0113855561
C  C376  1  0.17311000  0.16336000  0.79325000  1.0 -0.0113855561
C  C377  1  0.70675000  0.33664000  0.32689000  1.0 -0.0113855561
C  C378  1  0.16336000  0.79325000  0.17311000  1.0 -0.0113855561
C  C379  1  0.33664000  0.50975000  0.62989000  1.0 -0.0113855561
C  C380  1  0.12014000  0.99025000  0.32689000  1.0 -0.0113855561
C  C381  1  0.37986000  0.70675000  0.87011000  1.0 -0.0113855561
C  C382  1  0.79325000  0.12014000  0.62989000  1.0 -0.0113855561
C  C383  1  0.50975000  0.37986000  0.17311000  1.0 -0.0113855561
C  C384  1  0.99025000  0.16336000  0.87011000  1.0 -0.0113855561
C  C385  1  0.64847000  0.29801000  0.69922000  1.0 -0.0703047499
C  C386  1  0.29801000  0.09879000  0.64954000  1.0 -0.0703047499
C  C387  1  0.09879000  0.94925000  0.80078000  1.0 -0.0703047499
C  C388  1  0.94925000  0.64847000  0.85046000  1.0 -0.0703047499
C  C389  1  0.85153000  0.55075000  0.64954000  1.0 -0.0703047499
C  C390  1  0.55075000  0.40121000  0.69922000  1.0 -0.0703047499
C  C391  1  0.40121000  0.20199000  0.85046000  1.0 -0.0703047499
C  C392  1  0.20199000  0.85153000  0.80078000  1.0 -0.0703047499
C  C393  1  0.69922000  0.64847000  0.29801000  1.0 -0.0703047499
C  C394  1  0.64847000  0.85046000  0.94925000  1.0 -0.0703047499
C  C395  1  0.85046000  0.40121000  0.20199000  1.0 -0.0703047499
C  C396  1  0.40121000  0.69922000  0.55075000  1.0 -0.0703047499
C  C397  1  0.80078000  0.09879000  0.94925000  1.0 -0.0703047499
C  C398  1  0.09879000  0.64954000  0.29801000  1.0 -0.0703047499
C  C399  1  0.64954000  0.85153000  0.55075000  1.0 -0.0703047499
C  C400  1  0.85153000  0.80078000  0.20199000  1.0 -0.0703047499
C  C401  1  0.29801000  0.69922000  0.64847000  1.0 -0.0703047499
C  C402  1  0.80078000  0.20199000  0.85153000  1.0 -0.0703047499
C  C403  1  0.69922000  0.55075000  0.40121000  1.0 -0.0703047499
C  C404  1  0.85046000  0.94925000  0.64847000  1.0 -0.0703047499
C  C405  1  0.64954000  0.29801000  0.09879000  1.0 -0.0703047499
C  C406  1  0.20199000  0.85046000  0.40121000  1.0 -0.0703047499
C  C407  1  0.55075000  0.64954000  0.85153000  1.0 -0.0703047499
C  C408  1  0.94925000  0.80078000  0.09879000  1.0 -0.0703047499
C  C409  1  0.35153000  0.70199000  0.30078000  1.0 -0.0703047499
C  C410  1  0.70199000  0.90121000  0.35046000  1.0 -0.0703047499
C  C411  1  0.90121000  0.05075000  0.19922000  1.0 -0.0703047499
C  C412  1  0.05075000  0.35153000  0.14954000  1.0 -0.0703047499
C  C413  1  0.14847000  0.44925000  0.35046000  1.0 -0.0703047499
C  C414  1  0.44925000  0.59879000  0.30078000  1.0 -0.0703047499
C  C415  1  0.59879000  0.79801000  0.14954000  1.0 -0.0703047499
C  C416  1  0.79801000  0.14847000  0.19922000  1.0 -0.0703047499
C  C417  1  0.30078000  0.35153000  0.70199000  1.0 -0.0703047499
C  C418  1  0.35153000  0.14954000  0.05075000  1.0 -0.0703047499
C  C419  1  0.14954000  0.59879000  0.79801000  1.0 -0.0703047499
C  C420  1  0.59879000  0.30078000  0.44925000  1.0 -0.0703047499
C  C421  1  0.19922000  0.90121000  0.05075000  1.0 -0.0703047499
C  C422  1  0.90121000  0.35046000  0.70199000  1.0 -0.0703047499
C  C423  1  0.35046000  0.14847000  0.44925000  1.0 -0.0703047499
C  C424  1  0.14847000  0.19922000  0.79801000  1.0 -0.0703047499
C  C425  1  0.70199000  0.30078000  0.35153000  1.0 -0.0703047499
C  C426  1  0.19922000  0.79801000  0.14847000  1.0 -0.0703047499
C  C427  1  0.30078000  0.44925000  0.59879000  1.0 -0.0703047499
C  C428  1  0.14954000  0.05075000  0.35153000  1.0 -0.0703047499
C  C429  1  0.35046000  0.70199000  0.90121000  1.0 -0.0703047499
C  C430  1  0.79801000  0.14954000  0.59879000  1.0 -0.0703047499
C  C431  1  0.44925000  0.35046000  0.14847000  1.0 -0.0703047499
C  C432  1  0.05075000  0.19922000  0.90121000  1.0 -0.0703047499
C  C433  1  0.62419000  0.37419000  0.74838000  1.0 0.0054283393
C  C434  1  0.37419000  0.12581000  0.75000000  1.0 0.0054283393
C  C435  1  0.12581000  0.87581000  0.75162000  1.0 0.0054283393
C  C436  1  0.87581000  0.62419000  0.75000000  1.0 0.0054283393
C  C437  1  0.74838000  0.62419000  0.37419000  1.0 0.0054283393
C  C438  1  0.62419000  0.75000000  0.87581000  1.0 0.0054283393
C  C439  1  0.75000000  0.37419000  0.12581000  1.0 0.0054283393
C  C440  1  0.37419000  0.74838000  0.62419000  1.0 0.0054283393
C  C441  1  0.75162000  0.12581000  0.87581000  1.0 0.0054283393
C  C442  1  0.12581000  0.75000000  0.37419000  1.0 0.0054283393
C  C443  1  0.75000000  0.87581000  0.62419000  1.0 0.0054283393
C  C444  1  0.87581000  0.75162000  0.12581000  1.0 0.0054283393
C  C445  1  0.37581000  0.62581000  0.25162000  1.0 0.0054283393
C  C446  1  0.62581000  0.87419000  0.25000000  1.0 0.0054283393
C  C447  1  0.87419000  0.12419000  0.24838000  1.0 0.0054283393
C  C448  1  0.12419000  0.37581000  0.25000000  1.0 0.0054283393
C  C449  1  0.25162000  0.37581000  0.62581000  1.0 0.0054283393
C  C450  1  0.37581000  0.25000000  0.12419000  1.0 0.0054283393
C  C451  1  0.25000000  0.62581000  0.87419000  1.0 0.0054283393
C  C452  1  0.62581000  0.25162000  0.37581000  1.0 0.0054283393
C  C453  1  0.24838000  0.87419000  0.12419000  1.0 0.0054283393
C  C454  1  0.87419000  0.25000000  0.62581000  1.0 0.0054283393
C  C455  1  0.25000000  0.12419000  0.37581000  1.0 0.0054283393
C  C456  1  0.12419000  0.24838000  0.87419000  1.0 0.0054283393
N  N1  1  0.69153000  0.44370000  0.65967000  1.0 -0.1135327616
N  N2  1  0.44370000  0.28403000  0.75217000  1.0 -0.1153736502
N  N3  1  0.28403000  0.03186000  0.84033000  1.0 -0.1153736502
N  N4  1  0.03186000  0.69153000  0.74783000  1.0 -0.1153736502
N  N5  1  0.80847000  0.46814000  0.75217000  1.0 -0.1153736502
N  N6  1  0.46814000  0.21597000  0.65967000  1.0 -0.1135327616
N  N7  1  0.21597000  0.05630000  0.74783000  1.0 -0.1135327616
N  N8  1  0.05630000  0.80847000  0.84033000  1.0 -0.1153736502
N  N9  1  0.65967000  0.69153000  0.44370000  1.0 -0.1153736502
N  N10  1  0.69153000  0.74783000  0.03186000  1.0 -0.1135327616
N  N11  1  0.74783000  0.21597000  0.05630000  1.0 -0.1135327616
N  N12  1  0.21597000  0.65967000  0.46814000  1.0 -0.1153736502
N  N13  1  0.84033000  0.28403000  0.03186000  1.0 -0.1135327616
N  N14  1  0.28403000  0.75217000  0.44370000  1.0 -0.1153736502
N  N15  1  0.75217000  0.80847000  0.46814000  1.0 -0.1153736502
N  N16  1  0.80847000  0.84033000  0.05630000  1.0 -0.1135327616
N  N17  1  0.44370000  0.65967000  0.69153000  1.0 -0.1153736502
N  N18  1  0.84033000  0.05630000  0.80847000  1.0 -0.1135327616
N  N19  1  0.65967000  0.46814000  0.21597000  1.0 -0.1153736502
N  N20  1  0.74783000  0.03186000  0.69153000  1.0 -0.1153736502
N  N21  1  0.75217000  0.44370000  0.28403000  1.0 -0.1153736502
N  N22  1  0.05630000  0.74783000  0.21597000  1.0 -0.1153736502
N  N23  1  0.46814000  0.75217000  0.80847000  1.0 -0.1153736502
N  N24  1  0.03186000  0.84033000  0.28403000  1.0 -0.1153736502
N  N25  1  0.30847000  0.55630000  0.34033000  1.0 -0.1153736502
N  N26  1  0.55630000  0.71597000  0.24783000  1.0 -0.1153736502
N  N27  1  0.71597000  0.96814000  0.15967000  1.0 -0.1153736502
N  N28  1  0.96814000  0.30847000  0.25217000  1.0 -0.1153736502
N  N29  1  0.19153000  0.53186000  0.24783000  1.0 -0.1153736502
N  N30  1  0.53186000  0.78403000  0.34033000  1.0 -0.1153736502
N  N31  1  0.78403000  0.94370000  0.25217000  1.0 -0.1135327616
N  N32  1  0.94370000  0.19153000  0.15967000  1.0 -0.1135327616
N  N33  1  0.34033000  0.30847000  0.55630000  1.0 -0.1153736502
N  N34  1  0.30847000  0.25217000  0.96814000  1.0 -0.1153736502
N  N35  1  0.25217000  0.78403000  0.94370000  1.0 -0.1153736502
N  N36  1  0.78403000  0.34033000  0.53186000  1.0 -0.1153736502
N  N37  1  0.15967000  0.71597000  0.96814000  1.0 -0.1153736502
N  N38  1  0.71597000  0.24783000  0.55630000  1.0 -0.1135327616
N  N39  1  0.24783000  0.19153000  0.53186000  1.0 -0.1135327616
N  N40  1  0.19153000  0.15967000  0.94370000  1.0 -0.1135327616
N  N41  1  0.55630000  0.34033000  0.30847000  1.0 -0.1153736502
N  N42  1  0.15967000  0.94370000  0.19153000  1.0 -0.1153736502
N  N43  1  0.34033000  0.53186000  0.78403000  1.0 -0.1153736502
N  N44  1  0.25217000  0.96814000  0.30847000  1.0 -0.1153736502
N  N45  1  0.24783000  0.55630000  0.71597000  1.0 -0.1153736502
N  N46  1  0.94370000  0.25217000  0.78403000  1.0 -0.1135327616
N  N47  1  0.53186000  0.24783000  0.19153000  1.0 -0.1153736502
N  N48  1  0.96814000  0.15967000  0.71597000  1.0 -0.1135327616
N  N49  1  0.68650000  0.34072000  0.65454000  1.0 -0.3617526199
N  N50  1  0.34072000  0.18618000  0.65422000  1.0 -0.3617526199
N  N51  1  0.18618000  0.03196000  0.84546000  1.0 -0.3617526199
N  N52  1  0.03196000  0.68650000  0.84578000  1.0 -0.3617526199
N  N53  1  0.81350000  0.46804000  0.65422000  1.0 -0.3617526199
N  N54  1  0.46804000  0.31382000  0.65454000  1.0 -0.3617526199
N  N55  1  0.31382000  0.15928000  0.84578000  1.0 -0.3617526199
N  N56  1  0.15928000  0.81350000  0.84546000  1.0 -0.3617526199
N  N57  1  0.65454000  0.68650000  0.34072000  1.0 -0.3617526199
N  N58  1  0.68650000  0.84578000  0.03196000  1.0 -0.3617526199
N  N59  1  0.84578000  0.31382000  0.15928000  1.0 -0.3617526199
N  N60  1  0.31382000  0.65454000  0.46804000  1.0 -0.3617526199
N  N61  1  0.84546000  0.18618000  0.03196000  1.0 -0.3617526199
N  N62  1  0.18618000  0.65422000  0.34072000  1.0 -0.3617526199
N  N63  1  0.65422000  0.81350000  0.46804000  1.0 -0.3617526199
N  N64  1  0.81350000  0.84546000  0.15928000  1.0 -0.3617526199
N  N65  1  0.34072000  0.65454000  0.68650000  1.0 -0.3617526199
N  N66  1  0.84546000  0.15928000  0.81350000  1.0 -0.3617526199
N  N67  1  0.65454000  0.46804000  0.31382000  1.0 -0.3617526199
N  N68  1  0.84578000  0.03196000  0.68650000  1.0 -0.3617526199
N  N69  1  0.65422000  0.34072000  0.18618000  1.0 -0.3617526199
N  N70  1  0.15928000  0.84578000  0.31382000  1.0 -0.3617526199
N  N71  1  0.46804000  0.65422000  0.81350000  1.0 -0.3617526199
N  N72  1  0.03196000  0.84546000  0.18618000  1.0 -0.3617526199
N  N73  1  0.31350000  0.65928000  0.34546000  1.0 -0.3617526199
N  N74  1  0.65928000  0.81382000  0.34578000  1.0 -0.3617526199
N  N75  1  0.81382000  0.96804000  0.15454000  1.0 -0.3617526199
N  N76  1  0.96804000  0.31350000  0.15422000  1.0 -0.3617526199
N  N77  1  0.18650000  0.53196000  0.34578000  1.0 -0.3617526199
N  N78  1  0.53196000  0.68618000  0.34546000  1.0 -0.3617526199
N  N79  1  0.68618000  0.84072000  0.15422000  1.0 -0.3617526199
N  N80  1  0.84072000  0.18650000  0.15454000  1.0 -0.3617526199
N  N81  1  0.34546000  0.31350000  0.65928000  1.0 -0.3617526199
N  N82  1  0.31350000  0.15422000  0.96804000  1.0 -0.3617526199
N  N83  1  0.15422000  0.68618000  0.84072000  1.0 -0.3617526199
N  N84  1  0.68618000  0.34546000  0.53196000  1.0 -0.3617526199
N  N85  1  0.15454000  0.81382000  0.96804000  1.0 -0.3617526199
N  N86  1  0.81382000  0.34578000  0.65928000  1.0 -0.3617526199
N  N87  1  0.34578000  0.18650000  0.53196000  1.0 -0.3617526199
N  N88  1  0.18650000  0.15454000  0.84072000  1.0 -0.3617526199
N  N89  1  0.65928000  0.34546000  0.31350000  1.0 -0.3617526199
N  N90  1  0.15454000  0.84072000  0.18650000  1.0 -0.3617526199
N  N91  1  0.34546000  0.53196000  0.68618000  1.0 -0.3617526199
N  N92  1  0.15422000  0.96804000  0.31350000  1.0 -0.3617526199
N  N93  1  0.34578000  0.65928000  0.81382000  1.0 -0.3617526199
N  N94  1  0.84072000  0.15422000  0.68618000  1.0 -0.3617526199
N  N95  1  0.53196000  0.34578000  0.18650000  1.0 -0.3617526199
N  N96  1  0.96804000  0.15454000  0.81382000  1.0 -0.3617526199
N  N97  1  0.64671000  0.34967000  0.71222000  1.0 -0.0333059572
N  N98  1  0.34967000  0.13745000  0.70296000  1.0 -0.0333059572
N  N99  1  0.13745000  0.93449000  0.78778000  1.0 -0.0333059572
N  N100  1  0.93449000  0.64671000  0.79704000  1.0 -0.0333059572
N  N101  1  0.85329000  0.56551000  0.70296000  1.0 -0.0333059572
N  N102  1  0.56551000  0.36255000  0.71222000  1.0 -0.0333059572
N  N103  1  0.36255000  0.15033000  0.79704000  1.0 -0.0333059572
N  N104  1  0.15033000  0.85329000  0.78778000  1.0 -0.0333059572
N  N105  1  0.71222000  0.64671000  0.34967000  1.0 -0.0333059572
N  N106  1  0.64671000  0.79704000  0.93449000  1.0 -0.0333059572
N  N107  1  0.79704000  0.36255000  0.15033000  1.0 -0.0333059572
N  N108  1  0.36255000  0.71222000  0.56551000  1.0 -0.0333059572
N  N109  1  0.78778000  0.13745000  0.93449000  1.0 -0.0333059572
N  N110  1  0.13745000  0.70296000  0.34967000  1.0 -0.0333059572
N  N111  1  0.70296000  0.85329000  0.56551000  1.0 -0.0333059572
N  N112  1  0.85329000  0.78778000  0.15033000  1.0 -0.0333059572
N  N113  1  0.34967000  0.71222000  0.64671000  1.0 -0.0333059572
N  N114  1  0.78778000  0.15033000  0.85329000  1.0 -0.0333059572
N  N115  1  0.71222000  0.56551000  0.36255000  1.0 -0.0333059572
N  N116  1  0.79704000  0.93449000  0.64671000  1.0 -0.0333059572
N  N117  1  0.70296000  0.34967000  0.13745000  1.0 -0.0333059572
N  N118  1  0.15033000  0.79704000  0.36255000  1.0 -0.0333059572
N  N119  1  0.56551000  0.70296000  0.85329000  1.0 -0.0333059572
N  N120  1  0.93449000  0.78778000  0.13745000  1.0 -0.0333059572
N  N121  1  0.35329000  0.65033000  0.28778000  1.0 -0.0333059572
N  N122  1  0.65033000  0.86255000  0.29704000  1.0 -0.0333059572
N  N123  1  0.86255000  0.06551000  0.21222000  1.0 -0.0333059572
N  N124  1  0.06551000  0.35329000  0.20296000  1.0 -0.0333059572
N  N125  1  0.14671000  0.43449000  0.29704000  1.0 -0.0333059572
N  N126  1  0.43449000  0.63745000  0.28778000  1.0 -0.0333059572
N  N127  1  0.63745000  0.84967000  0.20296000  1.0 -0.0333059572
N  N128  1  0.84967000  0.14671000  0.21222000  1.0 -0.0333059572
N  N129  1  0.28778000  0.35329000  0.65033000  1.0 -0.0333059572
N  N130  1  0.35329000  0.20296000  0.06551000  1.0 -0.0333059572
N  N131  1  0.20296000  0.63745000  0.84967000  1.0 -0.0333059572
N  N132  1  0.63745000  0.28778000  0.43449000  1.0 -0.0333059572
N  N133  1  0.21222000  0.86255000  0.06551000  1.0 -0.0333059572
N  N134  1  0.86255000  0.29704000  0.65033000  1.0 -0.0333059572
N  N135  1  0.29704000  0.14671000  0.43449000  1.0 -0.0333059572
N  N136  1  0.14671000  0.21222000  0.84967000  1.0 -0.0333059572
N  N137  1  0.65033000  0.28778000  0.35329000  1.0 -0.0333059572
N  N138  1  0.21222000  0.84967000  0.14671000  1.0 -0.0333059572
N  N139  1  0.28778000  0.43449000  0.63745000  1.0 -0.0333059572
N  N140  1  0.20296000  0.06551000  0.35329000  1.0 -0.0333059572
N  N141  1  0.29704000  0.65033000  0.86255000  1.0 -0.0333059572
N  N142  1  0.84967000  0.20296000  0.63745000  1.0 -0.0333059572
N  N143  1  0.43449000  0.29704000  0.14671000  1.0 -0.0333059572
N  N144  1  0.06551000  0.21222000  0.86255000  1.0 -0.0333059572
N  N145  1  0.67369000  0.42775000  0.69144000  1.0 -0.1856544144
N  N146  1  0.42775000  0.23631000  0.75406000  1.0 -0.1856544144
N  N147  1  0.23631000  0.98225000  0.80856000  1.0 -0.1856544144
N  N148  1  0.98225000  0.67369000  0.74594000  1.0 -0.1856544144
N  N149  1  0.82631000  0.51775000  0.75406000  1.0 -0.1856544144
N  N150  1  0.51775000  0.26369000  0.69144000  1.0 -0.1856544144
N  N151  1  0.26369000  0.07225000  0.74594000  1.0 -0.1856544144
N  N152  1  0.07225000  0.82631000  0.80856000  1.0 -0.1856544144
N  N153  1  0.69144000  0.67369000  0.42775000  1.0 -0.1856544144
N  N154  1  0.67369000  0.74594000  0.98225000  1.0 -0.1856544144
N  N155  1  0.74594000  0.26369000  0.07225000  1.0 -0.1843347566
N  N156  1  0.26369000  0.69144000  0.51775000  1.0 -0.1856544144
N  N157  1  0.80856000  0.23631000  0.98225000  1.0 -0.1856544144
N  N158  1  0.23631000  0.75406000  0.42775000  1.0 -0.1856544144
N  N159  1  0.75406000  0.82631000  0.51775000  1.0 -0.1843347566
N  N160  1  0.82631000  0.80856000  0.07225000  1.0 -0.1856544144
N  N161  1  0.42775000  0.69144000  0.67369000  1.0 -0.1856544144
N  N162  1  0.80856000  0.07225000  0.82631000  1.0 -0.1856544144
N  N163  1  0.69144000  0.51775000  0.26369000  1.0 -0.1856544144
N  N164  1  0.74594000  0.98225000  0.67369000  1.0 -0.1856544144
N  N165  1  0.75406000  0.42775000  0.23631000  1.0 -0.1843347566
N  N166  1  0.07225000  0.74594000  0.26369000  1.0 -0.1856544144
N  N167  1  0.51775000  0.75406000  0.82631000  1.0 -0.1856544144
N  N168  1  0.98225000  0.80856000  0.23631000  1.0 -0.1843347566
N  N169  1  0.32631000  0.57225000  0.30856000  1.0 -0.1856544144
N  N170  1  0.57225000  0.76369000  0.24594000  1.0 -0.1843347566
N  N171  1  0.76369000  0.01775000  0.19144000  1.0 -0.1856544144
N  N172  1  0.01775000  0.32631000  0.25406000  1.0 -0.1856544144
N  N173  1  0.17369000  0.48225000  0.24594000  1.0 -0.1856544144
N  N174  1  0.48225000  0.73631000  0.30856000  1.0 -0.1856544144
N  N175  1  0.73631000  0.92775000  0.25406000  1.0 -0.1856544144
N  N176  1  0.92775000  0.17369000  0.19144000  1.0 -0.1843347566
N  N177  1  0.30856000  0.32631000  0.57225000  1.0 -0.1856544144
N  N178  1  0.32631000  0.25406000  0.01775000  1.0 -0.1856544144
N  N179  1  0.25406000  0.73631000  0.92775000  1.0 -0.1856544144
N  N180  1  0.73631000  0.30856000  0.48225000  1.0 -0.1856544144
N  N181  1  0.19144000  0.76369000  0.01775000  1.0 -0.1856544144
N  N182  1  0.76369000  0.24594000  0.57225000  1.0 -0.1843347566
N  N183  1  0.24594000  0.17369000  0.48225000  1.0 -0.1856544144
N  N184  1  0.17369000  0.19144000  0.92775000  1.0 -0.1856544144
N  N185  1  0.57225000  0.30856000  0.32631000  1.0 -0.1856544144
N  N186  1  0.19144000  0.92775000  0.17369000  1.0 -0.1856544144
N  N187  1  0.30856000  0.48225000  0.73631000  1.0 -0.1856544144
N  N188  1  0.25406000  0.01775000  0.32631000  1.0 -0.1856544144
N  N189  1  0.24594000  0.57225000  0.76369000  1.0 -0.1856544144
N  N190  1  0.92775000  0.25406000  0.73631000  1.0 -0.1856544144
N  N191  1  0.48225000  0.24594000  0.17369000  1.0 -0.1856544144
N  N192  1  0.01775000  0.19144000  0.76369000  1.0 -0.1856544144
Cl  Cl1  1  0.68400000  0.25000000  0.81600000  1.0 1.2756103303
Cl  Cl2  1  0.86800000  0.68400000  0.93400000  1.0 1.2756103303
Cl  Cl3  1  0.93400000  0.86800000  0.68400000  1.0 1.2756103303
Cl  Cl4  1  0.25000000  0.93400000  0.56600000  1.0 1.2756103303
Cl  Cl5  1  0.56600000  0.25000000  0.93400000  1.0 1.2756103303
Cl  Cl6  1  0.63200000  0.56600000  0.81600000  1.0 1.2756103303
Cl  Cl7  1  0.81600000  0.63200000  0.56600000  1.0 1.2756103303
Cl  Cl8  1  0.25000000  0.81600000  0.68400000  1.0 1.2756103303
Cl  Cl9  1  0.56600000  0.81600000  0.63200000  1.0 1.2756103303
Cl  Cl10  1  0.93400000  0.56600000  0.25000000  1.0 1.2748591926
Cl  Cl11  1  0.68400000  0.93400000  0.86800000  1.0 1.2756103303
Cl  Cl12  1  0.81600000  0.68400000  0.25000000  1.0 1.2748591926
Cl  Cl13  1  0.31600000  0.75000000  0.18400000  1.0 1.2748591926
Cl  Cl14  1  0.13200000  0.31600000  0.06600000  1.0 1.2748591926
Cl  Cl15  1  0.06600000  0.13200000  0.31600000  1.0 1.2756103303
Cl  Cl16  1  0.75000000  0.06600000  0.43400000  1.0 1.2748591926
Cl  Cl17  1  0.43400000  0.75000000  0.06600000  1.0 1.2748591926
Cl  Cl18  1  0.36800000  0.43400000  0.18400000  1.0 1.2756103303
Cl  Cl19  1  0.18400000  0.36800000  0.43400000  1.0 1.2756103303
Cl  Cl20  1  0.75000000  0.18400000  0.31600000  1.0 1.2756103303
Cl  Cl21  1  0.43400000  0.18400000  0.36800000  1.0 1.2756103303
Cl  Cl22  1  0.06600000  0.43400000  0.75000000  1.0 1.2756103303
Cl  Cl23  1  0.31600000  0.06600000  0.13200000  1.0 1.2756103303
Cl  Cl24  1  0.18400000  0.31600000  0.75000000  1.0 1.2756103303
O  O1  1  0.74757000  0.28546000  0.84239000  1.0 -0.4913847038
O  O2  1  0.65761000  0.21454000  0.75243000  1.0 -0.4913847038
O  O3  1  0.67248000  0.21149000  0.84007000  1.0 -0.4913847038
O  O4  1  0.65993000  0.28851000  0.82752000  1.0 -0.4913847038
O  O5  1  0.90518000  0.74757000  0.96211000  1.0 -0.4913847038
O  O6  1  0.90518000  0.65761000  0.94307000  1.0 -0.4913847038
O  O7  1  0.83241000  0.67248000  0.96099000  1.0 -0.4913847038
O  O8  1  0.83241000  0.65993000  0.87142000  1.0 -0.4913847038
O  O9  1  0.94307000  0.90518000  0.65761000  1.0 -0.4913847038
O  O10  1  0.96211000  0.90518000  0.74757000  1.0 -0.4913847038
O  O11  1  0.87142000  0.83241000  0.65993000  1.0 -0.4913847038
O  O12  1  0.96099000  0.83241000  0.67248000  1.0 -0.4913847038
O  O13  1  0.28546000  0.94307000  0.53789000  1.0 -0.4913847038
O  O14  1  0.21454000  0.96211000  0.55693000  1.0 -0.4913847038
O  O15  1  0.21149000  0.87142000  0.53901000  1.0 -0.4913847038
O  O16  1  0.28851000  0.96099000  0.62858000  1.0 -0.4913847038
O  O17  1  0.55693000  0.21454000  0.96211000  1.0 -0.4913847038
O  O18  1  0.53789000  0.28546000  0.94307000  1.0 -0.4913847038
O  O19  1  0.62858000  0.28851000  0.96099000  1.0 -0.4913847038
O  O20  1  0.53901000  0.21149000  0.87142000  1.0 -0.4913847038
O  O21  1  0.59482000  0.55693000  0.84239000  1.0 -0.4913847038
O  O22  1  0.59482000  0.53789000  0.75243000  1.0 -0.4913847038
O  O23  1  0.66759000  0.62858000  0.84007000  1.0 -0.4913847038
O  O24  1  0.66759000  0.53901000  0.82752000  1.0 -0.4913847038
O  O25  1  0.75243000  0.59482000  0.53789000  1.0 -0.4913847038
O  O26  1  0.84239000  0.59482000  0.55693000  1.0 -0.4913847038
O  O27  1  0.82752000  0.66759000  0.53901000  1.0 -0.4913847038
O  O28  1  0.84007000  0.66759000  0.62858000  1.0 -0.4913847038
O  O29  1  0.21454000  0.75243000  0.65761000  1.0 -0.4913847038
O  O30  1  0.28546000  0.84239000  0.74757000  1.0 -0.4913847038
O  O31  1  0.28851000  0.82752000  0.65993000  1.0 -0.4913847038
O  O32  1  0.21149000  0.84007000  0.67248000  1.0 -0.4913847038
O  O33  1  0.53789000  0.75243000  0.59482000  1.0 -0.4913847038
O  O34  1  0.55693000  0.84239000  0.59482000  1.0 -0.4913847038
O  O35  1  0.53901000  0.82752000  0.66759000  1.0 -0.4913847038
O  O36  1  0.62858000  0.84007000  0.66759000  1.0 -0.4913847038
O  O37  1  0.94307000  0.53789000  0.28546000  1.0 -0.4913847038
O  O38  1  0.96211000  0.55693000  0.21454000  1.0 -0.4913847038
O  O39  1  0.87142000  0.53901000  0.21149000  1.0 -0.4913847038
O  O40  1  0.96099000  0.62858000  0.28851000  1.0 -0.4913847038
O  O41  1  0.65761000  0.94307000  0.90518000  1.0 -0.4913847038
O  O42  1  0.74757000  0.96211000  0.90518000  1.0 -0.4913847038
O  O43  1  0.65993000  0.87142000  0.83241000  1.0 -0.4913847038
O  O44  1  0.67248000  0.96099000  0.83241000  1.0 -0.4913847038
O  O45  1  0.75243000  0.65761000  0.21454000  1.0 -0.4913847038
O  O46  1  0.84239000  0.74757000  0.28546000  1.0 -0.4913847038
O  O47  1  0.82752000  0.65993000  0.28851000  1.0 -0.4913847038
O  O48  1  0.84007000  0.67248000  0.21149000  1.0 -0.4913847038
O  O49  1  0.25243000  0.71454000  0.15761000  1.0 -0.4913847038
O  O50  1  0.34239000  0.78546000  0.24757000  1.0 -0.4913847038
O  O51  1  0.32752000  0.78851000  0.15993000  1.0 -0.4913847038
O  O52  1  0.34007000  0.71149000  0.17248000  1.0 -0.4913847038
O  O53  1  0.09482000  0.25243000  0.03789000  1.0 -0.4913847038
O  O54  1  0.09482000  0.34239000  0.05693000  1.0 -0.4913847038
O  O55  1  0.16759000  0.32752000  0.03901000  1.0 -0.4913847038
O  O56  1  0.16759000  0.34007000  0.12858000  1.0 -0.4913847038
O  O57  1  0.05693000  0.09482000  0.34239000  1.0 -0.4913847038
O  O58  1  0.03789000  0.09482000  0.25243000  1.0 -0.4913847038
O  O59  1  0.12858000  0.16759000  0.34007000  1.0 -0.4913847038
O  O60  1  0.03901000  0.16759000  0.32752000  1.0 -0.4913847038
O  O61  1  0.71454000  0.05693000  0.46211000  1.0 -0.4913847038
O  O62  1  0.78546000  0.03789000  0.44307000  1.0 -0.4913847038
O  O63  1  0.78851000  0.12858000  0.46099000  1.0 -0.4913847038
O  O64  1  0.71149000  0.03901000  0.37142000  1.0 -0.4913847038
O  O65  1  0.44307000  0.78546000  0.03789000  1.0 -0.4913847038
O  O66  1  0.46211000  0.71454000  0.05693000  1.0 -0.4913847038
O  O67  1  0.37142000  0.71149000  0.03901000  1.0 -0.4913847038
O  O68  1  0.46099000  0.78851000  0.12858000  1.0 -0.4913847038
O  O69  1  0.40518000  0.44307000  0.15761000  1.0 -0.4913847038
O  O70  1  0.40518000  0.46211000  0.24757000  1.0 -0.4913847038
O  O71  1  0.33241000  0.37142000  0.15993000  1.0 -0.4913847038
O  O72  1  0.33241000  0.46099000  0.17248000  1.0 -0.4913847038
O  O73  1  0.24757000  0.40518000  0.46211000  1.0 -0.4913847038
O  O74  1  0.15761000  0.40518000  0.44307000  1.0 -0.4913847038
O  O75  1  0.17248000  0.33241000  0.46099000  1.0 -0.4913847038
O  O76  1  0.15993000  0.33241000  0.37142000  1.0 -0.4913847038
O  O77  1  0.78546000  0.24757000  0.34239000  1.0 -0.4913847038
O  O78  1  0.71454000  0.15761000  0.25243000  1.0 -0.4913847038
O  O79  1  0.71149000  0.17248000  0.34007000  1.0 -0.4913847038
O  O80  1  0.78851000  0.15993000  0.32752000  1.0 -0.4913847038
O  O81  1  0.46211000  0.24757000  0.40518000  1.0 -0.4913847038
O  O82  1  0.44307000  0.15761000  0.40518000  1.0 -0.4913847038
O  O83  1  0.46099000  0.17248000  0.33241000  1.0 -0.4913847038
O  O84  1  0.37142000  0.15993000  0.33241000  1.0 -0.4913847038
O  O85  1  0.05693000  0.46211000  0.71454000  1.0 -0.4913847038
O  O86  1  0.03789000  0.44307000  0.78546000  1.0 -0.4913847038
O  O87  1  0.12858000  0.46099000  0.78851000  1.0 -0.4913847038
O  O88  1  0.03901000  0.37142000  0.71149000  1.0 -0.4913847038
O  O89  1  0.34239000  0.05693000  0.09482000  1.0 -0.4913847038
O  O90  1  0.25243000  0.03789000  0.09482000  1.0 -0.4913847038
O  O91  1  0.34007000  0.12858000  0.16759000  1.0 -0.4913847038
O  O92  1  0.32752000  0.03901000  0.16759000  1.0 -0.4913847038
O  O93  1  0.24757000  0.34239000  0.78546000  1.0 -0.4913847038
O  O94  1  0.15761000  0.25243000  0.71454000  1.0 -0.4913847038
O  O95  1  0.17248000  0.34007000  0.71149000  1.0 -0.4913847038
O  O96  1  0.15993000  0.32752000  0.78851000  1.0 -0.4913847038
