# DDEC6 charges by PACMAN v1.1 (https://github.com/mtap-research/PACMAN-charge/)
data_EFOSUO_ASR_pacman
_symmetry_space_group_name_H-M   'P 1'
_cell_length_a   16.95400000
_cell_length_b   16.95400000
_cell_length_c   16.95400000
_cell_angle_alpha   90.00000000
_cell_angle_beta   90.00000000
_cell_angle_gamma   90.00000000
_symmetry_Int_Tables_number   1
_chemical_formula_structural   MnRe3C3S4N3
_chemical_formula_sum   'Mn8 Re24 C24 S32 N24'
_cell_volume   4873.22581866
_cell_formula_units_Z   8
loop_
 _symmetry_equiv_pos_site_id
 _symmetry_equiv_pos_as_xyz
  1  'x, y, z'
loop_
 _atom_site_type_symbol
 _atom_site_label
 _atom_site_symmetry_multiplicity
 _atom_site_fract_x
 _atom_site_fract_y
 _atom_site_fract_z
 _atom_site_occupancy
 _atom_site_charge
Mn  Mn1  1  0.10700000  0.89300000  0.39300000  1.0 0.9161611324
Mn  Mn2  1  0.39300000  0.10700000  0.89300000  1.0 0.9161611324
Mn  Mn3  1  0.89300000  0.39300000  0.10700000  1.0 0.9161611324
Mn  Mn4  1  0.60700000  0.60700000  0.60700000  1.0 0.9161611324
Mn  Mn5  1  0.89300000  0.10700000  0.60700000  1.0 0.9161611324
Mn  Mn6  1  0.60700000  0.89300000  0.10700000  1.0 0.9161611324
Mn  Mn7  1  0.10700000  0.60700000  0.89300000  1.0 0.9161611324
Mn  Mn8  1  0.39300000  0.39300000  0.39300000  1.0 0.9161611324
Re  Re1  1  0.02974000  0.59503000  0.45666000  1.0 0.2515141003
Re  Re2  1  0.45666000  0.02974000  0.59503000  1.0 0.2515141003
Re  Re3  1  0.59503000  0.45666000  0.02974000  1.0 0.2515141003
Re  Re4  1  0.47026000  0.40497000  0.95666000  1.0 0.2515141003
Re  Re5  1  0.97026000  0.09503000  0.04334000  1.0 0.2515141003
Re  Re6  1  0.52974000  0.90497000  0.54334000  1.0 0.2515141003
Re  Re7  1  0.95666000  0.47026000  0.40497000  1.0 0.2515141003
Re  Re8  1  0.04334000  0.97026000  0.09503000  1.0 0.2515141003
Re  Re9  1  0.54334000  0.52974000  0.90497000  1.0 0.2515141003
Re  Re10  1  0.40497000  0.95666000  0.47026000  1.0 0.2515141003
Re  Re11  1  0.09503000  0.04334000  0.97026000  1.0 0.2515141003
Re  Re12  1  0.90497000  0.54334000  0.52974000  1.0 0.2515141003
Re  Re13  1  0.97026000  0.40497000  0.54334000  1.0 0.2515141003
Re  Re14  1  0.54334000  0.97026000  0.40497000  1.0 0.2515141003
Re  Re15  1  0.40497000  0.54334000  0.97026000  1.0 0.2515141003
Re  Re16  1  0.52974000  0.59503000  0.04334000  1.0 0.2515141003
Re  Re17  1  0.02974000  0.90497000  0.95666000  1.0 0.2515141003
Re  Re18  1  0.47026000  0.09503000  0.45666000  1.0 0.2515141003
Re  Re19  1  0.04334000  0.52974000  0.59503000  1.0 0.2515141003
Re  Re20  1  0.95666000  0.02974000  0.90497000  1.0 0.2515141003
Re  Re21  1  0.45666000  0.47026000  0.09503000  1.0 0.2515141003
Re  Re22  1  0.59503000  0.04334000  0.52974000  1.0 0.2515141003
Re  Re23  1  0.90497000  0.95666000  0.02974000  1.0 0.2515141003
Re  Re24  1  0.09503000  0.45666000  0.47026000  1.0 0.2515141003
C  C1  1  0.06700000  0.70800000  0.40900000  1.0 0.2131565686
C  C2  1  0.40900000  0.06700000  0.70800000  1.0 0.2131565686
C  C3  1  0.70800000  0.40900000  0.06700000  1.0 0.2131565686
C  C4  1  0.43300000  0.29200000  0.90900000  1.0 0.2131565686
C  C5  1  0.93300000  0.20800000  0.09100000  1.0 0.2131565686
C  C6  1  0.56700000  0.79200000  0.59100000  1.0 0.2131565686
C  C7  1  0.90900000  0.43300000  0.29200000  1.0 0.2131565686
C  C8  1  0.09100000  0.93300000  0.20800000  1.0 0.2131565686
C  C9  1  0.59100000  0.56700000  0.79200000  1.0 0.2131565686
C  C10  1  0.29200000  0.90900000  0.43300000  1.0 0.2131565686
C  C11  1  0.20800000  0.09100000  0.93300000  1.0 0.2131565686
C  C12  1  0.79200000  0.59100000  0.56700000  1.0 0.2131565686
C  C13  1  0.93300000  0.29200000  0.59100000  1.0 0.2131565686
C  C14  1  0.59100000  0.93300000  0.29200000  1.0 0.2131565686
C  C15  1  0.29200000  0.59100000  0.93300000  1.0 0.2131565686
C  C16  1  0.56700000  0.70800000  0.09100000  1.0 0.2131565686
C  C17  1  0.06700000  0.79200000  0.90900000  1.0 0.2131565686
C  C18  1  0.43300000  0.20800000  0.40900000  1.0 0.2131565686
C  C19  1  0.09100000  0.56700000  0.70800000  1.0 0.2131565686
C  C20  1  0.90900000  0.06700000  0.79200000  1.0 0.2131565686
C  C21  1  0.40900000  0.43300000  0.20800000  1.0 0.2131565686
C  C22  1  0.70800000  0.09100000  0.56700000  1.0 0.2131565686
C  C23  1  0.79200000  0.90900000  0.06700000  1.0 0.2131565686
C  C24  1  0.20800000  0.40900000  0.43300000  1.0 0.2131565686
S  S1  1  0.07510000  0.52070000  0.34450000  1.0 -0.2391368199
S  S2  1  0.34450000  0.07510000  0.52070000  1.0 -0.2391368199
S  S3  1  0.52070000  0.34450000  0.07510000  1.0 -0.2391368199
S  S4  1  0.42490000  0.47930000  0.84450000  1.0 -0.2391368199
S  S5  1  0.92490000  0.02070000  0.15550000  1.0 -0.2391368199
S  S6  1  0.57510000  0.97930000  0.65550000  1.0 -0.2391368199
S  S7  1  0.84450000  0.42490000  0.47930000  1.0 -0.2391368199
S  S8  1  0.15550000  0.92490000  0.02070000  1.0 -0.2391368199
S  S9  1  0.65550000  0.57510000  0.97930000  1.0 -0.2391368199
S  S10  1  0.47930000  0.84450000  0.42490000  1.0 -0.2391368199
S  S11  1  0.02070000  0.15550000  0.92490000  1.0 -0.2391368199
S  S12  1  0.97930000  0.65550000  0.57510000  1.0 -0.2391368199
S  S13  1  0.92490000  0.47930000  0.65550000  1.0 -0.2391368199
S  S14  1  0.65550000  0.92490000  0.47930000  1.0 -0.2391368199
S  S15  1  0.47930000  0.65550000  0.92490000  1.0 -0.2391368199
S  S16  1  0.57510000  0.52070000  0.15550000  1.0 -0.2391368199
S  S17  1  0.07510000  0.97930000  0.84450000  1.0 -0.2391368199
S  S18  1  0.42490000  0.02070000  0.34450000  1.0 -0.2391368199
S  S19  1  0.15550000  0.57510000  0.52070000  1.0 -0.2391368199
S  S20  1  0.84450000  0.07510000  0.97930000  1.0 -0.2391368199
S  S21  1  0.34450000  0.42490000  0.02070000  1.0 -0.2391368199
S  S22  1  0.52070000  0.15550000  0.57510000  1.0 -0.2391368199
S  S23  1  0.97930000  0.84450000  0.07510000  1.0 -0.2391368199
S  S24  1  0.02070000  0.34450000  0.42490000  1.0 -0.2391368199
S  S25  1  0.89960000  0.60040000  0.39960000  1.0 -0.1341229503
S  S26  1  0.39960000  0.89960000  0.60040000  1.0 -0.1387137049
S  S27  1  0.60040000  0.39960000  0.89960000  1.0 -0.1341229503
S  S28  1  0.10040000  0.10040000  0.10040000  1.0 -0.1387137049
S  S29  1  0.10040000  0.39960000  0.60040000  1.0 -0.1387137049
S  S30  1  0.60040000  0.10040000  0.39960000  1.0 -0.1387137049
S  S31  1  0.39960000  0.60040000  0.10040000  1.0 -0.1387137049
S  S32  1  0.89960000  0.89960000  0.89960000  1.0 -0.1341229503
N  N1  1  0.08500000  0.76800000  0.38600000  1.0 -0.4854433054
N  N2  1  0.38600000  0.08500000  0.76800000  1.0 -0.4843244875
N  N3  1  0.76800000  0.38600000  0.08500000  1.0 -0.4854433054
N  N4  1  0.41500000  0.23200000  0.88600000  1.0 -0.4843244875
N  N5  1  0.91500000  0.26800000  0.11400000  1.0 -0.4854433054
N  N6  1  0.58500000  0.73200000  0.61400000  1.0 -0.4854433054
N  N7  1  0.88600000  0.41500000  0.23200000  1.0 -0.4854433054
N  N8  1  0.11400000  0.91500000  0.26800000  1.0 -0.4854433054
N  N9  1  0.61400000  0.58500000  0.73200000  1.0 -0.4854433054
N  N10  1  0.23200000  0.88600000  0.41500000  1.0 -0.4854433054
N  N11  1  0.26800000  0.11400000  0.91500000  1.0 -0.4843244875
N  N12  1  0.73200000  0.61400000  0.58500000  1.0 -0.4854433054
N  N13  1  0.91500000  0.23200000  0.61400000  1.0 -0.4854433054
N  N14  1  0.61400000  0.91500000  0.23200000  1.0 -0.4854433054
N  N15  1  0.23200000  0.61400000  0.91500000  1.0 -0.4854433054
N  N16  1  0.58500000  0.76800000  0.11400000  1.0 -0.4854433054
N  N17  1  0.08500000  0.73200000  0.88600000  1.0 -0.4854433054
N  N18  1  0.41500000  0.26800000  0.38600000  1.0 -0.4854433054
N  N19  1  0.11400000  0.58500000  0.76800000  1.0 -0.4854433054
N  N20  1  0.88600000  0.08500000  0.73200000  1.0 -0.4854433054
N  N21  1  0.38600000  0.41500000  0.26800000  1.0 -0.4854433054
N  N22  1  0.76800000  0.11400000  0.58500000  1.0 -0.4854433054
N  N23  1  0.73200000  0.88600000  0.08500000  1.0 -0.4854433054
N  N24  1  0.26800000  0.38600000  0.41500000  1.0 -0.4843244875
