# DDEC6 charges by PACMAN v1.1 (https://github.com/mtap-research/PACMAN-charge/)
data_EGABAR_ion_pacman
_symmetry_space_group_name_H-M   'P 1'
_cell_length_a   10.31010000
_cell_length_b   10.31010000
_cell_length_c   16.11900000
_cell_angle_alpha   83.34650000
_cell_angle_beta   96.65350000
_cell_angle_gamma   65.30850000
_symmetry_Int_Tables_number   1
_chemical_formula_structural   Cd4CoH18C14(N3O14)2
_chemical_formula_sum   'Cd8 Co2 H36 C28 N12 O56'
_cell_volume   1520.44643584
_cell_formula_units_Z   2
loop_
 _symmetry_equiv_pos_site_id
 _symmetry_equiv_pos_as_xyz
  1  'x, y, z'
loop_
 _atom_site_type_symbol
 _atom_site_label
 _atom_site_symmetry_multiplicity
 _atom_site_fract_x
 _atom_site_fract_y
 _atom_site_fract_z
 _atom_site_occupancy
 _atom_site_charge
Cd  Cd1  1  0.39627000  0.71313000  0.11675000  1.0 0.9717840477
Cd  Cd2  1  0.71313000  0.39627000  0.38325000  1.0 0.9717840477
Cd  Cd3  1  0.60373000  0.28687000  0.88325000  1.0 0.9717840477
Cd  Cd4  1  0.28687000  0.60373000  0.61675000  1.0 0.9717840477
Cd  Cd5  1  0.25834000  0.92948000  0.90497000  1.0 0.918325059
Cd  Cd6  1  0.92948000  0.25834000  0.59503000  1.0 0.918325059
Cd  Cd7  1  0.74166000  0.07052000  0.09503000  1.0 0.918325059
Cd  Cd8  1  0.07052000  0.74166000  0.40497000  1.0 0.918325059
Co  Co1  1  0.23751000  0.23751000  0.25000000  1.0 0.7332422956
Co  Co2  1  0.76249000  0.76249000  0.75000000  1.0 0.7332422956
H  H1  1  0.11050000  0.11250000  0.18470000  1.0 0.2874097599
H  H2  1  0.11250000  0.11050000  0.31530000  1.0 0.2874097599
H  H3  1  0.22990000  0.09670000  0.14050000  1.0 0.2693881279
H  H4  1  0.09670000  0.22990000  0.35950000  1.0 0.2693881279
H  H5  1  0.09670000  0.23090000  0.12050000  1.0 0.2693881279
H  H6  1  0.23090000  0.09670000  0.37950000  1.0 0.2693881279
H  H7  1  0.06250000  0.47970000  0.25400000  1.0 0.2815129085
H  H8  1  0.47970000  0.06250000  0.24600000  1.0 0.2815129085
H  H9  1  0.98260000  0.39880000  0.22910000  1.0 0.2957023903
H  H10  1  0.39880000  0.98260000  0.27090000  1.0 0.2957023903
H  H11  1  0.04470000  0.45730000  0.16690000  1.0 0.2693881279
H  H12  1  0.45730000  0.04470000  0.33310000  1.0 0.2693881279
H  H13  1  0.36550000  0.36170000  0.18760000  1.0 0.2874097599
H  H14  1  0.36170000  0.36550000  0.31240000  1.0 0.2874097599
H  H15  1  0.24710000  0.37810000  0.12240000  1.0 0.2693881279
H  H16  1  0.37810000  0.24710000  0.37760000  1.0 0.2693881279
H  H17  1  0.38010000  0.24370000  0.14240000  1.0 0.2693881279
H  H18  1  0.24370000  0.38010000  0.35760000  1.0 0.2693881279
H  H19  1  0.88950000  0.88750000  0.81530000  1.0 0.2874097599
H  H20  1  0.88750000  0.88950000  0.68470000  1.0 0.2874097599
H  H21  1  0.77010000  0.90330000  0.85950000  1.0 0.2693881279
H  H22  1  0.90330000  0.77010000  0.64050000  1.0 0.2693881279
H  H23  1  0.90330000  0.76910000  0.87950000  1.0 0.2693881279
H  H24  1  0.76910000  0.90330000  0.62050000  1.0 0.2693881279
H  H25  1  0.93750000  0.52030000  0.74600000  1.0 0.2815129085
H  H26  1  0.52030000  0.93750000  0.75400000  1.0 0.2815129085
H  H27  1  0.01740000  0.60120000  0.77090000  1.0 0.2957023903
H  H28  1  0.60120000  0.01740000  0.72910000  1.0 0.2957023903
H  H29  1  0.95530000  0.54270000  0.83310000  1.0 0.2693881279
H  H30  1  0.54270000  0.95530000  0.66690000  1.0 0.2693881279
H  H31  1  0.63450000  0.63830000  0.81240000  1.0 0.2874097599
H  H32  1  0.63830000  0.63450000  0.68760000  1.0 0.2874097599
H  H33  1  0.75290000  0.62190000  0.87760000  1.0 0.2693881279
H  H34  1  0.62190000  0.75290000  0.62240000  1.0 0.2693881279
H  H35  1  0.61990000  0.75630000  0.85760000  1.0 0.2693881279
H  H36  1  0.75630000  0.61990000  0.64240000  1.0 0.2693881279
C  C1  1  0.20570000  0.68210000  0.24160000  1.0 0.4591621904
C  C2  1  0.68210000  0.20570000  0.25840000  1.0 0.4591621904
C  C3  1  0.79430000  0.31790000  0.75840000  1.0 0.4591621904
C  C4  1  0.31790000  0.79430000  0.74160000  1.0 0.4591621904
C  C5  1  0.47370000  0.56210000  0.96120000  1.0 0.469233252
C  C6  1  0.56210000  0.47370000  0.53880000  1.0 0.469233252
C  C7  1  0.52630000  0.43790000  0.03880000  1.0 0.469233252
C  C8  1  0.43790000  0.52630000  0.46120000  1.0 0.469233252
C  C9  1  0.04440000  0.93640000  0.03570000  1.0 0.469233252
C  C10  1  0.93640000  0.04440000  0.46430000  1.0 0.469233252
C  C11  1  0.95560000  0.06360000  0.96430000  1.0 0.469233252
C  C12  1  0.06360000  0.95560000  0.53570000  1.0 0.469233252
C  C13  1  0.25200000  0.79500000  0.27230000  1.0 0.4591621904
C  C14  1  0.79500000  0.25200000  0.22770000  1.0 0.4591621904
C  C15  1  0.74800000  0.20500000  0.72770000  1.0 0.4591621904
C  C16  1  0.20500000  0.74800000  0.77230000  1.0 0.4591621904
C  C17  1  0.48970000  0.03810000  0.90530000  1.0 0.2693881279
C  C18  1  0.03810000  0.48970000  0.59470000  1.0 0.2693881279
C  C19  1  0.51030000  0.96190000  0.09470000  1.0 0.2693881279
C  C20  1  0.96190000  0.51030000  0.40530000  1.0 0.2693881279
C  C21  1  0.34910000  0.18070000  0.88210000  1.0 0.097924821
C  C22  1  0.18070000  0.34910000  0.61790000  1.0 0.097924821
C  C23  1  0.65090000  0.81930000  0.11790000  1.0 0.097924821
C  C24  1  0.81930000  0.65090000  0.38210000  1.0 0.097924821
C  C25  1  0.53630000  0.99870000  0.95970000  1.0 0.2320190443
C  C26  1  0.99870000  0.53630000  0.54030000  1.0 0.2320190443
C  C27  1  0.46370000  0.00130000  0.04030000  1.0 0.2320190443
C  C28  1  0.00130000  0.46370000  0.45970000  1.0 0.2320190443
N  N1  1  0.15770000  0.15850000  0.16180000  1.0 -0.7317671106
N  N2  1  0.15850000  0.15770000  0.33820000  1.0 -0.7317671106
N  N3  1  0.05720000  0.41800000  0.22110000  1.0 -0.7181336955
N  N4  1  0.41800000  0.05720000  0.27890000  1.0 -0.7181336955
N  N5  1  0.31860000  0.31600000  0.16380000  1.0 -0.7134942637
N  N6  1  0.31600000  0.31860000  0.33620000  1.0 -0.7134942637
N  N7  1  0.84230000  0.84150000  0.83820000  1.0 -0.7317671106
N  N8  1  0.84150000  0.84230000  0.66180000  1.0 -0.7317671106
N  N9  1  0.94280000  0.58200000  0.77890000  1.0 -0.7181336955
N  N10  1  0.58200000  0.94280000  0.72110000  1.0 -0.7181336955
N  N11  1  0.68140000  0.68400000  0.83620000  1.0 -0.7134942637
N  N12  1  0.68400000  0.68140000  0.66380000  1.0 -0.7134942637
O  O1  1  0.26420000  0.61740000  0.18620000  1.0 -0.4628902749
O  O2  1  0.61740000  0.26420000  0.31380000  1.0 -0.4628902749
O  O3  1  0.73580000  0.38260000  0.81380000  1.0 -0.4628902749
O  O4  1  0.38260000  0.73580000  0.68620000  1.0 -0.4628902749
O  O5  1  0.33570000  0.82490000  0.23130000  1.0 -0.487496026
O  O6  1  0.82490000  0.33570000  0.26870000  1.0 -0.487496026
O  O7  1  0.66430000  0.17510000  0.76870000  1.0 -0.487496026
O  O8  1  0.17510000  0.66430000  0.73130000  1.0 -0.487496026
O  O9  1  0.48410000  0.53250000  0.88940000  1.0 -0.4687027113
O  O10  1  0.53250000  0.48410000  0.61060000  1.0 -0.4687027113
O  O11  1  0.51590000  0.46750000  0.11060000  1.0 -0.4687027113
O  O12  1  0.46750000  0.51590000  0.38940000  1.0 -0.4687027113
O  O13  1  0.36820000  0.30920000  0.85210000  1.0 -0.6180381851
O  O14  1  0.30920000  0.36820000  0.64790000  1.0 -0.6180381851
O  O15  1  0.63180000  0.69080000  0.14790000  1.0 -0.6180381851
O  O16  1  0.69080000  0.63180000  0.35210000  1.0 -0.6180381851
O  O17  1  0.42250000  0.68970000  0.97830000  1.0 -0.5640282111
O  O18  1  0.68970000  0.42250000  0.52170000  1.0 -0.5640282111
O  O19  1  0.57750000  0.31030000  0.02170000  1.0 -0.5640282111
O  O20  1  0.31030000  0.57750000  0.47830000  1.0 -0.5640282111
O  O21  1  0.16950000  0.85430000  0.02480000  1.0 -0.5307012872
O  O22  1  0.85430000  0.16950000  0.47520000  1.0 -0.5307012872
O  O23  1  0.83050000  0.14570000  0.97520000  1.0 -0.5307012872
O  O24  1  0.14570000  0.83050000  0.52480000  1.0 -0.5307012872
O  O25  1  0.60730000  0.05470000  0.90920000  1.0 -0.0755398871
O  O26  1  0.05470000  0.60730000  0.59080000  1.0 -0.0755398871
O  O27  1  0.39270000  0.94530000  0.09080000  1.0 -0.0734760949
O  O28  1  0.94530000  0.39270000  0.40920000  1.0 -0.0755398871
O  O29  1  0.20170000  0.85050000  0.33220000  1.0 -0.4806140439
O  O30  1  0.85050000  0.20170000  0.16780000  1.0 -0.4806140439
O  O31  1  0.79830000  0.14950000  0.66780000  1.0 -0.4806140439
O  O32  1  0.14950000  0.79830000  0.83220000  1.0 -0.4806140439
O  O33  1  0.48700000  0.94200000  0.90970000  1.0 -0.205292461
O  O34  1  0.94200000  0.48700000  0.59030000  1.0 -0.205292461
O  O35  1  0.51300000  0.05800000  0.09030000  1.0 -0.2042900698
O  O36  1  0.05800000  0.51300000  0.40970000  1.0 -0.205292461
O  O37  1  0.23340000  0.16700000  0.87990000  1.0 -0.0081225053
O  O38  1  0.16700000  0.23340000  0.62010000  1.0 -0.0081225053
O  O39  1  0.76660000  0.83300000  0.12010000  1.0 -0.0081225053
O  O40  1  0.83300000  0.76660000  0.37990000  1.0 -0.0081225053
O  O41  1  0.11300000  0.65980000  0.27690000  1.0 -0.5060318039
O  O42  1  0.65980000  0.11300000  0.22310000  1.0 -0.5060318039
O  O43  1  0.88700000  0.34020000  0.72310000  1.0 -0.5060318039
O  O44  1  0.34020000  0.88700000  0.77690000  1.0 -0.5060318039
O  O45  1  0.98830000  0.91950000  0.09700000  1.0 -0.4806140439
O  O46  1  0.91950000  0.98830000  0.40300000  1.0 -0.4806140439
O  O47  1  0.01170000  0.08050000  0.90300000  1.0 -0.4806140439
O  O48  1  0.08050000  0.01170000  0.59700000  1.0 -0.4806140439
O  O49  1  0.64170000  0.03250000  0.96520000  1.0 -0.1387896912
O  O50  1  0.03250000  0.64170000  0.53480000  1.0 -0.1387896912
O  O51  1  0.35830000  0.96750000  0.03480000  1.0 -0.1387896912
O  O52  1  0.96750000  0.35830000  0.46520000  1.0 -0.1387896912
O  O53  1  0.19050000  0.16770000  0.81030000  1.0 -0.022338935
O  O54  1  0.16770000  0.19050000  0.68970000  1.0 -0.022338935
O  O55  1  0.80950000  0.83230000  0.18970000  1.0 -0.022338935
O  O56  1  0.83230000  0.80950000  0.31030000  1.0 -0.022338935
