# DDEC6 charges by PACMAN v1.1 (https://github.com/mtap-research/PACMAN-charge/)
data_EGAWUH_ASR_pacman
_symmetry_space_group_name_H-M   'P 1'
_cell_length_a   20.35130000
_cell_length_b   20.35130000
_cell_length_c   18.84370000
_cell_angle_alpha   82.74640000
_cell_angle_beta   97.25360000
_cell_angle_gamma   114.85300000
_symmetry_Int_Tables_number   1
_chemical_formula_structural   Mn10Cd5H82C64(NO11)4
_chemical_formula_sum   'Mn20 Cd10 H164 C128 N8 O88'
_cell_volume   7001.86614575
_cell_formula_units_Z   2
loop_
 _symmetry_equiv_pos_site_id
 _symmetry_equiv_pos_as_xyz
  1  'x, y, z'
loop_
 _atom_site_type_symbol
 _atom_site_label
 _atom_site_symmetry_multiplicity
 _atom_site_fract_x
 _atom_site_fract_y
 _atom_site_fract_z
 _atom_site_occupancy
 _atom_site_charge
Mn  Mn1  1  0.97464000  0.43732000  0.70107000  1.0 0.9993022395
Mn  Mn2  1  0.84002000  0.47592000  0.25119000  1.0 0.9893793552
Mn  Mn3  1  0.88285000  0.51699000  0.41834000  1.0 0.9993022395
Mn  Mn4  1  0.91773000  0.38833000  0.35921000  1.0 1.0167490332
Mn  Mn5  1  0.95551000  0.42773000  0.52085000  1.0 1.0365000455
Mn  Mn6  1  0.43732000  0.97464000  0.79893000  1.0 0.9993022395
Mn  Mn7  1  0.47592000  0.84002000  0.24881000  1.0 0.9893793552
Mn  Mn8  1  0.51699000  0.88285000  0.08166000  1.0 0.9993022395
Mn  Mn9  1  0.38833000  0.91773000  0.14079000  1.0 1.0167490332
Mn  Mn10  1  0.42773000  0.95551000  0.97915000  1.0 1.0365000455
Mn  Mn11  1  0.02536000  0.56268000  0.29893000  1.0 0.9993022395
Mn  Mn12  1  0.15998000  0.52408000  0.74881000  1.0 0.9893793552
Mn  Mn13  1  0.11715000  0.48301000  0.58166000  1.0 0.9993022395
Mn  Mn14  1  0.08227000  0.61167000  0.64079000  1.0 1.0167490332
Mn  Mn15  1  0.04449000  0.57227000  0.47915000  1.0 1.0365000455
Mn  Mn16  1  0.56268000  0.02536000  0.20107000  1.0 0.9993022395
Mn  Mn17  1  0.52408000  0.15998000  0.75119000  1.0 0.9893793552
Mn  Mn18  1  0.48301000  0.11715000  0.91834000  1.0 0.9993022395
Mn  Mn19  1  0.61167000  0.08227000  0.85921000  1.0 1.0167490332
Mn  Mn20  1  0.57227000  0.04449000  0.02085000  1.0 1.0365000455
Cd  Cd1  1  0.87985000  0.56053000  0.57809000  1.0 0.9578756778
Cd  Cd2  1  0.47513000  0.05951000  0.56020000  1.0 0.9251906761
Cd  Cd3  1  0.56053000  0.87985000  0.92191000  1.0 0.9578756778
Cd  Cd4  1  0.05951000  0.47513000  0.93980000  1.0 0.9251906761
Cd  Cd5  1  0.12015000  0.43947000  0.42191000  1.0 0.9578756778
Cd  Cd6  1  0.52487000  0.94049000  0.43980000  1.0 0.9237417071
Cd  Cd7  1  0.43947000  0.12015000  0.07809000  1.0 0.9578756778
Cd  Cd8  1  0.94049000  0.52487000  0.06020000  1.0 0.9251906761
Cd  Cd9  1  0.03147000  0.03147000  0.25000000  1.0 0.4997532604
Cd  Cd10  1  0.96853000  0.96853000  0.75000000  1.0 0.4997532604
H  H1  1  0.80270000  0.26570000  0.44890000  1.0 0.100415829
H  H2  1  0.82130000  0.28490000  0.52880000  1.0 0.100415829
H  H3  1  0.73230000  0.40290000  0.38770000  1.0 0.1090884549
H  H4  1  0.74480000  0.34080000  0.35870000  1.0 0.0939582106
H  H5  1  0.79390000  0.37750000  0.56900000  1.0 0.1090884549
H  H6  1  0.75440000  0.41920000  0.51830000  1.0 0.100415829
H  H7  1  0.56440000  0.22720000  0.58740000  1.0 0.1090884549
H  H8  1  0.67240000  0.32740000  0.55890000  1.0 0.1406858192
H  H9  1  0.90640000  0.67460000  0.44390000  1.0 0.100415829
H  H10  1  0.98620000  0.70500000  0.47950000  1.0 0.1090884549
H  H11  1  0.08860000  0.72500000  0.41480000  1.0 0.0939582106
H  H12  1  0.08130000  0.71830000  0.33220000  1.0 0.100415829
H  H13  1  0.94650000  0.66030000  0.26710000  1.0 0.0828407569
H  H14  1  0.88130000  0.64610000  0.31170000  1.0 0.100415829
H  H15  1  0.03470000  0.88830000  0.20660000  1.0 0.1090884549
H  H16  1  0.03460000  0.77500000  0.25390000  1.0 0.1406858192
H  H17  1  0.96670000  0.90790000  0.38000000  1.0 0.1090884549
H  H18  1  0.94870000  0.79230000  0.42280000  1.0 0.1484710485
H  H19  1  0.32950000  0.17210000  0.59290000  1.0 0.1589147378
H  H20  1  0.34470000  0.15170000  0.67450000  1.0 0.1589147378
H  H21  1  0.39850000  0.22430000  0.63670000  1.0 0.1679529164
H  H22  1  0.67720000  0.54780000  0.37110000  1.0 0.1289822398
H  H23  1  0.64860000  0.52920000  0.44780000  1.0 0.1406858192
H  H24  1  0.69360000  0.61020000  0.42060000  1.0 0.1406858192
H  H25  1  0.57900000  0.13260000  0.43380000  1.0 0.1090884549
H  H26  1  0.68570000  0.22170000  0.40640000  1.0 0.1406858192
H  H27  1  0.74130000  0.26370000  0.14990000  1.0 0.1589147378
H  H28  1  0.80410000  0.23930000  0.17840000  1.0 0.1679529164
H  H29  1  0.73390000  0.21130000  0.21990000  1.0 0.1679529164
H  H30  1  0.76370000  0.39210000  0.76340000  1.0 0.1589147378
H  H31  1  0.84430000  0.40310000  0.78600000  1.0 0.1484710485
H  H32  1  0.81620000  0.45900000  0.80540000  1.0 0.1589147378
H  H33  1  0.23920000  0.90820000  0.63400000  1.0 0.1589147378
H  H34  1  0.28280000  0.95200000  0.56810000  1.0 0.1679529164
H  H35  1  0.27660000  0.87320000  0.59210000  1.0 0.1589147378
H  H36  1  0.00300000  0.76720000  0.70170000  1.0 0.1484710485
H  H37  1  0.06710000  0.75050000  0.68310000  1.0 0.1484710485
H  H38  1  0.03350000  0.79310000  0.62590000  1.0 0.1406858192
H  H39  1  0.65970000  0.98190000  0.66990000  1.0 0.1679529164
H  H40  1  0.60650000  0.91690000  0.62590000  1.0 0.1679529164
H  H41  1  0.66770000  0.98350000  0.58800000  1.0 0.1589147378
H  H42  1  0.26570000  0.80270000  0.05110000  1.0 0.100415829
H  H43  1  0.28490000  0.82130000  0.97120000  1.0 0.100415829
H  H44  1  0.40290000  0.73230000  0.11230000  1.0 0.1090884549
H  H45  1  0.34080000  0.74480000  0.14130000  1.0 0.0939582106
H  H46  1  0.37750000  0.79390000  0.93100000  1.0 0.1090884549
H  H47  1  0.41920000  0.75440000  0.98170000  1.0 0.100415829
H  H48  1  0.22720000  0.56440000  0.91260000  1.0 0.1090884549
H  H49  1  0.32740000  0.67240000  0.94110000  1.0 0.1406858192
H  H50  1  0.67460000  0.90640000  0.05610000  1.0 0.100415829
H  H51  1  0.70500000  0.98620000  0.02050000  1.0 0.1090884549
H  H52  1  0.72500000  0.08860000  0.08520000  1.0 0.0939582106
H  H53  1  0.71830000  0.08130000  0.16780000  1.0 0.100415829
H  H54  1  0.66030000  0.94650000  0.23290000  1.0 0.0828407569
H  H55  1  0.64610000  0.88130000  0.18830000  1.0 0.100415829
H  H56  1  0.88830000  0.03470000  0.29340000  1.0 0.1090884549
H  H57  1  0.77500000  0.03460000  0.24610000  1.0 0.1406858192
H  H58  1  0.90790000  0.96670000  0.12000000  1.0 0.1090884549
H  H59  1  0.79230000  0.94870000  0.07720000  1.0 0.1484710485
H  H60  1  0.17210000  0.32950000  0.90710000  1.0 0.1589147378
H  H61  1  0.15170000  0.34470000  0.82550000  1.0 0.1589147378
H  H62  1  0.22430000  0.39850000  0.86330000  1.0 0.1679529164
H  H63  1  0.54780000  0.67720000  0.12890000  1.0 0.1289822398
H  H64  1  0.52920000  0.64860000  0.05220000  1.0 0.1406858192
H  H65  1  0.61020000  0.69360000  0.07940000  1.0 0.1406858192
H  H66  1  0.13260000  0.57900000  0.06620000  1.0 0.1090884549
H  H67  1  0.22170000  0.68570000  0.09360000  1.0 0.1406858192
H  H68  1  0.26370000  0.74130000  0.35010000  1.0 0.1589147378
H  H69  1  0.23930000  0.80410000  0.32160000  1.0 0.1679529164
H  H70  1  0.21130000  0.73390000  0.28010000  1.0 0.1679529164
H  H71  1  0.39210000  0.76370000  0.73660000  1.0 0.1589147378
H  H72  1  0.40310000  0.84430000  0.71400000  1.0 0.1484710485
H  H73  1  0.45900000  0.81620000  0.69460000  1.0 0.1589147378
H  H74  1  0.90820000  0.23920000  0.86600000  1.0 0.1589147378
H  H75  1  0.95200000  0.28280000  0.93190000  1.0 0.1679529164
H  H76  1  0.87320000  0.27660000  0.90790000  1.0 0.1589147378
H  H77  1  0.76720000  0.00300000  0.79830000  1.0 0.1484710485
H  H78  1  0.75050000  0.06710000  0.81690000  1.0 0.1484710485
H  H79  1  0.79310000  0.03350000  0.87410000  1.0 0.1406858192
H  H80  1  0.98190000  0.65970000  0.83010000  1.0 0.1679529164
H  H81  1  0.91690000  0.60650000  0.87410000  1.0 0.1679529164
H  H82  1  0.98350000  0.66770000  0.91200000  1.0 0.1589147378
H  H83  1  0.19730000  0.73430000  0.55110000  1.0 0.100415829
H  H84  1  0.17870000  0.71510000  0.47120000  1.0 0.100415829
H  H85  1  0.26770000  0.59710000  0.61230000  1.0 0.1090884549
H  H86  1  0.25520000  0.65920000  0.64130000  1.0 0.0939582106
H  H87  1  0.20610000  0.62250000  0.43100000  1.0 0.1090884549
H  H88  1  0.24560000  0.58080000  0.48170000  1.0 0.100415829
H  H89  1  0.43560000  0.77280000  0.41260000  1.0 0.1090884549
H  H90  1  0.32760000  0.67260000  0.44110000  1.0 0.1406858192
H  H91  1  0.09360000  0.32540000  0.55610000  1.0 0.100415829
H  H92  1  0.01380000  0.29500000  0.52050000  1.0 0.1090884549
H  H93  1  0.91140000  0.27500000  0.58520000  1.0 0.0939582106
H  H94  1  0.91870000  0.28170000  0.66780000  1.0 0.100415829
H  H95  1  0.05350000  0.33970000  0.73290000  1.0 0.0828407569
H  H96  1  0.11870000  0.35390000  0.68830000  1.0 0.100415829
H  H97  1  0.96530000  0.11170000  0.79340000  1.0 0.1090884549
H  H98  1  0.96540000  0.22500000  0.74610000  1.0 0.1406858192
H  H99  1  0.03330000  0.09210000  0.62000000  1.0 0.1090884549
H  H100  1  0.05130000  0.20770000  0.57720000  1.0 0.1484710485
H  H101  1  0.67050000  0.82790000  0.40710000  1.0 0.1589147378
H  H102  1  0.65530000  0.84830000  0.32550000  1.0 0.1589147378
H  H103  1  0.60150000  0.77570000  0.36330000  1.0 0.1679529164
H  H104  1  0.32280000  0.45220000  0.62890000  1.0 0.1289822398
H  H105  1  0.35140000  0.47080000  0.55220000  1.0 0.1406858192
H  H106  1  0.30640000  0.38980000  0.57940000  1.0 0.1406858192
H  H107  1  0.42100000  0.86740000  0.56620000  1.0 0.1090884549
H  H108  1  0.31430000  0.77830000  0.59360000  1.0 0.1406858192
H  H109  1  0.25870000  0.73630000  0.85010000  1.0 0.1589147378
H  H110  1  0.19590000  0.76070000  0.82160000  1.0 0.1679529164
H  H111  1  0.26610000  0.78870000  0.78010000  1.0 0.1679529164
H  H112  1  0.23630000  0.60790000  0.23660000  1.0 0.1589147378
H  H113  1  0.15570000  0.59690000  0.21400000  1.0 0.1484710485
H  H114  1  0.18380000  0.54100000  0.19460000  1.0 0.1589147378
H  H115  1  0.76080000  0.09180000  0.36600000  1.0 0.1589147378
H  H116  1  0.71720000  0.04800000  0.43190000  1.0 0.1679529164
H  H117  1  0.72340000  0.12680000  0.40790000  1.0 0.1589147378
H  H118  1  0.99700000  0.23280000  0.29830000  1.0 0.1484710485
H  H119  1  0.93290000  0.24950000  0.31690000  1.0 0.1484710485
H  H120  1  0.96650000  0.20690000  0.37410000  1.0 0.1406858192
H  H121  1  0.34030000  0.01810000  0.33010000  1.0 0.1679529164
H  H122  1  0.39350000  0.08310000  0.37410000  1.0 0.1679529164
H  H123  1  0.33230000  0.01650000  0.41200000  1.0 0.1589147378
H  H124  1  0.73430000  0.19730000  0.94890000  1.0 0.100415829
H  H125  1  0.71510000  0.17870000  0.02880000  1.0 0.100415829
H  H126  1  0.59710000  0.26770000  0.88770000  1.0 0.1090884549
H  H127  1  0.65920000  0.25520000  0.85870000  1.0 0.0939582106
H  H128  1  0.62250000  0.20610000  0.06900000  1.0 0.1090884549
H  H129  1  0.58080000  0.24560000  0.01830000  1.0 0.100415829
H  H130  1  0.77280000  0.43560000  0.08740000  1.0 0.1090884549
H  H131  1  0.67260000  0.32760000  0.05890000  1.0 0.1406858192
H  H132  1  0.32540000  0.09360000  0.94390000  1.0 0.100415829
H  H133  1  0.29500000  0.01380000  0.97950000  1.0 0.1090884549
H  H134  1  0.27500000  0.91140000  0.91480000  1.0 0.0939582106
H  H135  1  0.28170000  0.91870000  0.83220000  1.0 0.100415829
H  H136  1  0.33970000  0.05350000  0.76710000  1.0 0.0828407569
H  H137  1  0.35390000  0.11870000  0.81170000  1.0 0.100415829
H  H138  1  0.11170000  0.96530000  0.70660000  1.0 0.1090884549
H  H139  1  0.22500000  0.96540000  0.75390000  1.0 0.1406858192
H  H140  1  0.09210000  0.03330000  0.88000000  1.0 0.1090884549
H  H141  1  0.20770000  0.05130000  0.92280000  1.0 0.1484710485
H  H142  1  0.82790000  0.67050000  0.09290000  1.0 0.1589147378
H  H143  1  0.84830000  0.65530000  0.17450000  1.0 0.1589147378
H  H144  1  0.77570000  0.60150000  0.13670000  1.0 0.1679529164
H  H145  1  0.45220000  0.32280000  0.87110000  1.0 0.1289822398
H  H146  1  0.47080000  0.35140000  0.94780000  1.0 0.1406858192
H  H147  1  0.38980000  0.30640000  0.92060000  1.0 0.1406858192
H  H148  1  0.86740000  0.42100000  0.93380000  1.0 0.1090884549
H  H149  1  0.77830000  0.31430000  0.90640000  1.0 0.1406858192
H  H150  1  0.73630000  0.25870000  0.64990000  1.0 0.1589147378
H  H151  1  0.76070000  0.19590000  0.67840000  1.0 0.1679529164
H  H152  1  0.78870000  0.26610000  0.71990000  1.0 0.1679529164
H  H153  1  0.60790000  0.23630000  0.26340000  1.0 0.1589147378
H  H154  1  0.59690000  0.15570000  0.28600000  1.0 0.1484710485
H  H155  1  0.54100000  0.18380000  0.30540000  1.0 0.1589147378
H  H156  1  0.09180000  0.76080000  0.13400000  1.0 0.1589147378
H  H157  1  0.04800000  0.71720000  0.06810000  1.0 0.1679529164
H  H158  1  0.12680000  0.72340000  0.09210000  1.0 0.1589147378
H  H159  1  0.23280000  0.99700000  0.20170000  1.0 0.1484710485
H  H160  1  0.24950000  0.93290000  0.18310000  1.0 0.1484710485
H  H161  1  0.20690000  0.96650000  0.12590000  1.0 0.1406858192
H  H162  1  0.01810000  0.34030000  0.16990000  1.0 0.1679529164
H  H163  1  0.08310000  0.39350000  0.12590000  1.0 0.1679529164
H  H164  1  0.01650000  0.33230000  0.08800000  1.0 0.1589147378
C  C1  1  0.69290000  0.28470000  0.48220000  1.0 0.100415829
C  C2  1  0.82180000  0.30560000  0.47950000  1.0 -0.014498835
C  C3  1  0.76550000  0.37950000  0.39080000  1.0 -0.029836672
C  C4  1  0.79170000  0.40070000  0.52110000  1.0 -0.0557231396
C  C5  1  0.76910000  0.34470000  0.46870000  1.0 0.0407560854
C  C6  1  0.75470000  0.55470000  0.44970000  1.0 0.6598941821
C  C7  1  0.58910000  0.22470000  0.55030000  1.0 0.1201778962
C  C8  1  0.65590000  0.28650000  0.53340000  1.0 -0.2112202706
C  C9  1  0.95280000  0.67120000  0.44610000  1.0 -0.0557231396
C  C10  1  0.05950000  0.69490000  0.37670000  1.0 -0.0211508223
C  C11  1  0.92760000  0.64260000  0.31380000  1.0 -0.0380482818
C  C12  1  0.98180000  0.69380000  0.37130000  1.0 0.0336800178
C  C13  1  0.98900000  0.77040000  0.34310000  1.0 0.1090884549
C  C14  1  0.02200000  0.87100000  0.25320000  1.0 0.0543012055
C  C15  1  0.01780000  0.80000000  0.27980000  1.0 -0.2211903127
C  C16  1  0.98040000  0.88140000  0.35280000  1.0 0.0543012055
C  C17  1  0.96960000  0.81120000  0.37950000  1.0 -0.2038111487
C  C18  1  0.40770000  0.13710000  0.61200000  1.0 0.6492128311
C  C19  1  0.36670000  0.17430000  0.63060000  1.0 -0.5892827572
C  C20  1  0.68780000  0.56100000  0.41980000  1.0 -0.6006483162
C  C21  1  0.59920000  0.17120000  0.46270000  1.0 0.0407560854
C  C22  1  0.80270000  0.31750000  0.23740000  1.0 0.682638341
C  C23  1  0.66280000  0.22540000  0.44460000  1.0 -0.2112202706
C  C24  1  0.83570000  0.47150000  0.70010000  1.0 0.682638341
C  C25  1  0.76720000  0.25180000  0.19220000  1.0 -0.6125820043
C  C26  1  0.81290000  0.42750000  0.77000000  1.0 -0.6375884326
C  C27  1  0.28070000  0.91770000  0.60860000  1.0 -0.6306269081
C  C28  1  0.34870000  0.94810000  0.65770000  1.0 0.6598941821
C  C29  1  0.58300000  0.00540000  0.60610000  1.0 0.6173707335
C  C30  1  0.96950000  0.68490000  0.63650000  1.0 0.6598941821
C  C31  1  0.02310000  0.75530000  0.66430000  1.0 -0.6006483162
C  C32  1  0.63380000  0.96860000  0.62410000  1.0 -0.6006483162
C  C33  1  0.28470000  0.69290000  0.01780000  1.0 0.100415829
C  C34  1  0.30560000  0.82180000  0.02050000  1.0 -0.014498835
C  C35  1  0.37950000  0.76550000  0.10920000  1.0 -0.029836672
C  C36  1  0.40070000  0.79170000  0.97890000  1.0 -0.0557231396
C  C37  1  0.34470000  0.76910000  0.03130000  1.0 0.0407560854
C  C38  1  0.55470000  0.75470000  0.05030000  1.0 0.6598941821
C  C39  1  0.22470000  0.58910000  0.94970000  1.0 0.1201778962
C  C40  1  0.28650000  0.65590000  0.96660000  1.0 -0.2112202706
C  C41  1  0.67120000  0.95280000  0.05390000  1.0 -0.0557231396
C  C42  1  0.69490000  0.05950000  0.12330000  1.0 -0.0211508223
C  C43  1  0.64260000  0.92760000  0.18620000  1.0 -0.0380482818
C  C44  1  0.69380000  0.98180000  0.12870000  1.0 0.0336800178
C  C45  1  0.77040000  0.98900000  0.15690000  1.0 0.100415829
C  C46  1  0.87100000  0.02200000  0.24680000  1.0 0.0543012055
C  C47  1  0.80000000  0.01780000  0.22020000  1.0 -0.2211903127
C  C48  1  0.88140000  0.98040000  0.14720000  1.0 0.0543012055
C  C49  1  0.81120000  0.96960000  0.12050000  1.0 -0.2038111487
C  C50  1  0.13710000  0.40770000  0.88800000  1.0 0.6492128311
C  C51  1  0.17430000  0.36670000  0.86940000  1.0 -0.5892827572
C  C52  1  0.56100000  0.68780000  0.08020000  1.0 -0.6006483162
C  C53  1  0.17120000  0.59920000  0.03730000  1.0 0.0336800178
C  C54  1  0.31750000  0.80270000  0.26260000  1.0 0.682638341
C  C55  1  0.22540000  0.66280000  0.05540000  1.0 -0.2112202706
C  C56  1  0.47150000  0.83570000  0.79990000  1.0 0.682638341
C  C57  1  0.25180000  0.76720000  0.30780000  1.0 -0.6125820043
C  C58  1  0.42750000  0.81290000  0.73000000  1.0 -0.6375884326
C  C59  1  0.91770000  0.28070000  0.89140000  1.0 -0.6306269081
C  C60  1  0.94810000  0.34870000  0.84230000  1.0 0.6598941821
C  C61  1  0.00540000  0.58300000  0.89390000  1.0 0.6173707335
C  C62  1  0.68490000  0.96950000  0.86350000  1.0 0.6598941821
C  C63  1  0.75530000  0.02310000  0.83570000  1.0 -0.6006483162
C  C64  1  0.96860000  0.63380000  0.87590000  1.0 -0.6006483162
C  C65  1  0.30710000  0.71530000  0.51780000  1.0 0.100415829
C  C66  1  0.17820000  0.69440000  0.52050000  1.0 -0.014498835
C  C67  1  0.23450000  0.62050000  0.60920000  1.0 -0.029836672
C  C68  1  0.20830000  0.59930000  0.47890000  1.0 -0.0557231396
C  C69  1  0.23090000  0.65530000  0.53130000  1.0 0.0407560854
C  C70  1  0.24530000  0.44530000  0.55030000  1.0 0.6598941821
C  C71  1  0.41090000  0.77530000  0.44970000  1.0 0.1201778962
C  C72  1  0.34410000  0.71350000  0.46660000  1.0 -0.2112202706
C  C73  1  0.04720000  0.32880000  0.55390000  1.0 -0.0557231396
C  C74  1  0.94050000  0.30510000  0.62330000  1.0 -0.0211508223
C  C75  1  0.07240000  0.35740000  0.68620000  1.0 -0.0380482818
C  C76  1  0.01820000  0.30620000  0.62870000  1.0 0.0336800178
C  C77  1  0.01100000  0.22960000  0.65690000  1.0 0.1090884549
C  C78  1  0.97800000  0.12900000  0.74680000  1.0 0.0543012055
C  C79  1  0.98220000  0.20000000  0.72020000  1.0 -0.2211903127
C  C80  1  0.01960000  0.11860000  0.64720000  1.0 0.0543012055
C  C81  1  0.03040000  0.18880000  0.62050000  1.0 -0.2038111487
C  C82  1  0.59230000  0.86290000  0.38800000  1.0 0.6492128311
C  C83  1  0.63330000  0.82570000  0.36940000  1.0 -0.5892827572
C  C84  1  0.31220000  0.43900000  0.58020000  1.0 -0.6006483162
C  C85  1  0.40080000  0.82880000  0.53730000  1.0 0.0336800178
C  C86  1  0.19730000  0.68250000  0.76260000  1.0 0.682638341
C  C87  1  0.33720000  0.77460000  0.55540000  1.0 -0.2112202706
C  C88  1  0.16430000  0.52850000  0.29990000  1.0 0.682638341
C  C89  1  0.23280000  0.74820000  0.80780000  1.0 -0.6125820043
C  C90  1  0.18710000  0.57250000  0.23000000  1.0 -0.6375884326
C  C91  1  0.71930000  0.08230000  0.39140000  1.0 -0.6306269081
C  C92  1  0.65130000  0.05190000  0.34230000  1.0 0.6598941821
C  C93  1  0.41700000  0.99460000  0.39390000  1.0 0.6173707335
C  C94  1  0.03050000  0.31510000  0.36350000  1.0 0.6598941821
C  C95  1  0.97690000  0.24470000  0.33570000  1.0 -0.6006483162
C  C96  1  0.36620000  0.03140000  0.37590000  1.0 -0.6006483162
C  C97  1  0.71530000  0.30710000  0.98220000  1.0 0.100415829
C  C98  1  0.69440000  0.17820000  0.97950000  1.0 -0.014498835
C  C99  1  0.62050000  0.23450000  0.89080000  1.0 -0.029836672
C  C100  1  0.59930000  0.20830000  0.02110000  1.0 -0.0557231396
C  C101  1  0.65530000  0.23090000  0.96870000  1.0 0.0407560854
C  C102  1  0.44530000  0.24530000  0.94970000  1.0 0.6598941821
C  C103  1  0.77530000  0.41090000  0.05030000  1.0 0.1201778962
C  C104  1  0.71350000  0.34410000  0.03340000  1.0 -0.2112202706
C  C105  1  0.32880000  0.04720000  0.94610000  1.0 -0.0557231396
C  C106  1  0.30510000  0.94050000  0.87670000  1.0 -0.0211508223
C  C107  1  0.35740000  0.07240000  0.81380000  1.0 -0.0380482818
C  C108  1  0.30620000  0.01820000  0.87130000  1.0 0.0336800178
C  C109  1  0.22960000  0.01100000  0.84310000  1.0 0.1090884549
C  C110  1  0.12900000  0.97800000  0.75320000  1.0 0.0543012055
C  C111  1  0.20000000  0.98220000  0.77980000  1.0 -0.2211903127
C  C112  1  0.11860000  0.01960000  0.85280000  1.0 0.0543012055
C  C113  1  0.18880000  0.03040000  0.87950000  1.0 -0.2038111487
C  C114  1  0.86290000  0.59230000  0.11200000  1.0 0.6492128311
C  C115  1  0.82570000  0.63330000  0.13060000  1.0 -0.5892827572
C  C116  1  0.43900000  0.31220000  0.91980000  1.0 -0.6006483162
C  C117  1  0.82880000  0.40080000  0.96270000  1.0 0.0336800178
C  C118  1  0.68250000  0.19730000  0.73740000  1.0 0.682638341
C  C119  1  0.77460000  0.33720000  0.94460000  1.0 -0.2112202706
C  C120  1  0.52850000  0.16430000  0.20010000  1.0 0.682638341
C  C121  1  0.74820000  0.23280000  0.69220000  1.0 -0.6125820043
C  C122  1  0.57250000  0.18710000  0.27000000  1.0 -0.6375884326
C  C123  1  0.08230000  0.71930000  0.10860000  1.0 -0.6306269081
C  C124  1  0.05190000  0.65130000  0.15770000  1.0 0.6598941821
C  C125  1  0.99460000  0.41700000  0.10610000  1.0 0.6173707335
C  C126  1  0.31510000  0.03050000  0.13650000  1.0 0.6598941821
C  C127  1  0.24470000  0.97690000  0.16430000  1.0 -0.6006483162
C  C128  1  0.03140000  0.36620000  0.12410000  1.0 -0.6006483162
N  N1  1  0.56270000  0.16770000  0.51750000  1.0 -0.2473334582
N  N2  1  0.00850000  0.91290000  0.29220000  1.0 -0.2211903127
N  N3  1  0.16770000  0.56270000  0.98250000  1.0 -0.2473334582
N  N4  1  0.91290000  0.00850000  0.20780000  1.0 -0.2255804898
N  N5  1  0.43730000  0.83230000  0.48250000  1.0 -0.2473334582
N  N6  1  0.99150000  0.08710000  0.70780000  1.0 -0.2255804898
N  N7  1  0.83230000  0.43730000  0.01750000  1.0 -0.2473334582
N  N8  1  0.08710000  0.99150000  0.79220000  1.0 -0.2255804898
O  O1  1  0.85990000  0.46090000  0.51120000  1.0 -0.5090150484
O  O2  1  0.89390000  0.34830000  0.46540000  1.0 -0.4862410264
O  O3  1  0.99020000  0.63520000  0.63400000  1.0 -0.5601335017
O  O4  1  0.83170000  0.43070000  0.36610000  1.0 -0.5191418217
O  O5  1  0.78700000  0.54200000  0.40750000  1.0 -0.5521671386
O  O6  1  0.78020000  0.56860000  0.51390000  1.0 -0.5601335017
O  O7  1  0.91570000  0.56930000  0.32710000  1.0 -0.5090150484
O  O8  1  0.94350000  0.59970000  0.47250000  1.0 -0.5090150484
O  O9  1  0.06430000  0.62830000  0.38950000  1.0 -0.4695593329
O  O10  1  0.46250000  0.13310000  0.65310000  1.0 -0.6006483162
O  O11  1  0.97900000  0.48740000  0.43430000  1.0 -0.7663441064
O  O12  1  0.38990000  0.10570000  0.55760000  1.0 -0.5191418217
O  O13  1  0.83980000  0.30760000  0.29760000  1.0 -0.6125820043
O  O14  1  0.79070000  0.36990000  0.21850000  1.0 -0.5321807773
O  O15  1  0.89130000  0.47510000  0.67540000  1.0 -0.5601335017
O  O16  1  0.79740000  0.50440000  0.66470000  1.0 -0.5601335017
O  O17  1  0.05800000  0.53620000  0.73090000  1.0 -0.7637013706
O  O18  1  0.34640000  0.94140000  0.72390000  1.0 -0.5521671386
O  O19  1  0.41000000  0.96380000  0.63480000  1.0 -0.5601335017
O  O20  1  0.91200000  0.68260000  0.60890000  1.0 -0.4977085577
O  O21  1  0.57350000  0.04630000  0.63330000  1.0 -0.3075204255
O  O22  1  0.54340000  0.99440000  0.54380000  1.0 -0.5090150484
O  O23  1  0.46090000  0.85990000  0.98880000  1.0 -0.5090150484
O  O24  1  0.34830000  0.89390000  0.03460000  1.0 -0.4862410264
O  O25  1  0.63520000  0.99020000  0.86600000  1.0 -0.5601335017
O  O26  1  0.43070000  0.83170000  0.13390000  1.0 -0.5191418217
O  O27  1  0.54200000  0.78700000  0.09250000  1.0 -0.5521671386
O  O28  1  0.56860000  0.78020000  0.98610000  1.0 -0.5601335017
O  O29  1  0.56930000  0.91570000  0.17290000  1.0 -0.5090150484
O  O30  1  0.59970000  0.94350000  0.02750000  1.0 -0.5090150484
O  O31  1  0.62830000  0.06430000  0.11050000  1.0 -0.4695593329
O  O32  1  0.13310000  0.46250000  0.84690000  1.0 -0.6006483162
O  O33  1  0.48740000  0.97900000  0.06570000  1.0 -0.7663441064
O  O34  1  0.10570000  0.38990000  0.94240000  1.0 -0.5191418217
O  O35  1  0.30760000  0.83980000  0.20240000  1.0 -0.6125820043
O  O36  1  0.36990000  0.79070000  0.28150000  1.0 -0.5321807773
O  O37  1  0.47510000  0.89130000  0.82460000  1.0 -0.5601335017
O  O38  1  0.50440000  0.79740000  0.83530000  1.0 -0.5601335017
O  O39  1  0.53620000  0.05800000  0.76910000  1.0 -0.7637013706
O  O40  1  0.94140000  0.34640000  0.77610000  1.0 -0.5443562181
O  O41  1  0.96380000  0.41000000  0.86520000  1.0 -0.5601335017
O  O42  1  0.68260000  0.91200000  0.89110000  1.0 -0.4977085577
O  O43  1  0.04630000  0.57350000  0.86670000  1.0 -0.3075204255
O  O44  1  0.99440000  0.54340000  0.95620000  1.0 -0.5090150484
O  O45  1  0.14010000  0.53910000  0.48880000  1.0 -0.5090150484
O  O46  1  0.10610000  0.65170000  0.53460000  1.0 -0.4862410264
O  O47  1  0.00980000  0.36480000  0.36600000  1.0 -0.5601335017
O  O48  1  0.16830000  0.56930000  0.63390000  1.0 -0.5191418217
O  O49  1  0.21300000  0.45800000  0.59250000  1.0 -0.5521671386
O  O50  1  0.21980000  0.43140000  0.48610000  1.0 -0.5601335017
O  O51  1  0.08430000  0.43070000  0.67290000  1.0 -0.5090150484
O  O52  1  0.05650000  0.40030000  0.52750000  1.0 -0.5090150484
O  O53  1  0.93570000  0.37170000  0.61050000  1.0 -0.4695593329
O  O54  1  0.53750000  0.86690000  0.34690000  1.0 -0.6006483162
O  O55  1  0.02100000  0.51260000  0.56570000  1.0 -0.7663441064
O  O56  1  0.61010000  0.89430000  0.44240000  1.0 -0.5191418217
O  O57  1  0.16020000  0.69240000  0.70240000  1.0 -0.6125820043
O  O58  1  0.20930000  0.63010000  0.78150000  1.0 -0.5321807773
O  O59  1  0.10870000  0.52490000  0.32460000  1.0 -0.5601335017
O  O60  1  0.20260000  0.49560000  0.33530000  1.0 -0.5601335017
O  O61  1  0.94200000  0.46380000  0.26910000  1.0 -0.7637013706
O  O62  1  0.65360000  0.05860000  0.27610000  1.0 -0.5443562181
O  O63  1  0.59000000  0.03620000  0.36520000  1.0 -0.5601335017
O  O64  1  0.08800000  0.31740000  0.39110000  1.0 -0.4977085577
O  O65  1  0.42650000  0.95370000  0.36670000  1.0 -0.3075204255
O  O66  1  0.45660000  0.00560000  0.45620000  1.0 -0.5090150484
O  O67  1  0.53910000  0.14010000  0.01120000  1.0 -0.5090150484
O  O68  1  0.65170000  0.10610000  0.96540000  1.0 -0.4862410264
O  O69  1  0.36480000  0.00980000  0.13400000  1.0 -0.5521671386
O  O70  1  0.56930000  0.16830000  0.86610000  1.0 -0.5191418217
O  O71  1  0.45800000  0.21300000  0.90750000  1.0 -0.5521671386
O  O72  1  0.43140000  0.21980000  0.01390000  1.0 -0.5601335017
O  O73  1  0.43070000  0.08430000  0.82710000  1.0 -0.5090150484
O  O74  1  0.40030000  0.05650000  0.97250000  1.0 -0.5090150484
O  O75  1  0.37170000  0.93570000  0.88950000  1.0 -0.4695593329
O  O76  1  0.86690000  0.53750000  0.15310000  1.0 -0.6006483162
O  O77  1  0.51260000  0.02100000  0.93430000  1.0 -0.7663441064
O  O78  1  0.89430000  0.61010000  0.05760000  1.0 -0.5191418217
O  O79  1  0.69240000  0.16020000  0.79760000  1.0 -0.6125820043
O  O80  1  0.63010000  0.20930000  0.71850000  1.0 -0.5321807773
O  O81  1  0.52490000  0.10870000  0.17540000  1.0 -0.5601335017
O  O82  1  0.49560000  0.20260000  0.16470000  1.0 -0.5601335017
O  O83  1  0.46380000  0.94200000  0.23090000  1.0 -0.7637013706
O  O84  1  0.05860000  0.65360000  0.22390000  1.0 -0.5443562181
O  O85  1  0.03620000  0.59000000  0.13480000  1.0 -0.5601335017
O  O86  1  0.31740000  0.08800000  0.10890000  1.0 -0.4977085577
O  O87  1  0.95370000  0.42650000  0.13330000  1.0 -0.3075204255
O  O88  1  0.00560000  0.45660000  0.04380000  1.0 -0.5090150484
