# DDEC6 charges by PACMAN v1.1 (https://github.com/mtap-research/PACMAN-charge/)
data_EGAXAO_ASR_pacman
_symmetry_space_group_name_H-M   'P 1'
_cell_length_a   25.79170000
_cell_length_b   25.79200000
_cell_length_c   33.42090000
_cell_angle_alpha   90.00000000
_cell_angle_beta   90.00000000
_cell_angle_gamma   90.00000000
_symmetry_Int_Tables_number   1
_chemical_formula_structural   Cd10Cu13H134C108(N2O15)4
_chemical_formula_sum   'Cd40 Cu52 H536 C432 N32 O240'
_cell_volume   22232.23526986
_cell_formula_units_Z   4
loop_
 _symmetry_equiv_pos_site_id
 _symmetry_equiv_pos_as_xyz
  1  'x, y, z'
loop_
 _atom_site_type_symbol
 _atom_site_label
 _atom_site_symmetry_multiplicity
 _atom_site_fract_x
 _atom_site_fract_y
 _atom_site_fract_z
 _atom_site_occupancy
 _atom_site_charge
Cd  Cd1  1  0.88832000  0.64252000  0.30401000  1.0 0.9903719069
Cd  Cd2  1  0.64523000  0.57341000  0.34562000  1.0 0.888277495
Cd  Cd3  1  0.82543000  0.39332000  0.33993000  1.0 0.9058164225
Cd  Cd4  1  0.75106000  0.50728000  0.16796000  1.0 1.0194416732
Cd  Cd5  1  0.65488000  0.56534000  0.10448000  1.0 0.9428651274
Cd  Cd6  1  0.61168000  0.14252000  0.19599000  1.0 0.9903719069
Cd  Cd7  1  0.85477000  0.07341000  0.15438000  1.0 0.888277495
Cd  Cd8  1  0.67457000  0.89332000  0.16007000  1.0 0.9058164225
Cd  Cd9  1  0.74894000  0.00728000  0.33204000  1.0 1.0194416732
Cd  Cd10  1  0.84512000  0.06534000  0.39552000  1.0 0.9428651274
Cd  Cd11  1  0.11168000  0.85748000  0.30401000  1.0 0.9903719069
Cd  Cd12  1  0.35477000  0.92659000  0.34562000  1.0 0.888277495
Cd  Cd13  1  0.17457000  0.10668000  0.33993000  1.0 0.9058164225
Cd  Cd14  1  0.24894000  0.99272000  0.16796000  1.0 1.0194416732
Cd  Cd15  1  0.34512000  0.93466000  0.10448000  1.0 0.9428651274
Cd  Cd16  1  0.38832000  0.35748000  0.19599000  1.0 0.9903719069
Cd  Cd17  1  0.14523000  0.42659000  0.15438000  1.0 0.888277495
Cd  Cd18  1  0.32543000  0.60668000  0.16007000  1.0 0.9058164225
Cd  Cd19  1  0.25106000  0.49272000  0.33204000  1.0 1.0194416732
Cd  Cd20  1  0.15488000  0.43466000  0.39552000  1.0 0.9428651274
Cd  Cd21  1  0.11168000  0.35748000  0.69599000  1.0 0.9903719069
Cd  Cd22  1  0.35477000  0.42659000  0.65438000  1.0 0.888277495
Cd  Cd23  1  0.17457000  0.60668000  0.66007000  1.0 0.9058164225
Cd  Cd24  1  0.24894000  0.49272000  0.83204000  1.0 1.0194416732
Cd  Cd25  1  0.34512000  0.43466000  0.89552000  1.0 0.9428651274
Cd  Cd26  1  0.38832000  0.85748000  0.80401000  1.0 0.9903719069
Cd  Cd27  1  0.14523000  0.92659000  0.84562000  1.0 0.888277495
Cd  Cd28  1  0.32543000  0.10668000  0.83993000  1.0 0.9058164225
Cd  Cd29  1  0.25106000  0.99272000  0.66796000  1.0 1.0194416732
Cd  Cd30  1  0.15488000  0.93466000  0.60448000  1.0 0.9428651274
Cd  Cd31  1  0.88832000  0.14252000  0.69599000  1.0 0.9903719069
Cd  Cd32  1  0.64523000  0.07341000  0.65438000  1.0 0.888277495
Cd  Cd33  1  0.82543000  0.89332000  0.66007000  1.0 0.9058164225
Cd  Cd34  1  0.75106000  0.00728000  0.83204000  1.0 1.0194416732
Cd  Cd35  1  0.65488000  0.06534000  0.89552000  1.0 0.9428651274
Cd  Cd36  1  0.61168000  0.64252000  0.80401000  1.0 0.9903719069
Cd  Cd37  1  0.85477000  0.57341000  0.84562000  1.0 0.888277495
Cd  Cd38  1  0.67457000  0.39332000  0.83993000  1.0 0.9058164225
Cd  Cd39  1  0.74894000  0.50728000  0.66796000  1.0 1.0194416732
Cd  Cd40  1  0.84512000  0.56534000  0.60448000  1.0 0.9428651274
Cu  Cu1  1  0.70301000  0.54289000  0.25692000  1.0 0.8216742293
Cu  Cu2  1  0.79078000  0.45674000  0.25287000  1.0 0.811408499
Cu  Cu3  1  0.76853000  0.60429000  0.32198000  1.0 0.8271620103
Cu  Cu4  1  0.82147000  0.57382000  0.23895000  1.0 0.8271620103
Cu  Cu5  1  0.85576000  0.51666000  0.31867000  1.0 0.7137765751
Cu  Cu6  1  0.73911000  0.48652000  0.33583000  1.0 0.811408499
Cu  Cu7  1  0.79699000  0.04289000  0.24308000  1.0 0.8216742293
Cu  Cu8  1  0.70922000  0.95674000  0.24713000  1.0 0.811408499
Cu  Cu9  1  0.73147000  0.10429000  0.17802000  1.0 0.8271620103
Cu  Cu10  1  0.67853000  0.07382000  0.26105000  1.0 0.8271620103
Cu  Cu11  1  0.64424000  0.01666000  0.18133000  1.0 0.7137765751
Cu  Cu12  1  0.76089000  0.98652000  0.16417000  1.0 0.811408499
Cu  Cu13  1  0.29699000  0.95711000  0.25692000  1.0 0.8216742293
Cu  Cu14  1  0.20922000  0.04326000  0.25287000  1.0 0.811408499
Cu  Cu15  1  0.23147000  0.89571000  0.32198000  1.0 0.8271620103
Cu  Cu16  1  0.17853000  0.92618000  0.23895000  1.0 0.8271620103
Cu  Cu17  1  0.14424000  0.98334000  0.31867000  1.0 0.7137765751
Cu  Cu18  1  0.26089000  0.01348000  0.33583000  1.0 0.811408499
Cu  Cu19  1  0.20301000  0.45711000  0.24308000  1.0 0.8216742293
Cu  Cu20  1  0.29078000  0.54326000  0.24713000  1.0 0.811408499
Cu  Cu21  1  0.26853000  0.39571000  0.17802000  1.0 0.8271620103
Cu  Cu22  1  0.32147000  0.42618000  0.26105000  1.0 0.8271620103
Cu  Cu23  1  0.35576000  0.48334000  0.18133000  1.0 0.7137765751
Cu  Cu24  1  0.23911000  0.51348000  0.16417000  1.0 0.811408499
Cu  Cu25  1  0.29699000  0.45711000  0.74308000  1.0 0.8216742293
Cu  Cu26  1  0.20922000  0.54326000  0.74713000  1.0 0.811408499
Cu  Cu27  1  0.23147000  0.39571000  0.67802000  1.0 0.8271620103
Cu  Cu28  1  0.17853000  0.42618000  0.76105000  1.0 0.8271620103
Cu  Cu29  1  0.14424000  0.48334000  0.68133000  1.0 0.7137765751
Cu  Cu30  1  0.26089000  0.51348000  0.66417000  1.0 0.811408499
Cu  Cu31  1  0.20301000  0.95711000  0.75692000  1.0 0.8216742293
Cu  Cu32  1  0.29078000  0.04326000  0.75287000  1.0 0.811408499
Cu  Cu33  1  0.26853000  0.89571000  0.82198000  1.0 0.8271620103
Cu  Cu34  1  0.32147000  0.92618000  0.73895000  1.0 0.8271620103
Cu  Cu35  1  0.35576000  0.98334000  0.81867000  1.0 0.7137765751
Cu  Cu36  1  0.23911000  0.01348000  0.83583000  1.0 0.811408499
Cu  Cu37  1  0.70301000  0.04289000  0.74308000  1.0 0.8216742293
Cu  Cu38  1  0.79078000  0.95674000  0.74713000  1.0 0.811408499
Cu  Cu39  1  0.76853000  0.10429000  0.67802000  1.0 0.8271620103
Cu  Cu40  1  0.82147000  0.07382000  0.76105000  1.0 0.8271620103
Cu  Cu41  1  0.85576000  0.01666000  0.68133000  1.0 0.7137765751
Cu  Cu42  1  0.73911000  0.98652000  0.66417000  1.0 0.811408499
Cu  Cu43  1  0.79699000  0.54289000  0.75692000  1.0 0.8216742293
Cu  Cu44  1  0.70922000  0.45674000  0.75287000  1.0 0.811408499
Cu  Cu45  1  0.73147000  0.60429000  0.82198000  1.0 0.8271620103
Cu  Cu46  1  0.67853000  0.57382000  0.73895000  1.0 0.8271620103
Cu  Cu47  1  0.64424000  0.51666000  0.81867000  1.0 0.7137765751
Cu  Cu48  1  0.76089000  0.48652000  0.83583000  1.0 0.811408499
Cu  Cu49  1  0.50000000  0.25000000  0.22797000  1.0 0.4168177039
Cu  Cu50  1  0.00000000  0.75000000  0.27203000  1.0 0.4168177039
Cu  Cu51  1  0.50000000  0.75000000  0.77203000  1.0 0.4168177039
Cu  Cu52  1  0.00000000  0.25000000  0.72797000  1.0 0.4168177039
H  H1  1  0.65180000  0.45460000  0.21650000  1.0 0.1091184576
H  H2  1  0.69350000  0.41080000  0.21210000  1.0 0.1002405653
H  H3  1  0.63020000  0.44790000  0.31980000  1.0 0.1002405653
H  H4  1  0.61370000  0.47540000  0.28000000  1.0 0.0927697386
H  H5  1  0.94080000  0.56090000  0.23650000  1.0 0.1002405653
H  H6  1  0.95360000  0.53040000  0.27580000  1.0 0.1091184576
H  H7  1  0.92840000  0.43650000  0.28250000  1.0 0.0927697386
H  H8  1  0.89510000  0.40940000  0.24940000  1.0 0.1002405653
H  H9  1  0.78090000  0.70310000  0.27740000  1.0 0.1091184576
H  H10  1  0.80740000  0.68890000  0.23660000  1.0 0.1002405653
H  H11  1  0.87050000  0.45720000  0.18730000  1.0 0.1091184576
H  H12  1  0.88540000  0.51560000  0.18220000  1.0 0.1091184576
H  H13  1  0.97290000  0.52990000  0.17570000  1.0 0.1403337312
H  H14  1  0.97930000  0.39990000  0.24070000  1.0 0.1279122212
H  H15  1  0.05920000  0.38360000  0.21210000  1.0 0.1279122212
H  H16  1  0.04760000  0.50700000  0.14500000  1.0 0.1203026647
H  H17  1  0.72560000  0.36500000  0.27380000  1.0 0.0927697386
H  H18  1  0.70140000  0.37720000  0.31570000  1.0 0.1091184576
H  H19  1  0.76080000  0.63810000  0.18650000  1.0 0.1002405653
H  H20  1  0.70240000  0.62310000  0.19170000  1.0 0.1091184576
H  H21  1  0.65710000  0.64690000  0.25850000  1.0 0.1091184576
H  H22  1  0.68890000  0.67820000  0.29020000  1.0 0.1091184576
H  H23  1  0.74280000  0.59980000  0.40700000  1.0 0.1203026647
H  H24  1  0.72580000  0.54270000  0.41640000  1.0 0.1091184576
H  H25  1  0.79670000  0.47080000  0.41490000  1.0 0.1091184576
H  H26  1  0.85410000  0.48630000  0.40570000  1.0 0.1002405653
H  H27  1  0.87790000  0.57410000  0.39240000  1.0 0.1091184576
H  H28  1  0.83760000  0.61930000  0.39480000  1.0 0.1091184576
H  H29  1  0.53790000  0.55070000  0.20270000  1.0 0.1481140624
H  H30  1  0.55570000  0.57360000  0.16150000  1.0 0.1593935389
H  H31  1  0.55550000  0.51350000  0.16830000  1.0 0.1797164266
H  H32  1  0.95140000  0.70440000  0.18470000  1.0 0.1481140624
H  H33  1  0.94620000  0.65440000  0.15820000  1.0 0.1481140624
H  H34  1  0.90370000  0.69780000  0.15610000  1.0 0.1593935389
H  H35  1  0.67470000  0.32350000  0.23970000  1.0 0.1481140624
H  H36  1  0.56230000  0.41560000  0.27580000  1.0 0.1403337312
H  H37  1  0.50480000  0.35310000  0.25970000  1.0 0.1203026647
H  H38  1  0.61390000  0.26060000  0.22580000  1.0 0.1203026647
H  H39  1  0.60710000  0.74100000  0.39220000  1.0 0.1481140624
H  H40  1  0.62970000  0.71020000  0.42870000  1.0 0.1481140624
H  H41  1  0.66720000  0.73360000  0.39650000  1.0 0.1403337312
H  H42  1  0.03050000  0.69950000  0.37970000  1.0 0.1593935389
H  H43  1  0.04690000  0.64210000  0.37100000  1.0 0.1481140624
H  H44  1  0.05990000  0.68590000  0.34000000  1.0 0.1403337312
H  H45  1  0.75820000  0.75530000  0.39060000  1.0 0.1481140624
H  H46  1  0.81700000  0.75600000  0.40270000  1.0 0.1593935389
H  H47  1  0.79820000  0.78670000  0.36490000  1.0 0.1481140624
H  H48  1  0.78120000  0.63330000  0.06900000  1.0 0.1403337312
H  H49  1  0.83930000  0.62190000  0.07940000  1.0 0.1593935389
H  H50  1  0.80950000  0.58570000  0.04970000  1.0 0.1481140624
H  H51  1  0.62310000  0.38510000  0.11370000  1.0 0.1593935389
H  H52  1  0.67770000  0.38900000  0.09320000  1.0 0.1698717118
H  H53  1  0.67280000  0.39400000  0.13980000  1.0 0.1593935389
H  H54  1  0.83490000  0.32120000  0.17310000  1.0 0.1481140624
H  H55  1  0.79800000  0.33200000  0.13670000  1.0 0.1481140624
H  H56  1  0.85010000  0.36280000  0.14090000  1.0 0.1593935389
H  H57  1  0.67170000  0.74460000  0.26730000  1.0 0.1403337312
H  H58  1  0.65170000  0.82460000  0.24040000  1.0 0.1203026647
H  H59  1  0.73410000  0.79000000  0.14240000  1.0 0.1279122212
H  H60  1  0.75420000  0.70990000  0.16920000  1.0 0.1481140624
H  H61  1  0.69980000  0.34970000  0.44540000  1.0 0.1279122212
H  H62  1  0.68380000  0.40710000  0.45470000  1.0 0.1203026647
H  H63  1  0.65090000  0.37390000  0.42470000  1.0 0.1403337312
H  H64  1  0.77280000  0.50870000  0.53750000  1.0 0.1279122212
H  H65  1  0.88260000  0.61630000  0.52040000  1.0 0.1091184576
H  H66  1  0.76010000  0.50330000  0.46920000  1.0 0.1403337312
H  H67  1  0.87060000  0.61030000  0.45190000  1.0 0.1403337312
H  H68  1  0.84820000  0.95460000  0.28350000  1.0 0.1091184576
H  H69  1  0.80650000  0.91080000  0.28790000  1.0 0.1002405653
H  H70  1  0.86980000  0.94790000  0.18020000  1.0 0.1002405653
H  H71  1  0.88630000  0.97540000  0.22000000  1.0 0.0927697386
H  H72  1  0.55920000  0.06090000  0.26350000  1.0 0.1002405653
H  H73  1  0.54640000  0.03040000  0.22420000  1.0 0.1091184576
H  H74  1  0.57160000  0.93650000  0.21750000  1.0 0.0927697386
H  H75  1  0.60490000  0.90940000  0.25060000  1.0 0.1002405653
H  H76  1  0.71910000  0.20310000  0.22260000  1.0 0.1091184576
H  H77  1  0.69260000  0.18890000  0.26340000  1.0 0.1002405653
H  H78  1  0.62950000  0.95720000  0.31270000  1.0 0.1091184576
H  H79  1  0.61460000  0.01560000  0.31780000  1.0 0.1091184576
H  H80  1  0.52710000  0.02990000  0.32430000  1.0 0.1403337312
H  H81  1  0.52070000  0.89990000  0.25930000  1.0 0.1279122212
H  H82  1  0.44080000  0.88360000  0.28790000  1.0 0.1279122212
H  H83  1  0.45240000  0.00700000  0.35500000  1.0 0.1203026647
H  H84  1  0.77440000  0.86500000  0.22620000  1.0 0.0927697386
H  H85  1  0.79860000  0.87720000  0.18430000  1.0 0.1091184576
H  H86  1  0.73920000  0.13810000  0.31350000  1.0 0.1002405653
H  H87  1  0.79760000  0.12310000  0.30830000  1.0 0.1091184576
H  H88  1  0.84290000  0.14690000  0.24150000  1.0 0.1091184576
H  H89  1  0.81110000  0.17820000  0.20980000  1.0 0.1091184576
H  H90  1  0.75720000  0.09980000  0.09300000  1.0 0.1203026647
H  H91  1  0.77420000  0.04270000  0.08360000  1.0 0.1091184576
H  H92  1  0.70330000  0.97080000  0.08510000  1.0 0.1091184576
H  H93  1  0.64590000  0.98630000  0.09430000  1.0 0.1002405653
H  H94  1  0.62210000  0.07410000  0.10760000  1.0 0.1091184576
H  H95  1  0.66240000  0.11930000  0.10520000  1.0 0.1091184576
H  H96  1  0.96210000  0.05070000  0.29730000  1.0 0.1481140624
H  H97  1  0.94430000  0.07360000  0.33850000  1.0 0.1593935389
H  H98  1  0.94450000  0.01350000  0.33170000  1.0 0.1797164266
H  H99  1  0.54860000  0.20440000  0.31530000  1.0 0.1481140624
H  H100  1  0.55380000  0.15440000  0.34180000  1.0 0.1481140624
H  H101  1  0.59630000  0.19780000  0.34390000  1.0 0.1593935389
H  H102  1  0.82530000  0.82350000  0.26030000  1.0 0.1481140624
H  H103  1  0.93770000  0.91560000  0.22420000  1.0 0.1403337312
H  H104  1  0.99520000  0.85310000  0.24030000  1.0 0.1203026647
H  H105  1  0.88610000  0.76060000  0.27420000  1.0 0.1203026647
H  H106  1  0.89290000  0.24100000  0.10780000  1.0 0.1481140624
H  H107  1  0.87030000  0.21020000  0.07130000  1.0 0.1481140624
H  H108  1  0.83280000  0.23360000  0.10350000  1.0 0.1403337312
H  H109  1  0.46950000  0.19950000  0.12030000  1.0 0.1593935389
H  H110  1  0.45310000  0.14210000  0.12900000  1.0 0.1481140624
H  H111  1  0.44010000  0.18590000  0.16000000  1.0 0.1403337312
H  H112  1  0.74180000  0.25530000  0.10940000  1.0 0.1481140624
H  H113  1  0.68300000  0.25600000  0.09730000  1.0 0.1593935389
H  H114  1  0.70180000  0.28670000  0.13510000  1.0 0.1481140624
H  H115  1  0.71880000  0.13330000  0.43100000  1.0 0.1403337312
H  H116  1  0.66070000  0.12190000  0.42060000  1.0 0.1593935389
H  H117  1  0.69050000  0.08570000  0.45030000  1.0 0.1481140624
H  H118  1  0.87690000  0.88510000  0.38630000  1.0 0.1593935389
H  H119  1  0.82230000  0.88900000  0.40680000  1.0 0.1698717118
H  H120  1  0.82720000  0.89400000  0.36020000  1.0 0.1593935389
H  H121  1  0.66510000  0.82120000  0.32690000  1.0 0.1481140624
H  H122  1  0.70200000  0.83200000  0.36330000  1.0 0.1481140624
H  H123  1  0.64990000  0.86280000  0.35910000  1.0 0.1593935389
H  H124  1  0.82830000  0.24460000  0.23270000  1.0 0.1403337312
H  H125  1  0.84830000  0.32460000  0.25960000  1.0 0.1203026647
H  H126  1  0.76590000  0.29000000  0.35760000  1.0 0.1279122212
H  H127  1  0.74580000  0.20990000  0.33080000  1.0 0.1481140624
H  H128  1  0.80020000  0.84970000  0.05460000  1.0 0.1279122212
H  H129  1  0.81620000  0.90710000  0.04530000  1.0 0.1203026647
H  H130  1  0.84910000  0.87390000  0.07530000  1.0 0.1403337312
H  H131  1  0.72720000  0.00870000  0.96250000  1.0 0.1279122212
H  H132  1  0.61740000  0.11630000  0.97960000  1.0 0.1091184576
H  H133  1  0.73990000  0.00330000  0.03080000  1.0 0.1481140624
H  H134  1  0.62940000  0.11030000  0.04810000  1.0 0.1403337312
H  H135  1  0.34820000  0.04540000  0.21650000  1.0 0.1091184576
H  H136  1  0.30650000  0.08920000  0.21210000  1.0 0.1002405653
H  H137  1  0.36980000  0.05210000  0.31980000  1.0 0.1002405653
H  H138  1  0.38630000  0.02460000  0.28000000  1.0 0.0927697386
H  H139  1  0.05920000  0.93910000  0.23650000  1.0 0.1002405653
H  H140  1  0.04640000  0.96960000  0.27580000  1.0 0.1091184576
H  H141  1  0.07160000  0.06350000  0.28250000  1.0 0.0927697386
H  H142  1  0.10490000  0.09060000  0.24940000  1.0 0.1002405653
H  H143  1  0.21910000  0.79690000  0.27740000  1.0 0.1091184576
H  H144  1  0.19260000  0.81110000  0.23660000  1.0 0.1002405653
H  H145  1  0.12950000  0.04280000  0.18730000  1.0 0.1091184576
H  H146  1  0.11460000  0.98440000  0.18220000  1.0 0.1091184576
H  H147  1  0.02710000  0.97010000  0.17570000  1.0 0.1403337312
H  H148  1  0.02070000  0.10010000  0.24070000  1.0 0.1279122212
H  H149  1  0.94080000  0.11640000  0.21210000  1.0 0.1279122212
H  H150  1  0.95240000  0.99300000  0.14500000  1.0 0.1203026647
H  H151  1  0.27440000  0.13500000  0.27380000  1.0 0.0927697386
H  H152  1  0.29860000  0.12280000  0.31570000  1.0 0.1091184576
H  H153  1  0.23920000  0.86190000  0.18650000  1.0 0.1002405653
H  H154  1  0.29760000  0.87690000  0.19170000  1.0 0.1091184576
H  H155  1  0.34290000  0.85310000  0.25850000  1.0 0.1091184576
H  H156  1  0.31110000  0.82180000  0.29020000  1.0 0.1091184576
H  H157  1  0.25720000  0.90020000  0.40700000  1.0 0.1203026647
H  H158  1  0.27420000  0.95730000  0.41640000  1.0 0.1091184576
H  H159  1  0.20330000  0.02920000  0.41490000  1.0 0.1091184576
H  H160  1  0.14590000  0.01370000  0.40570000  1.0 0.1002405653
H  H161  1  0.12210000  0.92590000  0.39240000  1.0 0.1091184576
H  H162  1  0.16240000  0.88070000  0.39480000  1.0 0.1091184576
H  H163  1  0.46210000  0.94930000  0.20270000  1.0 0.1481140624
H  H164  1  0.44430000  0.92640000  0.16150000  1.0 0.1593935389
H  H165  1  0.44450000  0.98650000  0.16830000  1.0 0.1797164266
H  H166  1  0.04860000  0.79560000  0.18470000  1.0 0.1481140624
H  H167  1  0.05380000  0.84560000  0.15820000  1.0 0.1481140624
H  H168  1  0.09630000  0.80220000  0.15610000  1.0 0.1593935389
H  H169  1  0.32530000  0.17650000  0.23970000  1.0 0.1481140624
H  H170  1  0.43770000  0.08440000  0.27580000  1.0 0.1403337312
H  H171  1  0.49520000  0.14690000  0.25970000  1.0 0.1203026647
H  H172  1  0.38610000  0.23940000  0.22580000  1.0 0.1203026647
H  H173  1  0.39290000  0.75900000  0.39220000  1.0 0.1481140624
H  H174  1  0.37030000  0.78980000  0.42870000  1.0 0.1481140624
H  H175  1  0.33280000  0.76640000  0.39650000  1.0 0.1403337312
H  H176  1  0.96950000  0.80050000  0.37970000  1.0 0.1593935389
H  H177  1  0.95310000  0.85790000  0.37100000  1.0 0.1481140624
H  H178  1  0.94010000  0.81410000  0.34000000  1.0 0.1403337312
H  H179  1  0.24180000  0.74470000  0.39060000  1.0 0.1481140624
H  H180  1  0.18300000  0.74400000  0.40270000  1.0 0.1593935389
H  H181  1  0.20180000  0.71330000  0.36490000  1.0 0.1481140624
H  H182  1  0.21880000  0.86670000  0.06900000  1.0 0.1403337312
H  H183  1  0.16070000  0.87810000  0.07940000  1.0 0.1593935389
H  H184  1  0.19050000  0.91430000  0.04970000  1.0 0.1481140624
H  H185  1  0.37690000  0.11490000  0.11370000  1.0 0.1593935389
H  H186  1  0.32230000  0.11100000  0.09320000  1.0 0.1698717118
H  H187  1  0.32720000  0.10600000  0.13980000  1.0 0.1593935389
H  H188  1  0.16510000  0.17880000  0.17310000  1.0 0.1481140624
H  H189  1  0.20200000  0.16800000  0.13670000  1.0 0.1481140624
H  H190  1  0.14990000  0.13720000  0.14090000  1.0 0.1593935389
H  H191  1  0.32830000  0.75540000  0.26730000  1.0 0.1403337312
H  H192  1  0.34830000  0.67540000  0.24040000  1.0 0.1203026647
H  H193  1  0.26590000  0.71000000  0.14240000  1.0 0.1279122212
H  H194  1  0.24580000  0.79010000  0.16920000  1.0 0.1481140624
H  H195  1  0.30020000  0.15030000  0.44540000  1.0 0.1279122212
H  H196  1  0.31620000  0.09290000  0.45470000  1.0 0.1203026647
H  H197  1  0.34910000  0.12610000  0.42470000  1.0 0.1403337312
H  H198  1  0.22720000  0.99130000  0.53750000  1.0 0.1279122212
H  H199  1  0.11740000  0.88370000  0.52040000  1.0 0.1091184576
H  H200  1  0.23990000  0.99670000  0.46920000  1.0 0.1481140624
H  H201  1  0.12940000  0.88970000  0.45190000  1.0 0.1403337312
H  H202  1  0.15180000  0.54540000  0.28350000  1.0 0.1091184576
H  H203  1  0.19350000  0.58920000  0.28790000  1.0 0.1002405653
H  H204  1  0.13020000  0.55210000  0.18020000  1.0 0.1002405653
H  H205  1  0.11370000  0.52460000  0.22000000  1.0 0.0927697386
H  H206  1  0.44080000  0.43910000  0.26350000  1.0 0.1002405653
H  H207  1  0.45360000  0.46960000  0.22420000  1.0 0.1091184576
H  H208  1  0.42840000  0.56350000  0.21750000  1.0 0.0927697386
H  H209  1  0.39510000  0.59060000  0.25060000  1.0 0.1002405653
H  H210  1  0.28090000  0.29690000  0.22260000  1.0 0.1091184576
H  H211  1  0.30740000  0.31110000  0.26340000  1.0 0.1002405653
H  H212  1  0.37050000  0.54280000  0.31270000  1.0 0.1091184576
H  H213  1  0.38540000  0.48440000  0.31780000  1.0 0.1091184576
H  H214  1  0.47290000  0.47010000  0.32430000  1.0 0.1403337312
H  H215  1  0.47930000  0.60010000  0.25930000  1.0 0.1279122212
H  H216  1  0.55920000  0.61640000  0.28790000  1.0 0.1279122212
H  H217  1  0.54760000  0.49300000  0.35500000  1.0 0.1203026647
H  H218  1  0.22560000  0.63500000  0.22620000  1.0 0.0927697386
H  H219  1  0.20140000  0.62280000  0.18430000  1.0 0.1091184576
H  H220  1  0.26080000  0.36190000  0.31350000  1.0 0.1002405653
H  H221  1  0.20240000  0.37690000  0.30830000  1.0 0.1091184576
H  H222  1  0.15710000  0.35310000  0.24150000  1.0 0.1091184576
H  H223  1  0.18890000  0.32180000  0.20980000  1.0 0.1091184576
H  H224  1  0.24280000  0.40020000  0.09300000  1.0 0.1203026647
H  H225  1  0.22580000  0.45730000  0.08360000  1.0 0.1091184576
H  H226  1  0.29670000  0.52920000  0.08510000  1.0 0.1091184576
H  H227  1  0.35410000  0.51370000  0.09430000  1.0 0.1002405653
H  H228  1  0.37790000  0.42590000  0.10760000  1.0 0.1091184576
H  H229  1  0.33760000  0.38070000  0.10520000  1.0 0.1091184576
H  H230  1  0.03790000  0.44930000  0.29730000  1.0 0.1481140624
H  H231  1  0.05570000  0.42640000  0.33850000  1.0 0.1593935389
H  H232  1  0.05550000  0.48650000  0.33170000  1.0 0.1797164266
H  H233  1  0.45140000  0.29560000  0.31530000  1.0 0.1481140624
H  H234  1  0.44620000  0.34560000  0.34180000  1.0 0.1481140624
H  H235  1  0.40370000  0.30220000  0.34390000  1.0 0.1593935389
H  H236  1  0.17470000  0.67650000  0.26030000  1.0 0.1481140624
H  H237  1  0.06230000  0.58440000  0.22420000  1.0 0.1403337312
H  H238  1  0.00480000  0.64690000  0.24030000  1.0 0.1203026647
H  H239  1  0.11390000  0.73940000  0.27420000  1.0 0.1203026647
H  H240  1  0.10710000  0.25900000  0.10780000  1.0 0.1481140624
H  H241  1  0.12970000  0.28980000  0.07130000  1.0 0.1481140624
H  H242  1  0.16720000  0.26640000  0.10350000  1.0 0.1403337312
H  H243  1  0.53050000  0.30050000  0.12030000  1.0 0.1593935389
H  H244  1  0.54690000  0.35790000  0.12900000  1.0 0.1481140624
H  H245  1  0.55990000  0.31410000  0.16000000  1.0 0.1403337312
H  H246  1  0.25820000  0.24470000  0.10940000  1.0 0.1481140624
H  H247  1  0.31700000  0.24400000  0.09730000  1.0 0.1593935389
H  H248  1  0.29820000  0.21330000  0.13510000  1.0 0.1481140624
H  H249  1  0.28120000  0.36670000  0.43100000  1.0 0.1403337312
H  H250  1  0.33930000  0.37810000  0.42060000  1.0 0.1593935389
H  H251  1  0.30950000  0.41430000  0.45030000  1.0 0.1481140624
H  H252  1  0.12310000  0.61490000  0.38630000  1.0 0.1593935389
H  H253  1  0.17770000  0.61100000  0.40680000  1.0 0.1698717118
H  H254  1  0.17280000  0.60600000  0.36020000  1.0 0.1593935389
H  H255  1  0.33490000  0.67880000  0.32690000  1.0 0.1481140624
H  H256  1  0.29800000  0.66800000  0.36330000  1.0 0.1481140624
H  H257  1  0.35010000  0.63720000  0.35910000  1.0 0.1593935389
H  H258  1  0.17170000  0.25540000  0.23270000  1.0 0.1403337312
H  H259  1  0.15170000  0.17540000  0.25960000  1.0 0.1203026647
H  H260  1  0.23410000  0.21000000  0.35760000  1.0 0.1279122212
H  H261  1  0.25420000  0.29010000  0.33080000  1.0 0.1481140624
H  H262  1  0.19980000  0.65030000  0.05460000  1.0 0.1279122212
H  H263  1  0.18380000  0.59290000  0.04530000  1.0 0.1203026647
H  H264  1  0.15090000  0.62610000  0.07530000  1.0 0.1403337312
H  H265  1  0.27280000  0.49130000  0.96250000  1.0 0.1279122212
H  H266  1  0.38260000  0.38370000  0.97960000  1.0 0.1091184576
H  H267  1  0.26010000  0.49670000  0.03080000  1.0 0.1481140624
H  H268  1  0.37060000  0.38970000  0.04810000  1.0 0.1403337312
H  H269  1  0.34820000  0.54540000  0.78350000  1.0 0.1091184576
H  H270  1  0.30650000  0.58920000  0.78790000  1.0 0.1002405653
H  H271  1  0.36980000  0.55210000  0.68020000  1.0 0.1002405653
H  H272  1  0.38630000  0.52460000  0.72000000  1.0 0.0927697386
H  H273  1  0.05920000  0.43910000  0.76350000  1.0 0.1002405653
H  H274  1  0.04640000  0.46960000  0.72420000  1.0 0.1091184576
H  H275  1  0.07160000  0.56350000  0.71750000  1.0 0.0927697386
H  H276  1  0.10490000  0.59060000  0.75060000  1.0 0.1002405653
H  H277  1  0.21910000  0.29690000  0.72260000  1.0 0.1091184576
H  H278  1  0.19260000  0.31110000  0.76340000  1.0 0.1002405653
H  H279  1  0.12950000  0.54280000  0.81270000  1.0 0.1091184576
H  H280  1  0.11460000  0.48440000  0.81780000  1.0 0.1091184576
H  H281  1  0.02710000  0.47010000  0.82430000  1.0 0.1403337312
H  H282  1  0.02070000  0.60010000  0.75930000  1.0 0.1279122212
H  H283  1  0.94080000  0.61640000  0.78790000  1.0 0.1279122212
H  H284  1  0.95240000  0.49300000  0.85500000  1.0 0.1203026647
H  H285  1  0.27440000  0.63500000  0.72620000  1.0 0.0927697386
H  H286  1  0.29860000  0.62280000  0.68430000  1.0 0.1091184576
H  H287  1  0.23920000  0.36190000  0.81350000  1.0 0.1002405653
H  H288  1  0.29760000  0.37690000  0.80830000  1.0 0.1091184576
H  H289  1  0.34290000  0.35310000  0.74150000  1.0 0.1091184576
H  H290  1  0.31110000  0.32180000  0.70980000  1.0 0.1091184576
H  H291  1  0.25720000  0.40020000  0.59300000  1.0 0.1203026647
H  H292  1  0.27420000  0.45730000  0.58360000  1.0 0.1091184576
H  H293  1  0.20330000  0.52920000  0.58510000  1.0 0.1091184576
H  H294  1  0.14590000  0.51370000  0.59430000  1.0 0.1002405653
H  H295  1  0.12210000  0.42590000  0.60760000  1.0 0.1091184576
H  H296  1  0.16240000  0.38070000  0.60520000  1.0 0.1091184576
H  H297  1  0.46210000  0.44930000  0.79730000  1.0 0.1481140624
H  H298  1  0.44430000  0.42640000  0.83850000  1.0 0.1593935389
H  H299  1  0.44450000  0.48650000  0.83170000  1.0 0.1797164266
H  H300  1  0.04860000  0.29560000  0.81530000  1.0 0.1481140624
H  H301  1  0.05380000  0.34560000  0.84180000  1.0 0.1481140624
H  H302  1  0.09630000  0.30220000  0.84390000  1.0 0.1593935389
H  H303  1  0.32530000  0.67650000  0.76030000  1.0 0.1481140624
H  H304  1  0.43770000  0.58440000  0.72420000  1.0 0.1403337312
H  H305  1  0.49520000  0.64690000  0.74030000  1.0 0.1203026647
H  H306  1  0.38610000  0.73940000  0.77420000  1.0 0.1203026647
H  H307  1  0.39290000  0.25900000  0.60780000  1.0 0.1481140624
H  H308  1  0.37030000  0.28980000  0.57130000  1.0 0.1481140624
H  H309  1  0.33280000  0.26640000  0.60350000  1.0 0.1403337312
H  H310  1  0.96950000  0.30050000  0.62030000  1.0 0.1593935389
H  H311  1  0.95310000  0.35790000  0.62900000  1.0 0.1481140624
H  H312  1  0.94010000  0.31410000  0.66000000  1.0 0.1403337312
H  H313  1  0.24180000  0.24470000  0.60940000  1.0 0.1481140624
H  H314  1  0.18300000  0.24400000  0.59730000  1.0 0.1593935389
H  H315  1  0.20180000  0.21330000  0.63510000  1.0 0.1481140624
H  H316  1  0.21880000  0.36670000  0.93100000  1.0 0.1403337312
H  H317  1  0.16070000  0.37810000  0.92060000  1.0 0.1593935389
H  H318  1  0.19050000  0.41430000  0.95030000  1.0 0.1481140624
H  H319  1  0.37690000  0.61490000  0.88630000  1.0 0.1593935389
H  H320  1  0.32230000  0.61100000  0.90680000  1.0 0.1698717118
H  H321  1  0.32720000  0.60600000  0.86020000  1.0 0.1593935389
H  H322  1  0.16510000  0.67880000  0.82690000  1.0 0.1481140624
H  H323  1  0.20200000  0.66800000  0.86330000  1.0 0.1481140624
H  H324  1  0.14990000  0.63720000  0.85910000  1.0 0.1593935389
H  H325  1  0.32830000  0.25540000  0.73270000  1.0 0.1403337312
H  H326  1  0.34830000  0.17540000  0.75960000  1.0 0.1203026647
H  H327  1  0.26590000  0.21000000  0.85760000  1.0 0.1279122212
H  H328  1  0.24580000  0.29010000  0.83080000  1.0 0.1481140624
H  H329  1  0.30020000  0.65030000  0.55460000  1.0 0.1279122212
H  H330  1  0.31620000  0.59290000  0.54530000  1.0 0.1203026647
H  H331  1  0.34910000  0.62610000  0.57530000  1.0 0.1403337312
H  H332  1  0.22720000  0.49130000  0.46250000  1.0 0.1279122212
H  H333  1  0.11740000  0.38370000  0.47960000  1.0 0.1091184576
H  H334  1  0.23990000  0.49670000  0.53080000  1.0 0.1481140624
H  H335  1  0.12940000  0.38970000  0.54810000  1.0 0.1403337312
H  H336  1  0.15180000  0.04540000  0.71650000  1.0 0.1091184576
H  H337  1  0.19350000  0.08920000  0.71210000  1.0 0.1002405653
H  H338  1  0.13020000  0.05210000  0.81980000  1.0 0.1002405653
H  H339  1  0.11370000  0.02460000  0.78000000  1.0 0.0927697386
H  H340  1  0.44080000  0.93910000  0.73650000  1.0 0.1002405653
H  H341  1  0.45360000  0.96960000  0.77580000  1.0 0.1091184576
H  H342  1  0.42840000  0.06350000  0.78250000  1.0 0.0927697386
H  H343  1  0.39510000  0.09060000  0.74940000  1.0 0.1002405653
H  H344  1  0.28090000  0.79690000  0.77740000  1.0 0.1091184576
H  H345  1  0.30740000  0.81110000  0.73660000  1.0 0.1002405653
H  H346  1  0.37050000  0.04280000  0.68730000  1.0 0.1091184576
H  H347  1  0.38540000  0.98440000  0.68220000  1.0 0.1091184576
H  H348  1  0.47290000  0.97010000  0.67570000  1.0 0.1403337312
H  H349  1  0.47930000  0.10010000  0.74070000  1.0 0.1279122212
H  H350  1  0.55920000  0.11640000  0.71210000  1.0 0.1279122212
H  H351  1  0.54760000  0.99300000  0.64500000  1.0 0.1203026647
H  H352  1  0.22560000  0.13500000  0.77380000  1.0 0.0927697386
H  H353  1  0.20140000  0.12280000  0.81570000  1.0 0.1091184576
H  H354  1  0.26080000  0.86190000  0.68650000  1.0 0.1002405653
H  H355  1  0.20240000  0.87690000  0.69170000  1.0 0.1091184576
H  H356  1  0.15710000  0.85310000  0.75850000  1.0 0.1091184576
H  H357  1  0.18890000  0.82180000  0.79020000  1.0 0.1091184576
H  H358  1  0.24280000  0.90020000  0.90700000  1.0 0.1203026647
H  H359  1  0.22580000  0.95730000  0.91640000  1.0 0.1091184576
H  H360  1  0.29670000  0.02920000  0.91490000  1.0 0.1091184576
H  H361  1  0.35410000  0.01370000  0.90570000  1.0 0.1002405653
H  H362  1  0.37790000  0.92590000  0.89240000  1.0 0.1091184576
H  H363  1  0.33760000  0.88070000  0.89480000  1.0 0.1091184576
H  H364  1  0.03790000  0.94930000  0.70270000  1.0 0.1481140624
H  H365  1  0.05570000  0.92640000  0.66150000  1.0 0.1593935389
H  H366  1  0.05550000  0.98650000  0.66830000  1.0 0.1797164266
H  H367  1  0.45140000  0.79560000  0.68470000  1.0 0.1481140624
H  H368  1  0.44620000  0.84560000  0.65820000  1.0 0.1481140624
H  H369  1  0.40370000  0.80220000  0.65610000  1.0 0.1593935389
H  H370  1  0.17470000  0.17650000  0.73970000  1.0 0.1481140624
H  H371  1  0.06230000  0.08440000  0.77580000  1.0 0.1403337312
H  H372  1  0.00480000  0.14690000  0.75970000  1.0 0.1203026647
H  H373  1  0.11390000  0.23940000  0.72580000  1.0 0.1203026647
H  H374  1  0.10710000  0.75900000  0.89220000  1.0 0.1481140624
H  H375  1  0.12970000  0.78980000  0.92870000  1.0 0.1481140624
H  H376  1  0.16720000  0.76640000  0.89650000  1.0 0.1403337312
H  H377  1  0.53050000  0.80050000  0.87970000  1.0 0.1593935389
H  H378  1  0.54690000  0.85790000  0.87100000  1.0 0.1481140624
H  H379  1  0.55990000  0.81410000  0.84000000  1.0 0.1403337312
H  H380  1  0.25820000  0.74470000  0.89060000  1.0 0.1481140624
H  H381  1  0.31700000  0.74400000  0.90270000  1.0 0.1593935389
H  H382  1  0.29820000  0.71330000  0.86490000  1.0 0.1481140624
H  H383  1  0.28120000  0.86670000  0.56900000  1.0 0.1403337312
H  H384  1  0.33930000  0.87810000  0.57940000  1.0 0.1593935389
H  H385  1  0.30950000  0.91430000  0.54970000  1.0 0.1481140624
H  H386  1  0.12310000  0.11490000  0.61370000  1.0 0.1593935389
H  H387  1  0.17770000  0.11100000  0.59320000  1.0 0.1698717118
H  H388  1  0.17280000  0.10600000  0.63980000  1.0 0.1593935389
H  H389  1  0.33490000  0.17880000  0.67310000  1.0 0.1481140624
H  H390  1  0.29800000  0.16800000  0.63670000  1.0 0.1481140624
H  H391  1  0.35010000  0.13720000  0.64090000  1.0 0.1593935389
H  H392  1  0.17170000  0.75540000  0.76730000  1.0 0.1403337312
H  H393  1  0.15170000  0.67540000  0.74040000  1.0 0.1203026647
H  H394  1  0.23410000  0.71000000  0.64240000  1.0 0.1279122212
H  H395  1  0.25420000  0.79010000  0.66920000  1.0 0.1481140624
H  H396  1  0.19980000  0.15030000  0.94540000  1.0 0.1279122212
H  H397  1  0.18380000  0.09290000  0.95470000  1.0 0.1203026647
H  H398  1  0.15090000  0.12610000  0.92470000  1.0 0.1403337312
H  H399  1  0.27280000  0.99130000  0.03750000  1.0 0.1279122212
H  H400  1  0.38260000  0.88370000  0.02040000  1.0 0.1091184576
H  H401  1  0.26010000  0.99670000  0.96920000  1.0 0.1403337312
H  H402  1  0.37060000  0.88970000  0.95190000  1.0 0.1403337312
H  H403  1  0.65180000  0.95460000  0.78350000  1.0 0.1091184576
H  H404  1  0.69350000  0.91080000  0.78790000  1.0 0.1002405653
H  H405  1  0.63020000  0.94790000  0.68020000  1.0 0.1002405653
H  H406  1  0.61370000  0.97540000  0.72000000  1.0 0.0927697386
H  H407  1  0.94080000  0.06090000  0.76350000  1.0 0.1002405653
H  H408  1  0.95360000  0.03040000  0.72420000  1.0 0.1091184576
H  H409  1  0.92840000  0.93650000  0.71750000  1.0 0.0927697386
H  H410  1  0.89510000  0.90940000  0.75060000  1.0 0.1002405653
H  H411  1  0.78090000  0.20310000  0.72260000  1.0 0.1091184576
H  H412  1  0.80740000  0.18890000  0.76340000  1.0 0.1002405653
H  H413  1  0.87050000  0.95720000  0.81270000  1.0 0.1091184576
H  H414  1  0.88540000  0.01560000  0.81780000  1.0 0.1091184576
H  H415  1  0.97290000  0.02990000  0.82430000  1.0 0.1403337312
H  H416  1  0.97930000  0.89990000  0.75930000  1.0 0.1279122212
H  H417  1  0.05920000  0.88360000  0.78790000  1.0 0.1279122212
H  H418  1  0.04760000  0.00700000  0.85500000  1.0 0.1203026647
H  H419  1  0.72560000  0.86500000  0.72620000  1.0 0.0927697386
H  H420  1  0.70140000  0.87720000  0.68430000  1.0 0.1091184576
H  H421  1  0.76080000  0.13810000  0.81350000  1.0 0.1002405653
H  H422  1  0.70240000  0.12310000  0.80830000  1.0 0.1091184576
H  H423  1  0.65710000  0.14690000  0.74150000  1.0 0.1091184576
H  H424  1  0.68890000  0.17820000  0.70980000  1.0 0.1091184576
H  H425  1  0.74280000  0.09980000  0.59300000  1.0 0.1203026647
H  H426  1  0.72580000  0.04270000  0.58360000  1.0 0.1091184576
H  H427  1  0.79670000  0.97080000  0.58510000  1.0 0.1091184576
H  H428  1  0.85410000  0.98630000  0.59430000  1.0 0.1002405653
H  H429  1  0.87790000  0.07410000  0.60760000  1.0 0.1091184576
H  H430  1  0.83760000  0.11930000  0.60520000  1.0 0.1091184576
H  H431  1  0.53790000  0.05070000  0.79730000  1.0 0.1481140624
H  H432  1  0.55570000  0.07360000  0.83850000  1.0 0.1593935389
H  H433  1  0.55550000  0.01350000  0.83170000  1.0 0.1797164266
H  H434  1  0.95140000  0.20440000  0.81530000  1.0 0.1481140624
H  H435  1  0.94620000  0.15440000  0.84180000  1.0 0.1481140624
H  H436  1  0.90370000  0.19780000  0.84390000  1.0 0.1593935389
H  H437  1  0.67470000  0.82350000  0.76030000  1.0 0.1481140624
H  H438  1  0.56230000  0.91560000  0.72420000  1.0 0.1403337312
H  H439  1  0.50480000  0.85310000  0.74030000  1.0 0.1203026647
H  H440  1  0.61390000  0.76060000  0.77420000  1.0 0.1203026647
H  H441  1  0.60710000  0.24100000  0.60780000  1.0 0.1481140624
H  H442  1  0.62970000  0.21020000  0.57130000  1.0 0.1481140624
H  H443  1  0.66720000  0.23360000  0.60350000  1.0 0.1403337312
H  H444  1  0.03050000  0.19950000  0.62030000  1.0 0.1593935389
H  H445  1  0.04690000  0.14210000  0.62900000  1.0 0.1481140624
H  H446  1  0.05990000  0.18590000  0.66000000  1.0 0.1403337312
H  H447  1  0.75820000  0.25530000  0.60940000  1.0 0.1481140624
H  H448  1  0.81700000  0.25600000  0.59730000  1.0 0.1593935389
H  H449  1  0.79820000  0.28670000  0.63510000  1.0 0.1481140624
H  H450  1  0.78120000  0.13330000  0.93100000  1.0 0.1403337312
H  H451  1  0.83930000  0.12190000  0.92060000  1.0 0.1593935389
H  H452  1  0.80950000  0.08570000  0.95030000  1.0 0.1481140624
H  H453  1  0.62310000  0.88510000  0.88630000  1.0 0.1593935389
H  H454  1  0.67770000  0.88900000  0.90680000  1.0 0.1698717118
H  H455  1  0.67280000  0.89400000  0.86020000  1.0 0.1593935389
H  H456  1  0.83490000  0.82120000  0.82690000  1.0 0.1481140624
H  H457  1  0.79800000  0.83200000  0.86330000  1.0 0.1481140624
H  H458  1  0.85010000  0.86280000  0.85910000  1.0 0.1593935389
H  H459  1  0.67170000  0.24460000  0.73270000  1.0 0.1403337312
H  H460  1  0.65170000  0.32460000  0.75960000  1.0 0.1203026647
H  H461  1  0.73410000  0.29000000  0.85760000  1.0 0.1279122212
H  H462  1  0.75420000  0.20990000  0.83080000  1.0 0.1481140624
H  H463  1  0.69980000  0.84970000  0.55460000  1.0 0.1279122212
H  H464  1  0.68380000  0.90710000  0.54530000  1.0 0.1203026647
H  H465  1  0.65090000  0.87390000  0.57530000  1.0 0.1403337312
H  H466  1  0.77280000  0.00870000  0.46250000  1.0 0.1279122212
H  H467  1  0.88260000  0.11630000  0.47960000  1.0 0.1091184576
H  H468  1  0.76010000  0.00330000  0.53080000  1.0 0.1481140624
H  H469  1  0.87060000  0.11030000  0.54810000  1.0 0.1403337312
H  H470  1  0.84820000  0.45460000  0.71650000  1.0 0.1091184576
H  H471  1  0.80650000  0.41080000  0.71210000  1.0 0.1002405653
H  H472  1  0.86980000  0.44790000  0.81980000  1.0 0.1002405653
H  H473  1  0.88630000  0.47540000  0.78000000  1.0 0.0927697386
H  H474  1  0.55920000  0.56090000  0.73650000  1.0 0.1002405653
H  H475  1  0.54640000  0.53040000  0.77580000  1.0 0.1091184576
H  H476  1  0.57160000  0.43650000  0.78250000  1.0 0.0927697386
H  H477  1  0.60490000  0.40940000  0.74940000  1.0 0.1002405653
H  H478  1  0.71910000  0.70310000  0.77740000  1.0 0.1091184576
H  H479  1  0.69260000  0.68890000  0.73660000  1.0 0.1002405653
H  H480  1  0.62950000  0.45720000  0.68730000  1.0 0.1091184576
H  H481  1  0.61460000  0.51560000  0.68220000  1.0 0.1091184576
H  H482  1  0.52710000  0.52990000  0.67570000  1.0 0.1403337312
H  H483  1  0.52070000  0.39990000  0.74070000  1.0 0.1279122212
H  H484  1  0.44080000  0.38360000  0.71210000  1.0 0.1279122212
H  H485  1  0.45240000  0.50700000  0.64500000  1.0 0.1203026647
H  H486  1  0.77440000  0.36500000  0.77380000  1.0 0.0927697386
H  H487  1  0.79860000  0.37720000  0.81570000  1.0 0.1091184576
H  H488  1  0.73920000  0.63810000  0.68650000  1.0 0.1002405653
H  H489  1  0.79760000  0.62310000  0.69170000  1.0 0.1091184576
H  H490  1  0.84290000  0.64690000  0.75850000  1.0 0.1091184576
H  H491  1  0.81110000  0.67820000  0.79020000  1.0 0.1091184576
H  H492  1  0.75720000  0.59980000  0.90700000  1.0 0.1203026647
H  H493  1  0.77420000  0.54270000  0.91640000  1.0 0.1091184576
H  H494  1  0.70330000  0.47080000  0.91490000  1.0 0.1091184576
H  H495  1  0.64590000  0.48630000  0.90570000  1.0 0.1002405653
H  H496  1  0.62210000  0.57410000  0.89240000  1.0 0.1091184576
H  H497  1  0.66240000  0.61930000  0.89480000  1.0 0.1091184576
H  H498  1  0.96210000  0.55070000  0.70270000  1.0 0.1481140624
H  H499  1  0.94430000  0.57360000  0.66150000  1.0 0.1593935389
H  H500  1  0.94450000  0.51350000  0.66830000  1.0 0.1797164266
H  H501  1  0.54860000  0.70440000  0.68470000  1.0 0.1481140624
H  H502  1  0.55380000  0.65440000  0.65820000  1.0 0.1481140624
H  H503  1  0.59630000  0.69780000  0.65610000  1.0 0.1593935389
H  H504  1  0.82530000  0.32350000  0.73970000  1.0 0.1481140624
H  H505  1  0.93770000  0.41560000  0.77580000  1.0 0.1403337312
H  H506  1  0.99520000  0.35310000  0.75970000  1.0 0.1203026647
H  H507  1  0.88610000  0.26060000  0.72580000  1.0 0.1203026647
H  H508  1  0.89290000  0.74100000  0.89220000  1.0 0.1481140624
H  H509  1  0.87030000  0.71020000  0.92870000  1.0 0.1481140624
H  H510  1  0.83280000  0.73360000  0.89650000  1.0 0.1403337312
H  H511  1  0.46950000  0.69950000  0.87970000  1.0 0.1593935389
H  H512  1  0.45310000  0.64210000  0.87100000  1.0 0.1481140624
H  H513  1  0.44010000  0.68590000  0.84000000  1.0 0.1403337312
H  H514  1  0.74180000  0.75530000  0.89060000  1.0 0.1481140624
H  H515  1  0.68300000  0.75600000  0.90270000  1.0 0.1593935389
H  H516  1  0.70180000  0.78670000  0.86490000  1.0 0.1481140624
H  H517  1  0.71880000  0.63330000  0.56900000  1.0 0.1403337312
H  H518  1  0.66070000  0.62190000  0.57940000  1.0 0.1593935389
H  H519  1  0.69050000  0.58570000  0.54970000  1.0 0.1481140624
H  H520  1  0.87690000  0.38510000  0.61370000  1.0 0.1593935389
H  H521  1  0.82230000  0.38900000  0.59320000  1.0 0.1698717118
H  H522  1  0.82720000  0.39400000  0.63980000  1.0 0.1593935389
H  H523  1  0.66510000  0.32120000  0.67310000  1.0 0.1481140624
H  H524  1  0.70200000  0.33200000  0.63670000  1.0 0.1481140624
H  H525  1  0.64990000  0.36280000  0.64090000  1.0 0.1593935389
H  H526  1  0.82830000  0.74460000  0.76730000  1.0 0.1403337312
H  H527  1  0.84830000  0.82460000  0.74040000  1.0 0.1203026647
H  H528  1  0.76590000  0.79000000  0.64240000  1.0 0.1279122212
H  H529  1  0.74580000  0.70990000  0.66920000  1.0 0.1481140624
H  H530  1  0.80020000  0.34970000  0.94540000  1.0 0.1279122212
H  H531  1  0.81620000  0.40710000  0.95470000  1.0 0.1203026647
H  H532  1  0.84910000  0.37390000  0.92470000  1.0 0.1403337312
H  H533  1  0.72720000  0.50870000  0.03750000  1.0 0.1279122212
H  H534  1  0.61740000  0.61630000  0.02040000  1.0 0.1091184576
H  H535  1  0.73990000  0.50330000  0.96920000  1.0 0.1403337312
H  H536  1  0.62940000  0.61030000  0.95190000  1.0 0.1403337312
C  C1  1  0.68240000  0.43960000  0.22870000  1.0 -0.0504315063
C  C2  1  0.66770000  0.41850000  0.27090000  1.0 0.0536859981
C  C3  1  0.64310000  0.46200000  0.29480000  1.0 -0.0504315063
C  C4  1  0.92730000  0.53600000  0.25560000  1.0 -0.0504315063
C  C5  1  0.91640000  0.48360000  0.23350000  1.0 0.0432830506
C  C6  1  0.90020000  0.44170000  0.26370000  1.0 -0.0753510728
C  C7  1  0.78430000  0.67620000  0.25730000  1.0 -0.0388496413
C  C8  1  0.71470000  0.71900000  0.22090000  1.0 0.1203026647
C  C9  1  0.73020000  0.66500000  0.23870000  1.0 0.0272049468
C  C10  1  0.87380000  0.48990000  0.20140000  1.0 -0.0321524537
C  C11  1  0.96600000  0.46840000  0.21210000  1.0 0.1091184576
C  C12  1  0.80570000  0.54900000  0.40800000  1.0 0.0272049468
C  C13  1  0.81430000  0.55590000  0.45370000  1.0 0.1091184576
C  C14  1  0.98910000  0.49920000  0.18320000  1.0 -0.2028586327
C  C15  1  0.99310000  0.42310000  0.22230000  1.0 -0.2161495791
C  C16  1  0.04110000  0.41310000  0.20430000  1.0 0.1091184576
C  C17  1  0.03480000  0.48620000  0.16540000  1.0 0.0536859981
C  C18  1  0.71300000  0.39270000  0.29080000  1.0 -0.0504315063
C  C19  1  0.62630000  0.37660000  0.26130000  1.0 0.1203026647
C  C20  1  0.73530000  0.62570000  0.20550000  1.0 -0.0321524537
C  C21  1  0.69090000  0.65020000  0.27090000  1.0 -0.0388496413
C  C22  1  0.74820000  0.56380000  0.39970000  1.0 -0.0388496413
C  C23  1  0.81830000  0.49300000  0.39850000  1.0 -0.0587828367
C  C24  1  0.61850000  0.54920000  0.19640000  1.0 0.6806707249
C  C25  1  0.84280000  0.58400000  0.38560000  1.0 -0.0388496413
C  C26  1  0.89720000  0.65310000  0.20720000  1.0 0.6806707249
C  C27  1  0.56140000  0.54650000  0.18070000  1.0 -0.6005224644
C  C28  1  0.92750000  0.68000000  0.17340000  1.0 -0.5884700556
C  C29  1  0.98080000  0.66410000  0.33730000  1.0 0.6514251471
C  C30  1  0.64000000  0.33020000  0.24490000  1.0 -0.2028586327
C  C31  1  0.57440000  0.38420000  0.26590000  1.0 -0.2161495791
C  C32  1  0.53980000  0.34600000  0.25590000  1.0 0.0795942592
C  C33  1  0.60300000  0.29230000  0.23600000  1.0 0.0536859981
C  C34  1  0.63080000  0.66990000  0.37780000  1.0 0.665715629
C  C35  1  0.63400000  0.71780000  0.40070000  1.0 -0.5884700556
C  C36  1  0.79460000  0.38820000  0.17910000  1.0 0.6582217307
C  C37  1  0.71860000  0.39940000  0.40040000  1.0 0.6991538347
C  C38  1  0.65020000  0.45550000  0.11080000  1.0 0.6582217307
C  C39  1  0.03490000  0.67390000  0.35920000  1.0 -0.5884700556
C  C40  1  0.80230000  0.70950000  0.35530000  1.0 0.6582217307
C  C41  1  0.79310000  0.75600000  0.38060000  1.0 -0.6005224644
C  C42  1  0.78950000  0.57300000  0.10770000  1.0 0.6514251471
C  C43  1  0.80640000  0.60650000  0.07340000  1.0 -0.5884700556
C  C44  1  0.65640000  0.40160000  0.11470000  1.0 -0.6095868706
C  C45  1  0.82180000  0.34740000  0.15530000  1.0 -0.5884700556
C  C46  1  0.68410000  0.75350000  0.24210000  1.0 -0.2028586327
C  C47  1  0.67170000  0.80130000  0.22580000  1.0 0.0795942592
C  C48  1  0.72100000  0.78060000  0.16730000  1.0 0.0746993746
C  C49  1  0.73330000  0.73280000  0.18350000  1.0 -0.2028586327
C  C50  1  0.68530000  0.38090000  0.43440000  1.0 -0.5696067962
C  C51  1  0.79240000  0.52910000  0.52030000  1.0 0.0795942592
C  C52  1  0.85810000  0.59330000  0.51010000  1.0 0.0536859981
C  C53  1  0.78490000  0.52580000  0.47940000  1.0 -0.2087941396
C  C54  1  0.85090000  0.58990000  0.46910000  1.0 -0.2028586327
C  C55  1  0.81760000  0.93960000  0.27130000  1.0 -0.0504315063
C  C56  1  0.83230000  0.91850000  0.22910000  1.0 0.0536859981
C  C57  1  0.85690000  0.96200000  0.20520000  1.0 -0.0504315063
C  C58  1  0.57270000  0.03600000  0.24440000  1.0 -0.0504315063
C  C59  1  0.58360000  0.98360000  0.26650000  1.0 0.0432830506
C  C60  1  0.59980000  0.94170000  0.23630000  1.0 -0.0753510728
C  C61  1  0.71570000  0.17620000  0.24270000  1.0 -0.0388496413
C  C62  1  0.78530000  0.21900000  0.27910000  1.0 0.1203026647
C  C63  1  0.76980000  0.16500000  0.26130000  1.0 0.0272049468
C  C64  1  0.62620000  0.98990000  0.29860000  1.0 -0.0321524537
C  C65  1  0.53400000  0.96840000  0.28790000  1.0 0.1091184576
C  C66  1  0.69430000  0.04900000  0.09200000  1.0 0.0272049468
C  C67  1  0.68570000  0.05590000  0.04630000  1.0 0.1091184576
C  C68  1  0.51090000  0.99920000  0.31680000  1.0 -0.2028586327
C  C69  1  0.50690000  0.92310000  0.27770000  1.0 -0.2161495791
C  C70  1  0.45890000  0.91310000  0.29570000  1.0 0.1091184576
C  C71  1  0.46520000  0.98620000  0.33460000  1.0 0.0536859981
C  C72  1  0.78700000  0.89270000  0.20920000  1.0 -0.0504315063
C  C73  1  0.87370000  0.87660000  0.23870000  1.0 0.1203026647
C  C74  1  0.76470000  0.12570000  0.29450000  1.0 -0.0321524537
C  C75  1  0.80910000  0.15020000  0.22910000  1.0 -0.0388496413
C  C76  1  0.75180000  0.06380000  0.10030000  1.0 -0.0388496413
C  C77  1  0.68170000  0.99300000  0.10150000  1.0 -0.0587828367
C  C78  1  0.88150000  0.04920000  0.30360000  1.0 0.6806707249
C  C79  1  0.65720000  0.08400000  0.11440000  1.0 -0.0388496413
C  C80  1  0.60280000  0.15310000  0.29280000  1.0 0.6806707249
C  C81  1  0.93860000  0.04650000  0.31930000  1.0 -0.6005224644
C  C82  1  0.57250000  0.18000000  0.32660000  1.0 -0.5884700556
C  C83  1  0.51920000  0.16410000  0.16270000  1.0 0.6514251471
C  C84  1  0.86000000  0.83020000  0.25510000  1.0 -0.2028586327
C  C85  1  0.92560000  0.88420000  0.23410000  1.0 -0.2161495791
C  C86  1  0.96020000  0.84600000  0.24410000  1.0 0.0795942592
C  C87  1  0.89700000  0.79230000  0.26400000  1.0 0.0536859981
C  C88  1  0.86920000  0.16990000  0.12220000  1.0 0.665715629
C  C89  1  0.86600000  0.21780000  0.09930000  1.0 -0.5884700556
C  C90  1  0.70540000  0.88820000  0.32090000  1.0 0.6582217307
C  C91  1  0.78140000  0.89940000  0.09960000  1.0 0.6991538347
C  C92  1  0.84980000  0.95550000  0.38920000  1.0 0.6582217307
C  C93  1  0.46510000  0.17390000  0.14080000  1.0 -0.5884700556
C  C94  1  0.69770000  0.20950000  0.14470000  1.0 0.6582217307
C  C95  1  0.70690000  0.25600000  0.11940000  1.0 -0.6005224644
C  C96  1  0.71050000  0.07300000  0.39230000  1.0 0.6514251471
C  C97  1  0.69360000  0.10650000  0.42660000  1.0 -0.5884700556
C  C98  1  0.84360000  0.90160000  0.38530000  1.0 -0.6095868706
C  C99  1  0.67820000  0.84740000  0.34470000  1.0 -0.5884700556
C  C100  1  0.81590000  0.25350000  0.25790000  1.0 -0.2028586327
C  C101  1  0.82830000  0.30130000  0.27420000  1.0 0.0795942592
C  C102  1  0.77900000  0.28060000  0.33270000  1.0 0.0746993746
C  C103  1  0.76670000  0.23280000  0.31650000  1.0 -0.2028586327
C  C104  1  0.81470000  0.88090000  0.06560000  1.0 -0.5696067962
C  C105  1  0.70760000  0.02910000  0.97970000  1.0 0.0795942592
C  C106  1  0.64190000  0.09330000  0.98990000  1.0 0.0536859981
C  C107  1  0.71510000  0.02580000  0.02060000  1.0 -0.2087941396
C  C108  1  0.64910000  0.08990000  0.03090000  1.0 -0.2028586327
C  C109  1  0.31760000  0.06040000  0.22870000  1.0 -0.0504315063
C  C110  1  0.33230000  0.08150000  0.27090000  1.0 0.0536859981
C  C111  1  0.35690000  0.03800000  0.29480000  1.0 -0.0504315063
C  C112  1  0.07270000  0.96400000  0.25560000  1.0 -0.0504315063
C  C113  1  0.08360000  0.01640000  0.23350000  1.0 0.0432830506
C  C114  1  0.09980000  0.05830000  0.26370000  1.0 -0.0753510728
C  C115  1  0.21570000  0.82380000  0.25730000  1.0 -0.0388496413
C  C116  1  0.28530000  0.78100000  0.22090000  1.0 0.1203026647
C  C117  1  0.26980000  0.83500000  0.23870000  1.0 0.0272049468
C  C118  1  0.12620000  0.01010000  0.20140000  1.0 -0.0321524537
C  C119  1  0.03400000  0.03160000  0.21210000  1.0 0.1091184576
C  C120  1  0.19430000  0.95100000  0.40800000  1.0 0.0272049468
C  C121  1  0.18570000  0.94410000  0.45370000  1.0 0.1091184576
C  C122  1  0.01090000  0.00080000  0.18320000  1.0 -0.2028586327
C  C123  1  0.00690000  0.07690000  0.22230000  1.0 -0.2161495791
C  C124  1  0.95890000  0.08690000  0.20430000  1.0 0.1091184576
C  C125  1  0.96520000  0.01380000  0.16540000  1.0 0.0536859981
C  C126  1  0.28700000  0.10730000  0.29080000  1.0 -0.0504315063
C  C127  1  0.37370000  0.12340000  0.26130000  1.0 0.1203026647
C  C128  1  0.26470000  0.87430000  0.20550000  1.0 -0.0321524537
C  C129  1  0.30910000  0.84980000  0.27090000  1.0 -0.0388496413
C  C130  1  0.25180000  0.93620000  0.39970000  1.0 -0.0388496413
C  C131  1  0.18170000  0.00700000  0.39850000  1.0 -0.0587828367
C  C132  1  0.38150000  0.95080000  0.19640000  1.0 0.6806707249
C  C133  1  0.15720000  0.91600000  0.38560000  1.0 -0.0388496413
C  C134  1  0.10280000  0.84690000  0.20720000  1.0 0.6806707249
C  C135  1  0.43860000  0.95350000  0.18070000  1.0 -0.6005224644
C  C136  1  0.07250000  0.82000000  0.17340000  1.0 -0.5884700556
C  C137  1  0.01920000  0.83590000  0.33730000  1.0 0.6514251471
C  C138  1  0.36000000  0.16980000  0.24490000  1.0 -0.2028586327
C  C139  1  0.42560000  0.11580000  0.26590000  1.0 -0.2161495791
C  C140  1  0.46020000  0.15400000  0.25590000  1.0 0.0795942592
C  C141  1  0.39700000  0.20770000  0.23600000  1.0 0.0536859981
C  C142  1  0.36920000  0.83010000  0.37780000  1.0 0.665715629
C  C143  1  0.36600000  0.78220000  0.40070000  1.0 -0.5884700556
C  C144  1  0.20540000  0.11180000  0.17910000  1.0 0.6582217307
C  C145  1  0.28140000  0.10060000  0.40040000  1.0 0.6991538347
C  C146  1  0.34980000  0.04450000  0.11080000  1.0 0.6582217307
C  C147  1  0.96510000  0.82610000  0.35920000  1.0 -0.5884700556
C  C148  1  0.19770000  0.79050000  0.35530000  1.0 0.6582217307
C  C149  1  0.20690000  0.74400000  0.38060000  1.0 -0.6005224644
C  C150  1  0.21050000  0.92700000  0.10770000  1.0 0.6514251471
C  C151  1  0.19360000  0.89350000  0.07340000  1.0 -0.5884700556
C  C152  1  0.34360000  0.09840000  0.11470000  1.0 -0.6095868706
C  C153  1  0.17820000  0.15260000  0.15530000  1.0 -0.5884700556
C  C154  1  0.31590000  0.74650000  0.24210000  1.0 -0.2028586327
C  C155  1  0.32830000  0.69870000  0.22580000  1.0 0.0795942592
C  C156  1  0.27900000  0.71940000  0.16730000  1.0 0.0746993746
C  C157  1  0.26670000  0.76720000  0.18350000  1.0 -0.2028586327
C  C158  1  0.31470000  0.11910000  0.43440000  1.0 -0.5696067962
C  C159  1  0.20760000  0.97090000  0.52030000  1.0 0.0795942592
C  C160  1  0.14190000  0.90670000  0.51010000  1.0 0.0536859981
C  C161  1  0.21510000  0.97420000  0.47940000  1.0 -0.2087941396
C  C162  1  0.14910000  0.91010000  0.46910000  1.0 -0.2028586327
C  C163  1  0.18240000  0.56040000  0.27130000  1.0 -0.0504315063
C  C164  1  0.16770000  0.58150000  0.22910000  1.0 0.0536859981
C  C165  1  0.14310000  0.53800000  0.20520000  1.0 -0.0504315063
C  C166  1  0.42730000  0.46400000  0.24440000  1.0 -0.0504315063
C  C167  1  0.41640000  0.51640000  0.26650000  1.0 0.0432830506
C  C168  1  0.40020000  0.55830000  0.23630000  1.0 -0.0753510728
C  C169  1  0.28430000  0.32380000  0.24270000  1.0 -0.0388496413
C  C170  1  0.21470000  0.28100000  0.27910000  1.0 0.1203026647
C  C171  1  0.23020000  0.33500000  0.26130000  1.0 0.0272049468
C  C172  1  0.37380000  0.51010000  0.29860000  1.0 -0.0321524537
C  C173  1  0.46600000  0.53160000  0.28790000  1.0 0.1091184576
C  C174  1  0.30570000  0.45100000  0.09200000  1.0 0.0272049468
C  C175  1  0.31430000  0.44410000  0.04630000  1.0 0.1091184576
C  C176  1  0.48910000  0.50080000  0.31680000  1.0 -0.2028586327
C  C177  1  0.49310000  0.57690000  0.27770000  1.0 -0.2161495791
C  C178  1  0.54110000  0.58690000  0.29570000  1.0 0.1091184576
C  C179  1  0.53480000  0.51380000  0.33460000  1.0 0.0536859981
C  C180  1  0.21300000  0.60730000  0.20920000  1.0 -0.0504315063
C  C181  1  0.12630000  0.62340000  0.23870000  1.0 0.1203026647
C  C182  1  0.23530000  0.37430000  0.29450000  1.0 -0.0321524537
C  C183  1  0.19090000  0.34980000  0.22910000  1.0 -0.0388496413
C  C184  1  0.24820000  0.43620000  0.10030000  1.0 -0.0388496413
C  C185  1  0.31830000  0.50700000  0.10150000  1.0 -0.0587828367
C  C186  1  0.11850000  0.45080000  0.30360000  1.0 0.6806707249
C  C187  1  0.34280000  0.41600000  0.11440000  1.0 -0.0388496413
C  C188  1  0.39720000  0.34690000  0.29280000  1.0 0.6806707249
C  C189  1  0.06140000  0.45350000  0.31930000  1.0 -0.6005224644
C  C190  1  0.42750000  0.32000000  0.32660000  1.0 -0.5884700556
C  C191  1  0.48080000  0.33590000  0.16270000  1.0 0.6514251471
C  C192  1  0.14000000  0.66980000  0.25510000  1.0 -0.2028586327
C  C193  1  0.07440000  0.61580000  0.23410000  1.0 -0.2161495791
C  C194  1  0.03980000  0.65400000  0.24410000  1.0 0.0795942592
C  C195  1  0.10300000  0.70770000  0.26400000  1.0 0.0536859981
C  C196  1  0.13080000  0.33010000  0.12220000  1.0 0.665715629
C  C197  1  0.13400000  0.28220000  0.09930000  1.0 -0.5884700556
C  C198  1  0.29460000  0.61180000  0.32090000  1.0 0.6582217307
C  C199  1  0.21860000  0.60060000  0.09960000  1.0 0.6991538347
C  C200  1  0.15020000  0.54450000  0.38920000  1.0 0.6582217307
C  C201  1  0.53490000  0.32610000  0.14080000  1.0 -0.5884700556
C  C202  1  0.30230000  0.29050000  0.14470000  1.0 0.6582217307
C  C203  1  0.29310000  0.24400000  0.11940000  1.0 -0.6005224644
C  C204  1  0.28950000  0.42700000  0.39230000  1.0 0.6514251471
C  C205  1  0.30640000  0.39350000  0.42660000  1.0 -0.5884700556
C  C206  1  0.15640000  0.59840000  0.38530000  1.0 -0.6095868706
C  C207  1  0.32180000  0.65260000  0.34470000  1.0 -0.5884700556
C  C208  1  0.18410000  0.24650000  0.25790000  1.0 -0.2028586327
C  C209  1  0.17170000  0.19870000  0.27420000  1.0 0.0795942592
C  C210  1  0.22100000  0.21940000  0.33270000  1.0 0.0746993746
C  C211  1  0.23330000  0.26720000  0.31650000  1.0 -0.2028586327
C  C212  1  0.18530000  0.61910000  0.06560000  1.0 -0.5696067962
C  C213  1  0.29240000  0.47090000  0.97970000  1.0 0.0795942592
C  C214  1  0.35810000  0.40670000  0.98990000  1.0 0.0536859981
C  C215  1  0.28490000  0.47420000  0.02060000  1.0 -0.2087941396
C  C216  1  0.35090000  0.41010000  0.03090000  1.0 -0.2028586327
C  C217  1  0.31760000  0.56040000  0.77130000  1.0 -0.0504315063
C  C218  1  0.33230000  0.58150000  0.72910000  1.0 0.0536859981
C  C219  1  0.35690000  0.53800000  0.70520000  1.0 -0.0504315063
C  C220  1  0.07270000  0.46400000  0.74440000  1.0 -0.0504315063
C  C221  1  0.08360000  0.51640000  0.76650000  1.0 0.0432830506
C  C222  1  0.09980000  0.55830000  0.73630000  1.0 -0.0753510728
C  C223  1  0.21570000  0.32380000  0.74270000  1.0 -0.0388496413
C  C224  1  0.28530000  0.28100000  0.77910000  1.0 0.1203026647
C  C225  1  0.26980000  0.33500000  0.76130000  1.0 0.0272049468
C  C226  1  0.12620000  0.51010000  0.79860000  1.0 -0.0321524537
C  C227  1  0.03400000  0.53160000  0.78790000  1.0 0.1091184576
C  C228  1  0.19430000  0.45100000  0.59200000  1.0 0.0272049468
C  C229  1  0.18570000  0.44410000  0.54630000  1.0 0.1091184576
C  C230  1  0.01090000  0.50080000  0.81680000  1.0 -0.2028586327
C  C231  1  0.00690000  0.57690000  0.77770000  1.0 -0.2161495791
C  C232  1  0.95890000  0.58690000  0.79570000  1.0 0.1091184576
C  C233  1  0.96520000  0.51380000  0.83460000  1.0 0.0536859981
C  C234  1  0.28700000  0.60730000  0.70920000  1.0 -0.0504315063
C  C235  1  0.37370000  0.62340000  0.73870000  1.0 0.1203026647
C  C236  1  0.26470000  0.37430000  0.79450000  1.0 -0.0321524537
C  C237  1  0.30910000  0.34980000  0.72910000  1.0 -0.0388496413
C  C238  1  0.25180000  0.43620000  0.60030000  1.0 -0.0388496413
C  C239  1  0.18170000  0.50700000  0.60150000  1.0 -0.0587828367
C  C240  1  0.38150000  0.45080000  0.80360000  1.0 0.6806707249
C  C241  1  0.15720000  0.41600000  0.61440000  1.0 -0.0388496413
C  C242  1  0.10280000  0.34690000  0.79280000  1.0 0.6806707249
C  C243  1  0.43860000  0.45350000  0.81930000  1.0 -0.6005224644
C  C244  1  0.07250000  0.32000000  0.82660000  1.0 -0.5884700556
C  C245  1  0.01920000  0.33590000  0.66270000  1.0 0.6514251471
C  C246  1  0.36000000  0.66980000  0.75510000  1.0 -0.2028586327
C  C247  1  0.42560000  0.61580000  0.73410000  1.0 -0.2161495791
C  C248  1  0.46020000  0.65400000  0.74410000  1.0 0.0795942592
C  C249  1  0.39700000  0.70770000  0.76400000  1.0 0.0536859981
C  C250  1  0.36920000  0.33010000  0.62220000  1.0 0.665715629
C  C251  1  0.36600000  0.28220000  0.59930000  1.0 -0.5884700556
C  C252  1  0.20540000  0.61180000  0.82090000  1.0 0.6582217307
C  C253  1  0.28140000  0.60060000  0.59960000  1.0 0.6991538347
C  C254  1  0.34980000  0.54450000  0.88920000  1.0 0.6582217307
C  C255  1  0.96510000  0.32610000  0.64080000  1.0 -0.5884700556
C  C256  1  0.19770000  0.29050000  0.64470000  1.0 0.6582217307
C  C257  1  0.20690000  0.24400000  0.61940000  1.0 -0.6005224644
C  C258  1  0.21050000  0.42700000  0.89230000  1.0 0.6514251471
C  C259  1  0.19360000  0.39350000  0.92660000  1.0 -0.5884700556
C  C260  1  0.34360000  0.59840000  0.88530000  1.0 -0.6095868706
C  C261  1  0.17820000  0.65260000  0.84470000  1.0 -0.5884700556
C  C262  1  0.31590000  0.24650000  0.75790000  1.0 -0.2028586327
C  C263  1  0.32830000  0.19870000  0.77420000  1.0 0.0795942592
C  C264  1  0.27900000  0.21940000  0.83270000  1.0 0.0746993746
C  C265  1  0.26670000  0.26720000  0.81650000  1.0 -0.2028586327
C  C266  1  0.31470000  0.61910000  0.56560000  1.0 -0.5696067962
C  C267  1  0.20760000  0.47090000  0.47970000  1.0 0.0795942592
C  C268  1  0.14190000  0.40670000  0.48990000  1.0 0.0536859981
C  C269  1  0.21510000  0.47420000  0.52060000  1.0 -0.2087941396
C  C270  1  0.14910000  0.41010000  0.53090000  1.0 -0.2028586327
C  C271  1  0.18240000  0.06040000  0.72870000  1.0 -0.0504315063
C  C272  1  0.16770000  0.08150000  0.77090000  1.0 0.0536859981
C  C273  1  0.14310000  0.03800000  0.79480000  1.0 -0.0504315063
C  C274  1  0.42730000  0.96400000  0.75560000  1.0 -0.0504315063
C  C275  1  0.41640000  0.01640000  0.73350000  1.0 0.0432830506
C  C276  1  0.40020000  0.05830000  0.76370000  1.0 -0.0753510728
C  C277  1  0.28430000  0.82380000  0.75730000  1.0 -0.0388496413
C  C278  1  0.21470000  0.78100000  0.72090000  1.0 0.1203026647
C  C279  1  0.23020000  0.83500000  0.73870000  1.0 0.0272049468
C  C280  1  0.37380000  0.01010000  0.70140000  1.0 -0.0321524537
C  C281  1  0.46600000  0.03160000  0.71210000  1.0 0.1091184576
C  C282  1  0.30570000  0.95100000  0.90800000  1.0 0.0272049468
C  C283  1  0.31430000  0.94410000  0.95370000  1.0 0.1091184576
C  C284  1  0.48910000  0.00080000  0.68320000  1.0 -0.2028586327
C  C285  1  0.49310000  0.07690000  0.72230000  1.0 -0.2161495791
C  C286  1  0.54110000  0.08690000  0.70430000  1.0 0.1091184576
C  C287  1  0.53480000  0.01380000  0.66540000  1.0 0.0536859981
C  C288  1  0.21300000  0.10730000  0.79080000  1.0 -0.0504315063
C  C289  1  0.12630000  0.12340000  0.76130000  1.0 0.1203026647
C  C290  1  0.23530000  0.87430000  0.70550000  1.0 -0.0321524537
C  C291  1  0.19090000  0.84980000  0.77090000  1.0 -0.0388496413
C  C292  1  0.24820000  0.93620000  0.89970000  1.0 -0.0388496413
C  C293  1  0.31830000  0.00700000  0.89850000  1.0 -0.0587828367
C  C294  1  0.11850000  0.95080000  0.69640000  1.0 0.6806707249
C  C295  1  0.34280000  0.91600000  0.88560000  1.0 -0.0388496413
C  C296  1  0.39720000  0.84690000  0.70720000  1.0 0.6806707249
C  C297  1  0.06140000  0.95350000  0.68070000  1.0 -0.6005224644
C  C298  1  0.42750000  0.82000000  0.67340000  1.0 -0.5884700556
C  C299  1  0.48080000  0.83590000  0.83730000  1.0 0.6514251471
C  C300  1  0.14000000  0.16980000  0.74490000  1.0 -0.2028586327
C  C301  1  0.07440000  0.11580000  0.76590000  1.0 -0.2161495791
C  C302  1  0.03980000  0.15400000  0.75590000  1.0 0.0795942592
C  C303  1  0.10300000  0.20770000  0.73600000  1.0 0.0536859981
C  C304  1  0.13080000  0.83010000  0.87780000  1.0 0.665715629
C  C305  1  0.13400000  0.78220000  0.90070000  1.0 -0.5884700556
C  C306  1  0.29460000  0.11180000  0.67910000  1.0 0.6582217307
C  C307  1  0.21860000  0.10060000  0.90040000  1.0 0.6991538347
C  C308  1  0.15020000  0.04450000  0.61080000  1.0 0.6582217307
C  C309  1  0.53490000  0.82610000  0.85920000  1.0 -0.5884700556
C  C310  1  0.30230000  0.79050000  0.85530000  1.0 0.6582217307
C  C311  1  0.29310000  0.74400000  0.88060000  1.0 -0.6005224644
C  C312  1  0.28950000  0.92700000  0.60770000  1.0 0.6514251471
C  C313  1  0.30640000  0.89350000  0.57340000  1.0 -0.5884700556
C  C314  1  0.15640000  0.09840000  0.61470000  1.0 -0.6095868706
C  C315  1  0.32180000  0.15260000  0.65530000  1.0 -0.5884700556
C  C316  1  0.18410000  0.74650000  0.74210000  1.0 -0.2028586327
C  C317  1  0.17170000  0.69870000  0.72580000  1.0 0.0795942592
C  C318  1  0.22100000  0.71940000  0.66730000  1.0 0.0746993746
C  C319  1  0.23330000  0.76720000  0.68350000  1.0 -0.2028586327
C  C320  1  0.18530000  0.11910000  0.93440000  1.0 -0.5696067962
C  C321  1  0.29240000  0.97090000  0.02030000  1.0 0.0795942592
C  C322  1  0.35810000  0.90670000  0.01010000  1.0 0.0536859981
C  C323  1  0.28490000  0.97420000  0.97940000  1.0 -0.2087941396
C  C324  1  0.35090000  0.91010000  0.96910000  1.0 -0.2028586327
C  C325  1  0.68240000  0.93960000  0.77130000  1.0 -0.0504315063
C  C326  1  0.66770000  0.91850000  0.72910000  1.0 0.0536859981
C  C327  1  0.64310000  0.96200000  0.70520000  1.0 -0.0504315063
C  C328  1  0.92730000  0.03600000  0.74440000  1.0 -0.0504315063
C  C329  1  0.91640000  0.98360000  0.76650000  1.0 0.0432830506
C  C330  1  0.90020000  0.94170000  0.73630000  1.0 -0.0753510728
C  C331  1  0.78430000  0.17620000  0.74270000  1.0 -0.0388496413
C  C332  1  0.71470000  0.21900000  0.77910000  1.0 0.1203026647
C  C333  1  0.73020000  0.16500000  0.76130000  1.0 0.0272049468
C  C334  1  0.87380000  0.98990000  0.79860000  1.0 -0.0321524537
C  C335  1  0.96600000  0.96840000  0.78790000  1.0 0.1091184576
C  C336  1  0.80570000  0.04900000  0.59200000  1.0 0.0272049468
C  C337  1  0.81430000  0.05590000  0.54630000  1.0 0.1091184576
C  C338  1  0.98910000  0.99920000  0.81680000  1.0 -0.2028586327
C  C339  1  0.99310000  0.92310000  0.77770000  1.0 -0.2161495791
C  C340  1  0.04110000  0.91310000  0.79570000  1.0 0.1091184576
C  C341  1  0.03480000  0.98620000  0.83460000  1.0 0.0536859981
C  C342  1  0.71300000  0.89270000  0.70920000  1.0 -0.0504315063
C  C343  1  0.62630000  0.87660000  0.73870000  1.0 0.1203026647
C  C344  1  0.73530000  0.12570000  0.79450000  1.0 -0.0321524537
C  C345  1  0.69090000  0.15020000  0.72910000  1.0 -0.0388496413
C  C346  1  0.74820000  0.06380000  0.60030000  1.0 -0.0388496413
C  C347  1  0.81830000  0.99300000  0.60150000  1.0 -0.0587828367
C  C348  1  0.61850000  0.04920000  0.80360000  1.0 0.6806707249
C  C349  1  0.84280000  0.08400000  0.61440000  1.0 -0.0388496413
C  C350  1  0.89720000  0.15310000  0.79280000  1.0 0.6806707249
C  C351  1  0.56140000  0.04650000  0.81930000  1.0 -0.6005224644
C  C352  1  0.92750000  0.18000000  0.82660000  1.0 -0.5780586427
C  C353  1  0.98080000  0.16410000  0.66270000  1.0 0.6514251471
C  C354  1  0.64000000  0.83020000  0.75510000  1.0 -0.2028586327
C  C355  1  0.57440000  0.88420000  0.73410000  1.0 -0.2161495791
C  C356  1  0.53980000  0.84600000  0.74410000  1.0 0.0795942592
C  C357  1  0.60300000  0.79230000  0.76400000  1.0 0.0536859981
C  C358  1  0.63080000  0.16990000  0.62220000  1.0 0.665715629
C  C359  1  0.63400000  0.21780000  0.59930000  1.0 -0.5884700556
C  C360  1  0.79460000  0.88820000  0.82090000  1.0 0.6582217307
C  C361  1  0.71860000  0.89940000  0.59960000  1.0 0.6991538347
C  C362  1  0.65020000  0.95550000  0.88920000  1.0 0.6582217307
C  C363  1  0.03490000  0.17390000  0.64080000  1.0 -0.5884700556
C  C364  1  0.80230000  0.20950000  0.64470000  1.0 0.6582217307
C  C365  1  0.79310000  0.25600000  0.61940000  1.0 -0.6005224644
C  C366  1  0.78950000  0.07300000  0.89230000  1.0 0.6514251471
C  C367  1  0.80640000  0.10650000  0.92660000  1.0 -0.5884700556
C  C368  1  0.65640000  0.90160000  0.88530000  1.0 -0.6095868706
C  C369  1  0.82180000  0.84740000  0.84470000  1.0 -0.5884700556
C  C370  1  0.68410000  0.25350000  0.75790000  1.0 -0.2028586327
C  C371  1  0.67170000  0.30130000  0.77420000  1.0 0.0795942592
C  C372  1  0.72100000  0.28060000  0.83270000  1.0 0.0746993746
C  C373  1  0.73330000  0.23280000  0.81650000  1.0 -0.2028586327
C  C374  1  0.68530000  0.88090000  0.56560000  1.0 -0.5696067962
C  C375  1  0.79240000  0.02910000  0.47970000  1.0 0.0795942592
C  C376  1  0.85810000  0.09330000  0.48990000  1.0 0.0536859981
C  C377  1  0.78490000  0.02580000  0.52060000  1.0 -0.2087941396
C  C378  1  0.85090000  0.08990000  0.53090000  1.0 -0.2028586327
C  C379  1  0.81760000  0.43960000  0.72870000  1.0 -0.0504315063
C  C380  1  0.83230000  0.41850000  0.77090000  1.0 0.0536859981
C  C381  1  0.85690000  0.46200000  0.79480000  1.0 -0.0504315063
C  C382  1  0.57270000  0.53600000  0.75560000  1.0 -0.0504315063
C  C383  1  0.58360000  0.48360000  0.73350000  1.0 0.0432830506
C  C384  1  0.59980000  0.44170000  0.76370000  1.0 -0.0753510728
C  C385  1  0.71570000  0.67620000  0.75730000  1.0 -0.0388496413
C  C386  1  0.78530000  0.71900000  0.72090000  1.0 0.1203026647
C  C387  1  0.76980000  0.66500000  0.73870000  1.0 0.0272049468
C  C388  1  0.62620000  0.48990000  0.70140000  1.0 -0.0321524537
C  C389  1  0.53400000  0.46840000  0.71210000  1.0 0.1091184576
C  C390  1  0.69430000  0.54900000  0.90800000  1.0 0.0272049468
C  C391  1  0.68570000  0.55590000  0.95370000  1.0 0.1091184576
C  C392  1  0.51090000  0.49920000  0.68320000  1.0 -0.2028586327
C  C393  1  0.50690000  0.42310000  0.72230000  1.0 -0.2161495791
C  C394  1  0.45890000  0.41310000  0.70430000  1.0 0.1091184576
C  C395  1  0.46520000  0.48620000  0.66540000  1.0 0.0536859981
C  C396  1  0.78700000  0.39270000  0.79080000  1.0 -0.0504315063
C  C397  1  0.87370000  0.37660000  0.76130000  1.0 0.1203026647
C  C398  1  0.76470000  0.62570000  0.70550000  1.0 -0.0321524537
C  C399  1  0.80910000  0.65020000  0.77090000  1.0 -0.0388496413
C  C400  1  0.75180000  0.56380000  0.89970000  1.0 -0.0388496413
C  C401  1  0.68170000  0.49300000  0.89850000  1.0 -0.0587828367
C  C402  1  0.88150000  0.54920000  0.69640000  1.0 0.6806707249
C  C403  1  0.65720000  0.58400000  0.88560000  1.0 -0.0388496413
C  C404  1  0.60280000  0.65310000  0.70720000  1.0 0.6806707249
C  C405  1  0.93860000  0.54650000  0.68070000  1.0 -0.6005224644
C  C406  1  0.57250000  0.68000000  0.67340000  1.0 -0.5884700556
C  C407  1  0.51920000  0.66410000  0.83730000  1.0 0.6514251471
C  C408  1  0.86000000  0.33020000  0.74490000  1.0 -0.2028586327
C  C409  1  0.92560000  0.38420000  0.76590000  1.0 -0.2161495791
C  C410  1  0.96020000  0.34600000  0.75590000  1.0 0.0795942592
C  C411  1  0.89700000  0.29230000  0.73600000  1.0 0.0536859981
C  C412  1  0.86920000  0.66990000  0.87780000  1.0 0.665715629
C  C413  1  0.86600000  0.71780000  0.90070000  1.0 -0.5884700556
C  C414  1  0.70540000  0.38820000  0.67910000  1.0 0.6582217307
C  C415  1  0.78140000  0.39940000  0.90040000  1.0 0.6991538347
C  C416  1  0.84980000  0.45550000  0.61080000  1.0 0.6582217307
C  C417  1  0.46510000  0.67390000  0.85920000  1.0 -0.5884700556
C  C418  1  0.69770000  0.70950000  0.85530000  1.0 0.6582217307
C  C419  1  0.70690000  0.75600000  0.88060000  1.0 -0.6005224644
C  C420  1  0.71050000  0.57300000  0.60770000  1.0 0.6514251471
C  C421  1  0.69360000  0.60650000  0.57340000  1.0 -0.5884700556
C  C422  1  0.84360000  0.40160000  0.61470000  1.0 -0.6095868706
C  C423  1  0.67820000  0.34740000  0.65530000  1.0 -0.5884700556
C  C424  1  0.81590000  0.75350000  0.74210000  1.0 -0.2028586327
C  C425  1  0.82830000  0.80130000  0.72580000  1.0 0.0795942592
C  C426  1  0.77900000  0.78060000  0.66730000  1.0 0.0746993746
C  C427  1  0.76670000  0.73280000  0.68350000  1.0 -0.2028586327
C  C428  1  0.81470000  0.38090000  0.93440000  1.0 -0.5696067962
C  C429  1  0.70760000  0.52910000  0.02030000  1.0 0.0795942592
C  C430  1  0.64190000  0.59330000  0.01010000  1.0 0.0536859981
C  C431  1  0.71510000  0.52580000  0.97940000  1.0 -0.2087941396
C  C432  1  0.64910000  0.58990000  0.96910000  1.0 -0.2028586327
N  N1  1  0.06230000  0.44390000  0.17660000  1.0 -0.2413707527
N  N2  1  0.55150000  0.30050000  0.24170000  1.0 -0.2087941396
N  N3  1  0.68900000  0.81440000  0.18810000  1.0 -0.2703606359
N  N4  1  0.82930000  0.56290000  0.53570000  1.0 -0.2703606359
N  N5  1  0.43770000  0.94390000  0.32340000  1.0 -0.2413707527
N  N6  1  0.94850000  0.80050000  0.25830000  1.0 -0.2087941396
N  N7  1  0.81100000  0.31440000  0.31190000  1.0 -0.2703606359
N  N8  1  0.67070000  0.06290000  0.96430000  1.0 -0.2703606359
N  N9  1  0.93770000  0.05610000  0.17660000  1.0 -0.2413707527
N  N10  1  0.44850000  0.19950000  0.24170000  1.0 -0.2087941396
N  N11  1  0.31100000  0.68560000  0.18810000  1.0 -0.2703606359
N  N12  1  0.17070000  0.93710000  0.53570000  1.0 -0.2703606359
N  N13  1  0.56230000  0.55610000  0.32340000  1.0 -0.2413707527
N  N14  1  0.05150000  0.69950000  0.25830000  1.0 -0.2087941396
N  N15  1  0.18900000  0.18560000  0.31190000  1.0 -0.2703606359
N  N16  1  0.32930000  0.43710000  0.96430000  1.0 -0.2703606359
N  N17  1  0.93770000  0.55610000  0.82340000  1.0 -0.2413707527
N  N18  1  0.44850000  0.69950000  0.75830000  1.0 -0.2087941396
N  N19  1  0.31100000  0.18560000  0.81190000  1.0 -0.2703606359
N  N20  1  0.17070000  0.43710000  0.46430000  1.0 -0.2703606359
N  N21  1  0.56230000  0.05610000  0.67660000  1.0 -0.2413707527
N  N22  1  0.05150000  0.19950000  0.74170000  1.0 -0.2087941396
N  N23  1  0.18900000  0.68560000  0.68810000  1.0 -0.2703606359
N  N24  1  0.32930000  0.93710000  0.03570000  1.0 -0.2703606359
N  N25  1  0.06230000  0.94390000  0.82340000  1.0 -0.2413707527
N  N26  1  0.55150000  0.80050000  0.75830000  1.0 -0.2087941396
N  N27  1  0.68900000  0.31440000  0.81190000  1.0 -0.2703606359
N  N28  1  0.82930000  0.06290000  0.46430000  1.0 -0.2703606359
N  N29  1  0.43770000  0.44390000  0.67660000  1.0 -0.2413707527
N  N30  1  0.94850000  0.30050000  0.74170000  1.0 -0.2087941396
N  N31  1  0.81100000  0.81440000  0.68810000  1.0 -0.2703606359
N  N32  1  0.67070000  0.56290000  0.03570000  1.0 -0.2703606359
O  O1  1  0.67740000  0.50350000  0.30350000  1.0 -0.538845653
O  O2  1  0.74980000  0.57670000  0.21840000  1.0 -0.538845653
O  O3  1  0.70230000  0.60350000  0.29160000  1.0 -0.5509946677
O  O4  1  0.72300000  0.47810000  0.22970000  1.0 -0.5509946677
O  O5  1  0.88200000  0.55720000  0.27410000  1.0 -0.5509946677
O  O6  1  0.83770000  0.58330000  0.34370000  1.0 -0.538845653
O  O7  1  0.80600000  0.63160000  0.27480000  1.0 -0.5509946677
O  O8  1  0.81070000  0.47930000  0.35650000  1.0 -0.5509946677
O  O9  1  0.82440000  0.50440000  0.21480000  1.0 -0.5509946677
O  O10  1  0.85350000  0.45310000  0.28620000  1.0 -0.5509946677
O  O11  1  0.73380000  0.55700000  0.35910000  1.0 -0.538845653
O  O12  1  0.86430000  0.61960000  0.19690000  1.0 -0.5884700556
O  O13  1  0.91160000  0.66610000  0.24130000  1.0 -0.6005224644
O  O14  1  0.75490000  0.42760000  0.29920000  1.0 -0.5322013184
O  O15  1  0.96160000  0.62020000  0.34270000  1.0 -0.5884700556
O  O16  1  0.70070000  0.44330000  0.38360000  1.0 -0.6660584369
O  O17  1  0.65420000  0.54420000  0.16970000  1.0 -0.6225735902
O  O18  1  0.95950000  0.69880000  0.31820000  1.0 -0.5509946677
O  O19  1  0.69570000  0.48180000  0.11180000  1.0 -0.6279937013
O  O20  1  0.61730000  0.66470000  0.34190000  1.0 -0.6005224644
O  O21  1  0.64920000  0.63150000  0.39770000  1.0 -0.5696067962
O  O22  1  0.61080000  0.48140000  0.10010000  1.0 -0.5696067962
O  O23  1  0.79850000  0.39010000  0.21430000  1.0 -0.5509946677
O  O24  1  0.77620000  0.42470000  0.15500000  1.0 -0.5884700556
O  O25  1  0.74430000  0.57900000  0.12160000  1.0 -0.5696067962
O  O26  1  0.81340000  0.53610000  0.12210000  1.0 -0.5018891453
O  O27  1  0.62640000  0.55220000  0.23200000  1.0 -0.5509946677
O  O28  1  0.75980000  0.37410000  0.38760000  1.0 -0.6640999674
O  O29  1  0.84860000  0.70500000  0.34120000  1.0 -0.5884700556
O  O30  1  0.76640000  0.67650000  0.35410000  1.0 -0.5780586427
O  O31  1  0.82260000  0.00350000  0.19650000  1.0 -0.538845653
O  O32  1  0.75020000  0.07670000  0.28160000  1.0 -0.538845653
O  O33  1  0.79770000  0.10350000  0.20840000  1.0 -0.5509946677
O  O34  1  0.77700000  0.97810000  0.27030000  1.0 -0.5509946677
O  O35  1  0.61800000  0.05720000  0.22590000  1.0 -0.5509946677
O  O36  1  0.66230000  0.08330000  0.15630000  1.0 -0.538845653
O  O37  1  0.69400000  0.13160000  0.22520000  1.0 -0.5509946677
O  O38  1  0.68930000  0.97930000  0.14350000  1.0 -0.5509946677
O  O39  1  0.67560000  0.00440000  0.28520000  1.0 -0.5509946677
O  O40  1  0.64650000  0.95310000  0.21380000  1.0 -0.5509946677
O  O41  1  0.76620000  0.05700000  0.14090000  1.0 -0.538845653
O  O42  1  0.63570000  0.11960000  0.30310000  1.0 -0.5884700556
O  O43  1  0.58840000  0.16610000  0.25870000  1.0 -0.6005224644
O  O44  1  0.74510000  0.92760000  0.20080000  1.0 -0.5322013184
O  O45  1  0.53840000  0.12020000  0.15730000  1.0 -0.5884700556
O  O46  1  0.79930000  0.94330000  0.11640000  1.0 -0.6660584369
O  O47  1  0.84580000  0.04420000  0.33030000  1.0 -0.6225735902
O  O48  1  0.54050000  0.19880000  0.18180000  1.0 -0.5556792973
O  O49  1  0.80430000  0.98180000  0.38820000  1.0 -0.6279937013
O  O50  1  0.88270000  0.16470000  0.15810000  1.0 -0.6005224644
O  O51  1  0.85080000  0.13150000  0.10230000  1.0 -0.5696067962
O  O52  1  0.88920000  0.98140000  0.39990000  1.0 -0.5696067962
O  O53  1  0.70150000  0.89010000  0.28570000  1.0 -0.5509946677
O  O54  1  0.72380000  0.92470000  0.34500000  1.0 -0.5884700556
O  O55  1  0.75570000  0.07900000  0.37840000  1.0 -0.5696067962
O  O56  1  0.68660000  0.03610000  0.37790000  1.0 -0.5018891453
O  O57  1  0.87360000  0.05220000  0.26800000  1.0 -0.5509946677
O  O58  1  0.74020000  0.87410000  0.11240000  1.0 -0.6660584369
O  O59  1  0.65140000  0.20500000  0.15880000  1.0 -0.5884700556
O  O60  1  0.73360000  0.17650000  0.14590000  1.0 -0.5780586427
O  O61  1  0.32260000  0.99650000  0.30350000  1.0 -0.538845653
O  O62  1  0.25020000  0.92330000  0.21840000  1.0 -0.538845653
O  O63  1  0.29770000  0.89650000  0.29160000  1.0 -0.5509946677
O  O64  1  0.27700000  0.02190000  0.22970000  1.0 -0.5509946677
O  O65  1  0.11800000  0.94280000  0.27410000  1.0 -0.5509946677
O  O66  1  0.16230000  0.91670000  0.34370000  1.0 -0.538845653
O  O67  1  0.19400000  0.86840000  0.27480000  1.0 -0.5509946677
O  O68  1  0.18930000  0.02070000  0.35650000  1.0 -0.5509946677
O  O69  1  0.17560000  0.99560000  0.21480000  1.0 -0.5509946677
O  O70  1  0.14650000  0.04690000  0.28620000  1.0 -0.5556792973
O  O71  1  0.26620000  0.94300000  0.35910000  1.0 -0.538845653
O  O72  1  0.13570000  0.88040000  0.19690000  1.0 -0.5884700556
O  O73  1  0.08840000  0.83390000  0.24130000  1.0 -0.6005224644
O  O74  1  0.24510000  0.07240000  0.29920000  1.0 -0.5322013184
O  O75  1  0.03840000  0.87980000  0.34270000  1.0 -0.5884700556
O  O76  1  0.29930000  0.05670000  0.38360000  1.0 -0.6660584369
O  O77  1  0.34580000  0.95580000  0.16970000  1.0 -0.6225735902
O  O78  1  0.04050000  0.80120000  0.31820000  1.0 -0.5556792973
O  O79  1  0.30430000  0.01820000  0.11180000  1.0 -0.6279937013
O  O80  1  0.38270000  0.83530000  0.34190000  1.0 -0.6005224644
O  O81  1  0.35080000  0.86850000  0.39770000  1.0 -0.5696067962
O  O82  1  0.38920000  0.01860000  0.10010000  1.0 -0.5696067962
O  O83  1  0.20150000  0.10990000  0.21430000  1.0 -0.5509946677
O  O84  1  0.22380000  0.07530000  0.15500000  1.0 -0.5884700556
O  O85  1  0.25570000  0.92100000  0.12160000  1.0 -0.5696067962
O  O86  1  0.18660000  0.96390000  0.12210000  1.0 -0.5018891453
O  O87  1  0.37360000  0.94780000  0.23200000  1.0 -0.5509946677
O  O88  1  0.24020000  0.12590000  0.38760000  1.0 -0.6640999674
O  O89  1  0.15140000  0.79500000  0.34120000  1.0 -0.5884700556
O  O90  1  0.23360000  0.82350000  0.35410000  1.0 -0.5780586427
O  O91  1  0.17740000  0.49650000  0.19650000  1.0 -0.538845653
O  O92  1  0.24980000  0.42330000  0.28160000  1.0 -0.538845653
O  O93  1  0.20230000  0.39650000  0.20840000  1.0 -0.5509946677
O  O94  1  0.22300000  0.52190000  0.27030000  1.0 -0.5509946677
O  O95  1  0.38200000  0.44280000  0.22590000  1.0 -0.5509946677
O  O96  1  0.33770000  0.41670000  0.15630000  1.0 -0.538845653
O  O97  1  0.30600000  0.36840000  0.22520000  1.0 -0.5509946677
O  O98  1  0.31070000  0.52070000  0.14350000  1.0 -0.5509946677
O  O99  1  0.32440000  0.49560000  0.28520000  1.0 -0.5509946677
O  O100  1  0.35350000  0.54690000  0.21380000  1.0 -0.5509946677
O  O101  1  0.23380000  0.44300000  0.14090000  1.0 -0.538845653
O  O102  1  0.36430000  0.38040000  0.30310000  1.0 -0.5884700556
O  O103  1  0.41160000  0.33390000  0.25870000  1.0 -0.6005224644
O  O104  1  0.25490000  0.57240000  0.20080000  1.0 -0.5322013184
O  O105  1  0.46160000  0.37980000  0.15730000  1.0 -0.5884700556
O  O106  1  0.20070000  0.55670000  0.11640000  1.0 -0.6660584369
O  O107  1  0.15420000  0.45580000  0.33030000  1.0 -0.6225735902
O  O108  1  0.45950000  0.30120000  0.18180000  1.0 -0.5556792973
O  O109  1  0.19570000  0.51820000  0.38820000  1.0 -0.6279937013
O  O110  1  0.11730000  0.33530000  0.15810000  1.0 -0.6005224644
O  O111  1  0.14920000  0.36850000  0.10230000  1.0 -0.5696067962
O  O112  1  0.11080000  0.51860000  0.39990000  1.0 -0.5696067962
O  O113  1  0.29850000  0.60990000  0.28570000  1.0 -0.5509946677
O  O114  1  0.27620000  0.57530000  0.34500000  1.0 -0.5884700556
O  O115  1  0.24430000  0.42100000  0.37840000  1.0 -0.5696067962
O  O116  1  0.31340000  0.46390000  0.37790000  1.0 -0.5018891453
O  O117  1  0.12640000  0.44780000  0.26800000  1.0 -0.5509946677
O  O118  1  0.25980000  0.62590000  0.11240000  1.0 -0.6660584369
O  O119  1  0.34860000  0.29500000  0.15880000  1.0 -0.5884700556
O  O120  1  0.26640000  0.32350000  0.14590000  1.0 -0.5780586427
O  O121  1  0.32260000  0.49650000  0.69650000  1.0 -0.538845653
O  O122  1  0.25020000  0.42330000  0.78160000  1.0 -0.538845653
O  O123  1  0.29770000  0.39650000  0.70840000  1.0 -0.5509946677
O  O124  1  0.27700000  0.52190000  0.77030000  1.0 -0.5509946677
O  O125  1  0.11800000  0.44280000  0.72590000  1.0 -0.5509946677
O  O126  1  0.16230000  0.41670000  0.65630000  1.0 -0.538845653
O  O127  1  0.19400000  0.36840000  0.72520000  1.0 -0.5509946677
O  O128  1  0.18930000  0.52070000  0.64350000  1.0 -0.5509946677
O  O129  1  0.17560000  0.49560000  0.78520000  1.0 -0.5509946677
O  O130  1  0.14650000  0.54690000  0.71380000  1.0 -0.5556792973
O  O131  1  0.26620000  0.44300000  0.64090000  1.0 -0.538845653
O  O132  1  0.13570000  0.38040000  0.80310000  1.0 -0.5884700556
O  O133  1  0.08840000  0.33390000  0.75870000  1.0 -0.6005224644
O  O134  1  0.24510000  0.57240000  0.70080000  1.0 -0.5322013184
O  O135  1  0.03840000  0.37980000  0.65730000  1.0 -0.5884700556
O  O136  1  0.29930000  0.55670000  0.61640000  1.0 -0.6660584369
O  O137  1  0.34580000  0.45580000  0.83030000  1.0 -0.6225735902
O  O138  1  0.04050000  0.30120000  0.68180000  1.0 -0.5556792973
O  O139  1  0.30430000  0.51820000  0.88820000  1.0 -0.6279937013
O  O140  1  0.38270000  0.33530000  0.65810000  1.0 -0.6005224644
O  O141  1  0.35080000  0.36850000  0.60230000  1.0 -0.5696067962
O  O142  1  0.38920000  0.51860000  0.89990000  1.0 -0.5696067962
O  O143  1  0.20150000  0.60990000  0.78570000  1.0 -0.5509946677
O  O144  1  0.22380000  0.57530000  0.84500000  1.0 -0.5884700556
O  O145  1  0.25570000  0.42100000  0.87840000  1.0 -0.5696067962
O  O146  1  0.18660000  0.46390000  0.87790000  1.0 -0.5018891453
O  O147  1  0.37360000  0.44780000  0.76800000  1.0 -0.5509946677
O  O148  1  0.24020000  0.62590000  0.61240000  1.0 -0.6660584369
O  O149  1  0.15140000  0.29500000  0.65880000  1.0 -0.5884700556
O  O150  1  0.23360000  0.32350000  0.64590000  1.0 -0.5780586427
O  O151  1  0.17740000  0.99650000  0.80350000  1.0 -0.538845653
O  O152  1  0.24980000  0.92330000  0.71840000  1.0 -0.538845653
O  O153  1  0.20230000  0.89650000  0.79160000  1.0 -0.5509946677
O  O154  1  0.22300000  0.02190000  0.72970000  1.0 -0.5509946677
O  O155  1  0.38200000  0.94280000  0.77410000  1.0 -0.5509946677
O  O156  1  0.33770000  0.91670000  0.84370000  1.0 -0.538845653
O  O157  1  0.30600000  0.86840000  0.77480000  1.0 -0.5509946677
O  O158  1  0.31070000  0.02070000  0.85650000  1.0 -0.5509946677
O  O159  1  0.32440000  0.99560000  0.71480000  1.0 -0.5509946677
O  O160  1  0.35350000  0.04690000  0.78620000  1.0 -0.5556792973
O  O161  1  0.23380000  0.94300000  0.85910000  1.0 -0.538845653
O  O162  1  0.36430000  0.88040000  0.69690000  1.0 -0.5884700556
O  O163  1  0.41160000  0.83390000  0.74130000  1.0 -0.6005224644
O  O164  1  0.25490000  0.07240000  0.79920000  1.0 -0.5322013184
O  O165  1  0.46160000  0.87980000  0.84270000  1.0 -0.5884700556
O  O166  1  0.20070000  0.05670000  0.88360000  1.0 -0.6660584369
O  O167  1  0.15420000  0.95580000  0.66970000  1.0 -0.6225735902
O  O168  1  0.45950000  0.80120000  0.81820000  1.0 -0.5556792973
O  O169  1  0.19570000  0.01820000  0.61180000  1.0 -0.6279937013
O  O170  1  0.11730000  0.83530000  0.84190000  1.0 -0.6005224644
O  O171  1  0.14920000  0.86850000  0.89770000  1.0 -0.5696067962
O  O172  1  0.11080000  0.01860000  0.60010000  1.0 -0.5696067962
O  O173  1  0.29850000  0.10990000  0.71430000  1.0 -0.5509946677
O  O174  1  0.27620000  0.07530000  0.65500000  1.0 -0.5884700556
O  O175  1  0.24430000  0.92100000  0.62160000  1.0 -0.5696067962
O  O176  1  0.31340000  0.96390000  0.62210000  1.0 -0.5018891453
O  O177  1  0.12640000  0.94780000  0.73200000  1.0 -0.5509946677
O  O178  1  0.25980000  0.12590000  0.88760000  1.0 -0.6640999674
O  O179  1  0.34860000  0.79500000  0.84120000  1.0 -0.5884700556
O  O180  1  0.26640000  0.82350000  0.85410000  1.0 -0.5780586427
O  O181  1  0.67740000  0.00350000  0.69650000  1.0 -0.538845653
O  O182  1  0.74980000  0.07670000  0.78160000  1.0 -0.538845653
O  O183  1  0.70230000  0.10350000  0.70840000  1.0 -0.5509946677
O  O184  1  0.72300000  0.97810000  0.77030000  1.0 -0.5509946677
O  O185  1  0.88200000  0.05720000  0.72590000  1.0 -0.5509946677
O  O186  1  0.83770000  0.08330000  0.65630000  1.0 -0.538845653
O  O187  1  0.80600000  0.13160000  0.72520000  1.0 -0.5509946677
O  O188  1  0.81070000  0.97930000  0.64350000  1.0 -0.5509946677
O  O189  1  0.82440000  0.00440000  0.78520000  1.0 -0.5509946677
O  O190  1  0.85350000  0.95310000  0.71380000  1.0 -0.5556792973
O  O191  1  0.73380000  0.05700000  0.64090000  1.0 -0.538845653
O  O192  1  0.86430000  0.11960000  0.80310000  1.0 -0.5884700556
O  O193  1  0.91160000  0.16610000  0.75870000  1.0 -0.6005224644
O  O194  1  0.75490000  0.92760000  0.70080000  1.0 -0.5322013184
O  O195  1  0.96160000  0.12020000  0.65730000  1.0 -0.5884700556
O  O196  1  0.70070000  0.94330000  0.61640000  1.0 -0.6660584369
O  O197  1  0.65420000  0.04420000  0.83030000  1.0 -0.6225735902
O  O198  1  0.95950000  0.19880000  0.68180000  1.0 -0.5509946677
O  O199  1  0.69570000  0.98180000  0.88820000  1.0 -0.6279937013
O  O200  1  0.61730000  0.16470000  0.65810000  1.0 -0.6005224644
O  O201  1  0.64920000  0.13150000  0.60230000  1.0 -0.5696067962
O  O202  1  0.61080000  0.98140000  0.89990000  1.0 -0.5696067962
O  O203  1  0.79850000  0.89010000  0.78570000  1.0 -0.5509946677
O  O204  1  0.77620000  0.92470000  0.84500000  1.0 -0.5884700556
O  O205  1  0.74430000  0.07900000  0.87840000  1.0 -0.5696067962
O  O206  1  0.81340000  0.03610000  0.87790000  1.0 -0.5018891453
O  O207  1  0.62640000  0.05220000  0.76800000  1.0 -0.5509946677
O  O208  1  0.75980000  0.87410000  0.61240000  1.0 -0.6660584369
O  O209  1  0.84860000  0.20500000  0.65880000  1.0 -0.5884700556
O  O210  1  0.76640000  0.17650000  0.64590000  1.0 -0.5780586427
O  O211  1  0.82260000  0.50350000  0.80350000  1.0 -0.538845653
O  O212  1  0.75020000  0.57670000  0.71840000  1.0 -0.538845653
O  O213  1  0.79770000  0.60350000  0.79160000  1.0 -0.5509946677
O  O214  1  0.77700000  0.47810000  0.72970000  1.0 -0.5509946677
O  O215  1  0.61800000  0.55720000  0.77410000  1.0 -0.5509946677
O  O216  1  0.66230000  0.58330000  0.84370000  1.0 -0.538845653
O  O217  1  0.69400000  0.63160000  0.77480000  1.0 -0.5509946677
O  O218  1  0.68930000  0.47930000  0.85650000  1.0 -0.5509946677
O  O219  1  0.67560000  0.50440000  0.71480000  1.0 -0.5509946677
O  O220  1  0.64650000  0.45310000  0.78620000  1.0 -0.5556792973
O  O221  1  0.76620000  0.55700000  0.85910000  1.0 -0.538845653
O  O222  1  0.63570000  0.61960000  0.69690000  1.0 -0.5884700556
O  O223  1  0.58840000  0.66610000  0.74130000  1.0 -0.6005224644
O  O224  1  0.74510000  0.42760000  0.79920000  1.0 -0.5322013184
O  O225  1  0.53840000  0.62020000  0.84270000  1.0 -0.5884700556
O  O226  1  0.79930000  0.44330000  0.88360000  1.0 -0.6660584369
O  O227  1  0.84580000  0.54420000  0.66970000  1.0 -0.6225735902
O  O228  1  0.54050000  0.69880000  0.81820000  1.0 -0.5556792973
O  O229  1  0.80430000  0.48180000  0.61180000  1.0 -0.6279937013
O  O230  1  0.88270000  0.66470000  0.84190000  1.0 -0.6005224644
O  O231  1  0.85080000  0.63150000  0.89770000  1.0 -0.5696067962
O  O232  1  0.88920000  0.48140000  0.60010000  1.0 -0.5696067962
O  O233  1  0.70150000  0.39010000  0.71430000  1.0 -0.5509946677
O  O234  1  0.72380000  0.42470000  0.65500000  1.0 -0.5884700556
O  O235  1  0.75570000  0.57900000  0.62160000  1.0 -0.5696067962
O  O236  1  0.68660000  0.53610000  0.62210000  1.0 -0.5018891453
O  O237  1  0.87360000  0.55220000  0.73200000  1.0 -0.5509946677
O  O238  1  0.74020000  0.37410000  0.88760000  1.0 -0.6640999674
O  O239  1  0.65140000  0.70500000  0.84120000  1.0 -0.5884700556
O  O240  1  0.73360000  0.67650000  0.85410000  1.0 -0.5780586427
