# DDEC6 charges by PACMAN v1.1 (https://github.com/mtap-research/PACMAN-charge/)
data_EHAGEB_ASR_pacman
_symmetry_space_group_name_H-M   'P 1'
_cell_length_a   10.64270000
_cell_length_b   11.50080000
_cell_length_c   13.47310000
_cell_angle_alpha   69.14200000
_cell_angle_beta   78.86500000
_cell_angle_gamma   63.20800000
_symmetry_Int_Tables_number   1
_chemical_formula_structural   Eu2U3H6(C5O4)6
_chemical_formula_sum   'Eu2 U3 H6 C30 O24'
_cell_volume   1374.54470853
_cell_formula_units_Z   1
loop_
 _symmetry_equiv_pos_site_id
 _symmetry_equiv_pos_as_xyz
  1  'x, y, z'
loop_
 _atom_site_type_symbol
 _atom_site_label
 _atom_site_symmetry_multiplicity
 _atom_site_fract_x
 _atom_site_fract_y
 _atom_site_fract_z
 _atom_site_occupancy
 _atom_site_charge
Eu  Eu1  1  0.60329000  0.22800000  0.75140000  1.0 1.8159122347
Eu  Eu2  1  0.39671000  0.77200000  0.24860000  1.0 1.8159122347
U  U1  1  0.62579000  0.71128000  0.83650000  1.0 2.0536065577
U  U2  1  0.37421000  0.28872000  0.16350000  1.0 2.0536065577
U  U3  1  0.00000000  0.50000000  0.50000000  1.0 1.9539562939
H  H1  1  0.09880000  0.36010000  0.95580000  1.0 0.1092585354
H  H2  1  0.90120000  0.63990000  0.04420000  1.0 0.1092585354
H  H3  1  0.16310000  0.10820000  0.73500000  1.0 0.1092585354
H  H4  1  0.83690000  0.89180000  0.26500000  1.0 0.1092585354
H  H5  1  0.71120000  0.00130000  0.41660000  1.0 0.1015855401
H  H6  1  0.28880000  0.99870000  0.58340000  1.0 0.1015855401
C  C1  1  0.00170000  0.34230000  0.85120000  1.0 -0.067815825
C  C2  1  0.99830000  0.65770000  0.14880000  1.0 -0.067815825
C  C3  1  0.11370000  0.31320000  0.90790000  1.0 -0.1161124678
C  C4  1  0.88630000  0.68680000  0.09210000  1.0 -0.1161124678
C  C5  1  0.24770000  0.21520000  0.89450000  1.0 -0.1098106326
C  C6  1  0.75230000  0.78480000  0.10550000  1.0 -0.1098106326
C  C7  1  0.26750000  0.14310000  0.82420000  1.0 -0.067815825
C  C8  1  0.73250000  0.85690000  0.17580000  1.0 -0.067815825
C  C9  1  0.15140000  0.16370000  0.77520000  1.0 -0.1558635951
C  C10  1  0.84860000  0.83630000  0.22480000  1.0 -0.1558635951
C  C11  1  0.01940000  0.26530000  0.78570000  1.0 -0.0818760962
C  C12  1  0.98060000  0.73470000  0.21430000  1.0 -0.0818760962
C  C13  1  0.62600000  0.00120000  0.44960000  1.0 -0.1440255948
C  C14  1  0.37400000  0.99880000  0.55040000  1.0 -0.1440255948
C  C15  1  0.61530000  0.87630000  0.50560000  1.0 -0.067815825
C  C16  1  0.38470000  0.12370000  0.49440000  1.0 -0.067815825
C  C17  1  0.49160000  0.87570000  0.55620000  1.0 -0.0818760962
C  C18  1  0.50840000  0.12430000  0.44380000  1.0 -0.0818760962
C  C19  1  0.86680000  0.46290000  0.85660000  1.0 0.5375155686
C  C20  1  0.13320000  0.53710000  0.14340000  1.0 0.5375155686
C  C21  1  0.36240000  0.19370000  0.95810000  1.0 0.625944662
C  C22  1  0.63760000  0.80630000  0.04190000  1.0 0.625944662
C  C23  1  0.41010000  0.03770000  0.79770000  1.0 0.6096296488
C  C24  1  0.58990000  0.96230000  0.20230000  1.0 0.6096296488
C  C25  1  0.90060000  0.29040000  0.72310000  1.0 0.6425485491
C  C26  1  0.09940000  0.70960000  0.27690000  1.0 0.6425485491
C  C27  1  0.47080000  0.74450000  0.62170000  1.0 0.6021573423
C  C28  1  0.52920000  0.25550000  0.37830000  1.0 0.6021573423
C  C29  1  0.74620000  0.74620000  0.50770000  1.0 0.5375155686
C  C30  1  0.25380000  0.25380000  0.49230000  1.0 0.5375155686
O  O1  1  0.85100000  0.53630000  0.91320000  1.0 -0.6317149968
O  O2  1  0.14900000  0.46370000  0.08680000  1.0 -0.6317149968
O  O3  1  0.76510000  0.49370000  0.80230000  1.0 -0.6317149968
O  O4  1  0.23490000  0.50630000  0.19770000  1.0 -0.6317149968
O  O5  1  0.82110000  0.23140000  0.76990000  1.0 -0.7106904508
O  O6  1  0.17890000  0.76860000  0.23010000  1.0 -0.7106904508
O  O7  1  0.89050000  0.36220000  0.62590000  1.0 -0.6537382127
O  O8  1  0.10950000  0.63780000  0.37410000  1.0 -0.6537382127
O  O9  1  0.41860000  0.91730000  0.82050000  1.0 -0.6581879379
O  O10  1  0.58140000  0.08270000  0.17950000  1.0 -0.6581879379
O  O11  1  0.50260000  0.07640000  0.75360000  1.0 -0.6931702615
O  O12  1  0.49740000  0.92360000  0.24640000  1.0 -0.6931702615
O  O13  1  0.48270000  0.17630000  0.91850000  1.0 -0.7213352443
O  O14  1  0.51730000  0.82370000  0.08150000  1.0 -0.7213352443
O  O15  1  0.32460000  0.19800000  0.05390000  1.0 -0.6739731551
O  O16  1  0.67540000  0.80200000  0.94610000  1.0 -0.6739731551
O  O17  1  0.50320000  0.69340000  0.71850000  1.0 -0.6808498622
O  O18  1  0.49680000  0.30660000  0.28150000  1.0 -0.6808498622
O  O19  1  0.41490000  0.70090000  0.57840000  1.0 -0.5641393484
O  O20  1  0.58510000  0.29910000  0.42160000  1.0 -0.5641393484
O  O21  1  0.73620000  0.63400000  0.53540000  1.0 -0.5927890063
O  O22  1  0.26380000  0.36600000  0.46460000  1.0 -0.5927890063
O  O23  1  0.86360000  0.74950000  0.47820000  1.0 -0.6165954591
O  O24  1  0.13640000  0.25050000  0.52180000  1.0 -0.6165954591
