# DDEC6 charges by PACMAN v1.1 (https://github.com/mtap-research/PACMAN-charge/)
data_EHAGIF_ASR_pacman
_symmetry_space_group_name_H-M   'P 1'
_cell_length_a   10.58700000
_cell_length_b   11.48700000
_cell_length_c   13.37200000
_cell_angle_alpha   69.30100000
_cell_angle_beta   79.25000000
_cell_angle_gamma   63.14000000
_symmetry_Int_Tables_number   1
_chemical_formula_structural   Gd2U3H6(C5O4)6
_chemical_formula_sum   'Gd2 U3 H6 C30 O24'
_cell_volume   1356.41320337
_cell_formula_units_Z   1
loop_
 _symmetry_equiv_pos_site_id
 _symmetry_equiv_pos_as_xyz
  1  'x, y, z'
loop_
 _atom_site_type_symbol
 _atom_site_label
 _atom_site_symmetry_multiplicity
 _atom_site_fract_x
 _atom_site_fract_y
 _atom_site_fract_z
 _atom_site_occupancy
 _atom_site_charge
Gd  Gd1  1  0.60381000  0.22774000  0.75457000  1.0 1.7011232513
Gd  Gd2  1  0.39619000  0.77226000  0.24543000  1.0 1.70565988
U  U1  1  0.00000000  0.50000000  0.50000000  1.0 1.9388842719
U  U2  1  0.62533000  0.71279000  0.83466000  1.0 1.9737925666
U  U3  1  0.37467000  0.28721000  0.16534000  1.0 1.9737925666
H  H1  1  0.09740000  0.36100000  0.95430000  1.0 0.1157472717
H  H2  1  0.90260000  0.63900000  0.04570000  1.0 0.1157472717
H  H3  1  0.16450000  0.10740000  0.73670000  1.0 0.1080433565
H  H4  1  0.83550000  0.89260000  0.26330000  1.0 0.1080433565
H  H5  1  0.70930000  0.99890000  0.41620000  1.0 0.1045628923
H  H6  1  0.29070000  0.00110000  0.58380000  1.0 0.1045628923
C  C1  1  0.00180000  0.34220000  0.84990000  1.0 -0.0548087446
C  C2  1  0.99820000  0.65780000  0.15010000  1.0 -0.0548087446
C  C3  1  0.11340000  0.31320000  0.90640000  1.0 -0.1068199513
C  C4  1  0.88660000  0.68680000  0.09360000  1.0 -0.1068199513
C  C5  1  0.24750000  0.21690000  0.89550000  1.0 -0.1175765631
C  C6  1  0.75250000  0.78310000  0.10450000  1.0 -0.1175765631
C  C7  1  0.26930000  0.14130000  0.82630000  1.0 -0.0805947868
C  C8  1  0.73070000  0.85870000  0.17370000  1.0 -0.0805947868
C  C9  1  0.15250000  0.16360000  0.77680000  1.0 -0.1334308547
C  C10  1  0.84750000  0.83640000  0.22320000  1.0 -0.1334308547
C  C11  1  0.01940000  0.26570000  0.78450000  1.0 -0.1007639592
C  C12  1  0.98060000  0.73430000  0.21550000  1.0 -0.1007639592
C  C13  1  0.62380000  0.99980000  0.44980000  1.0 -0.1378382308
C  C14  1  0.37620000  0.00020000  0.55020000  1.0 -0.1378382308
C  C15  1  0.61530000  0.87580000  0.50370000  1.0 -0.0723311653
C  C16  1  0.38470000  0.12420000  0.49630000  1.0 -0.0723311653
C  C17  1  0.49020000  0.87520000  0.55580000  1.0 -0.1007639592
C  C18  1  0.50980000  0.12480000  0.44420000  1.0 -0.1007639592
C  C19  1  0.86420000  0.46450000  0.85340000  1.0 0.5223078268
C  C20  1  0.13580000  0.53550000  0.14660000  1.0 0.5223078268
C  C21  1  0.36030000  0.19690000  0.95710000  1.0 0.6061978626
C  C22  1  0.63970000  0.80310000  0.04290000  1.0 0.6061978626
C  C23  1  0.41000000  0.03730000  0.80310000  1.0 0.6061978626
C  C24  1  0.59000000  0.96270000  0.19690000  1.0 0.6061978626
C  C25  1  0.90010000  0.29140000  0.72410000  1.0 0.6330441969
C  C26  1  0.09990000  0.70860000  0.27590000  1.0 0.6330441969
C  C27  1  0.46860000  0.74970000  0.61940000  1.0 0.5906129914
C  C28  1  0.53140000  0.25030000  0.38060000  1.0 0.5906129914
C  C29  1  0.74310000  0.74570000  0.50340000  1.0 0.5290479796
C  C30  1  0.25690000  0.25430000  0.49660000  1.0 0.5290479796
O  O1  1  0.85250000  0.53570000  0.90960000  1.0 -0.60633205
O  O2  1  0.14750000  0.46430000  0.09040000  1.0 -0.6025635226
O  O3  1  0.76390000  0.49570000  0.79890000  1.0 -0.6025635226
O  O4  1  0.23610000  0.50430000  0.20110000  1.0 -0.6025635226
O  O5  1  0.82480000  0.22950000  0.76750000  1.0 -0.6612916651
O  O6  1  0.17520000  0.77050000  0.23250000  1.0 -0.6612916651
O  O7  1  0.88930000  0.36400000  0.62540000  1.0 -0.6612916651
O  O8  1  0.11070000  0.63600000  0.37460000  1.0 -0.6612916651
O  O9  1  0.41920000  0.91790000  0.82330000  1.0 -0.6427218778
O  O10  1  0.58080000  0.08210000  0.17670000  1.0 -0.6427218778
O  O11  1  0.50760000  0.07120000  0.76210000  1.0 -0.6835220916
O  O12  1  0.49240000  0.92880000  0.23790000  1.0 -0.6835220916
O  O13  1  0.47940000  0.17970000  0.92010000  1.0 -0.6612916651
O  O14  1  0.52060000  0.82030000  0.07990000  1.0 -0.6612916651
O  O15  1  0.32240000  0.20040000  0.05370000  1.0 -0.6689554167
O  O16  1  0.67760000  0.79960000  0.94630000  1.0 -0.6689554167
O  O17  1  0.50380000  0.69660000  0.71630000  1.0 -0.6689554167
O  O18  1  0.49620000  0.30340000  0.28370000  1.0 -0.6689554167
O  O19  1  0.41420000  0.70450000  0.57770000  1.0 -0.5314164621
O  O20  1  0.58580000  0.29550000  0.42230000  1.0 -0.5314164621
O  O21  1  0.73290000  0.63460000  0.53230000  1.0 -0.5684392017
O  O22  1  0.26710000  0.36540000  0.46770000  1.0 -0.5684392017
O  O23  1  0.86100000  0.74820000  0.47700000  1.0 -0.6025635226
O  O24  1  0.13900000  0.25180000  0.52300000  1.0 -0.6025635226
