# DDEC6 charges by PACMAN v1.1 (https://github.com/mtap-research/PACMAN-charge/)
data_EHIPOC_FSR_pacman
_symmetry_space_group_name_H-M   'P 1'
_cell_length_a   8.12190000
_cell_length_b   11.09820000
_cell_length_c   13.76490000
_cell_angle_alpha   91.39040000
_cell_angle_beta   100.82100000
_cell_angle_gamma   103.37800000
_symmetry_Int_Tables_number   1
_chemical_formula_structural   Cu4H16(C4N3)3
_chemical_formula_sum   'Cu8 H32 C24 N18'
_cell_volume   1182.63583929
_cell_formula_units_Z   2
loop_
 _symmetry_equiv_pos_site_id
 _symmetry_equiv_pos_as_xyz
  1  'x, y, z'
loop_
 _atom_site_type_symbol
 _atom_site_label
 _atom_site_symmetry_multiplicity
 _atom_site_fract_x
 _atom_site_fract_y
 _atom_site_fract_z
 _atom_site_occupancy
 _atom_site_charge
Cu  Cu1  1  0.46830000  0.99910000  0.81240000  1.0 0.2349712054
Cu  Cu2  1  0.53170000  0.00090000  0.18760000  1.0 0.2355318913
Cu  Cu3  1  0.33680000  0.15480000  0.71750000  1.0 0.3633193473
Cu  Cu4  1  0.66320000  0.84520000  0.28250000  1.0 0.3633193473
Cu  Cu5  1  0.85060000  0.78220000  0.64570000  1.0 0.2684494803
Cu  Cu6  1  0.14940000  0.21780000  0.35430000  1.0 0.2684494803
Cu  Cu7  1  0.94400000  0.40370000  0.82210000  1.0 0.4894379178
Cu  Cu8  1  0.05600000  0.59630000  0.17790000  1.0 0.4969227413
H  H1  1  0.16840000  0.98420000  0.35570000  1.0 0.3005518178
H  H2  1  0.13409000  0.84899000  0.30751000  1.0 0.3005518178
H  H3  1  0.01698000  0.87968000  0.37848000  1.0 0.3005518178
H  H4  1  0.36951000  0.87927000  0.44203000  1.0 0.1116053785
H  H5  1  0.25239000  0.90996000  0.51300000  1.0 0.1181804495
H  H6  1  0.18771000  0.68019000  0.40808000  1.0 0.1116053785
H  H7  1  0.07822000  0.71129000  0.48346000  1.0 0.1181804495
H  H8  1  0.31316000  0.73183000  0.60685000  1.0 0.1004871751
H  H9  1  0.42631000  0.70533000  0.53202000  1.0 0.1004871751
H  H10  1  0.15457000  0.53919000  0.58980000  1.0 0.1181804495
H  H11  1  0.23982000  0.51061000  0.50146000  1.0 0.1181804495
H  H12  1  0.48855000  0.51200000  0.60943000  1.0 0.1116053785
H  H13  1  0.34011000  0.42781000  0.65274000  1.0 0.1181804495
H  H14  1  0.53185000  0.53573000  0.76765000  1.0 0.3005518178
H  H15  1  0.50322000  0.65630000  0.71706000  1.0 0.2849485973
H  H16  1  0.35478000  0.57210000  0.76038000  1.0 0.3005518178
H  H17  1  0.83160000  0.01580000  0.64430000  1.0 0.3005518178
H  H18  1  0.86591000  0.15101000  0.69249000  1.0 0.3005518178
H  H19  1  0.98302000  0.12032000  0.62152000  1.0 0.3005518178
H  H20  1  0.63049000  0.12073000  0.55797000  1.0 0.1116053785
H  H21  1  0.74761000  0.09004000  0.48700000  1.0 0.1181804495
H  H22  1  0.81229000  0.31981000  0.59192000  1.0 0.1116053785
H  H23  1  0.92178000  0.28871000  0.51654000  1.0 0.1181804495
H  H24  1  0.68684000  0.26817000  0.39315000  1.0 0.1004871751
H  H25  1  0.57369000  0.29467000  0.46798000  1.0 0.1004871751
H  H26  1  0.84543000  0.46081000  0.41020000  1.0 0.1181804495
H  H27  1  0.76018000  0.48939000  0.49854000  1.0 0.1181804495
H  H28  1  0.51145000  0.48800000  0.39057000  1.0 0.1116053785
H  H29  1  0.65989000  0.57219000  0.34726000  1.0 0.1181804495
H  H30  1  0.46815000  0.46427000  0.23235000  1.0 0.3005518178
H  H31  1  0.49678000  0.34370000  0.28294000  1.0 0.2849485973
H  H32  1  0.64522000  0.42790000  0.23962000  1.0 0.3005518178
C  C1  1  0.21690000  0.96510000  0.73840000  1.0 -0.1426118811
C  C2  1  0.78310000  0.03490000  0.26160000  1.0 -0.1426118811
C  C3  1  0.58480000  0.20230000  0.77620000  1.0 -0.1106637891
C  C4  1  0.41520000  0.79770000  0.22380000  1.0 -0.1106637891
C  C5  1  0.60530000  0.90270000  0.75660000  1.0 -0.0773030719
C  C6  1  0.39470000  0.09730000  0.24340000  1.0 -0.074849089
C  C7  1  0.21690000  0.18610000  0.49260000  1.0 -0.1478836736
C  C8  1  0.78310000  0.81390000  0.50740000  1.0 -0.1478836736
C  C9  1  0.11950000  0.32310000  0.79380000  1.0 -0.1106637891
C  C10  1  0.88050000  0.67690000  0.20620000  1.0 -0.1192472851
C  C11  1  0.86340000  0.62170000  0.69290000  1.0 -0.1311333676
C  C12  1  0.13660000  0.37830000  0.30710000  1.0 -0.1311333676
C  C13  1  0.98550000  0.47720000  0.96010000  1.0 -0.1912571652
C  C14  1  0.01450000  0.52280000  0.03990000  1.0 -0.1912571652
C  C15  1  0.19170000  0.72690000  0.46850000  1.0 -0.1912571652
C  C16  1  0.25380000  0.86300000  0.45380000  1.0 -0.0179175217
C  C17  1  0.39020000  0.51120000  0.63890000  1.0 0.0125198947
C  C18  1  0.26050000  0.55330000  0.56570000  1.0 -0.2189301079
C  C19  1  0.31240000  0.68630000  0.54650000  1.0 -0.1426118811
C  C20  1  0.80830000  0.27310000  0.53150000  1.0 -0.1912571652
C  C21  1  0.74620000  0.13700000  0.54620000  1.0 -0.0179175217
C  C22  1  0.60980000  0.48880000  0.36110000  1.0 0.0125198947
C  C23  1  0.73950000  0.44670000  0.43430000  1.0 -0.2189301079
C  C24  1  0.68760000  0.31370000  0.45350000  1.0 -0.1426118811
N  N1  1  0.49120000  0.00470000  0.95770000  1.0 -0.0131960342
N  N2  1  0.50880000  0.99530000  0.04230000  1.0 -0.0131960342
N  N3  1  0.26390000  0.16980000  0.57420000  1.0 -0.3614011189
N  N4  1  0.73610000  0.83020000  0.42580000  1.0 -0.3614011189
N  N5  1  0.20510000  0.26290000  0.77520000  1.0 -0.3194701175
N  N6  1  0.79490000  0.73710000  0.22480000  1.0 -0.3194701175
N  N7  1  0.08230000  0.90080000  0.70910000  1.0 -0.2859197458
N  N8  1  0.91770000  0.09920000  0.29090000  1.0 -0.2859197458
N  N9  1  0.68960000  0.85300000  0.72210000  1.0 -0.3473284443
N  N10  1  0.31040000  0.14700000  0.27790000  1.0 -0.3473284443
N  N11  1  0.71720000  0.26680000  0.79830000  1.0 -0.3252654275
N  N12  1  0.28280000  0.73320000  0.20170000  1.0 -0.3194701175
N  N13  1  0.88750000  0.53660000  0.73250000  1.0 -0.3614011189
N  N14  1  0.11250000  0.46340000  0.26750000  1.0 -0.3658327361
N  N15  1  0.13210000  0.89750000  0.36580000  1.0 -0.4271215698
N  N16  1  0.44910000  0.57240000  0.72740000  1.0 -0.3614011189
N  N17  1  0.86790000  0.10250000  0.63420000  1.0 -0.4271215698
N  N18  1  0.55090000  0.42760000  0.27260000  1.0 -0.3614011189
