# DDEC6 charges by PACMAN v1.1 (https://github.com/mtap-research/PACMAN-charge/)
data_EHOSUS_ion_pacman
_symmetry_space_group_name_H-M   'P 1'
_cell_length_a   15.89930000
_cell_length_b   15.89930000
_cell_length_c   24.73200000
_cell_angle_alpha   89.57850000
_cell_angle_beta   90.42150000
_cell_angle_gamma   48.22010000
_symmetry_Int_Tables_number   1
_chemical_formula_structural   Na7H86C60N24O43
_chemical_formula_sum   'Na14 H172 C120 N48 O86'
_cell_volume   4661.38149723
_cell_formula_units_Z   2
loop_
 _symmetry_equiv_pos_site_id
 _symmetry_equiv_pos_as_xyz
  1  'x, y, z'
loop_
 _atom_site_type_symbol
 _atom_site_label
 _atom_site_symmetry_multiplicity
 _atom_site_fract_x
 _atom_site_fract_y
 _atom_site_fract_z
 _atom_site_occupancy
 _atom_site_charge
Na  Na1  1  0.16478000  0.18462000  0.52644000  1.0 0.849490003
Na  Na2  1  0.03724000  0.07906000  0.53542000  1.0 0.8578023774
Na  Na3  1  0.77998000  0.32162000  0.61801000  1.0 0.849490003
Na  Na4  1  0.80218000  0.20066000  0.74409000  1.0 0.8415698273
Na  Na5  1  0.88335000  0.54333000  0.55053000  1.0 0.8415698273
Na  Na6  1  0.76404000  0.13424000  0.87689000  1.0 0.4331844313
Na  Na7  1  0.83630000  0.06450000  0.86590000  1.0 0.4458612067
Na  Na8  1  0.81538000  0.83522000  0.02644000  1.0 0.849490003
Na  Na9  1  0.92094000  0.96276000  0.03542000  1.0 0.8578023774
Na  Na10  1  0.67838000  0.22002000  0.11801000  1.0 0.849490003
Na  Na11  1  0.79934000  0.19782000  0.24409000  1.0 0.8415698273
Na  Na12  1  0.45667000  0.11665000  0.05053000  1.0 0.8415698273
Na  Na13  1  0.86576000  0.23596000  0.37689000  1.0 0.4394817961
Na  Na14  1  0.93550000  0.16370000  0.36590000  1.0 0.4394817961
H  H1  1  0.03620000  0.34360000  0.44340000  1.0 0.3476230626
H  H2  1  0.13140000  0.24340000  0.42300000  1.0 0.3593117491
H  H3  1  0.28570000  0.94690000  0.50880000  1.0 0.3402276626
H  H4  1  0.20950000  0.00750000  0.46620000  1.0 0.3476230626
H  H5  1  0.01900000  0.24100000  0.60340000  1.0 0.3476230626
H  H6  1  0.94010000  0.30430000  0.56270000  1.0 0.3284374985
H  H7  1  0.10560000  0.39360000  0.56030000  1.0 0.3476230626
H  H8  1  0.07440000  0.35440000  0.59780000  1.0 0.3402276626
H  H9  1  0.81610000  0.22410000  0.51320000  1.0 0.3402276626
H  H10  1  0.81590000  0.16190000  0.55240000  1.0 0.3402276626
H  H11  1  0.78630000  0.49010000  0.65270000  1.0 0.3402276626
H  H12  1  0.89430000  0.38990000  0.66350000  1.0 0.3402276626
H  H13  1  0.96740000  0.18940000  0.69730000  1.0 0.3402276626
H  H14  1  0.98060000  0.11240000  0.66440000  1.0 0.3593117491
H  H15  1  0.63050000  0.28690000  0.66500000  1.0 0.3476230626
H  H16  1  0.72110000  0.19710000  0.63680000  1.0 0.3593117491
H  H17  1  0.75300000  0.41500000  0.72970000  1.0 0.3183458907
H  H18  1  0.72770000  0.41570000  0.78300000  1.0 0.3402276626
H  H19  1  0.85490000  0.99690000  0.76150000  1.0 0.3284374985
H  H20  1  0.87170000  0.98970000  0.70650000  1.0 0.3476230626
H  H21  1  0.96120000  0.11860000  0.82620000  1.0 0.3593117491
H  H22  1  0.86840000  0.21640000  0.84900000  1.0 0.3674043876
H  H23  1  0.61340000  0.29940000  0.81670000  1.0 0.3674043876
H  H24  1  0.63080000  0.21080000  0.79320000  1.0 0.3593117491
H  H25  1  0.65110000  0.32050000  0.95220000  1.0 0.3593117491
H  H26  1  0.74860000  0.29060000  0.93250000  1.0 0.3402276626
H  H27  1  0.81730000  0.92530000  0.84440000  1.0 0.3776356739
H  H28  1  0.71690000  0.01290000  0.81810000  1.0 0.3593117491
H  H29  1  0.57190000  0.14390000  0.89340000  1.0 0.3593117491
H  H30  1  0.52350000  0.24710000  0.91520000  1.0 0.3476230626
H  H31  1  0.83130000  0.95530000  0.94590000  1.0 0.3402276626
H  H32  1  0.76850000  0.06130000  0.96560000  1.0 0.3402276626
H  H33  1  0.87220000  0.55380000  0.43910000  1.0 0.3402276626
H  H34  1  0.97050000  0.53250000  0.44720000  1.0 0.3593117491
H  H35  1  0.96600000  0.62400000  0.64250000  1.0 0.3284374985
H  H36  1  0.03920000  0.52520000  0.61340000  1.0 0.3402276626
H  H37  1  0.74220000  0.49880000  0.52510000  1.0 0.3476230626
H  H38  1  0.83700000  0.43300000  0.49400000  1.0 0.3402276626
H  H39  1  0.62887000  0.02719000  0.45024000  1.0 0.0937690211
H  H40  1  0.62297000  0.03559000  0.54325000  1.0 0.0937690211
H  H41  1  0.47249000  0.11547000  0.61495000  1.0 0.1108035614
H  H42  1  0.35133000  0.17001000  0.59137000  1.0 0.1192020464
H  H43  1  0.71148000  0.88492000  0.61929000  1.0 0.1192020464
H  H44  1  0.77938000  0.76032000  0.59757000  1.0 0.1108035614
H  H45  1  0.55780000  0.95424000  0.68341000  1.0 0.1001806467
H  H46  1  0.49292000  0.87864000  0.72661000  1.0 0.1001806467
H  H47  1  0.30691000  0.92679000  0.72765000  1.0 0.1108035614
H  H48  1  0.21682000  0.01820000  0.68312000  1.0 0.1192020464
H  H49  1  0.64037000  0.59911000  0.68409000  1.0 0.1108035614
H  H50  1  0.54829000  0.68603000  0.72753000  1.0 0.1108035614
H  H51  1  0.36996000  0.73400000  0.72189000  1.0 0.0716930398
H  H52  1  0.30215000  0.66319000  0.67815000  1.0 0.0716930398
H  H53  1  0.07231000  0.86731000  0.59384000  1.0 0.1192020464
H  H54  1  0.14063000  0.74093000  0.61488000  1.0 0.1108035614
H  H55  1  0.50079000  0.45670000  0.58506000  1.0 0.1108035614
H  H56  1  0.38190000  0.50880000  0.60925000  1.0 0.1108035614
H  H57  1  0.22561000  0.59553000  0.53796000  1.0 0.0937690211
H  H58  1  0.21057000  0.61325000  0.44531000  1.0 0.0937690211
H  H59  1  0.07210000  0.89064000  0.39975000  1.0 0.1192020464
H  H60  1  0.12477000  0.77181000  0.37516000  1.0 0.1108035614
H  H61  1  0.35844000  0.52830000  0.37092000  1.0 0.1108035614
H  H62  1  0.48373000  0.46213000  0.39298000  1.0 0.1108035614
H  H63  1  0.27779000  0.69129000  0.30841000  1.0 0.0716930398
H  H64  1  0.34953000  0.75701000  0.26347000  1.0 0.0716930398
H  H65  1  0.21108000  0.02946000  0.30007000  1.0 0.1108035614
H  H66  1  0.30281000  0.93719000  0.25801000  1.0 0.1001806467
H  H67  1  0.63278000  0.61150000  0.30701000  1.0 0.1192020464
H  H68  1  0.54420000  0.70224000  0.26192000  1.0 0.1108035614
H  H69  1  0.49783000  0.88385000  0.26549000  1.0 0.0937690211
H  H70  1  0.56012000  0.95686000  0.31244000  1.0 0.1001806467
H  H71  1  0.35219000  0.17565000  0.39824000  1.0 0.1192020464
H  H72  1  0.47414000  0.11788000  0.37604000  1.0 0.1108035614
H  H73  1  0.71763000  0.87303000  0.38073000  1.0 0.1192020464
H  H74  1  0.77325000  0.75193000  0.40493000  1.0 0.1192020464
H  H75  1  0.65640000  0.96380000  0.94340000  1.0 0.3476230626
H  H76  1  0.75660000  0.86860000  0.92300000  1.0 0.3593117491
H  H77  1  0.05310000  0.71430000  0.00880000  1.0 0.3402276626
H  H78  1  0.99250000  0.79050000  0.96620000  1.0 0.3476230626
H  H79  1  0.75900000  0.98100000  0.10340000  1.0 0.3476230626
H  H80  1  0.69570000  0.05990000  0.06270000  1.0 0.3284374985
H  H81  1  0.60640000  0.89440000  0.06030000  1.0 0.3476230626
H  H82  1  0.64560000  0.92560000  0.09780000  1.0 0.3402276626
H  H83  1  0.77590000  0.18390000  0.01320000  1.0 0.3402276626
H  H84  1  0.83810000  0.18410000  0.05240000  1.0 0.3402276626
H  H85  1  0.50990000  0.21370000  0.15270000  1.0 0.3402276626
H  H86  1  0.61010000  0.10570000  0.16350000  1.0 0.3402276626
H  H87  1  0.81060000  0.03260000  0.19730000  1.0 0.3402276626
H  H88  1  0.88760000  0.01940000  0.16440000  1.0 0.3593117491
H  H89  1  0.71310000  0.36950000  0.16500000  1.0 0.3476230626
H  H90  1  0.80290000  0.27890000  0.13680000  1.0 0.3593117491
H  H91  1  0.58500000  0.24700000  0.22970000  1.0 0.3183458907
H  H92  1  0.58430000  0.27230000  0.28300000  1.0 0.3402276626
H  H93  1  0.00310000  0.14510000  0.26150000  1.0 0.3284374985
H  H94  1  0.01030000  0.12830000  0.20650000  1.0 0.3476230626
H  H95  1  0.88140000  0.03880000  0.32620000  1.0 0.3593117491
H  H96  1  0.78360000  0.13160000  0.34900000  1.0 0.3674043876
H  H97  1  0.70060000  0.38660000  0.31670000  1.0 0.3674043876
H  H98  1  0.78920000  0.36920000  0.29320000  1.0 0.3593117491
H  H99  1  0.67950000  0.34890000  0.45220000  1.0 0.3593117491
H  H100  1  0.70940000  0.25140000  0.43250000  1.0 0.3402276626
H  H101  1  0.07470000  0.18270000  0.34440000  1.0 0.3776356739
H  H102  1  0.98710000  0.28310000  0.31810000  1.0 0.3593117491
H  H103  1  0.85610000  0.42810000  0.39340000  1.0 0.3593117491
H  H104  1  0.75290000  0.47650000  0.41520000  1.0 0.3476230626
H  H105  1  0.04470000  0.16870000  0.44590000  1.0 0.3402276626
H  H106  1  0.93870000  0.23150000  0.46560000  1.0 0.3402276626
H  H107  1  0.44620000  0.12780000  0.93910000  1.0 0.3402276626
H  H108  1  0.46750000  0.02950000  0.94720000  1.0 0.3593117491
H  H109  1  0.37600000  0.03400000  0.14250000  1.0 0.3284374985
H  H110  1  0.47480000  0.96080000  0.11340000  1.0 0.3402276626
H  H111  1  0.50120000  0.25780000  0.02510000  1.0 0.3476230626
H  H112  1  0.56700000  0.16300000  0.99400000  1.0 0.3402276626
H  H113  1  0.97281000  0.37113000  0.95024000  1.0 0.0937690211
H  H114  1  0.96441000  0.37703000  0.04325000  1.0 0.0937690211
H  H115  1  0.88453000  0.52751000  0.11495000  1.0 0.1108035614
H  H116  1  0.82999000  0.64867000  0.09137000  1.0 0.1192020464
H  H117  1  0.11508000  0.28852000  0.11929000  1.0 0.1192020464
H  H118  1  0.23968000  0.22062000  0.09757000  1.0 0.1108035614
H  H119  1  0.04576000  0.44220000  0.18341000  1.0 0.1001806467
H  H120  1  0.12136000  0.50708000  0.22661000  1.0 0.1001806467
H  H121  1  0.07321000  0.69309000  0.22765000  1.0 0.1108035614
H  H122  1  0.98180000  0.78318000  0.18312000  1.0 0.1192020464
H  H123  1  0.40089000  0.35963000  0.18409000  1.0 0.1108035614
H  H124  1  0.31397000  0.45171000  0.22753000  1.0 0.1108035614
H  H125  1  0.26600000  0.63004000  0.22189000  1.0 0.0716930398
H  H126  1  0.33681000  0.69785000  0.17815000  1.0 0.0716930398
H  H127  1  0.13269000  0.92769000  0.09384000  1.0 0.1192020464
H  H128  1  0.25907000  0.85937000  0.11488000  1.0 0.1108035614
H  H129  1  0.54331000  0.49922000  0.08506000  1.0 0.1108035614
H  H130  1  0.49120000  0.61810000  0.10925000  1.0 0.1108035614
H  H131  1  0.40447000  0.77439000  0.03796000  1.0 0.0937690211
H  H132  1  0.38675000  0.78943000  0.94531000  1.0 0.0937690211
H  H133  1  0.10936000  0.92790000  0.89975000  1.0 0.1192020464
H  H134  1  0.22819000  0.87523000  0.87516000  1.0 0.1108035614
H  H135  1  0.47170000  0.64156000  0.87092000  1.0 0.1108035614
H  H136  1  0.53787000  0.51627000  0.89298000  1.0 0.1108035614
H  H137  1  0.30871000  0.72221000  0.80841000  1.0 0.0716930398
H  H138  1  0.24299000  0.65047000  0.76347000  1.0 0.0716930398
H  H139  1  0.97054000  0.78892000  0.80007000  1.0 0.1108035614
H  H140  1  0.06281000  0.69719000  0.75801000  1.0 0.1108035614
H  H141  1  0.38850000  0.36722000  0.80701000  1.0 0.1192020464
H  H142  1  0.29776000  0.45580000  0.76192000  1.0 0.1108035614
H  H143  1  0.11615000  0.50217000  0.76549000  1.0 0.0937690211
H  H144  1  0.04314000  0.43988000  0.81244000  1.0 0.1001806467
H  H145  1  0.82435000  0.64781000  0.89824000  1.0 0.1192020464
H  H146  1  0.88212000  0.52586000  0.87604000  1.0 0.1108035614
H  H147  1  0.12697000  0.28237000  0.88073000  1.0 0.1108035614
H  H148  1  0.24807000  0.22675000  0.90493000  1.0 0.1192020464
H  H149  1  0.72776000  0.49728000  0.07463000  1.0 0.1192020464
H  H150  1  0.79144000  0.38482000  0.99843000  1.0 0.1192020464
H  H151  1  0.63465000  0.66165000  0.90239000  1.0 0.1307759645
H  H152  1  0.57211000  0.77425000  0.97774000  1.0 0.1307759645
H  H153  1  0.97597000  0.19275000  0.98396000  1.0 0.1192020464
H  H154  1  0.09607000  0.12343000  0.91090000  1.0 0.1192020464
H  H155  1  0.36207000  0.97599000  0.01344000  1.0 0.1192020464
H  H156  1  0.24221000  0.04071000  0.08697000  1.0 0.1108035614
H  H157  1  0.88520000  0.76200000  0.28663000  1.0 0.1192020464
H  H158  1  0.93696000  0.59374000  0.31711000  1.0 0.1307759645
H  H159  1  0.72637000  0.63055000  0.20589000  1.0 0.1192020464
H  H160  1  0.67726000  0.79696000  0.17402000  1.0 0.1192020464
H  H161  1  0.50272000  0.27224000  0.57463000  1.0 0.1192020464
H  H162  1  0.61518000  0.20856000  0.49843000  1.0 0.1192020464
H  H163  1  0.33835000  0.36535000  0.40239000  1.0 0.1307759645
H  H164  1  0.22575000  0.42789000  0.47774000  1.0 0.1307759645
H  H165  1  0.80725000  0.02403000  0.48396000  1.0 0.1192020464
H  H166  1  0.87657000  0.90393000  0.41090000  1.0 0.1192020464
H  H167  1  0.02401000  0.63793000  0.51344000  1.0 0.1192020464
H  H168  1  0.95929000  0.75779000  0.58697000  1.0 0.1108035614
H  H169  1  0.23800000  0.11480000  0.78663000  1.0 0.1192020464
H  H170  1  0.40626000  0.06304000  0.81711000  1.0 0.1307759645
H  H171  1  0.36945000  0.27363000  0.70589000  1.0 0.1192020464
H  H172  1  0.20304000  0.32274000  0.67402000  1.0 0.1192020464
C  C1  1  0.41032000  0.10572000  0.49515000  1.0 0.5486672119
C  C2  1  0.70594000  0.81314000  0.50035000  1.0 0.5486672119
C  C3  1  0.59519000  0.99719000  0.46565000  1.0 0.1108035614
C  C4  1  0.59485000  0.99945000  0.52884000  1.0 0.1192020464
C  C5  1  0.43131000  0.09911000  0.59436000  1.0 0.0214204819
C  C6  1  0.70395000  0.83715000  0.59856000  1.0 0.0148927247
C  C7  1  0.34707000  0.02527000  0.63015000  1.0 0.5416686083
C  C8  1  0.64858000  0.73458000  0.63512000  1.0 0.5416686083
C  C9  1  0.53421000  0.92561000  0.65710000  1.0 0.1192020464
C  C10  1  0.49059000  0.87399000  0.68640000  1.0 0.1108035614
C  C11  1  0.29234000  0.94214000  0.68826000  1.0 0.0277886783
C  C12  1  0.56468000  0.67468000  0.68841000  1.0 0.0214204819
C  C13  1  0.20496000  0.88676000  0.63341000  1.0 0.5416686083
C  C14  1  0.51230000  0.59130000  0.62875000  1.0 0.5486672119
C  C15  1  0.36935000  0.74235000  0.68174000  1.0 0.1001806467
C  C16  1  0.32438000  0.69358000  0.65210000  1.0 0.1001806467
C  C17  1  0.14723000  0.78983000  0.59423000  1.0 0.0277886783
C  C18  1  0.42132000  0.52732000  0.58894000  1.0 0.0214204819
C  C19  1  0.13858000  0.82258000  0.49576000  1.0 0.5416686083
C  C20  1  0.43424000  0.53284000  0.49036000  1.0 0.531635529
C  C21  1  0.25163000  0.63383000  0.52376000  1.0 0.1192020464
C  C22  1  0.24693000  0.64033000  0.46094000  1.0 0.1108035614
C  C23  1  0.14257000  0.81077000  0.39656000  1.0 0.0214204819
C  C24  1  0.40595000  0.53655000  0.39173000  1.0 0.0277886783
C  C25  1  0.21289000  0.89789000  0.35874000  1.0 0.5416686083
C  C26  1  0.50222000  0.59702000  0.35408000  1.0 0.531635529
C  C27  1  0.31018000  0.71238000  0.33379000  1.0 0.1001806467
C  C28  1  0.35776000  0.75736000  0.30357000  1.0 0.1001806467
C  C29  1  0.28806000  0.95486000  0.29694000  1.0 0.0214204819
C  C30  1  0.55627000  0.68627000  0.30133000  1.0 0.0214204819
C  C31  1  0.33929000  0.04209000  0.35368000  1.0 0.5248899323
C  C32  1  0.63178000  0.74238000  0.36380000  1.0 0.531635529
C  C33  1  0.48658000  0.88438000  0.30526000  1.0 0.1001806467
C  C34  1  0.53203000  0.93023000  0.33701000  1.0 0.1108035614
C  C35  1  0.43140000  0.10360000  0.39659000  1.0 0.0214204819
C  C36  1  0.70169000  0.83129000  0.40114000  1.0 0.0277886783
C  C37  1  0.89428000  0.58968000  0.99515000  1.0 0.5486672119
C  C38  1  0.18686000  0.29406000  0.00035000  1.0 0.5486672119
C  C39  1  0.00281000  0.40481000  0.96565000  1.0 0.1108035614
C  C40  1  0.00055000  0.40515000  0.02884000  1.0 0.1192020464
C  C41  1  0.90089000  0.56869000  0.09436000  1.0 0.0214204819
C  C42  1  0.16285000  0.29605000  0.09856000  1.0 0.0148927247
C  C43  1  0.97473000  0.65293000  0.13015000  1.0 0.5416686083
C  C44  1  0.26542000  0.35142000  0.13512000  1.0 0.5416686083
C  C45  1  0.07439000  0.46579000  0.15710000  1.0 0.1192020464
C  C46  1  0.12601000  0.50941000  0.18640000  1.0 0.1108035614
C  C47  1  0.05786000  0.70766000  0.18826000  1.0 0.0277886783
C  C48  1  0.32532000  0.43532000  0.18841000  1.0 0.0214204819
C  C49  1  0.11324000  0.79504000  0.13341000  1.0 0.5416686083
C  C50  1  0.40870000  0.48770000  0.12875000  1.0 0.5416686083
C  C51  1  0.25765000  0.63065000  0.18174000  1.0 0.1001806467
C  C52  1  0.30642000  0.67562000  0.15210000  1.0 0.1001806467
C  C53  1  0.21017000  0.85277000  0.09423000  1.0 0.0277886783
C  C54  1  0.47268000  0.57868000  0.08894000  1.0 0.0214204819
C  C55  1  0.17742000  0.86142000  0.99576000  1.0 0.5416686083
C  C56  1  0.46716000  0.56576000  0.99036000  1.0 0.531635529
C  C57  1  0.36617000  0.74837000  0.02376000  1.0 0.1192020464
C  C58  1  0.35967000  0.75307000  0.96094000  1.0 0.1108035614
C  C59  1  0.18923000  0.85743000  0.89656000  1.0 0.0214204819
C  C60  1  0.46345000  0.59405000  0.89173000  1.0 0.0277886783
C  C61  1  0.10211000  0.78711000  0.85874000  1.0 0.5416686083
C  C62  1  0.40298000  0.49778000  0.85408000  1.0 0.531635529
C  C63  1  0.28762000  0.68982000  0.83379000  1.0 0.1001806467
C  C64  1  0.24264000  0.64224000  0.80357000  1.0 0.1001806467
C  C65  1  0.04514000  0.71194000  0.79694000  1.0 0.0214204819
C  C66  1  0.31373000  0.44373000  0.80133000  1.0 0.0214204819
C  C67  1  0.95791000  0.66071000  0.85368000  1.0 0.5248899323
C  C68  1  0.25762000  0.36822000  0.86380000  1.0 0.531635529
C  C69  1  0.11562000  0.51342000  0.80526000  1.0 0.1108035614
C  C70  1  0.06977000  0.46797000  0.83701000  1.0 0.1108035614
C  C71  1  0.89640000  0.56860000  0.89659000  1.0 0.0214204819
C  C72  1  0.16871000  0.29831000  0.90114000  1.0 0.0277886783
C  C73  1  0.59430000  0.72210000  0.08282000  1.0 0.5416686083
C  C74  1  0.64184000  0.64704000  0.03414000  1.0 -0.030667002
C  C75  1  0.70835000  0.53095000  0.03957000  1.0 -0.1267520351
C  C76  1  0.74653000  0.46393000  0.99426000  1.0 -0.1201501355
C  C77  1  0.71916000  0.51236000  0.94265000  1.0 -0.030667002
C  C78  1  0.65362000  0.62822000  0.93748000  1.0 -0.1201501355
C  C79  1  0.61578000  0.69538000  0.98211000  1.0 -0.1098282076
C  C80  1  0.76217000  0.43917000  0.89338000  1.0 0.5416686083
C  C81  1  0.01892000  0.16572000  0.09083000  1.0 0.5486672119
C  C82  1  0.09722000  0.12282000  0.04290000  1.0 -0.030667002
C  C83  1  0.05463000  0.14763000  0.99013000  1.0 -0.1098282076
C  C84  1  0.12603000  0.10703000  0.94668000  1.0 -0.1201501355
C  C85  1  0.24139000  0.04239000  0.95485000  1.0 -0.030667002
C  C86  1  0.28368000  0.01908000  0.00733000  1.0 -0.1098282076
C  C87  1  0.21211000  0.05831000  0.05118000  1.0 -0.1267520351
C  C88  1  0.32155000  0.99295000  0.90802000  1.0 0.5416686083
C  C89  1  0.74823000  0.90163000  0.20545000  1.0 0.5597734911
C  C90  1  0.77694000  0.79594000  0.22665000  1.0 -0.030667002
C  C91  1  0.85351000  0.73491000  0.26975000  1.0 -0.1201501355
C  C92  1  0.88385000  0.63505000  0.28816000  1.0 -0.1098282076
C  C93  1  0.83700000  0.59540000  0.26452000  1.0 -0.0228611218
C  C94  1  0.75941000  0.65681000  0.22209000  1.0 -0.1267520351
C  C95  1  0.72991000  0.75611000  0.20318000  1.0 -0.1098282076
C  C96  1  0.87004000  0.48644000  0.28397000  1.0 0.5486672119
C  C97  1  0.27790000  0.40570000  0.58282000  1.0 0.5416686083
C  C98  1  0.35296000  0.35816000  0.53414000  1.0 -0.030667002
C  C99  1  0.46905000  0.29165000  0.53957000  1.0 -0.1267520351
C  C100  1  0.53607000  0.25347000  0.49426000  1.0 -0.1201501355
C  C101  1  0.48764000  0.28084000  0.44265000  1.0 -0.030667002
C  C102  1  0.37178000  0.34638000  0.43748000  1.0 -0.1201501355
C  C103  1  0.30462000  0.38422000  0.48211000  1.0 -0.1046535807
C  C104  1  0.56083000  0.23783000  0.39338000  1.0 0.5416686083
C  C105  1  0.83428000  0.98108000  0.59083000  1.0 0.5486672119
C  C106  1  0.87718000  0.90278000  0.54290000  1.0 -0.030667002
C  C107  1  0.85237000  0.94537000  0.49013000  1.0 -0.1098282076
C  C108  1  0.89297000  0.87397000  0.44668000  1.0 -0.1201501355
C  C109  1  0.95761000  0.75861000  0.45485000  1.0 -0.030667002
C  C110  1  0.98092000  0.71632000  0.50733000  1.0 -0.1098282076
C  C111  1  0.94169000  0.78789000  0.55118000  1.0 -0.1267520351
C  C112  1  0.00705000  0.67845000  0.40802000  1.0 0.5416686083
C  C113  1  0.09837000  0.25177000  0.70545000  1.0 0.5597734911
C  C114  1  0.20406000  0.22306000  0.72665000  1.0 -0.030667002
C  C115  1  0.26509000  0.14649000  0.76975000  1.0 -0.1201501355
C  C116  1  0.36495000  0.11615000  0.78816000  1.0 -0.1098282076
C  C117  1  0.40460000  0.16300000  0.76452000  1.0 -0.0228611218
C  C118  1  0.34319000  0.24059000  0.72209000  1.0 -0.1267520351
C  C119  1  0.24389000  0.27009000  0.70318000  1.0 -0.1098282076
C  C120  1  0.51356000  0.12996000  0.78397000  1.0 0.5486672119
N  N1  1  0.47748000  0.06808000  0.45095000  1.0 -0.2206357762
N  N2  1  0.47714000  0.06434000  0.54061000  1.0 -0.2206357762
N  N3  1  0.66844000  0.88144000  0.54388000  1.0 -0.2282012614
N  N4  1  0.66358000  0.87878000  0.45439000  1.0 -0.2206357762
N  N5  1  0.43748000  0.01628000  0.62464000  1.0 -0.2132248941
N  N6  1  0.37555000  0.94215000  0.66565000  1.0 -0.2282012614
N  N7  1  0.56682000  0.75882000  0.66862000  1.0 -0.2206357762
N  N8  1  0.62867000  0.83187000  0.62672000  1.0 -0.2132248941
N  N9  1  0.29129000  0.85989000  0.66452000  1.0 -0.2206357762
N  N10  1  0.22747000  0.79047000  0.62179000  1.0 -0.2132248941
N  N11  1  0.41869000  0.60529000  0.61986000  1.0 -0.2132248941
N  N12  1  0.48230000  0.67730000  0.66110000  1.0 -0.2206357762
N  N13  1  0.17734000  0.75074000  0.53937000  1.0 -0.2282012614
N  N14  1  0.18046000  0.75986000  0.45008000  1.0 -0.2206357762
N  N15  1  0.36451000  0.56871000  0.44621000  1.0 -0.2206357762
N  N16  1  0.37005000  0.56905000  0.53589000  1.0 -0.2282012614
N  N17  1  0.22423000  0.80643000  0.36773000  1.0 -0.2132248941
N  N18  1  0.29221000  0.87101000  0.32369000  1.0 -0.2206357762
N  N19  1  0.47477000  0.68097000  0.32082000  1.0 -0.2132248941
N  N20  1  0.40631000  0.61591000  0.36385000  1.0 -0.2132248941
N  N21  1  0.36778000  0.96178000  0.31841000  1.0 -0.2206357762
N  N22  1  0.43445000  0.02245000  0.36739000  1.0 -0.2206357762
N  N23  1  0.62195000  0.83455000  0.37019000  1.0 -0.2206357762
N  N24  1  0.55151000  0.77091000  0.32726000  1.0 -0.2206357762
N  N25  1  0.93192000  0.52252000  0.95095000  1.0 -0.2206357762
N  N26  1  0.93566000  0.52286000  0.04061000  1.0 -0.2206357762
N  N27  1  0.11856000  0.33156000  0.04388000  1.0 -0.2282012614
N  N28  1  0.12122000  0.33642000  0.95439000  1.0 -0.2206357762
N  N29  1  0.98372000  0.56252000  0.12464000  1.0 -0.2132248941
N  N30  1  0.05785000  0.62445000  0.16565000  1.0 -0.2282012614
N  N31  1  0.24118000  0.43318000  0.16862000  1.0 -0.2132248941
N  N32  1  0.16813000  0.37133000  0.12672000  1.0 -0.2206357762
N  N33  1  0.14011000  0.70871000  0.16452000  1.0 -0.2206357762
N  N34  1  0.20953000  0.77253000  0.12179000  1.0 -0.2132248941
N  N35  1  0.39471000  0.58131000  0.11986000  1.0 -0.2132248941
N  N36  1  0.32270000  0.51770000  0.16110000  1.0 -0.2206357762
N  N37  1  0.24926000  0.82266000  0.03937000  1.0 -0.2282012614
N  N38  1  0.24014000  0.81954000  0.95008000  1.0 -0.2206357762
N  N39  1  0.43129000  0.63549000  0.94621000  1.0 -0.2206357762
N  N40  1  0.43095000  0.62995000  0.03589000  1.0 -0.2282012614
N  N41  1  0.19357000  0.77577000  0.86773000  1.0 -0.2132248941
N  N42  1  0.12899000  0.70779000  0.82369000  1.0 -0.2206357762
N  N43  1  0.31903000  0.52523000  0.82082000  1.0 -0.2132248941
N  N44  1  0.38409000  0.59369000  0.86385000  1.0 -0.2132248941
N  N45  1  0.03822000  0.63222000  0.81841000  1.0 -0.2206357762
N  N46  1  0.97755000  0.56555000  0.86739000  1.0 -0.2206357762
N  N47  1  0.16545000  0.37805000  0.87019000  1.0 -0.2206357762
N  N48  1  0.22909000  0.44849000  0.82726000  1.0 -0.2206357762
O  O1  1  0.07484000  0.27314000  0.44294000  1.0 -0.7387457924
O  O2  1  0.22178000  0.01018000  0.49929000  1.0 -0.7801517087
O  O3  1  0.00024000  0.23644000  0.57165000  1.0 -0.8067297476
O  O4  1  0.07567000  0.36447000  0.56366000  1.0 -0.7896467286
O  O5  1  0.83688000  0.19808000  0.54546000  1.0 -0.8047927159
O  O6  1  0.82483000  0.42203000  0.66184000  1.0 -0.7273602523
O  O7  1  0.93272000  0.17282000  0.68133000  1.0 -0.7801517087
O  O8  1  0.69916000  0.25156000  0.65738000  1.0 -0.7896467286
O  O9  1  0.73003000  0.39343000  0.75178000  1.0 -0.7504829901
O  O10  1  0.88198000  0.00818000  0.73607000  1.0 -0.7504829901
O  O11  1  0.89220000  0.15620000  0.83419000  1.0 -0.7801517087
O  O12  1  0.66074000  0.23834000  0.79985000  1.0 -0.7896467286
O  O13  1  0.71754000  0.26494000  0.94177000  1.0 -0.7204343664
O  O14  1  0.78502000  0.98362000  0.82370000  1.0 -0.7387457924
O  O15  1  0.58697000  0.18017000  0.91037000  1.0 -0.7204343664
O  O16  1  0.83576000  0.00876000  0.94915000  1.0 -0.8223296541
O  O17  1  0.94002000  0.50422000  0.45243000  1.0 -0.7273602523
O  O18  1  0.96798000  0.57598000  0.62318000  1.0 -0.7504829901
O  O19  1  0.81526000  0.44866000  0.52643000  1.0 -0.7273602523
O  O20  1  0.30751000  0.16811000  0.49419000  1.0 -0.5886416199
O  O21  1  0.76912000  0.71028000  0.50220000  1.0 -0.5886416199
O  O22  1  0.25349000  0.09685000  0.60884000  1.0 -0.5691181233
O  O23  1  0.72651000  0.64163000  0.61640000  1.0 -0.5769344854
O  O24  1  0.12113000  0.98261000  0.61809000  1.0 -0.5886416199
O  O25  1  0.60658000  0.51564000  0.61150000  1.0 -0.5769344854
O  O26  1  0.07595000  0.92509000  0.49760000  1.0 -0.5769344854
O  O27  1  0.53573000  0.47613000  0.48947000  1.0 -0.5086694099
O  O28  1  0.14334000  0.99014000  0.37996000  1.0 -0.5522547501
O  O29  1  0.59668000  0.51714000  0.37171000  1.0 -0.5086694099
O  O30  1  0.24373000  0.11937000  0.36957000  1.0 -0.5315150159
O  O31  1  0.70104000  0.65144000  0.38684000  1.0 -0.5086694099
O  O32  1  0.72686000  0.92516000  0.94294000  1.0 -0.7387457924
O  O33  1  0.98982000  0.77822000  0.99929000  1.0 -0.7801517087
O  O34  1  0.76356000  0.99976000  0.07165000  1.0 -0.8067297476
O  O35  1  0.63553000  0.92433000  0.06366000  1.0 -0.7896467286
O  O36  1  0.80192000  0.16312000  0.04546000  1.0 -0.8047927159
O  O37  1  0.57797000  0.17517000  0.16184000  1.0 -0.7273602523
O  O38  1  0.82718000  0.06728000  0.18133000  1.0 -0.7801517087
O  O39  1  0.74844000  0.30084000  0.15738000  1.0 -0.7896467286
O  O40  1  0.60657000  0.26997000  0.25178000  1.0 -0.7504829901
O  O41  1  0.99182000  0.11802000  0.23607000  1.0 -0.7504829901
O  O42  1  0.84380000  0.10780000  0.33419000  1.0 -0.7801517087
O  O43  1  0.76166000  0.33926000  0.29985000  1.0 -0.7896467286
O  O44  1  0.73506000  0.28246000  0.44177000  1.0 -0.7204343664
O  O45  1  0.01638000  0.21498000  0.32370000  1.0 -0.7387457924
O  O46  1  0.81983000  0.41303000  0.41037000  1.0 -0.7204343664
O  O47  1  0.99124000  0.16424000  0.44915000  1.0 -0.8223296541
O  O48  1  0.49578000  0.05998000  0.95243000  1.0 -0.7273602523
O  O49  1  0.42402000  0.03202000  0.12318000  1.0 -0.7504829901
O  O50  1  0.55134000  0.18474000  0.02643000  1.0 -0.7273602523
O  O51  1  0.83189000  0.69249000  0.99419000  1.0 -0.5886416199
O  O52  1  0.28972000  0.23088000  0.00220000  1.0 -0.5886416199
O  O53  1  0.90315000  0.74651000  0.10884000  1.0 -0.5691181233
O  O54  1  0.35837000  0.27349000  0.11640000  1.0 -0.5769344854
O  O55  1  0.01739000  0.87887000  0.11809000  1.0 -0.5886416199
O  O56  1  0.48436000  0.39342000  0.11150000  1.0 -0.5769344854
O  O57  1  0.07491000  0.92405000  0.99760000  1.0 -0.5769344854
O  O58  1  0.52387000  0.46427000  0.98947000  1.0 -0.5086694099
O  O59  1  0.00986000  0.85666000  0.87996000  1.0 -0.5522547501
O  O60  1  0.48286000  0.40332000  0.87171000  1.0 -0.5086694099
O  O61  1  0.88063000  0.75627000  0.86957000  1.0 -0.5315150159
O  O62  1  0.34856000  0.29896000  0.88684000  1.0 -0.5086694099
O  O63  1  0.54991000  0.82251000  0.07574000  1.0 -0.5691181233
O  O64  1  0.59681000  0.68181000  0.12725000  1.0 -0.5886416199
O  O65  1  0.81907000  0.33567000  0.90000000  1.0 -0.5600889396
O  O66  1  0.74041000  0.48581000  0.84751000  1.0 -0.5769344854
O  O67  1  0.91588000  0.22448000  0.08118000  1.0 -0.5691181233
O  O68  1  0.06188000  0.14348000  0.13725000  1.0 -0.5691181233
O  O69  1  0.41866000  0.95666000  0.91641000  1.0 -0.5691181233
O  O70  1  0.28627000  0.98827000  0.86309000  1.0 -0.6120360034
O  O71  1  0.79385000  0.93385000  0.22810000  1.0 -0.5600889396
O  O72  1  0.67986000  0.95386000  0.16654000  1.0 -0.5600889396
O  O73  1  0.81860000  0.45880000  0.26379000  1.0 -0.5691181233
O  O74  1  0.94721000  0.42761000  0.31907000  1.0 -0.5600889396
O  O75  1  0.17749000  0.45009000  0.57574000  1.0 -0.5691181233
O  O76  1  0.31819000  0.40319000  0.62725000  1.0 -0.5886416199
O  O77  1  0.66433000  0.18093000  0.40000000  1.0 -0.5600889396
O  O78  1  0.51419000  0.25959000  0.34751000  1.0 -0.5769344854
O  O79  1  0.77552000  0.08412000  0.58118000  1.0 -0.5600889396
O  O80  1  0.85652000  0.93812000  0.63725000  1.0 -0.5691181233
O  O81  1  0.04334000  0.58134000  0.41641000  1.0 -0.5691181233
O  O82  1  0.01173000  0.71373000  0.36309000  1.0 -0.6120360034
O  O83  1  0.06615000  0.20615000  0.72810000  1.0 -0.5600889396
O  O84  1  0.04614000  0.32014000  0.66654000  1.0 -0.5600889396
O  O85  1  0.54120000  0.18140000  0.76379000  1.0 -0.5691181233
O  O86  1  0.57239000  0.05279000  0.81907000  1.0 -0.5600889396
