# DDEC6 charges by PACMAN v1.1 (https://github.com/mtap-research/PACMAN-charge/)
data_EJIDUW01_FSR_pacman
_symmetry_space_group_name_H-M   'P 1'
_cell_length_a   9.18200000
_cell_length_b   9.68700000
_cell_length_c   10.63900000
_cell_angle_alpha   106.80700000
_cell_angle_beta   95.62500000
_cell_angle_gamma   118.06000000
_symmetry_Int_Tables_number   1
_chemical_formula_structural   NdH16C9O8
_chemical_formula_sum   'Nd2 H32 C18 O16'
_cell_volume   768.10504094
_cell_formula_units_Z   2
loop_
 _symmetry_equiv_pos_site_id
 _symmetry_equiv_pos_as_xyz
  1  'x, y, z'
loop_
 _atom_site_type_symbol
 _atom_site_label
 _atom_site_symmetry_multiplicity
 _atom_site_fract_x
 _atom_site_fract_y
 _atom_site_fract_z
 _atom_site_occupancy
 _atom_site_charge
Nd  Nd1  1  0.76502000  0.54498000  0.01820000  1.0 2.0771474155
Nd  Nd2  1  0.23498000  0.45502000  0.98180000  1.0 2.0771474155
H  H1  1  0.42350000  0.59920000  0.34860000  1.0 0.1472956227
H  H2  1  0.57650000  0.40080000  0.65140000  1.0 0.1472956227
H  H3  1  0.61590000  0.73790000  0.44320000  1.0 0.1418198706
H  H4  1  0.38410000  0.26210000  0.55680000  1.0 0.1418198706
H  H5  1  0.46770000  0.37860000  0.36950000  1.0 0.0996680433
H  H6  1  0.53230000  0.62140000  0.63050000  1.0 0.0996680433
H  H7  1  0.65560000  0.52040000  0.46970000  1.0 0.0996680433
H  H8  1  0.34440000  0.47960000  0.53030000  1.0 0.0996680433
H  H9  1  0.01860000  0.37420000  0.37130000  1.0 0.1315137358
H  H10  1  0.98140000  0.62580000  0.62870000  1.0 0.1315137358
H  H11  1  0.99700000  0.53140000  0.38240000  1.0 0.1418198706
H  H12  1  0.00300000  0.46860000  0.61760000  1.0 0.1418198706
H  H13  1  0.70520000  0.34270000  0.25190000  1.0 0.0996680433
H  H14  1  0.29480000  0.65730000  0.74810000  1.0 0.0996680433
H  H15  1  0.74030000  0.31300000  0.38910000  1.0 0.0841501417
H  H16  1  0.25970000  0.68700000  0.61090000  1.0 0.0841501417
H  H17  1  0.72050000  0.10290000  0.12700000  1.0 0.0996680433
H  H18  1  0.27950000  0.89710000  0.87300000  1.0 0.0996680433
H  H19  1  0.74540000  0.07070000  0.26500000  1.0 0.0908373134
H  H20  1  0.25460000  0.92930000  0.73500000  1.0 0.0908373134
H  H21  1  0.47870000  0.05020000  0.28320000  1.0 0.1248858185
H  H22  1  0.52130000  0.94980000  0.71680000  1.0 0.1248858185
H  H23  1  0.45330000  0.05600000  0.13710000  1.0 0.1418198706
H  H24  1  0.54670000  0.94400000  0.86290000  1.0 0.1418198706
H  H25  1  0.08800000  0.88600000  0.17500000  1.0 0.2608938279
H  H26  1  0.91200000  0.11400000  0.82500000  1.0 0.2608938279
H  H27  1  0.13600000  0.79300000  0.16400000  1.0 0.2956780406
H  H28  1  0.86400000  0.20700000  0.83600000  1.0 0.2947826298
H  H29  1  0.87400000  0.92300000  0.10200000  1.0 0.319284028
H  H30  1  0.12600000  0.07700000  0.89800000  1.0 0.319284028
H  H31  1  0.71500000  0.82400000  0.02300000  1.0 0.3328695806
H  H32  1  0.28500000  0.17600000  0.97700000  1.0 0.3328695806
C  C1  1  0.60710000  0.59840000  0.25210000  1.0 0.6784256013
C  C2  1  0.39290000  0.40160000  0.74790000  1.0 0.6784256013
C  C3  1  0.54080000  0.62040000  0.37550000  1.0 -0.3319865404
C  C4  1  0.45920000  0.37960000  0.62450000  1.0 -0.3319865404
C  C5  1  0.53720000  0.49520000  0.43960000  1.0 -0.1291155903
C  C6  1  0.46280000  0.50480000  0.56040000  1.0 -0.1291155903
C  C7  1  0.00930000  0.41500000  0.19240000  1.0 0.6897914918
C  C8  1  0.99070000  0.58500000  0.80760000  1.0 0.6897914918
C  C9  1  0.95850000  0.41420000  0.32280000  1.0 -0.335276076
C  C10  1  0.04150000  0.58580000  0.67720000  1.0 -0.335276076
C  C11  1  0.76490000  0.30170000  0.29930000  1.0 -0.1291155903
C  C12  1  0.23510000  0.69830000  0.70070000  1.0 -0.1291155903
C  C13  1  0.69240000  0.11540000  0.21550000  1.0 -0.1291155903
C  C14  1  0.30760000  0.88460000  0.78450000  1.0 -0.1291155903
C  C15  1  0.49750000  0.01450000  0.19040000  1.0 -0.3319865404
C  C16  1  0.50250000  0.98550000  0.80960000  1.0 -0.3319865404
C  C17  1  0.41680000  0.82510000  0.12230000  1.0 0.6202295931
C  C18  1  0.58320000  0.17490000  0.87770000  1.0 0.6202295931
O  O1  1  0.76260000  0.63800000  0.26620000  1.0 -0.6366872379
O  O2  1  0.23740000  0.36200000  0.73380000  1.0 -0.6366872379
O  O3  1  0.50840000  0.53430000  0.13290000  1.0 -0.7168609587
O  O4  1  0.49160000  0.46570000  0.86710000  1.0 -0.7168609587
O  O5  1  0.93790000  0.45070000  0.11050000  1.0 -0.7027116207
O  O6  1  0.06210000  0.54930000  0.88950000  1.0 -0.7027116207
O  O7  1  0.12460000  0.38230000  0.16960000  1.0 -0.6642946093
O  O8  1  0.87540000  0.61770000  0.83040000  1.0 -0.6642946093
O  O9  1  0.30820000  0.72820000  0.16990000  1.0 -0.6366872379
O  O10  1  0.69180000  0.27180000  0.83010000  1.0 -0.6366872379
O  O11  1  0.45440000  0.76270000  0.01790000  1.0 -0.6269935159
O  O12  1  0.54560000  0.23730000  0.98210000  1.0 -0.6269935159
O  O13  1  0.05010000  0.79610000  0.14710000  1.0 -0.6691679446
O  O14  1  0.94990000  0.20390000  0.85290000  1.0 -0.6691679446
O  O15  1  0.77310000  0.80970000  0.03780000  1.0 -0.6366872379
O  O16  1  0.22690000  0.19030000  0.96220000  1.0 -0.6366872379
