# DDEC6 charges by PACMAN v1.1 (https://github.com/mtap-research/PACMAN-charge/)
data_EJIPUL_ASR_pacman
_symmetry_space_group_name_H-M   'P 1'
_cell_length_a   25.47190000
_cell_length_b   25.47190000
_cell_length_c   25.47190000
_cell_angle_alpha   90.00000000
_cell_angle_beta   90.00000000
_cell_angle_gamma   90.00000000
_symmetry_Int_Tables_number   1
_chemical_formula_structural   Ti4Zn5H78(C46O13)3
_chemical_formula_sum   'Ti16 Zn20 H312 C552 O156'
_cell_volume   16526.61930798
_cell_formula_units_Z   4
loop_
 _symmetry_equiv_pos_site_id
 _symmetry_equiv_pos_as_xyz
  1  'x, y, z'
loop_
 _atom_site_type_symbol
 _atom_site_label
 _atom_site_symmetry_multiplicity
 _atom_site_fract_x
 _atom_site_fract_y
 _atom_site_fract_z
 _atom_site_occupancy
 _atom_site_charge
Ti  Ti1  1  0.52514000  0.75450000  0.69073000  1.0 1.9264393787
Ti  Ti2  1  0.97486000  0.24550000  0.19073000  1.0 1.9264393787
Ti  Ti3  1  0.47486000  0.25450000  0.80927000  1.0 1.9264393787
Ti  Ti4  1  0.02514000  0.74550000  0.30927000  1.0 1.9264393787
Ti  Ti5  1  0.69073000  0.52514000  0.75450000  1.0 1.9264393787
Ti  Ti6  1  0.19073000  0.97486000  0.24550000  1.0 1.9264393787
Ti  Ti7  1  0.80927000  0.47486000  0.25450000  1.0 1.9264393787
Ti  Ti8  1  0.30927000  0.02514000  0.74550000  1.0 1.9264393787
Ti  Ti9  1  0.75450000  0.69073000  0.52514000  1.0 1.9264393787
Ti  Ti10  1  0.24550000  0.19073000  0.97486000  1.0 1.9264393787
Ti  Ti11  1  0.25450000  0.80927000  0.47486000  1.0 1.9264393787
Ti  Ti12  1  0.74550000  0.30927000  0.02514000  1.0 1.9264393787
Ti  Ti13  1  0.19746000  0.69746000  0.80254000  1.0 1.8856819114
Ti  Ti14  1  0.30254000  0.30254000  0.30254000  1.0 1.8856819114
Ti  Ti15  1  0.80254000  0.19746000  0.69746000  1.0 1.8856819114
Ti  Ti16  1  0.69746000  0.80254000  0.19746000  1.0 1.8856819114
Zn  Zn1  1  0.19981000  0.66908000  0.35084000  1.0 1.0007415255
Zn  Zn2  1  0.30019000  0.33092000  0.85084000  1.0 1.0007415255
Zn  Zn3  1  0.80019000  0.16908000  0.14916000  1.0 1.0007415255
Zn  Zn4  1  0.69981000  0.83092000  0.64916000  1.0 1.0007415255
Zn  Zn5  1  0.35084000  0.19981000  0.66908000  1.0 1.0007415255
Zn  Zn6  1  0.85084000  0.30019000  0.33092000  1.0 1.0007415255
Zn  Zn7  1  0.14916000  0.80019000  0.16908000  1.0 1.0007415255
Zn  Zn8  1  0.64916000  0.69981000  0.83092000  1.0 1.0007415255
Zn  Zn9  1  0.66908000  0.35084000  0.19981000  1.0 1.0007415255
Zn  Zn10  1  0.33092000  0.85084000  0.30019000  1.0 1.0007415255
Zn  Zn11  1  0.16908000  0.14916000  0.80019000  1.0 1.0007415255
Zn  Zn12  1  0.83092000  0.64916000  0.69981000  1.0 1.0007415255
Zn  Zn13  1  0.62950000  0.62950000  0.62950000  1.0 0.958525463
Zn  Zn14  1  0.87050000  0.37050000  0.12950000  1.0 0.958525463
Zn  Zn15  1  0.37050000  0.12950000  0.87050000  1.0 0.958525463
Zn  Zn16  1  0.12950000  0.87050000  0.37050000  1.0 0.958525463
Zn  Zn17  1  0.24946000  0.75054000  0.25054000  1.0 0.5931611052
Zn  Zn18  1  0.25054000  0.24946000  0.75054000  1.0 0.5931611052
Zn  Zn19  1  0.75054000  0.25054000  0.24946000  1.0 0.5931611052
Zn  Zn20  1  0.74946000  0.74946000  0.74946000  1.0 0.5931611052
H  H1  1  0.38550000  0.80040000  0.55300000  1.0 0.1268870104
H  H2  1  0.40890000  0.75780000  0.59040000  1.0 0.1268870104
H  H3  1  0.38830000  0.73330000  0.76020000  1.0 0.1374716451
H  H4  1  0.33740000  0.70040000  0.74860000  1.0 0.1374716451
H  H5  1  0.31070000  0.61480000  0.77220000  1.0 0.1195773424
H  H6  1  0.46920000  0.68800000  0.57140000  1.0 0.1268870104
H  H7  1  0.39990000  0.82510000  0.46910000  1.0 0.1195773424
H  H8  1  0.59910000  0.84270000  0.51730000  1.0 0.1120015317
H  H9  1  0.32710000  0.67650000  0.96740000  1.0 0.1195773424
H  H10  1  0.49170000  0.54880000  0.69310000  1.0 0.1195773424
H  H11  1  0.41360000  0.88210000  0.39980000  1.0 0.1017709849
H  H12  1  0.28410000  0.52820000  0.76910000  1.0 0.1195773424
H  H13  1  0.41580000  0.67520000  0.99010000  1.0 0.1195773424
H  H14  1  0.50300000  0.68440000  0.96860000  1.0 0.1268870104
H  H15  1  0.52700000  0.69960000  0.88310000  1.0 0.1268870104
H  H16  1  0.46400000  0.70550000  0.81890000  1.0 0.1268870104
H  H17  1  0.57070000  0.87610000  0.43000000  1.0 0.1120015317
H  H18  1  0.34720000  0.63410000  0.41320000  1.0 0.1268870104
H  H19  1  0.42470000  0.48220000  0.71630000  1.0 0.1120015317
H  H20  1  0.50310000  0.89920000  0.37460000  1.0 0.1120015317
H  H21  1  0.34180000  0.46350000  0.74380000  1.0 0.1195773424
H  H22  1  0.50420000  0.60680000  0.57250000  1.0 0.1195773424
H  H23  1  0.41480000  0.57240000  0.44830000  1.0 0.1268870104
H  H24  1  0.48670000  0.55110000  0.50040000  1.0 0.1017709849
H  H25  1  0.22470000  0.82360000  0.26500000  1.0 0.090117245
H  H26  1  0.18120000  0.76670000  0.27340000  1.0 0.1785267247
H  H27  1  0.11450000  0.19960000  0.05300000  1.0 0.1268870104
H  H28  1  0.09110000  0.24220000  0.09040000  1.0 0.1268870104
H  H29  1  0.11170000  0.26670000  0.26020000  1.0 0.1374716451
H  H30  1  0.16260000  0.29960000  0.24860000  1.0 0.1374716451
H  H31  1  0.18930000  0.38520000  0.27220000  1.0 0.1195773424
H  H32  1  0.03080000  0.31200000  0.07140000  1.0 0.1268870104
H  H33  1  0.10010000  0.17490000  0.96910000  1.0 0.1195773424
H  H34  1  0.90090000  0.15730000  0.01730000  1.0 0.1120015317
H  H35  1  0.17290000  0.32350000  0.46740000  1.0 0.1195773424
H  H36  1  0.00830000  0.45120000  0.19310000  1.0 0.1195773424
H  H37  1  0.08640000  0.11790000  0.89980000  1.0 0.1017709849
H  H38  1  0.21590000  0.47180000  0.26910000  1.0 0.1195773424
H  H39  1  0.08420000  0.32480000  0.49010000  1.0 0.1195773424
H  H40  1  0.99700000  0.31560000  0.46860000  1.0 0.1268870104
H  H41  1  0.97300000  0.30040000  0.38310000  1.0 0.1268870104
H  H42  1  0.03600000  0.29450000  0.31890000  1.0 0.1268870104
H  H43  1  0.92930000  0.12390000  0.93000000  1.0 0.1120015317
H  H44  1  0.15280000  0.36590000  0.91320000  1.0 0.1268870104
H  H45  1  0.07530000  0.51780000  0.21630000  1.0 0.1120015317
H  H46  1  0.99690000  0.10080000  0.87460000  1.0 0.1120015317
H  H47  1  0.15820000  0.53650000  0.24380000  1.0 0.1195773424
H  H48  1  0.99580000  0.39320000  0.07250000  1.0 0.1195773424
H  H49  1  0.08520000  0.42760000  0.94830000  1.0 0.1268870104
H  H50  1  0.01330000  0.44890000  0.00040000  1.0 0.1017709849
H  H51  1  0.27530000  0.17640000  0.76500000  1.0 0.090117245
H  H52  1  0.31880000  0.23330000  0.77340000  1.0 0.1785267247
H  H53  1  0.61450000  0.30040000  0.94700000  1.0 0.1268870104
H  H54  1  0.59110000  0.25780000  0.90960000  1.0 0.1268870104
H  H55  1  0.61170000  0.23330000  0.73980000  1.0 0.1374716451
H  H56  1  0.66260000  0.20040000  0.75140000  1.0 0.1374716451
H  H57  1  0.68930000  0.11480000  0.72780000  1.0 0.1195773424
H  H58  1  0.53080000  0.18800000  0.92860000  1.0 0.1268870104
H  H59  1  0.60010000  0.32510000  0.03090000  1.0 0.1195773424
H  H60  1  0.40090000  0.34270000  0.98270000  1.0 0.1120015317
H  H61  1  0.67290000  0.17650000  0.53260000  1.0 0.1195773424
H  H62  1  0.50830000  0.04880000  0.80690000  1.0 0.1195773424
H  H63  1  0.58640000  0.38210000  0.10020000  1.0 0.1017709849
H  H64  1  0.71590000  0.02820000  0.73090000  1.0 0.1195773424
H  H65  1  0.58420000  0.17520000  0.50990000  1.0 0.1195773424
H  H66  1  0.49700000  0.18440000  0.53140000  1.0 0.1268870104
H  H67  1  0.47300000  0.19960000  0.61690000  1.0 0.1268870104
H  H68  1  0.53600000  0.20550000  0.68110000  1.0 0.1268870104
H  H69  1  0.42930000  0.37610000  0.07000000  1.0 0.1120015317
H  H70  1  0.65280000  0.13410000  0.08680000  1.0 0.1268870104
H  H71  1  0.57530000  0.98220000  0.78370000  1.0 0.1120015317
H  H72  1  0.49690000  0.39920000  0.12540000  1.0 0.1120015317
H  H73  1  0.65820000  0.96350000  0.75620000  1.0 0.1195773424
H  H74  1  0.49580000  0.10680000  0.92750000  1.0 0.1195773424
H  H75  1  0.58520000  0.07240000  0.05170000  1.0 0.1268870104
H  H76  1  0.51330000  0.05110000  0.99960000  1.0 0.1017709849
H  H77  1  0.77530000  0.32360000  0.23500000  1.0 0.090117245
H  H78  1  0.81880000  0.26670000  0.22660000  1.0 0.1785267247
H  H79  1  0.88550000  0.69960000  0.44700000  1.0 0.1268870104
H  H80  1  0.90890000  0.74220000  0.40960000  1.0 0.1268870104
H  H81  1  0.88830000  0.76670000  0.23980000  1.0 0.1374716451
H  H82  1  0.83740000  0.79960000  0.25140000  1.0 0.1374716451
H  H83  1  0.81070000  0.88520000  0.22780000  1.0 0.1195773424
H  H84  1  0.96920000  0.81200000  0.42860000  1.0 0.1268870104
H  H85  1  0.89990000  0.67490000  0.53090000  1.0 0.1195773424
H  H86  1  0.09910000  0.65730000  0.48270000  1.0 0.1120015317
H  H87  1  0.82710000  0.82350000  0.03260000  1.0 0.1195773424
H  H88  1  0.99170000  0.95120000  0.30690000  1.0 0.1195773424
H  H89  1  0.91360000  0.61790000  0.60020000  1.0 0.1017709849
H  H90  1  0.78410000  0.97180000  0.23090000  1.0 0.1195773424
H  H91  1  0.91580000  0.82480000  0.00990000  1.0 0.1195773424
H  H92  1  0.00300000  0.81560000  0.03140000  1.0 0.1268870104
H  H93  1  0.02700000  0.80040000  0.11690000  1.0 0.1268870104
H  H94  1  0.96400000  0.79450000  0.18110000  1.0 0.1268870104
H  H95  1  0.07070000  0.62390000  0.57000000  1.0 0.1120015317
H  H96  1  0.84720000  0.86590000  0.58680000  1.0 0.1268870104
H  H97  1  0.92470000  0.01780000  0.28370000  1.0 0.1120015317
H  H98  1  0.00310000  0.60080000  0.62540000  1.0 0.1120015317
H  H99  1  0.84180000  0.03650000  0.25620000  1.0 0.1195773424
H  H100  1  0.00420000  0.89320000  0.42750000  1.0 0.1195773424
H  H101  1  0.91480000  0.92760000  0.55170000  1.0 0.1268870104
H  H102  1  0.98670000  0.94890000  0.49960000  1.0 0.1017709849
H  H103  1  0.72470000  0.67640000  0.73500000  1.0 0.090117245
H  H104  1  0.68120000  0.73330000  0.72660000  1.0 0.1785267247
H  H105  1  0.55300000  0.38550000  0.80040000  1.0 0.1268870104
H  H106  1  0.59040000  0.40890000  0.75780000  1.0 0.1268870104
H  H107  1  0.76020000  0.38830000  0.73330000  1.0 0.1374716451
H  H108  1  0.74860000  0.33740000  0.70040000  1.0 0.1374716451
H  H109  1  0.77220000  0.31070000  0.61480000  1.0 0.1195773424
H  H110  1  0.57140000  0.46920000  0.68800000  1.0 0.1268870104
H  H111  1  0.46910000  0.39990000  0.82510000  1.0 0.1195773424
H  H112  1  0.51730000  0.59910000  0.84270000  1.0 0.1120015317
H  H113  1  0.96740000  0.32710000  0.67650000  1.0 0.1195773424
H  H114  1  0.69310000  0.49170000  0.54880000  1.0 0.1195773424
H  H115  1  0.39980000  0.41360000  0.88210000  1.0 0.1017709849
H  H116  1  0.76910000  0.28410000  0.52820000  1.0 0.1195773424
H  H117  1  0.99010000  0.41580000  0.67520000  1.0 0.1195773424
H  H118  1  0.96860000  0.50300000  0.68440000  1.0 0.1268870104
H  H119  1  0.88310000  0.52700000  0.69960000  1.0 0.1268870104
H  H120  1  0.81890000  0.46400000  0.70550000  1.0 0.1268870104
H  H121  1  0.43000000  0.57070000  0.87610000  1.0 0.1120015317
H  H122  1  0.41320000  0.34720000  0.63410000  1.0 0.1268870104
H  H123  1  0.71630000  0.42470000  0.48220000  1.0 0.1120015317
H  H124  1  0.37460000  0.50310000  0.89920000  1.0 0.1120015317
H  H125  1  0.74380000  0.34180000  0.46350000  1.0 0.1195773424
H  H126  1  0.57250000  0.50420000  0.60680000  1.0 0.1195773424
H  H127  1  0.44830000  0.41480000  0.57240000  1.0 0.1268870104
H  H128  1  0.50040000  0.48670000  0.55110000  1.0 0.1017709849
H  H129  1  0.26500000  0.22470000  0.82360000  1.0 0.090117245
H  H130  1  0.27340000  0.18120000  0.76670000  1.0 0.1785267247
H  H131  1  0.05300000  0.11450000  0.19960000  1.0 0.1268870104
H  H132  1  0.09040000  0.09110000  0.24220000  1.0 0.1268870104
H  H133  1  0.26020000  0.11170000  0.26670000  1.0 0.1374716451
H  H134  1  0.24860000  0.16260000  0.29960000  1.0 0.1374716451
H  H135  1  0.27220000  0.18930000  0.38520000  1.0 0.1195773424
H  H136  1  0.07140000  0.03080000  0.31200000  1.0 0.1268870104
H  H137  1  0.96910000  0.10010000  0.17490000  1.0 0.1195773424
H  H138  1  0.01730000  0.90090000  0.15730000  1.0 0.1120015317
H  H139  1  0.46740000  0.17290000  0.32350000  1.0 0.1195773424
H  H140  1  0.19310000  0.00830000  0.45120000  1.0 0.1195773424
H  H141  1  0.89980000  0.08640000  0.11790000  1.0 0.1017709849
H  H142  1  0.26910000  0.21590000  0.47180000  1.0 0.1195773424
H  H143  1  0.49010000  0.08420000  0.32480000  1.0 0.1195773424
H  H144  1  0.46860000  0.99700000  0.31560000  1.0 0.1268870104
H  H145  1  0.38310000  0.97300000  0.30040000  1.0 0.1268870104
H  H146  1  0.31890000  0.03600000  0.29450000  1.0 0.1268870104
H  H147  1  0.93000000  0.92930000  0.12390000  1.0 0.1120015317
H  H148  1  0.91320000  0.15280000  0.36590000  1.0 0.1268870104
H  H149  1  0.21630000  0.07530000  0.51780000  1.0 0.1120015317
H  H150  1  0.87460000  0.99690000  0.10080000  1.0 0.1120015317
H  H151  1  0.24380000  0.15820000  0.53650000  1.0 0.1195773424
H  H152  1  0.07250000  0.99580000  0.39320000  1.0 0.1195773424
H  H153  1  0.94830000  0.08520000  0.42760000  1.0 0.1268870104
H  H154  1  0.00040000  0.01330000  0.44890000  1.0 0.1017709849
H  H155  1  0.76500000  0.27530000  0.17640000  1.0 0.090117245
H  H156  1  0.77340000  0.31880000  0.23330000  1.0 0.1785267247
H  H157  1  0.94700000  0.61450000  0.30040000  1.0 0.1268870104
H  H158  1  0.90960000  0.59110000  0.25780000  1.0 0.1268870104
H  H159  1  0.73980000  0.61170000  0.23330000  1.0 0.1374716451
H  H160  1  0.75140000  0.66260000  0.20040000  1.0 0.1374716451
H  H161  1  0.72780000  0.68930000  0.11480000  1.0 0.1195773424
H  H162  1  0.92860000  0.53080000  0.18800000  1.0 0.1268870104
H  H163  1  0.03090000  0.60010000  0.32510000  1.0 0.1195773424
H  H164  1  0.98270000  0.40090000  0.34270000  1.0 0.1120015317
H  H165  1  0.53260000  0.67290000  0.17650000  1.0 0.1195773424
H  H166  1  0.80690000  0.50830000  0.04880000  1.0 0.1195773424
H  H167  1  0.10020000  0.58640000  0.38210000  1.0 0.1017709849
H  H168  1  0.73090000  0.71590000  0.02820000  1.0 0.1195773424
H  H169  1  0.50990000  0.58420000  0.17520000  1.0 0.1195773424
H  H170  1  0.53140000  0.49700000  0.18440000  1.0 0.1268870104
H  H171  1  0.61690000  0.47300000  0.19960000  1.0 0.1268870104
H  H172  1  0.68110000  0.53600000  0.20550000  1.0 0.1268870104
H  H173  1  0.07000000  0.42930000  0.37610000  1.0 0.1120015317
H  H174  1  0.08680000  0.65280000  0.13410000  1.0 0.1268870104
H  H175  1  0.78370000  0.57530000  0.98220000  1.0 0.1120015317
H  H176  1  0.12540000  0.49690000  0.39920000  1.0 0.1120015317
H  H177  1  0.75620000  0.65820000  0.96350000  1.0 0.1195773424
H  H178  1  0.92750000  0.49580000  0.10680000  1.0 0.1195773424
H  H179  1  0.05170000  0.58520000  0.07240000  1.0 0.1268870104
H  H180  1  0.99960000  0.51330000  0.05110000  1.0 0.1017709849
H  H181  1  0.23500000  0.77530000  0.32360000  1.0 0.090117245
H  H182  1  0.22660000  0.81880000  0.26670000  1.0 0.1785267247
H  H183  1  0.44700000  0.88550000  0.69960000  1.0 0.1268870104
H  H184  1  0.40960000  0.90890000  0.74220000  1.0 0.1268870104
H  H185  1  0.23980000  0.88830000  0.76670000  1.0 0.1374716451
H  H186  1  0.25140000  0.83740000  0.79960000  1.0 0.1374716451
H  H187  1  0.22780000  0.81070000  0.88520000  1.0 0.1195773424
H  H188  1  0.42860000  0.96920000  0.81200000  1.0 0.1268870104
H  H189  1  0.53090000  0.89990000  0.67490000  1.0 0.1195773424
H  H190  1  0.48270000  0.09910000  0.65730000  1.0 0.1120015317
H  H191  1  0.03260000  0.82710000  0.82350000  1.0 0.1195773424
H  H192  1  0.30690000  0.99170000  0.95120000  1.0 0.1195773424
H  H193  1  0.60020000  0.91360000  0.61790000  1.0 0.1017709849
H  H194  1  0.23090000  0.78410000  0.97180000  1.0 0.1195773424
H  H195  1  0.00990000  0.91580000  0.82480000  1.0 0.1195773424
H  H196  1  0.03140000  0.00300000  0.81560000  1.0 0.1268870104
H  H197  1  0.11690000  0.02700000  0.80040000  1.0 0.1268870104
H  H198  1  0.18110000  0.96400000  0.79450000  1.0 0.1268870104
H  H199  1  0.57000000  0.07070000  0.62390000  1.0 0.1120015317
H  H200  1  0.58680000  0.84720000  0.86590000  1.0 0.1268870104
H  H201  1  0.28370000  0.92470000  0.01780000  1.0 0.1120015317
H  H202  1  0.62540000  0.00310000  0.60080000  1.0 0.1120015317
H  H203  1  0.25620000  0.84180000  0.03650000  1.0 0.1195773424
H  H204  1  0.42750000  0.00420000  0.89320000  1.0 0.1195773424
H  H205  1  0.55170000  0.91480000  0.92760000  1.0 0.1268870104
H  H206  1  0.49960000  0.98670000  0.94890000  1.0 0.1017709849
H  H207  1  0.73500000  0.72470000  0.67640000  1.0 0.090117245
H  H208  1  0.72660000  0.68120000  0.73330000  1.0 0.1785267247
H  H209  1  0.80040000  0.55300000  0.38550000  1.0 0.1268870104
H  H210  1  0.75780000  0.59040000  0.40890000  1.0 0.1268870104
H  H211  1  0.73330000  0.76020000  0.38830000  1.0 0.1374716451
H  H212  1  0.70040000  0.74860000  0.33740000  1.0 0.1374716451
H  H213  1  0.61480000  0.77220000  0.31070000  1.0 0.1195773424
H  H214  1  0.68800000  0.57140000  0.46920000  1.0 0.1268870104
H  H215  1  0.82510000  0.46910000  0.39990000  1.0 0.1195773424
H  H216  1  0.84270000  0.51730000  0.59910000  1.0 0.1120015317
H  H217  1  0.67650000  0.96740000  0.32710000  1.0 0.1195773424
H  H218  1  0.54880000  0.69310000  0.49170000  1.0 0.1195773424
H  H219  1  0.88210000  0.39980000  0.41360000  1.0 0.1017709849
H  H220  1  0.52820000  0.76910000  0.28410000  1.0 0.1195773424
H  H221  1  0.67520000  0.99010000  0.41580000  1.0 0.1195773424
H  H222  1  0.68440000  0.96860000  0.50300000  1.0 0.1268870104
H  H223  1  0.69960000  0.88310000  0.52700000  1.0 0.1268870104
H  H224  1  0.70550000  0.81890000  0.46400000  1.0 0.1268870104
H  H225  1  0.87610000  0.43000000  0.57070000  1.0 0.1120015317
H  H226  1  0.63410000  0.41320000  0.34720000  1.0 0.1268870104
H  H227  1  0.48220000  0.71630000  0.42470000  1.0 0.1120015317
H  H228  1  0.89920000  0.37460000  0.50310000  1.0 0.1120015317
H  H229  1  0.46350000  0.74380000  0.34180000  1.0 0.1195773424
H  H230  1  0.60680000  0.57250000  0.50420000  1.0 0.1195773424
H  H231  1  0.57240000  0.44830000  0.41480000  1.0 0.1268870104
H  H232  1  0.55110000  0.50040000  0.48670000  1.0 0.1017709849
H  H233  1  0.82360000  0.26500000  0.22470000  1.0 0.090117245
H  H234  1  0.76670000  0.27340000  0.18120000  1.0 0.1785267247
H  H235  1  0.19960000  0.05300000  0.11450000  1.0 0.1268870104
H  H236  1  0.24220000  0.09040000  0.09110000  1.0 0.1268870104
H  H237  1  0.26670000  0.26020000  0.11170000  1.0 0.1374716451
H  H238  1  0.29960000  0.24860000  0.16260000  1.0 0.1374716451
H  H239  1  0.38520000  0.27220000  0.18930000  1.0 0.1195773424
H  H240  1  0.31200000  0.07140000  0.03080000  1.0 0.1268870104
H  H241  1  0.17490000  0.96910000  0.10010000  1.0 0.1195773424
H  H242  1  0.15730000  0.01730000  0.90090000  1.0 0.1120015317
H  H243  1  0.32350000  0.46740000  0.17290000  1.0 0.1195773424
H  H244  1  0.45120000  0.19310000  0.00830000  1.0 0.1195773424
H  H245  1  0.11790000  0.89980000  0.08640000  1.0 0.1017709849
H  H246  1  0.47180000  0.26910000  0.21590000  1.0 0.1195773424
H  H247  1  0.32480000  0.49010000  0.08420000  1.0 0.1195773424
H  H248  1  0.31560000  0.46860000  0.99700000  1.0 0.1268870104
H  H249  1  0.30040000  0.38310000  0.97300000  1.0 0.1268870104
H  H250  1  0.29450000  0.31890000  0.03600000  1.0 0.1268870104
H  H251  1  0.12390000  0.93000000  0.92930000  1.0 0.1120015317
H  H252  1  0.36590000  0.91320000  0.15280000  1.0 0.1268870104
H  H253  1  0.51780000  0.21630000  0.07530000  1.0 0.1120015317
H  H254  1  0.10080000  0.87460000  0.99690000  1.0 0.1120015317
H  H255  1  0.53650000  0.24380000  0.15820000  1.0 0.1195773424
H  H256  1  0.39320000  0.07250000  0.99580000  1.0 0.1195773424
H  H257  1  0.42760000  0.94830000  0.08520000  1.0 0.1268870104
H  H258  1  0.44890000  0.00040000  0.01330000  1.0 0.1017709849
H  H259  1  0.17640000  0.76500000  0.27530000  1.0 0.090117245
H  H260  1  0.23330000  0.77340000  0.31880000  1.0 0.1785267247
H  H261  1  0.30040000  0.94700000  0.61450000  1.0 0.1268870104
H  H262  1  0.25780000  0.90960000  0.59110000  1.0 0.1268870104
H  H263  1  0.23330000  0.73980000  0.61170000  1.0 0.1374716451
H  H264  1  0.20040000  0.75140000  0.66260000  1.0 0.1374716451
H  H265  1  0.11480000  0.72780000  0.68930000  1.0 0.1195773424
H  H266  1  0.18800000  0.92860000  0.53080000  1.0 0.1268870104
H  H267  1  0.32510000  0.03090000  0.60010000  1.0 0.1195773424
H  H268  1  0.34270000  0.98270000  0.40090000  1.0 0.1120015317
H  H269  1  0.17650000  0.53260000  0.67290000  1.0 0.1195773424
H  H270  1  0.04880000  0.80690000  0.50830000  1.0 0.1195773424
H  H271  1  0.38210000  0.10020000  0.58640000  1.0 0.1017709849
H  H272  1  0.02820000  0.73090000  0.71590000  1.0 0.1195773424
H  H273  1  0.17520000  0.50990000  0.58420000  1.0 0.1195773424
H  H274  1  0.18440000  0.53140000  0.49700000  1.0 0.1268870104
H  H275  1  0.19960000  0.61690000  0.47300000  1.0 0.1268870104
H  H276  1  0.20550000  0.68110000  0.53600000  1.0 0.1268870104
H  H277  1  0.37610000  0.07000000  0.42930000  1.0 0.1120015317
H  H278  1  0.13410000  0.08680000  0.65280000  1.0 0.1268870104
H  H279  1  0.98220000  0.78370000  0.57530000  1.0 0.1120015317
H  H280  1  0.39920000  0.12540000  0.49690000  1.0 0.1120015317
H  H281  1  0.96350000  0.75620000  0.65820000  1.0 0.1195773424
H  H282  1  0.10680000  0.92750000  0.49580000  1.0 0.1195773424
H  H283  1  0.07240000  0.05170000  0.58520000  1.0 0.1268870104
H  H284  1  0.05110000  0.99960000  0.51330000  1.0 0.1017709849
H  H285  1  0.32360000  0.23500000  0.77530000  1.0 0.090117245
H  H286  1  0.26670000  0.22660000  0.81880000  1.0 0.1785267247
H  H287  1  0.69960000  0.44700000  0.88550000  1.0 0.1268870104
H  H288  1  0.74220000  0.40960000  0.90890000  1.0 0.1268870104
H  H289  1  0.76670000  0.23980000  0.88830000  1.0 0.1374716451
H  H290  1  0.79960000  0.25140000  0.83740000  1.0 0.1374716451
H  H291  1  0.88520000  0.22780000  0.81070000  1.0 0.1195773424
H  H292  1  0.81200000  0.42860000  0.96920000  1.0 0.1268870104
H  H293  1  0.67490000  0.53090000  0.89990000  1.0 0.1195773424
H  H294  1  0.65730000  0.48270000  0.09910000  1.0 0.1120015317
H  H295  1  0.82350000  0.03260000  0.82710000  1.0 0.1195773424
H  H296  1  0.95120000  0.30690000  0.99170000  1.0 0.1195773424
H  H297  1  0.61790000  0.60020000  0.91360000  1.0 0.1017709849
H  H298  1  0.97180000  0.23090000  0.78410000  1.0 0.1195773424
H  H299  1  0.82480000  0.00990000  0.91580000  1.0 0.1195773424
H  H300  1  0.81560000  0.03140000  0.00300000  1.0 0.1268870104
H  H301  1  0.80040000  0.11690000  0.02700000  1.0 0.1268870104
H  H302  1  0.79450000  0.18110000  0.96400000  1.0 0.1268870104
H  H303  1  0.62390000  0.57000000  0.07070000  1.0 0.1120015317
H  H304  1  0.86590000  0.58680000  0.84720000  1.0 0.1268870104
H  H305  1  0.01780000  0.28370000  0.92470000  1.0 0.1120015317
H  H306  1  0.60080000  0.62540000  0.00310000  1.0 0.1120015317
H  H307  1  0.03650000  0.25620000  0.84180000  1.0 0.1195773424
H  H308  1  0.89320000  0.42750000  0.00420000  1.0 0.1195773424
H  H309  1  0.92760000  0.55170000  0.91480000  1.0 0.1268870104
H  H310  1  0.94890000  0.49960000  0.98670000  1.0 0.1017709849
H  H311  1  0.67640000  0.73500000  0.72470000  1.0 0.090117245
H  H312  1  0.73330000  0.72660000  0.68120000  1.0 0.1785267247
C  C1  1  0.50390000  0.78700000  0.57920000  1.0 0.2201733058
C  C2  1  0.59990000  0.80180000  0.60940000  1.0 0.6209186908
C  C3  1  0.28260000  0.70830000  0.41860000  1.0 0.6015413344
C  C4  1  0.46290000  0.79280000  0.54620000  1.0 -0.0391374668
C  C5  1  0.48500000  0.62400000  0.70310000  1.0 -0.1213774533
C  C6  1  0.41020000  0.77140000  0.55480000  1.0 -0.2473708103
C  C7  1  0.37080000  0.70020000  0.76690000  1.0 -0.2473708103
C  C8  1  0.53900000  0.63850000  0.68000000  1.0 0.6209186908
C  C9  1  0.36130000  0.69420000  0.82520000  1.0 0.0117307238
C  C10  1  0.55590000  0.80590000  0.56880000  1.0 -0.1304625073
C  C11  1  0.39070000  0.72960000  0.51940000  1.0 -0.0391374668
C  C12  1  0.34500000  0.73850000  0.48960000  1.0 0.3281670377
C  C13  1  0.47420000  0.82500000  0.49710000  1.0 0.0489352605
C  C14  1  0.45460000  0.66740000  0.72380000  1.0 0.2494413918
C  C15  1  0.30520000  0.69080000  0.84150000  1.0 0.3115658129
C  C16  1  0.33410000  0.58890000  0.76150000  1.0 -0.1304625073
C  C17  1  0.45690000  0.66350000  0.54740000  1.0 -0.1213774533
C  C18  1  0.32700000  0.70000000  0.44930000  1.0 -0.2059739316
C  C19  1  0.43340000  0.83800000  0.46270000  1.0 -0.1304625073
C  C20  1  0.56520000  0.83070000  0.52380000  1.0 -0.1304625073
C  C21  1  0.40490000  0.65470000  0.74620000  1.0 -0.017617655
C  C22  1  0.41740000  0.67790000  0.51650000  1.0 0.0489352605
C  C23  1  0.38860000  0.60340000  0.74660000  1.0 0.0275894338
C  C24  1  0.41880000  0.56240000  0.72650000  1.0 0.0559555208
C  C25  1  0.29520000  0.68380000  0.89790000  1.0 -0.1407609234
C  C26  1  0.33490000  0.68110000  0.93200000  1.0 -0.1213774533
C  C27  1  0.52630000  0.83960000  0.48580000  1.0 0.0489352605
C  C28  1  0.46970000  0.57530000  0.70530000  1.0 -0.1304625073
C  C29  1  0.39750000  0.64160000  0.47680000  1.0 0.0489352605
C  C30  1  0.44160000  0.86930000  0.41950000  1.0 -0.0884827757
C  C31  1  0.31810000  0.53710000  0.75960000  1.0 -0.0884827757
C  C32  1  0.38800000  0.68480000  0.91710000  1.0 0.0407102448
C  C33  1  0.42560000  0.68130000  0.95540000  1.0 -0.1407609234
C  C34  1  0.47740000  0.68680000  0.94270000  1.0 -0.1014214006
C  C35  1  0.49170000  0.69580000  0.89170000  1.0 -0.1014214006
C  C36  1  0.45430000  0.69940000  0.85350000  1.0 -0.1304625073
C  C37  1  0.40240000  0.69390000  0.86620000  1.0 0.0407102448
C  C38  1  0.53630000  0.86740000  0.43880000  1.0 -0.1407609234
C  C39  1  0.35510000  0.65570000  0.44150000  1.0 -0.1014214006
C  C40  1  0.23840000  0.68010000  0.91360000  1.0 0.6253030738
C  C41  1  0.40230000  0.50890000  0.72700000  1.0 -0.1407609234
C  C42  1  0.49580000  0.88170000  0.40570000  1.0 -0.1076995504
C  C43  1  0.35290000  0.49830000  0.74330000  1.0 -0.0787034659
C  C44  1  0.48030000  0.61620000  0.54660000  1.0 -0.0884827757
C  C45  1  0.42510000  0.59630000  0.47390000  1.0 -0.1519223014
C  C46  1  0.46790000  0.58200000  0.50600000  1.0 -0.1076995504
C  C47  1  0.99610000  0.21300000  0.07920000  1.0 0.2201733058
C  C48  1  0.90010000  0.19820000  0.10940000  1.0 0.6209186908
C  C49  1  0.21740000  0.29170000  0.91860000  1.0 0.6015413344
C  C50  1  0.03710000  0.20720000  0.04620000  1.0 -0.0391374668
C  C51  1  0.01500000  0.37600000  0.20310000  1.0 -0.1213774533
C  C52  1  0.08980000  0.22860000  0.05480000  1.0 -0.2473708103
C  C53  1  0.12920000  0.29980000  0.26690000  1.0 -0.2473708103
C  C54  1  0.96100000  0.36150000  0.18000000  1.0 0.6209186908
C  C55  1  0.13870000  0.30580000  0.32520000  1.0 0.0117307238
C  C56  1  0.94410000  0.19410000  0.06880000  1.0 -0.1304625073
C  C57  1  0.10930000  0.27040000  0.01940000  1.0 -0.0391374668
C  C58  1  0.15500000  0.26150000  0.98960000  1.0 0.3281670377
C  C59  1  0.02580000  0.17500000  0.99710000  1.0 0.0489352605
C  C60  1  0.04540000  0.33260000  0.22380000  1.0 0.2494413918
C  C61  1  0.19480000  0.30920000  0.34150000  1.0 0.3115658129
C  C62  1  0.16590000  0.41110000  0.26150000  1.0 -0.1304625073
C  C63  1  0.04310000  0.33650000  0.04740000  1.0 -0.1213774533
C  C64  1  0.17300000  0.30000000  0.94930000  1.0 -0.2059739316
C  C65  1  0.06660000  0.16200000  0.96270000  1.0 -0.1304625073
C  C66  1  0.93480000  0.16930000  0.02380000  1.0 -0.1304625073
C  C67  1  0.09510000  0.34530000  0.24620000  1.0 -0.017617655
C  C68  1  0.08260000  0.32210000  0.01650000  1.0 0.0489352605
C  C69  1  0.11140000  0.39660000  0.24660000  1.0 0.0275894338
C  C70  1  0.08120000  0.43760000  0.22650000  1.0 0.0559555208
C  C71  1  0.20480000  0.31620000  0.39790000  1.0 -0.1407609234
C  C72  1  0.16510000  0.31890000  0.43200000  1.0 -0.1213774533
C  C73  1  0.97370000  0.16040000  0.98580000  1.0 0.0489352605
C  C74  1  0.03030000  0.42470000  0.20530000  1.0 -0.1304625073
C  C75  1  0.10250000  0.35840000  0.97680000  1.0 0.0489352605
C  C76  1  0.05840000  0.13070000  0.91950000  1.0 -0.0884827757
C  C77  1  0.18190000  0.46290000  0.25960000  1.0 -0.0884827757
C  C78  1  0.11200000  0.31520000  0.41710000  1.0 0.0407102448
C  C79  1  0.07440000  0.31870000  0.45540000  1.0 -0.1407609234
C  C80  1  0.02260000  0.31320000  0.44270000  1.0 -0.1014214006
C  C81  1  0.00830000  0.30420000  0.39170000  1.0 -0.1014214006
C  C82  1  0.04570000  0.30060000  0.35350000  1.0 -0.1304625073
C  C83  1  0.09760000  0.30610000  0.36620000  1.0 0.0407102448
C  C84  1  0.96370000  0.13260000  0.93880000  1.0 -0.1407609234
C  C85  1  0.14490000  0.34430000  0.94150000  1.0 -0.1014214006
C  C86  1  0.26160000  0.31990000  0.41360000  1.0 0.6253030738
C  C87  1  0.09770000  0.49110000  0.22700000  1.0 -0.1407609234
C  C88  1  0.00420000  0.11830000  0.90570000  1.0 -0.1076995504
C  C89  1  0.14710000  0.50170000  0.24330000  1.0 -0.0787034659
C  C90  1  0.01970000  0.38380000  0.04660000  1.0 -0.0884827757
C  C91  1  0.07490000  0.40370000  0.97390000  1.0 -0.1519223014
C  C92  1  0.03210000  0.41800000  0.00600000  1.0 -0.1076995504
C  C93  1  0.49610000  0.28700000  0.92080000  1.0 0.2201733058
C  C94  1  0.40010000  0.30180000  0.89060000  1.0 0.6209186908
C  C95  1  0.71740000  0.20830000  0.08140000  1.0 0.6015413344
C  C96  1  0.53710000  0.29280000  0.95380000  1.0 -0.0391374668
C  C97  1  0.51500000  0.12400000  0.79690000  1.0 -0.1213774533
C  C98  1  0.58980000  0.27140000  0.94520000  1.0 -0.2473708103
C  C99  1  0.62920000  0.20020000  0.73310000  1.0 -0.2473708103
C  C100  1  0.46100000  0.13850000  0.82000000  1.0 0.6209186908
C  C101  1  0.63870000  0.19420000  0.67480000  1.0 0.0117307238
C  C102  1  0.44410000  0.30590000  0.93120000  1.0 -0.1304625073
C  C103  1  0.60930000  0.22960000  0.98060000  1.0 -0.0391374668
C  C104  1  0.65500000  0.23850000  0.01040000  1.0 0.3281670377
C  C105  1  0.52580000  0.32500000  0.00290000  1.0 0.0489352605
C  C106  1  0.54540000  0.16740000  0.77620000  1.0 0.2494413918
C  C107  1  0.69480000  0.19080000  0.65850000  1.0 0.3115658129
C  C108  1  0.66590000  0.08890000  0.73850000  1.0 -0.1304625073
C  C109  1  0.54310000  0.16350000  0.95260000  1.0 -0.1213774533
C  C110  1  0.67300000  0.20000000  0.05070000  1.0 -0.2059739316
C  C111  1  0.56660000  0.33800000  0.03730000  1.0 -0.1304625073
C  C112  1  0.43480000  0.33070000  0.97620000  1.0 -0.1304625073
C  C113  1  0.59510000  0.15470000  0.75380000  1.0 -0.017617655
C  C114  1  0.58260000  0.17790000  0.98350000  1.0 0.0489352605
C  C115  1  0.61140000  0.10340000  0.75340000  1.0 0.0275894338
C  C116  1  0.58120000  0.06240000  0.77350000  1.0 0.0559555208
C  C117  1  0.70480000  0.18380000  0.60210000  1.0 -0.1407609234
C  C118  1  0.66510000  0.18110000  0.56800000  1.0 -0.1213774533
C  C119  1  0.47370000  0.33960000  0.01420000  1.0 0.0489352605
C  C120  1  0.53030000  0.07530000  0.79470000  1.0 -0.1304625073
C  C121  1  0.60250000  0.14160000  0.02320000  1.0 0.0489352605
C  C122  1  0.55840000  0.36930000  0.08050000  1.0 -0.0884827757
C  C123  1  0.68190000  0.03710000  0.74040000  1.0 -0.0884827757
C  C124  1  0.61200000  0.18480000  0.58290000  1.0 0.0407102448
C  C125  1  0.57440000  0.18130000  0.54460000  1.0 -0.1407609234
C  C126  1  0.52260000  0.18680000  0.55730000  1.0 -0.1014214006
C  C127  1  0.50830000  0.19580000  0.60830000  1.0 -0.1014214006
C  C128  1  0.54570000  0.19940000  0.64650000  1.0 -0.1304625073
C  C129  1  0.59760000  0.19390000  0.63380000  1.0 0.0407102448
C  C130  1  0.46370000  0.36740000  0.06120000  1.0 -0.1407609234
C  C131  1  0.64490000  0.15570000  0.05850000  1.0 -0.1014214006
C  C132  1  0.76160000  0.18010000  0.58640000  1.0 0.6253030738
C  C133  1  0.59770000  0.00890000  0.77300000  1.0 -0.1407609234
C  C134  1  0.50420000  0.38170000  0.09430000  1.0 -0.1076995504
C  C135  1  0.64710000  0.99830000  0.75670000  1.0 -0.0787034659
C  C136  1  0.51970000  0.11620000  0.95340000  1.0 -0.0884827757
C  C137  1  0.57490000  0.09630000  0.02610000  1.0 -0.1519223014
C  C138  1  0.53210000  0.08200000  0.99400000  1.0 -0.1076995504
C  C139  1  0.00390000  0.71300000  0.42080000  1.0 0.2201733058
C  C140  1  0.09990000  0.69820000  0.39060000  1.0 0.6209186908
C  C141  1  0.78260000  0.79170000  0.58140000  1.0 0.6015413344
C  C142  1  0.96290000  0.70720000  0.45380000  1.0 -0.0391374668
C  C143  1  0.98500000  0.87600000  0.29690000  1.0 -0.1213774533
C  C144  1  0.91020000  0.72860000  0.44520000  1.0 -0.2473708103
C  C145  1  0.87080000  0.79980000  0.23310000  1.0 -0.2473708103
C  C146  1  0.03900000  0.86150000  0.32000000  1.0 0.6209186908
C  C147  1  0.86130000  0.80580000  0.17480000  1.0 0.0117307238
C  C148  1  0.05590000  0.69410000  0.43120000  1.0 -0.1304625073
C  C149  1  0.89070000  0.77040000  0.48060000  1.0 -0.0391374668
C  C150  1  0.84500000  0.76150000  0.51040000  1.0 0.3281670377
C  C151  1  0.97420000  0.67500000  0.50290000  1.0 0.0489352605
C  C152  1  0.95460000  0.83260000  0.27620000  1.0 0.2494413918
C  C153  1  0.80520000  0.80920000  0.15850000  1.0 0.3115658129
C  C154  1  0.83410000  0.91110000  0.23850000  1.0 -0.1304625073
C  C155  1  0.95690000  0.83650000  0.45260000  1.0 -0.1213774533
C  C156  1  0.82700000  0.80000000  0.55070000  1.0 -0.2059739316
C  C157  1  0.93340000  0.66200000  0.53730000  1.0 -0.1304625073
C  C158  1  0.06520000  0.66930000  0.47620000  1.0 -0.1304625073
C  C159  1  0.90490000  0.84530000  0.25380000  1.0 -0.017617655
C  C160  1  0.91740000  0.82210000  0.48350000  1.0 0.0489352605
C  C161  1  0.88860000  0.89660000  0.25340000  1.0 0.0275894338
C  C162  1  0.91880000  0.93760000  0.27350000  1.0 0.0559555208
C  C163  1  0.79520000  0.81620000  0.10210000  1.0 -0.1407609234
C  C164  1  0.83490000  0.81890000  0.06800000  1.0 -0.1213774533
C  C165  1  0.02630000  0.66040000  0.51420000  1.0 0.0489352605
C  C166  1  0.96970000  0.92470000  0.29470000  1.0 -0.1304625073
C  C167  1  0.89750000  0.85840000  0.52320000  1.0 0.0489352605
C  C168  1  0.94160000  0.63070000  0.58050000  1.0 -0.0884827757
C  C169  1  0.81810000  0.96290000  0.24040000  1.0 -0.0884827757
C  C170  1  0.88800000  0.81520000  0.08290000  1.0 0.0407102448
C  C171  1  0.92560000  0.81870000  0.04460000  1.0 -0.1407609234
C  C172  1  0.97740000  0.81320000  0.05730000  1.0 -0.1014214006
C  C173  1  0.99170000  0.80420000  0.10830000  1.0 -0.1014214006
C  C174  1  0.95430000  0.80060000  0.14650000  1.0 -0.1304625073
C  C175  1  0.90240000  0.80610000  0.13380000  1.0 0.0407102448
C  C176  1  0.03630000  0.63260000  0.56120000  1.0 -0.1407609234
C  C177  1  0.85510000  0.84430000  0.55850000  1.0 -0.1014214006
C  C178  1  0.73840000  0.81990000  0.08640000  1.0 0.6209186908
C  C179  1  0.90230000  0.99110000  0.27300000  1.0 -0.1407609234
C  C180  1  0.99580000  0.61830000  0.59430000  1.0 -0.1076995504
C  C181  1  0.85290000  0.00170000  0.25670000  1.0 -0.0787034659
C  C182  1  0.98030000  0.88380000  0.45340000  1.0 -0.0884827757
C  C183  1  0.92510000  0.90370000  0.52610000  1.0 -0.1519223014
C  C184  1  0.96790000  0.91800000  0.49400000  1.0 -0.1076995504
C  C185  1  0.57920000  0.50390000  0.78700000  1.0 0.2201733058
C  C186  1  0.60940000  0.59990000  0.80180000  1.0 0.6209186908
C  C187  1  0.41860000  0.28260000  0.70830000  1.0 0.6015413344
C  C188  1  0.54620000  0.46290000  0.79280000  1.0 -0.0391374668
C  C189  1  0.70310000  0.48500000  0.62400000  1.0 -0.1213774533
C  C190  1  0.55480000  0.41020000  0.77140000  1.0 -0.2473708103
C  C191  1  0.76690000  0.37080000  0.70020000  1.0 -0.2473708103
C  C192  1  0.68000000  0.53900000  0.63850000  1.0 0.6209186908
C  C193  1  0.82520000  0.36130000  0.69420000  1.0 0.0117307238
C  C194  1  0.56880000  0.55590000  0.80590000  1.0 -0.1304625073
C  C195  1  0.51940000  0.39070000  0.72960000  1.0 -0.0391374668
C  C196  1  0.48960000  0.34500000  0.73850000  1.0 0.3281670377
C  C197  1  0.49710000  0.47420000  0.82500000  1.0 0.0489352605
C  C198  1  0.72380000  0.45460000  0.66740000  1.0 0.2494413918
C  C199  1  0.84150000  0.30520000  0.69080000  1.0 0.3115658129
C  C200  1  0.76150000  0.33410000  0.58890000  1.0 -0.1304625073
C  C201  1  0.54740000  0.45690000  0.66350000  1.0 -0.1213774533
C  C202  1  0.44930000  0.32700000  0.70000000  1.0 -0.2059739316
C  C203  1  0.46270000  0.43340000  0.83800000  1.0 -0.1304625073
C  C204  1  0.52380000  0.56520000  0.83070000  1.0 -0.1304625073
C  C205  1  0.74620000  0.40490000  0.65470000  1.0 -0.017617655
C  C206  1  0.51650000  0.41740000  0.67790000  1.0 0.0489352605
C  C207  1  0.74660000  0.38860000  0.60340000  1.0 0.0275894338
C  C208  1  0.72650000  0.41880000  0.56240000  1.0 0.0559555208
C  C209  1  0.89790000  0.29520000  0.68380000  1.0 -0.1407609234
C  C210  1  0.93200000  0.33490000  0.68110000  1.0 -0.1213774533
C  C211  1  0.48580000  0.52630000  0.83960000  1.0 0.0489352605
C  C212  1  0.70530000  0.46970000  0.57530000  1.0 -0.1304625073
C  C213  1  0.47680000  0.39750000  0.64160000  1.0 0.0489352605
C  C214  1  0.41950000  0.44160000  0.86930000  1.0 -0.0884827757
C  C215  1  0.75960000  0.31810000  0.53710000  1.0 -0.0884827757
C  C216  1  0.91710000  0.38800000  0.68480000  1.0 0.0407102448
C  C217  1  0.95540000  0.42560000  0.68130000  1.0 -0.1407609234
C  C218  1  0.94270000  0.47740000  0.68680000  1.0 -0.1014214006
C  C219  1  0.89170000  0.49170000  0.69580000  1.0 -0.1014214006
C  C220  1  0.85350000  0.45430000  0.69940000  1.0 -0.1304625073
C  C221  1  0.86620000  0.40240000  0.69390000  1.0 0.0407102448
C  C222  1  0.43880000  0.53630000  0.86740000  1.0 -0.1407609234
C  C223  1  0.44150000  0.35510000  0.65570000  1.0 -0.1014214006
C  C224  1  0.91360000  0.23840000  0.68010000  1.0 0.6253030738
C  C225  1  0.72700000  0.40230000  0.50890000  1.0 -0.1407609234
C  C226  1  0.40570000  0.49580000  0.88170000  1.0 -0.1076995504
C  C227  1  0.74330000  0.35290000  0.49830000  1.0 -0.0787034659
C  C228  1  0.54660000  0.48030000  0.61620000  1.0 -0.0884827757
C  C229  1  0.47390000  0.42510000  0.59630000  1.0 -0.1519223014
C  C230  1  0.50600000  0.46790000  0.58200000  1.0 -0.1076995504
C  C231  1  0.07920000  0.99610000  0.21300000  1.0 0.2201733058
C  C232  1  0.10940000  0.90010000  0.19820000  1.0 0.6209186908
C  C233  1  0.91860000  0.21740000  0.29170000  1.0 0.6015413344
C  C234  1  0.04620000  0.03710000  0.20720000  1.0 -0.0391374668
C  C235  1  0.20310000  0.01500000  0.37600000  1.0 -0.1213774533
C  C236  1  0.05480000  0.08980000  0.22860000  1.0 -0.2473708103
C  C237  1  0.26690000  0.12920000  0.29980000  1.0 -0.2473708103
C  C238  1  0.18000000  0.96100000  0.36150000  1.0 0.6209186908
C  C239  1  0.32520000  0.13870000  0.30580000  1.0 0.0117307238
C  C240  1  0.06880000  0.94410000  0.19410000  1.0 -0.1304625073
C  C241  1  0.01940000  0.10930000  0.27040000  1.0 -0.0391374668
C  C242  1  0.98960000  0.15500000  0.26150000  1.0 0.3281670377
C  C243  1  0.99710000  0.02580000  0.17500000  1.0 0.0489352605
C  C244  1  0.22380000  0.04540000  0.33260000  1.0 0.2494413918
C  C245  1  0.34150000  0.19480000  0.30920000  1.0 0.3115658129
C  C246  1  0.26150000  0.16590000  0.41110000  1.0 -0.1304625073
C  C247  1  0.04740000  0.04310000  0.33650000  1.0 -0.1213774533
C  C248  1  0.94930000  0.17300000  0.30000000  1.0 -0.2059739316
C  C249  1  0.96270000  0.06660000  0.16200000  1.0 -0.1304625073
C  C250  1  0.02380000  0.93480000  0.16930000  1.0 -0.1304625073
C  C251  1  0.24620000  0.09510000  0.34530000  1.0 -0.017617655
C  C252  1  0.01650000  0.08260000  0.32210000  1.0 0.0489352605
C  C253  1  0.24660000  0.11140000  0.39660000  1.0 0.0275894338
C  C254  1  0.22650000  0.08120000  0.43760000  1.0 0.0559555208
C  C255  1  0.39790000  0.20480000  0.31620000  1.0 -0.1407609234
C  C256  1  0.43200000  0.16510000  0.31890000  1.0 -0.1213774533
C  C257  1  0.98580000  0.97370000  0.16040000  1.0 0.0489352605
C  C258  1  0.20530000  0.03030000  0.42470000  1.0 -0.1304625073
C  C259  1  0.97680000  0.10250000  0.35840000  1.0 0.0489352605
C  C260  1  0.91950000  0.05840000  0.13070000  1.0 -0.0884827757
C  C261  1  0.25960000  0.18190000  0.46290000  1.0 -0.0884827757
C  C262  1  0.41710000  0.11200000  0.31520000  1.0 0.0407102448
C  C263  1  0.45540000  0.07440000  0.31870000  1.0 -0.1407609234
C  C264  1  0.44270000  0.02260000  0.31320000  1.0 -0.1014214006
C  C265  1  0.39170000  0.00830000  0.30420000  1.0 -0.1014214006
C  C266  1  0.35350000  0.04570000  0.30060000  1.0 -0.1304625073
C  C267  1  0.36620000  0.09760000  0.30610000  1.0 0.0407102448
C  C268  1  0.93880000  0.96370000  0.13260000  1.0 -0.1407609234
C  C269  1  0.94150000  0.14490000  0.34430000  1.0 -0.1014214006
C  C270  1  0.41360000  0.26160000  0.31990000  1.0 0.6253030738
C  C271  1  0.22700000  0.09770000  0.49110000  1.0 -0.1407609234
C  C272  1  0.90570000  0.00420000  0.11830000  1.0 -0.1076995504
C  C273  1  0.24330000  0.14710000  0.50170000  1.0 -0.0787034659
C  C274  1  0.04660000  0.01970000  0.38380000  1.0 -0.0884827757
C  C275  1  0.97390000  0.07490000  0.40370000  1.0 -0.1519223014
C  C276  1  0.00600000  0.03210000  0.41800000  1.0 -0.1076995504
C  C277  1  0.92080000  0.49610000  0.28700000  1.0 0.2201733058
C  C278  1  0.89060000  0.40010000  0.30180000  1.0 0.6209186908
C  C279  1  0.08140000  0.71740000  0.20830000  1.0 0.6015413344
C  C280  1  0.95380000  0.53710000  0.29280000  1.0 -0.0391374668
C  C281  1  0.79690000  0.51500000  0.12400000  1.0 -0.1213774533
C  C282  1  0.94520000  0.58980000  0.27140000  1.0 -0.2473708103
C  C283  1  0.73310000  0.62920000  0.20020000  1.0 -0.2473708103
C  C284  1  0.82000000  0.46100000  0.13850000  1.0 0.6209186908
C  C285  1  0.67480000  0.63870000  0.19420000  1.0 0.0117307238
C  C286  1  0.93120000  0.44410000  0.30590000  1.0 -0.1304625073
C  C287  1  0.98060000  0.60930000  0.22960000  1.0 -0.0391374668
C  C288  1  0.01040000  0.65500000  0.23850000  1.0 0.3281670377
C  C289  1  0.00290000  0.52580000  0.32500000  1.0 0.0489352605
C  C290  1  0.77620000  0.54540000  0.16740000  1.0 0.2494413918
C  C291  1  0.65850000  0.69480000  0.19080000  1.0 0.3115658129
C  C292  1  0.73850000  0.66590000  0.08890000  1.0 -0.1304625073
C  C293  1  0.95260000  0.54310000  0.16350000  1.0 -0.1213774533
C  C294  1  0.05070000  0.67300000  0.20000000  1.0 -0.2059739316
C  C295  1  0.03730000  0.56660000  0.33800000  1.0 -0.1304625073
C  C296  1  0.97620000  0.43480000  0.33070000  1.0 -0.1304625073
C  C297  1  0.75380000  0.59510000  0.15470000  1.0 -0.017617655
C  C298  1  0.98350000  0.58260000  0.17790000  1.0 0.0489352605
C  C299  1  0.75340000  0.61140000  0.10340000  1.0 0.0275894338
C  C300  1  0.77350000  0.58120000  0.06240000  1.0 0.0559555208
C  C301  1  0.60210000  0.70480000  0.18380000  1.0 -0.1407609234
C  C302  1  0.56800000  0.66510000  0.18110000  1.0 -0.1213774533
C  C303  1  0.01420000  0.47370000  0.33960000  1.0 0.0489352605
C  C304  1  0.79470000  0.53030000  0.07530000  1.0 -0.1304625073
C  C305  1  0.02320000  0.60250000  0.14160000  1.0 0.0489352605
C  C306  1  0.08050000  0.55840000  0.36930000  1.0 -0.0884827757
C  C307  1  0.74040000  0.68190000  0.03710000  1.0 -0.0884827757
C  C308  1  0.58290000  0.61200000  0.18480000  1.0 0.0407102448
C  C309  1  0.54460000  0.57440000  0.18130000  1.0 -0.1407609234
C  C310  1  0.55730000  0.52260000  0.18680000  1.0 -0.1014214006
C  C311  1  0.60830000  0.50830000  0.19580000  1.0 -0.1014214006
C  C312  1  0.64650000  0.54570000  0.19940000  1.0 -0.1304625073
C  C313  1  0.63380000  0.59760000  0.19390000  1.0 0.0407102448
C  C314  1  0.06120000  0.46370000  0.36740000  1.0 -0.1407609234
C  C315  1  0.05850000  0.64490000  0.15570000  1.0 -0.1014214006
C  C316  1  0.58640000  0.76160000  0.18010000  1.0 0.6209186908
C  C317  1  0.77300000  0.59770000  0.00890000  1.0 -0.1407609234
C  C318  1  0.09430000  0.50420000  0.38170000  1.0 -0.1076995504
C  C319  1  0.75670000  0.64710000  0.99830000  1.0 -0.0787034659
C  C320  1  0.95340000  0.51970000  0.11620000  1.0 -0.0884827757
C  C321  1  0.02610000  0.57490000  0.09630000  1.0 -0.1519223014
C  C322  1  0.99400000  0.53210000  0.08200000  1.0 -0.1076995504
C  C323  1  0.42080000  0.00390000  0.71300000  1.0 0.2201733058
C  C324  1  0.39060000  0.09990000  0.69820000  1.0 0.6209186908
C  C325  1  0.58140000  0.78260000  0.79170000  1.0 0.6015413344
C  C326  1  0.45380000  0.96290000  0.70720000  1.0 -0.0391374668
C  C327  1  0.29690000  0.98500000  0.87600000  1.0 -0.1213774533
C  C328  1  0.44520000  0.91020000  0.72860000  1.0 -0.2473708103
C  C329  1  0.23310000  0.87080000  0.79980000  1.0 -0.2473708103
C  C330  1  0.32000000  0.03900000  0.86150000  1.0 0.6209186908
C  C331  1  0.17480000  0.86130000  0.80580000  1.0 0.0117307238
C  C332  1  0.43120000  0.05590000  0.69410000  1.0 -0.1304625073
C  C333  1  0.48060000  0.89070000  0.77040000  1.0 -0.0391374668
C  C334  1  0.51040000  0.84500000  0.76150000  1.0 0.3281670377
C  C335  1  0.50290000  0.97420000  0.67500000  1.0 0.0489352605
C  C336  1  0.27620000  0.95460000  0.83260000  1.0 0.2494413918
C  C337  1  0.15850000  0.80520000  0.80920000  1.0 0.3115658129
C  C338  1  0.23850000  0.83410000  0.91110000  1.0 -0.1304625073
C  C339  1  0.45260000  0.95690000  0.83650000  1.0 -0.1213774533
C  C340  1  0.55070000  0.82700000  0.80000000  1.0 -0.2059739316
C  C341  1  0.53730000  0.93340000  0.66200000  1.0 -0.1304625073
C  C342  1  0.47620000  0.06520000  0.66930000  1.0 -0.1304625073
C  C343  1  0.25380000  0.90490000  0.84530000  1.0 -0.017617655
C  C344  1  0.48350000  0.91740000  0.82210000  1.0 0.0489352605
C  C345  1  0.25340000  0.88860000  0.89660000  1.0 0.0275894338
C  C346  1  0.27350000  0.91880000  0.93760000  1.0 0.0559555208
C  C347  1  0.10210000  0.79520000  0.81620000  1.0 -0.1407609234
C  C348  1  0.06800000  0.83490000  0.81890000  1.0 -0.1213774533
C  C349  1  0.51420000  0.02630000  0.66040000  1.0 0.0489352605
C  C350  1  0.29470000  0.96970000  0.92470000  1.0 -0.1304625073
C  C351  1  0.52320000  0.89750000  0.85840000  1.0 0.0489352605
C  C352  1  0.58050000  0.94160000  0.63070000  1.0 -0.0884827757
C  C353  1  0.24040000  0.81810000  0.96290000  1.0 -0.0884827757
C  C354  1  0.08290000  0.88800000  0.81520000  1.0 0.0407102448
C  C355  1  0.04460000  0.92560000  0.81870000  1.0 -0.1407609234
C  C356  1  0.05730000  0.97740000  0.81320000  1.0 -0.1014214006
C  C357  1  0.10830000  0.99170000  0.80420000  1.0 -0.1014214006
C  C358  1  0.14650000  0.95430000  0.80060000  1.0 -0.1304625073
C  C359  1  0.13380000  0.90240000  0.80610000  1.0 0.0407102448
C  C360  1  0.56120000  0.03630000  0.63260000  1.0 -0.1407609234
C  C361  1  0.55850000  0.85510000  0.84430000  1.0 -0.1014214006
C  C362  1  0.08640000  0.73840000  0.81990000  1.0 0.6253030738
C  C363  1  0.27300000  0.90230000  0.99110000  1.0 -0.1407609234
C  C364  1  0.59430000  0.99580000  0.61830000  1.0 -0.1076995504
C  C365  1  0.25670000  0.85290000  0.00170000  1.0 -0.0787034659
C  C366  1  0.45340000  0.98030000  0.88380000  1.0 -0.0884827757
C  C367  1  0.52610000  0.92510000  0.90370000  1.0 -0.1519223014
C  C368  1  0.49400000  0.96790000  0.91800000  1.0 -0.1076995504
C  C369  1  0.78700000  0.57920000  0.50390000  1.0 0.2201733058
C  C370  1  0.80180000  0.60940000  0.59990000  1.0 0.6209186908
C  C371  1  0.70830000  0.41860000  0.28260000  1.0 0.6015413344
C  C372  1  0.79280000  0.54620000  0.46290000  1.0 -0.0391374668
C  C373  1  0.62400000  0.70310000  0.48500000  1.0 -0.1213774533
C  C374  1  0.77140000  0.55480000  0.41020000  1.0 -0.2473708103
C  C375  1  0.70020000  0.76690000  0.37080000  1.0 -0.2473708103
C  C376  1  0.63850000  0.68000000  0.53900000  1.0 0.6209186908
C  C377  1  0.69420000  0.82520000  0.36130000  1.0 0.0117307238
C  C378  1  0.80590000  0.56880000  0.55590000  1.0 -0.1304625073
C  C379  1  0.72960000  0.51940000  0.39070000  1.0 -0.0391374668
C  C380  1  0.73850000  0.48960000  0.34500000  1.0 0.3281670377
C  C381  1  0.82500000  0.49710000  0.47420000  1.0 0.0489352605
C  C382  1  0.66740000  0.72380000  0.45460000  1.0 0.2494413918
C  C383  1  0.69080000  0.84150000  0.30520000  1.0 0.3115658129
C  C384  1  0.58890000  0.76150000  0.33410000  1.0 -0.1304625073
C  C385  1  0.66350000  0.54740000  0.45690000  1.0 -0.1213774533
C  C386  1  0.70000000  0.44930000  0.32700000  1.0 -0.2059739316
C  C387  1  0.83800000  0.46270000  0.43340000  1.0 -0.1304625073
C  C388  1  0.83070000  0.52380000  0.56520000  1.0 -0.1304625073
C  C389  1  0.65470000  0.74620000  0.40490000  1.0 -0.017617655
C  C390  1  0.67790000  0.51650000  0.41740000  1.0 0.0489352605
C  C391  1  0.60340000  0.74660000  0.38860000  1.0 0.0275894338
C  C392  1  0.56240000  0.72650000  0.41880000  1.0 0.0559555208
C  C393  1  0.68380000  0.89790000  0.29520000  1.0 -0.1407609234
C  C394  1  0.68110000  0.93200000  0.33490000  1.0 -0.1213774533
C  C395  1  0.83960000  0.48580000  0.52630000  1.0 0.0489352605
C  C396  1  0.57530000  0.70530000  0.46970000  1.0 -0.1304625073
C  C397  1  0.64160000  0.47680000  0.39750000  1.0 0.0489352605
C  C398  1  0.86930000  0.41950000  0.44160000  1.0 -0.0884827757
C  C399  1  0.53710000  0.75960000  0.31810000  1.0 -0.0884827757
C  C400  1  0.68480000  0.91710000  0.38800000  1.0 0.0407102448
C  C401  1  0.68130000  0.95540000  0.42560000  1.0 -0.1407609234
C  C402  1  0.68680000  0.94270000  0.47740000  1.0 -0.1014214006
C  C403  1  0.69580000  0.89170000  0.49170000  1.0 -0.1014214006
C  C404  1  0.69940000  0.85350000  0.45430000  1.0 -0.1304625073
C  C405  1  0.69390000  0.86620000  0.40240000  1.0 0.0407102448
C  C406  1  0.86740000  0.43880000  0.53630000  1.0 -0.1407609234
C  C407  1  0.65570000  0.44150000  0.35510000  1.0 -0.1014214006
C  C408  1  0.68010000  0.91360000  0.23840000  1.0 0.6209186908
C  C409  1  0.50890000  0.72700000  0.40230000  1.0 -0.1407609234
C  C410  1  0.88170000  0.40570000  0.49580000  1.0 -0.1076995504
C  C411  1  0.49830000  0.74330000  0.35290000  1.0 -0.0787034659
C  C412  1  0.61620000  0.54660000  0.48030000  1.0 -0.0884827757
C  C413  1  0.59630000  0.47390000  0.42510000  1.0 -0.1519223014
C  C414  1  0.58200000  0.50600000  0.46790000  1.0 -0.1076995504
C  C415  1  0.21300000  0.07920000  0.99610000  1.0 0.2201733058
C  C416  1  0.19820000  0.10940000  0.90010000  1.0 0.6209186908
C  C417  1  0.29170000  0.91860000  0.21740000  1.0 0.6015413344
C  C418  1  0.20720000  0.04620000  0.03710000  1.0 -0.0391374668
C  C419  1  0.37600000  0.20310000  0.01500000  1.0 -0.1213774533
C  C420  1  0.22860000  0.05480000  0.08980000  1.0 -0.2473708103
C  C421  1  0.29980000  0.26690000  0.12920000  1.0 -0.2473708103
C  C422  1  0.36150000  0.18000000  0.96100000  1.0 0.6209186908
C  C423  1  0.30580000  0.32520000  0.13870000  1.0 0.0117307238
C  C424  1  0.19410000  0.06880000  0.94410000  1.0 -0.1304625073
C  C425  1  0.27040000  0.01940000  0.10930000  1.0 -0.0391374668
C  C426  1  0.26150000  0.98960000  0.15500000  1.0 0.3281670377
C  C427  1  0.17500000  0.99710000  0.02580000  1.0 0.0489352605
C  C428  1  0.33260000  0.22380000  0.04540000  1.0 0.2494413918
C  C429  1  0.30920000  0.34150000  0.19480000  1.0 0.3115658129
C  C430  1  0.41110000  0.26150000  0.16590000  1.0 -0.1304625073
C  C431  1  0.33650000  0.04740000  0.04310000  1.0 -0.1213774533
C  C432  1  0.30000000  0.94930000  0.17300000  1.0 -0.2059739316
C  C433  1  0.16200000  0.96270000  0.06660000  1.0 -0.1304625073
C  C434  1  0.16930000  0.02380000  0.93480000  1.0 -0.1304625073
C  C435  1  0.34530000  0.24620000  0.09510000  1.0 -0.017617655
C  C436  1  0.32210000  0.01650000  0.08260000  1.0 0.0489352605
C  C437  1  0.39660000  0.24660000  0.11140000  1.0 0.0275894338
C  C438  1  0.43760000  0.22650000  0.08120000  1.0 0.0559555208
C  C439  1  0.31620000  0.39790000  0.20480000  1.0 -0.1407609234
C  C440  1  0.31890000  0.43200000  0.16510000  1.0 -0.1213774533
C  C441  1  0.16040000  0.98580000  0.97370000  1.0 0.0489352605
C  C442  1  0.42470000  0.20530000  0.03030000  1.0 -0.1304625073
C  C443  1  0.35840000  0.97680000  0.10250000  1.0 0.0489352605
C  C444  1  0.13070000  0.91950000  0.05840000  1.0 -0.0884827757
C  C445  1  0.46290000  0.25960000  0.18190000  1.0 -0.0884827757
C  C446  1  0.31520000  0.41710000  0.11200000  1.0 0.0407102448
C  C447  1  0.31870000  0.45540000  0.07440000  1.0 -0.1407609234
C  C448  1  0.31320000  0.44270000  0.02260000  1.0 -0.1014214006
C  C449  1  0.30420000  0.39170000  0.00830000  1.0 -0.1014214006
C  C450  1  0.30060000  0.35350000  0.04570000  1.0 -0.1304625073
C  C451  1  0.30610000  0.36620000  0.09760000  1.0 0.0407102448
C  C452  1  0.13260000  0.93880000  0.96370000  1.0 -0.1407609234
C  C453  1  0.34430000  0.94150000  0.14490000  1.0 -0.1014214006
C  C454  1  0.31990000  0.41360000  0.26160000  1.0 0.6253030738
C  C455  1  0.49110000  0.22700000  0.09770000  1.0 -0.1407609234
C  C456  1  0.11830000  0.90570000  0.00420000  1.0 -0.1076995504
C  C457  1  0.50170000  0.24330000  0.14710000  1.0 -0.0787034659
C  C458  1  0.38380000  0.04660000  0.01970000  1.0 -0.0884827757
C  C459  1  0.40370000  0.97390000  0.07490000  1.0 -0.1519223014
C  C460  1  0.41800000  0.00600000  0.03210000  1.0 -0.1076995504
C  C461  1  0.28700000  0.92080000  0.49610000  1.0 0.2201733058
C  C462  1  0.30180000  0.89060000  0.40010000  1.0 0.6209186908
C  C463  1  0.20830000  0.08140000  0.71740000  1.0 0.6015413344
C  C464  1  0.29280000  0.95380000  0.53710000  1.0 -0.0391374668
C  C465  1  0.12400000  0.79690000  0.51500000  1.0 -0.1213774533
C  C466  1  0.27140000  0.94520000  0.58980000  1.0 -0.2473708103
C  C467  1  0.20020000  0.73310000  0.62920000  1.0 -0.2473708103
C  C468  1  0.13850000  0.82000000  0.46100000  1.0 0.6209186908
C  C469  1  0.19420000  0.67480000  0.63870000  1.0 0.0117307238
C  C470  1  0.30590000  0.93120000  0.44410000  1.0 -0.1304625073
C  C471  1  0.22960000  0.98060000  0.60930000  1.0 -0.0391374668
C  C472  1  0.23850000  0.01040000  0.65500000  1.0 0.3281670377
C  C473  1  0.32500000  0.00290000  0.52580000  1.0 0.0489352605
C  C474  1  0.16740000  0.77620000  0.54540000  1.0 0.2494413918
C  C475  1  0.19080000  0.65850000  0.69480000  1.0 0.3115658129
C  C476  1  0.08890000  0.73850000  0.66590000  1.0 -0.1304625073
C  C477  1  0.16350000  0.95260000  0.54310000  1.0 -0.1213774533
C  C478  1  0.20000000  0.05070000  0.67300000  1.0 -0.2059739316
C  C479  1  0.33800000  0.03730000  0.56660000  1.0 -0.1304625073
C  C480  1  0.33070000  0.97620000  0.43480000  1.0 -0.1304625073
C  C481  1  0.15470000  0.75380000  0.59510000  1.0 -0.017617655
C  C482  1  0.17790000  0.98350000  0.58260000  1.0 0.0489352605
C  C483  1  0.10340000  0.75340000  0.61140000  1.0 0.0275894338
C  C484  1  0.06240000  0.77350000  0.58120000  1.0 0.0559555208
C  C485  1  0.18380000  0.60210000  0.70480000  1.0 -0.1407609234
C  C486  1  0.18110000  0.56800000  0.66510000  1.0 -0.1213774533
C  C487  1  0.33960000  0.01420000  0.47370000  1.0 0.0489352605
C  C488  1  0.07530000  0.79470000  0.53030000  1.0 -0.1304625073
C  C489  1  0.14160000  0.02320000  0.60250000  1.0 0.0489352605
C  C490  1  0.36930000  0.08050000  0.55840000  1.0 -0.0884827757
C  C491  1  0.03710000  0.74040000  0.68190000  1.0 -0.0884827757
C  C492  1  0.18480000  0.58290000  0.61200000  1.0 0.0407102448
C  C493  1  0.18130000  0.54460000  0.57440000  1.0 -0.1407609234
C  C494  1  0.18680000  0.55730000  0.52260000  1.0 -0.1014214006
C  C495  1  0.19580000  0.60830000  0.50830000  1.0 -0.1014214006
C  C496  1  0.19940000  0.64650000  0.54570000  1.0 -0.1304625073
C  C497  1  0.19390000  0.63380000  0.59760000  1.0 0.0407102448
C  C498  1  0.36740000  0.06120000  0.46370000  1.0 -0.1407609234
C  C499  1  0.15570000  0.05850000  0.64490000  1.0 -0.1014214006
C  C500  1  0.18010000  0.58640000  0.76160000  1.0 0.6253030738
C  C501  1  0.00890000  0.77300000  0.59770000  1.0 -0.1407609234
C  C502  1  0.38170000  0.09430000  0.50420000  1.0 -0.1076995504
C  C503  1  0.99830000  0.75670000  0.64710000  1.0 -0.0787034659
C  C504  1  0.11620000  0.95340000  0.51970000  1.0 -0.0884827757
C  C505  1  0.09630000  0.02610000  0.57490000  1.0 -0.1519223014
C  C506  1  0.08200000  0.99400000  0.53210000  1.0 -0.1076995504
C  C507  1  0.71300000  0.42080000  0.00390000  1.0 0.2201733058
C  C508  1  0.69820000  0.39060000  0.09990000  1.0 0.6209186908
C  C509  1  0.79170000  0.58140000  0.78260000  1.0 0.6015413344
C  C510  1  0.70720000  0.45380000  0.96290000  1.0 -0.0391374668
C  C511  1  0.87600000  0.29690000  0.98500000  1.0 -0.1213774533
C  C512  1  0.72860000  0.44520000  0.91020000  1.0 -0.2473708103
C  C513  1  0.79980000  0.23310000  0.87080000  1.0 -0.2473708103
C  C514  1  0.86150000  0.32000000  0.03900000  1.0 0.6209186908
C  C515  1  0.80580000  0.17480000  0.86130000  1.0 0.0117307238
C  C516  1  0.69410000  0.43120000  0.05590000  1.0 -0.1304625073
C  C517  1  0.77040000  0.48060000  0.89070000  1.0 -0.0391374668
C  C518  1  0.76150000  0.51040000  0.84500000  1.0 0.3281670377
C  C519  1  0.67500000  0.50290000  0.97420000  1.0 0.0489352605
C  C520  1  0.83260000  0.27620000  0.95460000  1.0 0.2494413918
C  C521  1  0.80920000  0.15850000  0.80520000  1.0 0.3115658129
C  C522  1  0.91110000  0.23850000  0.83410000  1.0 -0.1304625073
C  C523  1  0.83650000  0.45260000  0.95690000  1.0 -0.1213774533
C  C524  1  0.80000000  0.55070000  0.82700000  1.0 -0.2059739316
C  C525  1  0.66200000  0.53730000  0.93340000  1.0 -0.1304625073
C  C526  1  0.66930000  0.47620000  0.06520000  1.0 -0.1304625073
C  C527  1  0.84530000  0.25380000  0.90490000  1.0 -0.017617655
C  C528  1  0.82210000  0.48350000  0.91740000  1.0 0.0489352605
C  C529  1  0.89660000  0.25340000  0.88860000  1.0 0.0275894338
C  C530  1  0.93760000  0.27350000  0.91880000  1.0 0.0559555208
C  C531  1  0.81620000  0.10210000  0.79520000  1.0 -0.1407609234
C  C532  1  0.81890000  0.06800000  0.83490000  1.0 -0.1213774533
C  C533  1  0.66040000  0.51420000  0.02630000  1.0 0.0489352605
C  C534  1  0.92470000  0.29470000  0.96970000  1.0 -0.1304625073
C  C535  1  0.85840000  0.52320000  0.89750000  1.0 0.0489352605
C  C536  1  0.63070000  0.58050000  0.94160000  1.0 -0.0884827757
C  C537  1  0.96290000  0.24040000  0.81810000  1.0 -0.0884827757
C  C538  1  0.81520000  0.08290000  0.88800000  1.0 0.0407102448
C  C539  1  0.81870000  0.04460000  0.92560000  1.0 -0.1407609234
C  C540  1  0.81320000  0.05730000  0.97740000  1.0 -0.1014214006
C  C541  1  0.80420000  0.10830000  0.99170000  1.0 -0.1014214006
C  C542  1  0.80060000  0.14650000  0.95430000  1.0 -0.1304625073
C  C543  1  0.80610000  0.13380000  0.90240000  1.0 0.0407102448
C  C544  1  0.63260000  0.56120000  0.03630000  1.0 -0.1407609234
C  C545  1  0.84430000  0.55850000  0.85510000  1.0 -0.1014214006
C  C546  1  0.81990000  0.08640000  0.73840000  1.0 0.6253030738
C  C547  1  0.99110000  0.27300000  0.90230000  1.0 -0.1407609234
C  C548  1  0.61830000  0.59430000  0.99580000  1.0 -0.1076995504
C  C549  1  0.00170000  0.25670000  0.85290000  1.0 -0.0787034659
C  C550  1  0.88380000  0.45340000  0.98030000  1.0 -0.0884827757
C  C551  1  0.90370000  0.52610000  0.92510000  1.0 -0.1519223014
C  C552  1  0.91800000  0.49400000  0.96790000  1.0 -0.1076995504
O  O1  1  0.49310000  0.76220000  0.62550000  1.0 -0.6527219573
O  O2  1  0.59080000  0.78140000  0.65500000  1.0 -0.5942071239
O  O3  1  0.25290000  0.74840000  0.42450000  1.0 -0.5993333617
O  O4  1  0.31980000  0.78160000  0.49380000  1.0 -0.5652923742
O  O5  1  0.64280000  0.82070000  0.59680000  1.0 -0.5293105999
O  O6  1  0.56650000  0.59990000  0.66400000  1.0 -0.510321633
O  O7  1  0.55550000  0.68460000  0.67530000  1.0 -0.5807888443
O  O8  1  0.47110000  0.71740000  0.72190000  1.0 -0.6109059314
O  O9  1  0.20080000  0.68500000  0.88130000  1.0 -0.5993333617
O  O10  1  0.26810000  0.67290000  0.38590000  1.0 -0.5152323404
O  O11  1  0.26970000  0.69300000  0.80450000  1.0 -0.5807888443
O  O12  1  0.23110000  0.67300000  0.96170000  1.0 -0.4830324908
O  O13  1  0.19810000  0.70860000  0.29010000  1.0 -0.8456255306
O  O14  1  0.00690000  0.23780000  0.12550000  1.0 -0.6527219573
O  O15  1  0.90920000  0.21860000  0.15500000  1.0 -0.5942071239
O  O16  1  0.24710000  0.25160000  0.92450000  1.0 -0.5993333617
O  O17  1  0.18020000  0.21840000  0.99380000  1.0 -0.5652923742
O  O18  1  0.85720000  0.17930000  0.09680000  1.0 -0.5293105999
O  O19  1  0.93350000  0.40010000  0.16400000  1.0 -0.510321633
O  O20  1  0.94450000  0.31540000  0.17530000  1.0 -0.5807888443
O  O21  1  0.02890000  0.28260000  0.22190000  1.0 -0.6109059314
O  O22  1  0.29920000  0.31500000  0.38130000  1.0 -0.5993333617
O  O23  1  0.23190000  0.32710000  0.88590000  1.0 -0.5152323404
O  O24  1  0.23030000  0.30700000  0.30450000  1.0 -0.5807888443
O  O25  1  0.26890000  0.32700000  0.46170000  1.0 -0.4830324908
O  O26  1  0.30190000  0.29140000  0.79010000  1.0 -0.8456255306
O  O27  1  0.50690000  0.26220000  0.87450000  1.0 -0.6527219573
O  O28  1  0.40920000  0.28140000  0.84500000  1.0 -0.5942071239
O  O29  1  0.74710000  0.24840000  0.07550000  1.0 -0.5993333617
O  O30  1  0.68020000  0.28160000  0.00620000  1.0 -0.5652923742
O  O31  1  0.35720000  0.32070000  0.90320000  1.0 -0.5293105999
O  O32  1  0.43350000  0.09990000  0.83600000  1.0 -0.510321633
O  O33  1  0.44450000  0.18460000  0.82470000  1.0 -0.5807888443
O  O34  1  0.52890000  0.21740000  0.77810000  1.0 -0.6109059314
O  O35  1  0.79920000  0.18500000  0.61870000  1.0 -0.5993333617
O  O36  1  0.73190000  0.17290000  0.11410000  1.0 -0.5152323404
O  O37  1  0.73030000  0.19300000  0.69550000  1.0 -0.5807888443
O  O38  1  0.76890000  0.17300000  0.53830000  1.0 -0.4830324908
O  O39  1  0.80190000  0.20860000  0.20990000  1.0 -0.8456255306
O  O40  1  0.99310000  0.73780000  0.37450000  1.0 -0.6527219573
O  O41  1  0.09080000  0.71860000  0.34500000  1.0 -0.5942071239
O  O42  1  0.75290000  0.75160000  0.57550000  1.0 -0.5993333617
O  O43  1  0.81980000  0.71840000  0.50620000  1.0 -0.5652923742
O  O44  1  0.14280000  0.67930000  0.40320000  1.0 -0.5293105999
O  O45  1  0.06650000  0.90010000  0.33600000  1.0 -0.510321633
O  O46  1  0.05550000  0.81540000  0.32470000  1.0 -0.5807888443
O  O47  1  0.97110000  0.78260000  0.27810000  1.0 -0.6109059314
O  O48  1  0.70080000  0.81500000  0.11870000  1.0 -0.5993333617
O  O49  1  0.76810000  0.82710000  0.61410000  1.0 -0.5152323404
O  O50  1  0.76970000  0.80700000  0.19550000  1.0 -0.5807888443
O  O51  1  0.73110000  0.82700000  0.03830000  1.0 -0.4830324908
O  O52  1  0.69810000  0.79140000  0.70990000  1.0 -0.8456255306
O  O53  1  0.62550000  0.49310000  0.76220000  1.0 -0.6527219573
O  O54  1  0.65500000  0.59080000  0.78140000  1.0 -0.5942071239
O  O55  1  0.42450000  0.25290000  0.74840000  1.0 -0.5993333617
O  O56  1  0.49380000  0.31980000  0.78160000  1.0 -0.5652923742
O  O57  1  0.59680000  0.64280000  0.82070000  1.0 -0.5293105999
O  O58  1  0.66400000  0.56650000  0.59990000  1.0 -0.510321633
O  O59  1  0.67530000  0.55550000  0.68460000  1.0 -0.5807888443
O  O60  1  0.72190000  0.47110000  0.71740000  1.0 -0.6109059314
O  O61  1  0.88130000  0.20080000  0.68500000  1.0 -0.5993333617
O  O62  1  0.38590000  0.26810000  0.67290000  1.0 -0.5152323404
O  O63  1  0.80450000  0.26970000  0.69300000  1.0 -0.5807888443
O  O64  1  0.96170000  0.23110000  0.67300000  1.0 -0.4830324908
O  O65  1  0.29010000  0.19810000  0.70860000  1.0 -0.8456255306
O  O66  1  0.12550000  0.00690000  0.23780000  1.0 -0.6527219573
O  O67  1  0.15500000  0.90920000  0.21860000  1.0 -0.5942071239
O  O68  1  0.92450000  0.24710000  0.25160000  1.0 -0.5993333617
O  O69  1  0.99380000  0.18020000  0.21840000  1.0 -0.5652923742
O  O70  1  0.09680000  0.85720000  0.17930000  1.0 -0.5293105999
O  O71  1  0.16400000  0.93350000  0.40010000  1.0 -0.510321633
O  O72  1  0.17530000  0.94450000  0.31540000  1.0 -0.5807888443
O  O73  1  0.22190000  0.02890000  0.28260000  1.0 -0.6109059314
O  O74  1  0.38130000  0.29920000  0.31500000  1.0 -0.5993333617
O  O75  1  0.88590000  0.23190000  0.32710000  1.0 -0.5152323404
O  O76  1  0.30450000  0.23030000  0.30700000  1.0 -0.5807888443
O  O77  1  0.46170000  0.26890000  0.32700000  1.0 -0.4830324908
O  O78  1  0.79010000  0.30190000  0.29140000  1.0 -0.8456255306
O  O79  1  0.87450000  0.50690000  0.26220000  1.0 -0.6527219573
O  O80  1  0.84500000  0.40920000  0.28140000  1.0 -0.5942071239
O  O81  1  0.07550000  0.74710000  0.24840000  1.0 -0.5993333617
O  O82  1  0.00620000  0.68020000  0.28160000  1.0 -0.5652923742
O  O83  1  0.90320000  0.35720000  0.32070000  1.0 -0.5293105999
O  O84  1  0.83600000  0.43350000  0.09990000  1.0 -0.510321633
O  O85  1  0.82470000  0.44450000  0.18460000  1.0 -0.5807888443
O  O86  1  0.77810000  0.52890000  0.21740000  1.0 -0.6109059314
O  O87  1  0.61870000  0.79920000  0.18500000  1.0 -0.5993333617
O  O88  1  0.11410000  0.73190000  0.17290000  1.0 -0.5152323404
O  O89  1  0.69550000  0.73030000  0.19300000  1.0 -0.5807888443
O  O90  1  0.53830000  0.76890000  0.17300000  1.0 -0.4830324908
O  O91  1  0.20990000  0.80190000  0.20860000  1.0 -0.8456255306
O  O92  1  0.37450000  0.99310000  0.73780000  1.0 -0.6527219573
O  O93  1  0.34500000  0.09080000  0.71860000  1.0 -0.5942071239
O  O94  1  0.57550000  0.75290000  0.75160000  1.0 -0.5993333617
O  O95  1  0.50620000  0.81980000  0.71840000  1.0 -0.5652923742
O  O96  1  0.40320000  0.14280000  0.67930000  1.0 -0.5293105999
O  O97  1  0.33600000  0.06650000  0.90010000  1.0 -0.510321633
O  O98  1  0.32470000  0.05550000  0.81540000  1.0 -0.5807888443
O  O99  1  0.27810000  0.97110000  0.78260000  1.0 -0.6109059314
O  O100  1  0.11870000  0.70080000  0.81500000  1.0 -0.5993333617
O  O101  1  0.61410000  0.76810000  0.82710000  1.0 -0.5152323404
O  O102  1  0.19550000  0.76970000  0.80700000  1.0 -0.5807888443
O  O103  1  0.03830000  0.73110000  0.82700000  1.0 -0.4830324908
O  O104  1  0.70990000  0.69810000  0.79140000  1.0 -0.8456255306
O  O105  1  0.76220000  0.62550000  0.49310000  1.0 -0.6527219573
O  O106  1  0.78140000  0.65500000  0.59080000  1.0 -0.5942071239
O  O107  1  0.74840000  0.42450000  0.25290000  1.0 -0.5993333617
O  O108  1  0.78160000  0.49380000  0.31980000  1.0 -0.5652923742
O  O109  1  0.82070000  0.59680000  0.64280000  1.0 -0.5293105999
O  O110  1  0.59990000  0.66400000  0.56650000  1.0 -0.510321633
O  O111  1  0.68460000  0.67530000  0.55550000  1.0 -0.5807888443
O  O112  1  0.71740000  0.72190000  0.47110000  1.0 -0.6109059314
O  O113  1  0.68500000  0.88130000  0.20080000  1.0 -0.5993333617
O  O114  1  0.67290000  0.38590000  0.26810000  1.0 -0.5152323404
O  O115  1  0.69300000  0.80450000  0.26970000  1.0 -0.5807888443
O  O116  1  0.67300000  0.96170000  0.23110000  1.0 -0.4830324908
O  O117  1  0.70860000  0.29010000  0.19810000  1.0 -0.8456255306
O  O118  1  0.23780000  0.12550000  0.00690000  1.0 -0.6527219573
O  O119  1  0.21860000  0.15500000  0.90920000  1.0 -0.5942071239
O  O120  1  0.25160000  0.92450000  0.24710000  1.0 -0.5993333617
O  O121  1  0.21840000  0.99380000  0.18020000  1.0 -0.5652923742
O  O122  1  0.17930000  0.09680000  0.85720000  1.0 -0.5293105999
O  O123  1  0.40010000  0.16400000  0.93350000  1.0 -0.510321633
O  O124  1  0.31540000  0.17530000  0.94450000  1.0 -0.5807888443
O  O125  1  0.28260000  0.22190000  0.02890000  1.0 -0.6109059314
O  O126  1  0.31500000  0.38130000  0.29920000  1.0 -0.5993333617
O  O127  1  0.32710000  0.88590000  0.23190000  1.0 -0.5152323404
O  O128  1  0.30700000  0.30450000  0.23030000  1.0 -0.5807888443
O  O129  1  0.32700000  0.46170000  0.26890000  1.0 -0.4830324908
O  O130  1  0.29140000  0.79010000  0.30190000  1.0 -0.8456255306
O  O131  1  0.26220000  0.87450000  0.50690000  1.0 -0.6527219573
O  O132  1  0.28140000  0.84500000  0.40920000  1.0 -0.5942071239
O  O133  1  0.24840000  0.07550000  0.74710000  1.0 -0.5993333617
O  O134  1  0.28160000  0.00620000  0.68020000  1.0 -0.5652923742
O  O135  1  0.32070000  0.90320000  0.35720000  1.0 -0.5293105999
O  O136  1  0.09990000  0.83600000  0.43350000  1.0 -0.510321633
O  O137  1  0.18460000  0.82470000  0.44450000  1.0 -0.5807888443
O  O138  1  0.21740000  0.77810000  0.52890000  1.0 -0.6109059314
O  O139  1  0.18500000  0.61870000  0.79920000  1.0 -0.5993333617
O  O140  1  0.17290000  0.11410000  0.73190000  1.0 -0.5152323404
O  O141  1  0.19300000  0.69550000  0.73030000  1.0 -0.5807888443
O  O142  1  0.17300000  0.53830000  0.76890000  1.0 -0.4830324908
O  O143  1  0.20860000  0.20990000  0.80190000  1.0 -0.8456255306
O  O144  1  0.73780000  0.37450000  0.99310000  1.0 -0.6527219573
O  O145  1  0.71860000  0.34500000  0.09080000  1.0 -0.5942071239
O  O146  1  0.75160000  0.57550000  0.75290000  1.0 -0.5993333617
O  O147  1  0.71840000  0.50620000  0.81980000  1.0 -0.5652923742
O  O148  1  0.67930000  0.40320000  0.14280000  1.0 -0.5293105999
O  O149  1  0.90010000  0.33600000  0.06650000  1.0 -0.510321633
O  O150  1  0.81540000  0.32470000  0.05550000  1.0 -0.5807888443
O  O151  1  0.78260000  0.27810000  0.97110000  1.0 -0.6109059314
O  O152  1  0.81500000  0.11870000  0.70080000  1.0 -0.5993333617
O  O153  1  0.82710000  0.61410000  0.76810000  1.0 -0.5152323404
O  O154  1  0.80700000  0.19550000  0.76970000  1.0 -0.5807888443
O  O155  1  0.82700000  0.03830000  0.73110000  1.0 -0.4830324908
O  O156  1  0.79140000  0.70990000  0.69810000  1.0 -0.8456255306
