# DDEC6 charges by PACMAN v1.1 (https://github.com/mtap-research/PACMAN-charge/)
data_EJIQAS_FSR_pacman
_symmetry_space_group_name_H-M   'P 1'
_cell_length_a   25.57570000
_cell_length_b   25.57570000
_cell_length_c   25.57570000
_cell_angle_alpha   90.00000000
_cell_angle_beta   90.00000000
_cell_angle_gamma   90.00000000
_symmetry_Int_Tables_number   1
_chemical_formula_structural   Ti4Zn5H72(C69O22)2
_chemical_formula_sum   'Ti16 Zn20 H288 C552 O176'
_cell_volume   16729.48559128
_cell_formula_units_Z   4
loop_
 _symmetry_equiv_pos_site_id
 _symmetry_equiv_pos_as_xyz
  1  'x, y, z'
loop_
 _atom_site_type_symbol
 _atom_site_label
 _atom_site_symmetry_multiplicity
 _atom_site_fract_x
 _atom_site_fract_y
 _atom_site_fract_z
 _atom_site_occupancy
 _atom_site_charge
Ti  Ti1  1  0.22476000  0.43972000  0.49440000  1.0 1.9194401382
Ti  Ti2  1  0.27524000  0.56028000  0.99440000  1.0 1.9194401382
Ti  Ti3  1  0.77524000  0.93972000  0.00560000  1.0 1.9194401382
Ti  Ti4  1  0.72476000  0.06028000  0.50560000  1.0 1.9194401382
Ti  Ti5  1  0.49440000  0.22476000  0.43972000  1.0 1.9194401382
Ti  Ti6  1  0.99440000  0.27524000  0.56028000  1.0 1.9194401382
Ti  Ti7  1  0.00560000  0.77524000  0.93972000  1.0 1.9194401382
Ti  Ti8  1  0.50560000  0.72476000  0.06028000  1.0 1.9194401382
Ti  Ti9  1  0.43972000  0.49440000  0.22476000  1.0 1.9194401382
Ti  Ti10  1  0.56028000  0.99440000  0.27524000  1.0 1.9194401382
Ti  Ti11  1  0.93972000  0.00560000  0.77524000  1.0 1.9194401382
Ti  Ti12  1  0.06028000  0.50560000  0.72476000  1.0 1.9194401382
Ti  Ti13  1  0.55007000  0.55007000  0.55007000  1.0 1.8818659961
Ti  Ti14  1  0.94993000  0.44993000  0.05007000  1.0 1.8818659961
Ti  Ti15  1  0.44993000  0.05007000  0.94993000  1.0 1.8818659961
Ti  Ti16  1  0.05007000  0.94993000  0.44993000  1.0 1.8818659961
Zn  Zn1  1  0.54985000  0.10214000  0.57929000  1.0 1.0892289062
Zn  Zn2  1  0.95015000  0.89786000  0.07929000  1.0 1.0892289062
Zn  Zn3  1  0.45015000  0.60214000  0.92071000  1.0 1.0892289062
Zn  Zn4  1  0.04985000  0.39786000  0.42071000  1.0 1.0892289062
Zn  Zn5  1  0.57929000  0.54985000  0.10214000  1.0 1.0892289062
Zn  Zn6  1  0.07929000  0.95015000  0.89786000  1.0 1.0892289062
Zn  Zn7  1  0.92071000  0.45015000  0.60214000  1.0 1.0892289062
Zn  Zn8  1  0.42071000  0.04985000  0.39786000  1.0 1.0892289062
Zn  Zn9  1  0.10214000  0.57929000  0.54985000  1.0 1.0892289062
Zn  Zn10  1  0.89786000  0.07929000  0.95015000  1.0 1.0892289062
Zn  Zn11  1  0.60214000  0.92071000  0.45015000  1.0 1.0892289062
Zn  Zn12  1  0.39786000  0.42071000  0.04985000  1.0 1.0892289062
Zn  Zn13  1  0.11938000  0.38062000  0.61938000  1.0 0.9825338601
Zn  Zn14  1  0.38062000  0.61938000  0.11938000  1.0 0.9825338601
Zn  Zn15  1  0.88062000  0.88062000  0.88062000  1.0 0.9825338601
Zn  Zn16  1  0.61938000  0.11938000  0.38062000  1.0 0.9825338601
Zn  Zn17  1  0.50270000  0.00270000  0.49730000  1.0 1.4658815741
Zn  Zn18  1  0.99730000  0.99730000  0.99730000  1.0 1.4658815741
Zn  Zn19  1  0.49730000  0.50270000  0.00270000  1.0 1.4640375256
Zn  Zn20  1  0.00270000  0.49730000  0.50270000  1.0 1.4658815741
H  H1  1  0.36569000  0.30615000  0.44967000  1.0 0.1386772627
H  H2  1  0.33935000  0.34021000  0.49319000  1.0 0.1386772627
H  H3  1  0.15075000  0.26591000  0.40954000  1.0 0.1296337862
H  H4  1  0.28396000  0.56875000  0.54408000  1.0 0.1296337862
H  H5  1  0.35818000  0.51213000  0.51579000  1.0 0.1386772627
H  H6  1  0.40920000  0.49866000  0.54682000  1.0 0.1386772627
H  H7  1  0.43454000  0.52648000  0.63257000  1.0 0.123537144
H  H8  1  0.28022000  0.32329000  0.56069000  1.0 0.1296337862
H  H9  1  0.25584000  0.44605000  0.69961000  1.0 0.123537144
H  H10  1  0.35010000  0.21940000  0.42080000  1.0 0.1296337862
H  H11  1  0.22262000  0.63210000  0.55195000  1.0 0.1296337862
H  H12  1  0.39577000  0.16073000  0.61252000  1.0 0.1386772627
H  H13  1  0.24562000  0.12527000  0.35510000  1.0 0.123537144
H  H14  1  0.25757000  0.23967000  0.69385000  1.0 0.1142974177
H  H15  1  0.24033000  0.31214000  0.63953000  1.0 0.1296337862
H  H16  1  0.18095000  0.18269000  0.36883000  1.0 0.1296337862
H  H17  1  0.33292000  0.14722000  0.36908000  1.0 0.123537144
H  H18  1  0.32274000  0.47081000  0.76505000  1.0 0.1142974177
H  H19  1  0.33020000  0.74189000  0.56886000  1.0 0.1296337862
H  H20  1  0.32409000  0.18258000  0.66841000  1.0 0.123537144
H  H21  1  0.46133000  0.52721000  0.71965000  1.0 0.1296337862
H  H22  1  0.24597000  0.71868000  0.56618000  1.0 0.1296337862
H  H23  1  0.42320000  0.71697000  0.56768000  1.0 0.1296337862
H  H24  1  0.40493000  0.50072000  0.78433000  1.0 0.1296337862
H  H25  1  0.13431000  0.69385000  0.94967000  1.0 0.1386772627
H  H26  1  0.16065000  0.65979000  0.99319000  1.0 0.1386772627
H  H27  1  0.34925000  0.73409000  0.90954000  1.0 0.1296337862
H  H28  1  0.21604000  0.43125000  0.04408000  1.0 0.1296337862
H  H29  1  0.14182000  0.48787000  0.01579000  1.0 0.1386772627
H  H30  1  0.09080000  0.50134000  0.04682000  1.0 0.1386772627
H  H31  1  0.06546000  0.47352000  0.13257000  1.0 0.123537144
H  H32  1  0.21978000  0.67671000  0.06069000  1.0 0.1296337862
H  H33  1  0.24416000  0.55395000  0.19961000  1.0 0.123537144
H  H34  1  0.14990000  0.78060000  0.92080000  1.0 0.1296337862
H  H35  1  0.27738000  0.36790000  0.05195000  1.0 0.1296337862
H  H36  1  0.10423000  0.83927000  0.11252000  1.0 0.1386772627
H  H37  1  0.25438000  0.87473000  0.85510000  1.0 0.123537144
H  H38  1  0.24243000  0.76033000  0.19385000  1.0 0.1142974177
H  H39  1  0.25967000  0.68786000  0.13953000  1.0 0.1296337862
H  H40  1  0.31905000  0.81731000  0.86883000  1.0 0.1296337862
H  H41  1  0.16708000  0.85278000  0.86908000  1.0 0.123537144
H  H42  1  0.17726000  0.52919000  0.26505000  1.0 0.1142974177
H  H43  1  0.16980000  0.25811000  0.06886000  1.0 0.1296337862
H  H44  1  0.17591000  0.81742000  0.16841000  1.0 0.123537144
H  H45  1  0.03867000  0.47279000  0.21965000  1.0 0.1296337862
H  H46  1  0.25403000  0.28132000  0.06618000  1.0 0.1296337862
H  H47  1  0.07680000  0.28303000  0.06768000  1.0 0.1296337862
H  H48  1  0.09507000  0.49928000  0.28433000  1.0 0.1296337862
H  H49  1  0.63431000  0.80615000  0.05033000  1.0 0.1386772627
H  H50  1  0.66065000  0.84021000  0.00681000  1.0 0.1386772627
H  H51  1  0.84925000  0.76591000  0.09046000  1.0 0.1296337862
H  H52  1  0.71604000  0.06875000  0.95592000  1.0 0.1296337862
H  H53  1  0.64182000  0.01213000  0.98421000  1.0 0.1386772627
H  H54  1  0.59080000  0.99866000  0.95318000  1.0 0.1386772627
H  H55  1  0.56546000  0.02648000  0.86743000  1.0 0.123537144
H  H56  1  0.71978000  0.82329000  0.93931000  1.0 0.1296337862
H  H57  1  0.74416000  0.94605000  0.80039000  1.0 0.123537144
H  H58  1  0.64990000  0.71940000  0.07920000  1.0 0.1296337862
H  H59  1  0.77738000  0.13210000  0.94805000  1.0 0.1296337862
H  H60  1  0.60423000  0.66073000  0.88748000  1.0 0.1386772627
H  H61  1  0.75438000  0.62527000  0.14490000  1.0 0.123537144
H  H62  1  0.74243000  0.73967000  0.80615000  1.0 0.1142974177
H  H63  1  0.75967000  0.81214000  0.86047000  1.0 0.1296337862
H  H64  1  0.81905000  0.68269000  0.13117000  1.0 0.1296337862
H  H65  1  0.66708000  0.64722000  0.13092000  1.0 0.123537144
H  H66  1  0.67726000  0.97081000  0.73495000  1.0 0.1142974177
H  H67  1  0.66980000  0.24189000  0.93114000  1.0 0.123537144
H  H68  1  0.67591000  0.68258000  0.83159000  1.0 0.123537144
H  H69  1  0.53867000  0.02721000  0.78035000  1.0 0.1296337862
H  H70  1  0.75403000  0.21868000  0.93382000  1.0 0.1296337862
H  H71  1  0.57680000  0.21697000  0.93232000  1.0 0.1296337862
H  H72  1  0.59507000  0.00072000  0.71567000  1.0 0.1296337862
H  H73  1  0.86569000  0.19385000  0.55033000  1.0 0.1386772627
H  H74  1  0.83935000  0.15979000  0.50681000  1.0 0.1386772627
H  H75  1  0.65075000  0.23409000  0.59046000  1.0 0.1296337862
H  H76  1  0.78396000  0.93125000  0.45592000  1.0 0.1296337862
H  H77  1  0.85818000  0.98787000  0.48421000  1.0 0.1386772627
H  H78  1  0.90920000  0.00134000  0.45318000  1.0 0.1386772627
H  H79  1  0.93454000  0.97352000  0.36743000  1.0 0.123537144
H  H80  1  0.78022000  0.17671000  0.43931000  1.0 0.1296337862
H  H81  1  0.75584000  0.05395000  0.30039000  1.0 0.123537144
H  H82  1  0.85010000  0.28060000  0.57920000  1.0 0.1296337862
H  H83  1  0.72262000  0.86790000  0.44805000  1.0 0.1296337862
H  H84  1  0.89577000  0.33927000  0.38748000  1.0 0.1386772627
H  H85  1  0.74562000  0.37473000  0.64490000  1.0 0.123537144
H  H86  1  0.75757000  0.26033000  0.30615000  1.0 0.1142974177
H  H87  1  0.74033000  0.18786000  0.36047000  1.0 0.1296337862
H  H88  1  0.68095000  0.31731000  0.63117000  1.0 0.1296337862
H  H89  1  0.83292000  0.35278000  0.63092000  1.0 0.123537144
H  H90  1  0.82274000  0.02919000  0.23495000  1.0 0.1142974177
H  H91  1  0.83020000  0.75811000  0.43114000  1.0 0.123537144
H  H92  1  0.82409000  0.31742000  0.33159000  1.0 0.123537144
H  H93  1  0.96133000  0.97279000  0.28035000  1.0 0.1296337862
H  H94  1  0.74597000  0.78132000  0.43382000  1.0 0.1296337862
H  H95  1  0.92320000  0.78303000  0.43232000  1.0 0.1296337862
H  H96  1  0.90493000  0.99928000  0.21567000  1.0 0.1296337862
H  H97  1  0.44967000  0.36569000  0.30615000  1.0 0.1386772627
H  H98  1  0.49319000  0.33935000  0.34021000  1.0 0.1386772627
H  H99  1  0.40954000  0.15075000  0.26591000  1.0 0.1296337862
H  H100  1  0.54408000  0.28396000  0.56875000  1.0 0.1296337862
H  H101  1  0.51579000  0.35818000  0.51213000  1.0 0.1386772627
H  H102  1  0.54682000  0.40920000  0.49866000  1.0 0.1386772627
H  H103  1  0.63257000  0.43454000  0.52648000  1.0 0.123537144
H  H104  1  0.56069000  0.28022000  0.32329000  1.0 0.1296337862
H  H105  1  0.69961000  0.25584000  0.44605000  1.0 0.123537144
H  H106  1  0.42080000  0.35010000  0.21940000  1.0 0.1296337862
H  H107  1  0.55195000  0.22262000  0.63210000  1.0 0.1296337862
H  H108  1  0.61252000  0.39577000  0.16073000  1.0 0.1386772627
H  H109  1  0.35510000  0.24562000  0.12527000  1.0 0.123537144
H  H110  1  0.69385000  0.25757000  0.23967000  1.0 0.1142974177
H  H111  1  0.63953000  0.24033000  0.31214000  1.0 0.1296337862
H  H112  1  0.36883000  0.18095000  0.18269000  1.0 0.1296337862
H  H113  1  0.36908000  0.33292000  0.14722000  1.0 0.123537144
H  H114  1  0.76505000  0.32274000  0.47081000  1.0 0.1142974177
H  H115  1  0.56886000  0.33020000  0.74189000  1.0 0.123537144
H  H116  1  0.66841000  0.32409000  0.18258000  1.0 0.123537144
H  H117  1  0.71965000  0.46133000  0.52721000  1.0 0.1296337862
H  H118  1  0.56618000  0.24597000  0.71868000  1.0 0.1296337862
H  H119  1  0.56768000  0.42320000  0.71697000  1.0 0.1296337862
H  H120  1  0.78433000  0.40493000  0.50072000  1.0 0.1296337862
H  H121  1  0.94967000  0.13431000  0.69385000  1.0 0.1386772627
H  H122  1  0.99319000  0.16065000  0.65979000  1.0 0.1386772627
H  H123  1  0.90954000  0.34925000  0.73409000  1.0 0.1296337862
H  H124  1  0.04408000  0.21604000  0.43125000  1.0 0.1296337862
H  H125  1  0.01579000  0.14182000  0.48787000  1.0 0.1386772627
H  H126  1  0.04682000  0.09080000  0.50134000  1.0 0.1386772627
H  H127  1  0.13257000  0.06546000  0.47352000  1.0 0.123537144
H  H128  1  0.06069000  0.21978000  0.67671000  1.0 0.1296337862
H  H129  1  0.19961000  0.24416000  0.55395000  1.0 0.123537144
H  H130  1  0.92080000  0.14990000  0.78060000  1.0 0.1296337862
H  H131  1  0.05195000  0.27738000  0.36790000  1.0 0.1296337862
H  H132  1  0.11252000  0.10423000  0.83927000  1.0 0.1386772627
H  H133  1  0.85510000  0.25438000  0.87473000  1.0 0.123537144
H  H134  1  0.19385000  0.24243000  0.76033000  1.0 0.1142974177
H  H135  1  0.13953000  0.25967000  0.68786000  1.0 0.1296337862
H  H136  1  0.86883000  0.31905000  0.81731000  1.0 0.1296337862
H  H137  1  0.86908000  0.16708000  0.85278000  1.0 0.123537144
H  H138  1  0.26505000  0.17726000  0.52919000  1.0 0.1142974177
H  H139  1  0.06886000  0.16980000  0.25811000  1.0 0.1296337862
H  H140  1  0.16841000  0.17591000  0.81742000  1.0 0.123537144
H  H141  1  0.21965000  0.03867000  0.47279000  1.0 0.1296337862
H  H142  1  0.06618000  0.25403000  0.28132000  1.0 0.1296337862
H  H143  1  0.06768000  0.07680000  0.28303000  1.0 0.1296337862
H  H144  1  0.28433000  0.09507000  0.49928000  1.0 0.1296337862
H  H145  1  0.05033000  0.63431000  0.80615000  1.0 0.1386772627
H  H146  1  0.00681000  0.66065000  0.84021000  1.0 0.1386772627
H  H147  1  0.09046000  0.84925000  0.76591000  1.0 0.1296337862
H  H148  1  0.95592000  0.71604000  0.06875000  1.0 0.1296337862
H  H149  1  0.98421000  0.64182000  0.01213000  1.0 0.1386772627
H  H150  1  0.95318000  0.59080000  0.99866000  1.0 0.1386772627
H  H151  1  0.86743000  0.56546000  0.02648000  1.0 0.123537144
H  H152  1  0.93931000  0.71978000  0.82329000  1.0 0.1296337862
H  H153  1  0.80039000  0.74416000  0.94605000  1.0 0.123537144
H  H154  1  0.07920000  0.64990000  0.71940000  1.0 0.1296337862
H  H155  1  0.94805000  0.77738000  0.13210000  1.0 0.1296337862
H  H156  1  0.88748000  0.60423000  0.66073000  1.0 0.1386772627
H  H157  1  0.14490000  0.75438000  0.62527000  1.0 0.123537144
H  H158  1  0.80615000  0.74243000  0.73967000  1.0 0.1142974177
H  H159  1  0.86047000  0.75967000  0.81214000  1.0 0.1296337862
H  H160  1  0.13117000  0.81905000  0.68269000  1.0 0.1296337862
H  H161  1  0.13092000  0.66708000  0.64722000  1.0 0.123537144
H  H162  1  0.73495000  0.67726000  0.97081000  1.0 0.1142974177
H  H163  1  0.93114000  0.66980000  0.24189000  1.0 0.123537144
H  H164  1  0.83159000  0.67591000  0.68258000  1.0 0.123537144
H  H165  1  0.78035000  0.53867000  0.02721000  1.0 0.1296337862
H  H166  1  0.93382000  0.75403000  0.21868000  1.0 0.1296337862
H  H167  1  0.93232000  0.57680000  0.21697000  1.0 0.1296337862
H  H168  1  0.71567000  0.59507000  0.00072000  1.0 0.1296337862
H  H169  1  0.55033000  0.86569000  0.19385000  1.0 0.1386772627
H  H170  1  0.50681000  0.83935000  0.15979000  1.0 0.1386772627
H  H171  1  0.59046000  0.65075000  0.23409000  1.0 0.1296337862
H  H172  1  0.45592000  0.78396000  0.93125000  1.0 0.1296337862
H  H173  1  0.48421000  0.85818000  0.98787000  1.0 0.1386772627
H  H174  1  0.45318000  0.90920000  0.00134000  1.0 0.1386772627
H  H175  1  0.36743000  0.93454000  0.97352000  1.0 0.123537144
H  H176  1  0.43931000  0.78022000  0.17671000  1.0 0.1296337862
H  H177  1  0.30039000  0.75584000  0.05395000  1.0 0.123537144
H  H178  1  0.57920000  0.85010000  0.28060000  1.0 0.1296337862
H  H179  1  0.44805000  0.72262000  0.86790000  1.0 0.1296337862
H  H180  1  0.38748000  0.89577000  0.33927000  1.0 0.1386772627
H  H181  1  0.64490000  0.74562000  0.37473000  1.0 0.123537144
H  H182  1  0.30615000  0.75757000  0.26033000  1.0 0.1142974177
H  H183  1  0.36047000  0.74033000  0.18786000  1.0 0.1296337862
H  H184  1  0.63117000  0.68095000  0.31731000  1.0 0.1296337862
H  H185  1  0.63092000  0.83292000  0.35278000  1.0 0.123537144
H  H186  1  0.23495000  0.82274000  0.02919000  1.0 0.1142974177
H  H187  1  0.43114000  0.83020000  0.75811000  1.0 0.123537144
H  H188  1  0.33159000  0.82409000  0.31742000  1.0 0.123537144
H  H189  1  0.28035000  0.96133000  0.97279000  1.0 0.1296337862
H  H190  1  0.43382000  0.74597000  0.78132000  1.0 0.1296337862
H  H191  1  0.43232000  0.92320000  0.78303000  1.0 0.1296337862
H  H192  1  0.21567000  0.90493000  0.99928000  1.0 0.1296337862
H  H193  1  0.30615000  0.44967000  0.36569000  1.0 0.1386772627
H  H194  1  0.34021000  0.49319000  0.33935000  1.0 0.1386772627
H  H195  1  0.26591000  0.40954000  0.15075000  1.0 0.1296337862
H  H196  1  0.56875000  0.54408000  0.28396000  1.0 0.1296337862
H  H197  1  0.51213000  0.51579000  0.35818000  1.0 0.1386772627
H  H198  1  0.49866000  0.54682000  0.40920000  1.0 0.1386772627
H  H199  1  0.52648000  0.63257000  0.43454000  1.0 0.123537144
H  H200  1  0.32329000  0.56069000  0.28022000  1.0 0.1296337862
H  H201  1  0.44605000  0.69961000  0.25584000  1.0 0.123537144
H  H202  1  0.21940000  0.42080000  0.35010000  1.0 0.1296337862
H  H203  1  0.63210000  0.55195000  0.22262000  1.0 0.1296337862
H  H204  1  0.16073000  0.61252000  0.39577000  1.0 0.1386772627
H  H205  1  0.12527000  0.35510000  0.24562000  1.0 0.123537144
H  H206  1  0.23967000  0.69385000  0.25757000  1.0 0.1142974177
H  H207  1  0.31214000  0.63953000  0.24033000  1.0 0.1296337862
H  H208  1  0.18269000  0.36883000  0.18095000  1.0 0.1296337862
H  H209  1  0.14722000  0.36908000  0.33292000  1.0 0.123537144
H  H210  1  0.47081000  0.76505000  0.32274000  1.0 0.1142974177
H  H211  1  0.74189000  0.56886000  0.33020000  1.0 0.123537144
H  H212  1  0.18258000  0.66841000  0.32409000  1.0 0.123537144
H  H213  1  0.52721000  0.71965000  0.46133000  1.0 0.1296337862
H  H214  1  0.71868000  0.56618000  0.24597000  1.0 0.1296337862
H  H215  1  0.71697000  0.56768000  0.42320000  1.0 0.1296337862
H  H216  1  0.50072000  0.78433000  0.40493000  1.0 0.1296337862
H  H217  1  0.69385000  0.94967000  0.13431000  1.0 0.1386772627
H  H218  1  0.65979000  0.99319000  0.16065000  1.0 0.1386772627
H  H219  1  0.73409000  0.90954000  0.34925000  1.0 0.1296337862
H  H220  1  0.43125000  0.04408000  0.21604000  1.0 0.1296337862
H  H221  1  0.48787000  0.01579000  0.14182000  1.0 0.1386772627
H  H222  1  0.50134000  0.04682000  0.09080000  1.0 0.1386772627
H  H223  1  0.47352000  0.13257000  0.06546000  1.0 0.123537144
H  H224  1  0.67671000  0.06069000  0.21978000  1.0 0.1296337862
H  H225  1  0.55395000  0.19961000  0.24416000  1.0 0.123537144
H  H226  1  0.78060000  0.92080000  0.14990000  1.0 0.1296337862
H  H227  1  0.36790000  0.05195000  0.27738000  1.0 0.1296337862
H  H228  1  0.83927000  0.11252000  0.10423000  1.0 0.1386772627
H  H229  1  0.87473000  0.85510000  0.25438000  1.0 0.123537144
H  H230  1  0.76033000  0.19385000  0.24243000  1.0 0.1142974177
H  H231  1  0.68786000  0.13953000  0.25967000  1.0 0.1296337862
H  H232  1  0.81731000  0.86883000  0.31905000  1.0 0.1296337862
H  H233  1  0.85278000  0.86908000  0.16708000  1.0 0.123537144
H  H234  1  0.52919000  0.26505000  0.17726000  1.0 0.1142974177
H  H235  1  0.25811000  0.06886000  0.16980000  1.0 0.1296337862
H  H236  1  0.81742000  0.16841000  0.17591000  1.0 0.123537144
H  H237  1  0.47279000  0.21965000  0.03867000  1.0 0.1296337862
H  H238  1  0.28132000  0.06618000  0.25403000  1.0 0.1296337862
H  H239  1  0.28303000  0.06768000  0.07680000  1.0 0.1296337862
H  H240  1  0.49928000  0.28433000  0.09507000  1.0 0.1296337862
H  H241  1  0.80615000  0.05033000  0.63431000  1.0 0.1386772627
H  H242  1  0.84021000  0.00681000  0.66065000  1.0 0.1386772627
H  H243  1  0.76591000  0.09046000  0.84925000  1.0 0.1296337862
H  H244  1  0.06875000  0.95592000  0.71604000  1.0 0.1296337862
H  H245  1  0.01213000  0.98421000  0.64182000  1.0 0.1386772627
H  H246  1  0.99866000  0.95318000  0.59080000  1.0 0.1386772627
H  H247  1  0.02648000  0.86743000  0.56546000  1.0 0.123537144
H  H248  1  0.82329000  0.93931000  0.71978000  1.0 0.1296337862
H  H249  1  0.94605000  0.80039000  0.74416000  1.0 0.123537144
H  H250  1  0.71940000  0.07920000  0.64990000  1.0 0.1296337862
H  H251  1  0.13210000  0.94805000  0.77738000  1.0 0.1296337862
H  H252  1  0.66073000  0.88748000  0.60423000  1.0 0.1386772627
H  H253  1  0.62527000  0.14490000  0.75438000  1.0 0.123537144
H  H254  1  0.73967000  0.80615000  0.74243000  1.0 0.1142974177
H  H255  1  0.81214000  0.86047000  0.75967000  1.0 0.1296337862
H  H256  1  0.68269000  0.13117000  0.81905000  1.0 0.1296337862
H  H257  1  0.64722000  0.13092000  0.66708000  1.0 0.123537144
H  H258  1  0.97081000  0.73495000  0.67726000  1.0 0.1142974177
H  H259  1  0.24189000  0.93114000  0.66980000  1.0 0.1296337862
H  H260  1  0.68258000  0.83159000  0.67591000  1.0 0.123537144
H  H261  1  0.02721000  0.78035000  0.53867000  1.0 0.1296337862
H  H262  1  0.21868000  0.93382000  0.75403000  1.0 0.1296337862
H  H263  1  0.21697000  0.93232000  0.57680000  1.0 0.1296337862
H  H264  1  0.00072000  0.71567000  0.59507000  1.0 0.1296337862
H  H265  1  0.19385000  0.55033000  0.86569000  1.0 0.1386772627
H  H266  1  0.15979000  0.50681000  0.83935000  1.0 0.1386772627
H  H267  1  0.23409000  0.59046000  0.65075000  1.0 0.1296337862
H  H268  1  0.93125000  0.45592000  0.78396000  1.0 0.1296337862
H  H269  1  0.98787000  0.48421000  0.85818000  1.0 0.1386772627
H  H270  1  0.00134000  0.45318000  0.90920000  1.0 0.1386772627
H  H271  1  0.97352000  0.36743000  0.93454000  1.0 0.123537144
H  H272  1  0.17671000  0.43931000  0.78022000  1.0 0.1296337862
H  H273  1  0.05395000  0.30039000  0.75584000  1.0 0.123537144
H  H274  1  0.28060000  0.57920000  0.85010000  1.0 0.1296337862
H  H275  1  0.86790000  0.44805000  0.72262000  1.0 0.1296337862
H  H276  1  0.33927000  0.38748000  0.89577000  1.0 0.1386772627
H  H277  1  0.37473000  0.64490000  0.74562000  1.0 0.123537144
H  H278  1  0.26033000  0.30615000  0.75757000  1.0 0.1142974177
H  H279  1  0.18786000  0.36047000  0.74033000  1.0 0.1296337862
H  H280  1  0.31731000  0.63117000  0.68095000  1.0 0.1296337862
H  H281  1  0.35278000  0.63092000  0.83292000  1.0 0.123537144
H  H282  1  0.02919000  0.23495000  0.82274000  1.0 0.1142974177
H  H283  1  0.75811000  0.43114000  0.83020000  1.0 0.123537144
H  H284  1  0.31742000  0.33159000  0.82409000  1.0 0.123537144
H  H285  1  0.97279000  0.28035000  0.96133000  1.0 0.1296337862
H  H286  1  0.78132000  0.43382000  0.74597000  1.0 0.1296337862
H  H287  1  0.78303000  0.43232000  0.92320000  1.0 0.1296337862
H  H288  1  0.99928000  0.21567000  0.90493000  1.0 0.1296337862
C  C1  1  0.24630000  0.33060000  0.46150000  1.0 0.2717211897
C  C2  1  0.36060000  0.49780000  0.64570000  1.0 0.0337879855
C  C3  1  0.35750000  0.26650000  0.51880000  1.0 -0.0290593022
C  C4  1  0.40230000  0.23660000  0.50980000  1.0 0.2717211897
C  C5  1  0.26270000  0.45500000  0.62220000  1.0 -0.1475699813
C  C6  1  0.33120000  0.26050000  0.56710000  1.0 0.0485343836
C  C7  1  0.28660000  0.29420000  0.45420000  1.0 -0.0201727599
C  C8  1  0.34000000  0.30560000  0.47760000  1.0 -0.2420879241
C  C9  1  0.19490000  0.31920000  0.44260000  1.0 -0.1372297874
C  C10  1  0.44090000  0.59100000  0.55570000  1.0 0.245922495
C  C11  1  0.18500000  0.27380000  0.41900000  1.0 -0.1091201882
C  C12  1  0.21160000  0.43020000  0.61200000  1.0 0.6136465772
C  C13  1  0.34380000  0.49630000  0.59290000  1.0 -0.0051946704
C  C14  1  0.29440000  0.60300000  0.55020000  1.0 -0.1219133327
C  C15  1  0.22500000  0.23730000  0.40800000  1.0 0.0569295669
C  C16  1  0.37660000  0.51800000  0.54840000  1.0 -0.2454190076
C  C17  1  0.15080000  0.35720000  0.44820000  1.0 0.6212311714
C  C18  1  0.34510000  0.21990000  0.60220000  1.0 0.0485343836
C  C19  1  0.41180000  0.51540000  0.65870000  1.0 -0.1219133327
C  C20  1  0.27600000  0.24800000  0.42410000  1.0 0.0427016757
C  C21  1  0.38900000  0.57600000  0.55330000  1.0 -0.0201727599
C  C22  1  0.46770000  0.16590000  0.53940000  1.0 0.6276541232
C  C23  1  0.29000000  0.29580000  0.58230000  1.0 -0.1297108634
C  C24  1  0.29520000  0.47420000  0.58180000  1.0 0.2446802437
C  C25  1  0.32860000  0.47970000  0.68540000  1.0 0.0569295669
C  C26  1  0.27780000  0.45790000  0.67310000  1.0 -0.1219133327
C  C27  1  0.41850000  0.19650000  0.54730000  1.0 -0.1297108634
C  C28  1  0.31600000  0.21270000  0.41010000  1.0 -0.1219133327
C  C29  1  0.25780000  0.64100000  0.55440000  1.0 -0.0720263016
C  C30  1  0.36370000  0.66770000  0.56070000  1.0 0.0569295669
C  C31  1  0.34950000  0.61460000  0.55510000  1.0 0.0485343836
C  C32  1  0.45510000  0.64470000  0.55900000  1.0 -0.1091201882
C  C33  1  0.38780000  0.18840000  0.59030000  1.0 -0.1297108634
C  C34  1  0.25360000  0.15740000  0.37010000  1.0 -0.0720263016
C  C35  1  0.27630000  0.24500000  0.66310000  1.0 -0.1091201882
C  C36  1  0.26550000  0.28800000  0.62920000  1.0 -0.0720263016
C  C37  1  0.21470000  0.19030000  0.38000000  1.0 -0.1297108634
C  C38  1  0.30600000  0.16860000  0.38100000  1.0 -0.0596088291
C  C39  1  0.34500000  0.48160000  0.73840000  1.0 -0.1372297874
C  C40  1  0.32150000  0.70680000  0.56470000  1.0 -0.1297108634
C  C41  1  0.31630000  0.21150000  0.64770000  1.0 -0.1297108634
C  C42  1  0.42790000  0.51590000  0.71100000  1.0 -0.0596088291
C  C43  1  0.27180000  0.69340000  0.56240000  1.0 -0.0904439808
C  C44  1  0.51170000  0.66250000  0.56590000  1.0 0.6136465772
C  C45  1  0.41470000  0.68190000  0.56320000  1.0 -0.1475699813
C  C46  1  0.39410000  0.49950000  0.74970000  1.0 -0.0596088291
C  C47  1  0.25370000  0.66940000  0.96150000  1.0 0.2717211897
C  C48  1  0.13940000  0.50220000  0.14570000  1.0 0.0337879855
C  C49  1  0.14250000  0.73350000  0.01880000  1.0 -0.0290593022
C  C50  1  0.09770000  0.76340000  0.00980000  1.0 0.2717211897
C  C51  1  0.23730000  0.54500000  0.12220000  1.0 -0.1475699813
C  C52  1  0.16880000  0.73950000  0.06710000  1.0 0.0485343836
C  C53  1  0.21340000  0.70580000  0.95420000  1.0 -0.0201727599
C  C54  1  0.16000000  0.69440000  0.97760000  1.0 -0.2420879241
C  C55  1  0.30510000  0.68080000  0.94260000  1.0 -0.1372297874
C  C56  1  0.05910000  0.40900000  0.05570000  1.0 0.245922495
C  C57  1  0.31500000  0.72620000  0.91900000  1.0 -0.1091201882
C  C58  1  0.28840000  0.56980000  0.11200000  1.0 0.6136465772
C  C59  1  0.15620000  0.50370000  0.09290000  1.0 -0.0048705161
C  C60  1  0.20560000  0.39700000  0.05020000  1.0 -0.1219133327
C  C61  1  0.27500000  0.76270000  0.90800000  1.0 0.0569295669
C  C62  1  0.12340000  0.48200000  0.04840000  1.0 -0.2454190076
C  C63  1  0.34920000  0.64280000  0.94820000  1.0 0.6212311714
C  C64  1  0.15490000  0.78010000  0.10220000  1.0 0.0485343836
C  C65  1  0.08820000  0.48460000  0.15870000  1.0 -0.1219133327
C  C66  1  0.22400000  0.75200000  0.92410000  1.0 0.0427016757
C  C67  1  0.11100000  0.42400000  0.05330000  1.0 -0.0201727599
C  C68  1  0.03230000  0.83410000  0.03940000  1.0 0.6276541232
C  C69  1  0.21000000  0.70420000  0.08230000  1.0 -0.1297108634
C  C70  1  0.20480000  0.52580000  0.08180000  1.0 0.2446802437
C  C71  1  0.17140000  0.52030000  0.18540000  1.0 0.0569295669
C  C72  1  0.22220000  0.54210000  0.17310000  1.0 -0.1219133327
C  C73  1  0.08150000  0.80350000  0.04730000  1.0 -0.1297108634
C  C74  1  0.18400000  0.78730000  0.91010000  1.0 -0.1219133327
C  C75  1  0.24220000  0.35900000  0.05440000  1.0 -0.0720263016
C  C76  1  0.13630000  0.33230000  0.06070000  1.0 0.0569295669
C  C77  1  0.15050000  0.38540000  0.05510000  1.0 0.0485343836
C  C78  1  0.04490000  0.35530000  0.05900000  1.0 -0.1091201882
C  C79  1  0.11220000  0.81160000  0.09030000  1.0 -0.1297108634
C  C80  1  0.24640000  0.84260000  0.87010000  1.0 -0.0720263016
C  C81  1  0.22370000  0.75500000  0.16310000  1.0 -0.1091201882
C  C82  1  0.23450000  0.71200000  0.12920000  1.0 -0.0720263016
C  C83  1  0.28530000  0.80970000  0.88000000  1.0 -0.1297108634
C  C84  1  0.19400000  0.83140000  0.88100000  1.0 -0.0596088291
C  C85  1  0.15500000  0.51840000  0.23840000  1.0 -0.1372297874
C  C86  1  0.17850000  0.29320000  0.06470000  1.0 -0.1297108634
C  C87  1  0.18370000  0.78850000  0.14770000  1.0 -0.1297108634
C  C88  1  0.07210000  0.48410000  0.21100000  1.0 -0.0596088291
C  C89  1  0.22820000  0.30660000  0.06240000  1.0 -0.0904439808
C  C90  1  0.98830000  0.33750000  0.06590000  1.0 0.6136465772
C  C91  1  0.08530000  0.31810000  0.06320000  1.0 -0.1475699813
C  C92  1  0.10590000  0.50050000  0.24970000  1.0 -0.0596088291
C  C93  1  0.75370000  0.83060000  0.03850000  1.0 0.2717211897
C  C94  1  0.63940000  0.99780000  0.85430000  1.0 0.0337879855
C  C95  1  0.64250000  0.76650000  0.98120000  1.0 -0.0290593022
C  C96  1  0.59770000  0.73660000  0.99020000  1.0 0.2717211897
C  C97  1  0.73730000  0.95500000  0.87780000  1.0 -0.1475699813
C  C98  1  0.66880000  0.76050000  0.93290000  1.0 0.0485343836
C  C99  1  0.71340000  0.79420000  0.04580000  1.0 -0.0201727599
C  C100  1  0.66000000  0.80560000  0.02240000  1.0 -0.2420879241
C  C101  1  0.80510000  0.81920000  0.05740000  1.0 -0.1372297874
C  C102  1  0.55910000  0.09100000  0.94430000  1.0 0.245922495
C  C103  1  0.81500000  0.77380000  0.08100000  1.0 -0.1091201882
C  C104  1  0.78840000  0.93020000  0.88800000  1.0 0.6136465772
C  C105  1  0.65620000  0.99630000  0.90710000  1.0 -0.0051946704
C  C106  1  0.70560000  0.10300000  0.94980000  1.0 -0.1219133327
C  C107  1  0.77500000  0.73730000  0.09200000  1.0 0.0569295669
C  C108  1  0.62340000  0.01800000  0.95160000  1.0 -0.2454190076
C  C109  1  0.84920000  0.85720000  0.05180000  1.0 0.6212311714
C  C110  1  0.65490000  0.71990000  0.89780000  1.0 0.0485343836
C  C111  1  0.58820000  0.01540000  0.84130000  1.0 -0.1219133327
C  C112  1  0.72400000  0.74800000  0.07590000  1.0 0.0427016757
C  C113  1  0.61100000  0.07600000  0.94670000  1.0 -0.0201727599
C  C114  1  0.53230000  0.66590000  0.96060000  1.0 0.6276541232
C  C115  1  0.71000000  0.79580000  0.91770000  1.0 -0.1297108634
C  C116  1  0.70480000  0.97420000  0.91820000  1.0 0.2446802437
C  C117  1  0.67140000  0.97970000  0.81460000  1.0 0.0569295669
C  C118  1  0.72220000  0.95790000  0.82690000  1.0 -0.1219133327
C  C119  1  0.58150000  0.69650000  0.95270000  1.0 -0.1297108634
C  C120  1  0.68400000  0.71270000  0.08990000  1.0 -0.1219133327
C  C121  1  0.74220000  0.14100000  0.94560000  1.0 -0.0720263016
C  C122  1  0.63630000  0.16770000  0.93930000  1.0 0.0569295669
C  C123  1  0.65050000  0.11460000  0.94490000  1.0 0.0485343836
C  C124  1  0.54490000  0.14470000  0.94100000  1.0 -0.1091201882
C  C125  1  0.61220000  0.68840000  0.90970000  1.0 -0.1297108634
C  C126  1  0.74640000  0.65740000  0.12990000  1.0 -0.0720263016
C  C127  1  0.72370000  0.74500000  0.83690000  1.0 -0.1091201882
C  C128  1  0.73450000  0.78800000  0.87080000  1.0 -0.0720263016
C  C129  1  0.78530000  0.69030000  0.12000000  1.0 -0.1297108634
C  C130  1  0.69400000  0.66860000  0.11900000  1.0 -0.0596088291
C  C131  1  0.65500000  0.98160000  0.76160000  1.0 -0.1372297874
C  C132  1  0.67850000  0.20680000  0.93530000  1.0 -0.1297108634
C  C133  1  0.68370000  0.71150000  0.85230000  1.0 -0.1297108634
C  C134  1  0.57210000  0.01590000  0.78900000  1.0 -0.0596088291
C  C135  1  0.72820000  0.19340000  0.93760000  1.0 -0.0904439808
C  C136  1  0.48830000  0.16250000  0.93410000  1.0 0.6136465772
C  C137  1  0.58530000  0.18190000  0.93680000  1.0 -0.1475699813
C  C138  1  0.60590000  0.99950000  0.75030000  1.0 -0.0596088291
C  C139  1  0.74630000  0.16940000  0.53850000  1.0 0.2717211897
C  C140  1  0.86060000  0.00220000  0.35430000  1.0 0.0337879855
C  C141  1  0.85750000  0.23350000  0.48120000  1.0 -0.0290593022
C  C142  1  0.90230000  0.26340000  0.49020000  1.0 0.2717211897
C  C143  1  0.76270000  0.04500000  0.37780000  1.0 -0.1475699813
C  C144  1  0.83120000  0.23950000  0.43290000  1.0 0.0485343836
C  C145  1  0.78660000  0.20580000  0.54580000  1.0 -0.0201727599
C  C146  1  0.84000000  0.19440000  0.52240000  1.0 -0.2420879241
C  C147  1  0.69490000  0.18080000  0.55740000  1.0 -0.1372297874
C  C148  1  0.94090000  0.90900000  0.44430000  1.0 0.245922495
C  C149  1  0.68500000  0.22620000  0.58100000  1.0 -0.1091201882
C  C150  1  0.71160000  0.06980000  0.38800000  1.0 0.6136465772
C  C151  1  0.84380000  0.00370000  0.40710000  1.0 -0.0051946704
C  C152  1  0.79440000  0.89700000  0.44980000  1.0 -0.1219133327
C  C153  1  0.72500000  0.26270000  0.59200000  1.0 0.0569295669
C  C154  1  0.87660000  0.98200000  0.45160000  1.0 -0.2420879241
C  C155  1  0.65080000  0.14280000  0.55180000  1.0 0.6212311714
C  C156  1  0.84510000  0.28010000  0.39780000  1.0 0.0485343836
C  C157  1  0.91180000  0.98460000  0.34130000  1.0 -0.1219133327
C  C158  1  0.77600000  0.25200000  0.57590000  1.0 0.0427016757
C  C159  1  0.88900000  0.92400000  0.44670000  1.0 -0.0201727599
C  C160  1  0.96770000  0.33410000  0.46060000  1.0 0.6276541232
C  C161  1  0.79000000  0.20420000  0.41770000  1.0 -0.1297108634
C  C162  1  0.79520000  0.02580000  0.41820000  1.0 0.2446802437
C  C163  1  0.82860000  0.02030000  0.31460000  1.0 0.0569295669
C  C164  1  0.77780000  0.04210000  0.32690000  1.0 -0.1219133327
C  C165  1  0.91850000  0.30350000  0.45270000  1.0 -0.1297108634
C  C166  1  0.81600000  0.28730000  0.58990000  1.0 -0.1219133327
C  C167  1  0.75780000  0.85900000  0.44560000  1.0 -0.0720263016
C  C168  1  0.86370000  0.83230000  0.43930000  1.0 0.0569295669
C  C169  1  0.84950000  0.88540000  0.44490000  1.0 0.0485343836
C  C170  1  0.95510000  0.85530000  0.44100000  1.0 -0.1091201882
C  C171  1  0.88780000  0.31160000  0.40970000  1.0 -0.1297108634
C  C172  1  0.75360000  0.34260000  0.62990000  1.0 -0.0720263016
C  C173  1  0.77630000  0.25500000  0.33690000  1.0 -0.1091201882
C  C174  1  0.76550000  0.21200000  0.37080000  1.0 -0.0720263016
C  C175  1  0.71470000  0.30970000  0.62000000  1.0 -0.1297108634
C  C176  1  0.80600000  0.33140000  0.61900000  1.0 -0.0596088291
C  C177  1  0.84500000  0.01840000  0.26160000  1.0 -0.1372297874
C  C178  1  0.82150000  0.79320000  0.43530000  1.0 -0.1297108634
C  C179  1  0.81630000  0.28850000  0.35230000  1.0 -0.1297108634
C  C180  1  0.92790000  0.98410000  0.28900000  1.0 -0.0596088291
C  C181  1  0.77180000  0.80660000  0.43760000  1.0 -0.0904439808
C  C182  1  0.01170000  0.83750000  0.43410000  1.0 0.6136465772
C  C183  1  0.91470000  0.81810000  0.43680000  1.0 -0.1475699813
C  C184  1  0.89410000  0.00050000  0.25030000  1.0 -0.0596088291
C  C185  1  0.46150000  0.24630000  0.33060000  1.0 0.2717211897
C  C186  1  0.64570000  0.36060000  0.49780000  1.0 0.0337879855
C  C187  1  0.51880000  0.35750000  0.26650000  1.0 -0.0290593022
C  C188  1  0.50980000  0.40230000  0.23660000  1.0 0.2717211897
C  C189  1  0.62220000  0.26270000  0.45500000  1.0 -0.1475699813
C  C190  1  0.56710000  0.33120000  0.26050000  1.0 0.0485343836
C  C191  1  0.45420000  0.28660000  0.29420000  1.0 -0.0201727599
C  C192  1  0.47760000  0.34000000  0.30560000  1.0 -0.2420879241
C  C193  1  0.44260000  0.19490000  0.31920000  1.0 -0.1372297874
C  C194  1  0.55570000  0.44090000  0.59100000  1.0 0.245922495
C  C195  1  0.41900000  0.18500000  0.27380000  1.0 -0.1091201882
C  C196  1  0.61200000  0.21160000  0.43020000  1.0 0.6136465772
C  C197  1  0.59290000  0.34380000  0.49630000  1.0 -0.0051946704
C  C198  1  0.55020000  0.29440000  0.60300000  1.0 -0.1219133327
C  C199  1  0.40800000  0.22500000  0.23730000  1.0 0.0569295669
C  C200  1  0.54840000  0.37660000  0.51800000  1.0 -0.2454190076
C  C201  1  0.44820000  0.15080000  0.35720000  1.0 0.6212311714
C  C202  1  0.60220000  0.34510000  0.21990000  1.0 0.0485343836
C  C203  1  0.65870000  0.41180000  0.51540000  1.0 -0.1219133327
C  C204  1  0.42410000  0.27600000  0.24800000  1.0 0.0427016757
C  C205  1  0.55330000  0.38900000  0.57600000  1.0 -0.0201727599
C  C206  1  0.53940000  0.46770000  0.16590000  1.0 0.6276541232
C  C207  1  0.58230000  0.29000000  0.29580000  1.0 -0.1297108634
C  C208  1  0.58180000  0.29520000  0.47420000  1.0 0.2446802437
C  C209  1  0.68540000  0.32860000  0.47970000  1.0 0.0569295669
C  C210  1  0.67310000  0.27780000  0.45790000  1.0 -0.1219133327
C  C211  1  0.54730000  0.41850000  0.19650000  1.0 -0.1297108634
C  C212  1  0.41010000  0.31600000  0.21270000  1.0 -0.1219133327
C  C213  1  0.55440000  0.25780000  0.64100000  1.0 -0.0720263016
C  C214  1  0.56070000  0.36370000  0.66770000  1.0 0.0569295669
C  C215  1  0.55510000  0.34950000  0.61460000  1.0 0.0485343836
C  C216  1  0.55900000  0.45510000  0.64470000  1.0 -0.1091201882
C  C217  1  0.59030000  0.38780000  0.18840000  1.0 -0.1297108634
C  C218  1  0.37010000  0.25360000  0.15740000  1.0 -0.0720263016
C  C219  1  0.66310000  0.27630000  0.24500000  1.0 -0.1091201882
C  C220  1  0.62920000  0.26550000  0.28800000  1.0 -0.0720263016
C  C221  1  0.38000000  0.21470000  0.19030000  1.0 -0.1297108634
C  C222  1  0.38100000  0.30600000  0.16860000  1.0 -0.0596088291
C  C223  1  0.73840000  0.34500000  0.48160000  1.0 -0.1372297874
C  C224  1  0.56470000  0.32150000  0.70680000  1.0 -0.1297108634
C  C225  1  0.64770000  0.31630000  0.21150000  1.0 -0.1297108634
C  C226  1  0.71100000  0.42790000  0.51590000  1.0 -0.0596088291
C  C227  1  0.56240000  0.27180000  0.69340000  1.0 -0.0904439808
C  C228  1  0.56590000  0.51170000  0.66250000  1.0 0.6136465772
C  C229  1  0.56320000  0.41470000  0.68190000  1.0 -0.1475699813
C  C230  1  0.74970000  0.39410000  0.49950000  1.0 -0.0596088291
C  C231  1  0.96150000  0.25370000  0.66940000  1.0 0.2717211897
C  C232  1  0.14570000  0.13940000  0.50220000  1.0 0.0337879855
C  C233  1  0.01880000  0.14250000  0.73350000  1.0 -0.0290593022
C  C234  1  0.00980000  0.09770000  0.76340000  1.0 0.2717211897
C  C235  1  0.12220000  0.23730000  0.54500000  1.0 -0.1475699813
C  C236  1  0.06710000  0.16880000  0.73950000  1.0 0.0485343836
C  C237  1  0.95420000  0.21340000  0.70580000  1.0 -0.0201727599
C  C238  1  0.97760000  0.16000000  0.69440000  1.0 -0.2420879241
C  C239  1  0.94260000  0.30510000  0.68080000  1.0 -0.1372297874
C  C240  1  0.05570000  0.05910000  0.40900000  1.0 0.245922495
C  C241  1  0.91900000  0.31500000  0.72620000  1.0 -0.1091201882
C  C242  1  0.11200000  0.28840000  0.56980000  1.0 0.6136465772
C  C243  1  0.09290000  0.15620000  0.50370000  1.0 -0.0051946704
C  C244  1  0.05020000  0.20560000  0.39700000  1.0 -0.1219133327
C  C245  1  0.90800000  0.27500000  0.76270000  1.0 0.0569295669
C  C246  1  0.04840000  0.12340000  0.48200000  1.0 -0.2454190076
C  C247  1  0.94820000  0.34920000  0.64280000  1.0 0.6212311714
C  C248  1  0.10220000  0.15490000  0.78010000  1.0 0.0485343836
C  C249  1  0.15870000  0.08820000  0.48460000  1.0 -0.1219133327
C  C250  1  0.92410000  0.22400000  0.75200000  1.0 0.0427016757
C  C251  1  0.05330000  0.11100000  0.42400000  1.0 -0.0201727599
C  C252  1  0.03940000  0.03230000  0.83410000  1.0 0.6276541232
C  C253  1  0.08230000  0.21000000  0.70420000  1.0 -0.1297108634
C  C254  1  0.08180000  0.20480000  0.52580000  1.0 0.245922495
C  C255  1  0.18540000  0.17140000  0.52030000  1.0 0.0569295669
C  C256  1  0.17310000  0.22220000  0.54210000  1.0 -0.1219133327
C  C257  1  0.04730000  0.08150000  0.80350000  1.0 -0.1297108634
C  C258  1  0.91010000  0.18400000  0.78730000  1.0 -0.1219133327
C  C259  1  0.05440000  0.24220000  0.35900000  1.0 -0.0720263016
C  C260  1  0.06070000  0.13630000  0.33230000  1.0 0.0569295669
C  C261  1  0.05510000  0.15050000  0.38540000  1.0 0.0485343836
C  C262  1  0.05900000  0.04490000  0.35530000  1.0 -0.1091201882
C  C263  1  0.09030000  0.11220000  0.81160000  1.0 -0.1297108634
C  C264  1  0.87010000  0.24640000  0.84260000  1.0 -0.0720263016
C  C265  1  0.16310000  0.22370000  0.75500000  1.0 -0.1091201882
C  C266  1  0.12920000  0.23450000  0.71200000  1.0 -0.0720263016
C  C267  1  0.88000000  0.28530000  0.80970000  1.0 -0.1297108634
C  C268  1  0.88100000  0.19400000  0.83140000  1.0 -0.0596088291
C  C269  1  0.23840000  0.15500000  0.51840000  1.0 -0.1372297874
C  C270  1  0.06470000  0.17850000  0.29320000  1.0 -0.1297108634
C  C271  1  0.14770000  0.18370000  0.78850000  1.0 -0.1297108634
C  C272  1  0.21100000  0.07210000  0.48410000  1.0 -0.0596088291
C  C273  1  0.06240000  0.22820000  0.30660000  1.0 -0.0904439808
C  C274  1  0.06590000  0.98830000  0.33750000  1.0 0.6136465772
C  C275  1  0.06320000  0.08530000  0.31810000  1.0 -0.1475699813
C  C276  1  0.24970000  0.10590000  0.50050000  1.0 -0.0596088291
C  C277  1  0.03850000  0.75370000  0.83060000  1.0 0.2717211897
C  C278  1  0.85430000  0.63940000  0.99780000  1.0 0.0337879855
C  C279  1  0.98120000  0.64250000  0.76650000  1.0 -0.0290593022
C  C280  1  0.99020000  0.59770000  0.73660000  1.0 0.2717211897
C  C281  1  0.87780000  0.73730000  0.95500000  1.0 -0.1475699813
C  C282  1  0.93290000  0.66880000  0.76050000  1.0 0.0485343836
C  C283  1  0.04580000  0.71340000  0.79420000  1.0 -0.0201727599
C  C284  1  0.02240000  0.66000000  0.80560000  1.0 -0.2420879241
C  C285  1  0.05740000  0.80510000  0.81920000  1.0 -0.1372297874
C  C286  1  0.94430000  0.55910000  0.09100000  1.0 0.245922495
C  C287  1  0.08100000  0.81500000  0.77380000  1.0 -0.1091201882
C  C288  1  0.88800000  0.78840000  0.93020000  1.0 0.6136465772
C  C289  1  0.90710000  0.65620000  0.99630000  1.0 -0.0051946704
C  C290  1  0.94980000  0.70560000  0.10300000  1.0 -0.1219133327
C  C291  1  0.09200000  0.77500000  0.73730000  1.0 0.0569295669
C  C292  1  0.95160000  0.62340000  0.01800000  1.0 -0.2454190076
C  C293  1  0.05180000  0.84920000  0.85720000  1.0 0.6212311714
C  C294  1  0.89780000  0.65490000  0.71990000  1.0 0.0485343836
C  C295  1  0.84130000  0.58820000  0.01540000  1.0 -0.1219133327
C  C296  1  0.07590000  0.72400000  0.74800000  1.0 0.0427016757
C  C297  1  0.94670000  0.61100000  0.07600000  1.0 -0.0201727599
C  C298  1  0.96060000  0.53230000  0.66590000  1.0 0.6276541232
C  C299  1  0.91770000  0.71000000  0.79580000  1.0 -0.1297108634
C  C300  1  0.91820000  0.70480000  0.97420000  1.0 0.2446802437
C  C301  1  0.81460000  0.67140000  0.97970000  1.0 0.0569295669
C  C302  1  0.82690000  0.72220000  0.95790000  1.0 -0.1219133327
C  C303  1  0.95270000  0.58150000  0.69650000  1.0 -0.1297108634
C  C304  1  0.08990000  0.68400000  0.71270000  1.0 -0.1219133327
C  C305  1  0.94560000  0.74220000  0.14100000  1.0 -0.0720263016
C  C306  1  0.93930000  0.63630000  0.16770000  1.0 0.0569295669
C  C307  1  0.94490000  0.65050000  0.11460000  1.0 0.0485343836
C  C308  1  0.94100000  0.54490000  0.14470000  1.0 -0.1091201882
C  C309  1  0.90970000  0.61220000  0.68840000  1.0 -0.1297108634
C  C310  1  0.12990000  0.74640000  0.65740000  1.0 -0.0720263016
C  C311  1  0.83690000  0.72370000  0.74500000  1.0 -0.1091201882
C  C312  1  0.87080000  0.73450000  0.78800000  1.0 -0.0720263016
C  C313  1  0.12000000  0.78530000  0.69030000  1.0 -0.1297108634
C  C314  1  0.11900000  0.69400000  0.66860000  1.0 -0.0596088291
C  C315  1  0.76160000  0.65500000  0.98160000  1.0 -0.1372297874
C  C316  1  0.93530000  0.67850000  0.20680000  1.0 -0.1297108634
C  C317  1  0.85230000  0.68370000  0.71150000  1.0 -0.1297108634
C  C318  1  0.78900000  0.57210000  0.01590000  1.0 -0.0596088291
C  C319  1  0.93760000  0.72820000  0.19340000  1.0 -0.0904439808
C  C320  1  0.93410000  0.48830000  0.16250000  1.0 0.6136465772
C  C321  1  0.93680000  0.58530000  0.18190000  1.0 -0.1475699813
C  C322  1  0.75030000  0.60590000  0.99950000  1.0 -0.0596088291
C  C323  1  0.53850000  0.74630000  0.16940000  1.0 0.2717211897
C  C324  1  0.35430000  0.86060000  0.00220000  1.0 0.0337879855
C  C325  1  0.48120000  0.85750000  0.23350000  1.0 -0.0290593022
C  C326  1  0.49020000  0.90230000  0.26340000  1.0 0.2717211897
C  C327  1  0.37780000  0.76270000  0.04500000  1.0 -0.1475699813
C  C328  1  0.43290000  0.83120000  0.23950000  1.0 0.0485343836
C  C329  1  0.54580000  0.78660000  0.20580000  1.0 -0.0201727599
C  C330  1  0.52240000  0.84000000  0.19440000  1.0 -0.2420879241
C  C331  1  0.55740000  0.69490000  0.18080000  1.0 -0.1372297874
C  C332  1  0.44430000  0.94090000  0.90900000  1.0 0.245922495
C  C333  1  0.58100000  0.68500000  0.22620000  1.0 -0.1091201882
C  C334  1  0.38800000  0.71160000  0.06980000  1.0 0.6136465772
C  C335  1  0.40710000  0.84380000  0.00370000  1.0 -0.0051946704
C  C336  1  0.44980000  0.79440000  0.89700000  1.0 -0.1219133327
C  C337  1  0.59200000  0.72500000  0.26270000  1.0 0.0569295669
C  C338  1  0.45160000  0.87660000  0.98200000  1.0 -0.2454190076
C  C339  1  0.55180000  0.65080000  0.14280000  1.0 0.6212311714
C  C340  1  0.39780000  0.84510000  0.28010000  1.0 0.0485343836
C  C341  1  0.34130000  0.91180000  0.98460000  1.0 -0.1219133327
C  C342  1  0.57590000  0.77600000  0.25200000  1.0 0.0427016757
C  C343  1  0.44670000  0.88900000  0.92400000  1.0 -0.0201727599
C  C344  1  0.46060000  0.96770000  0.33410000  1.0 0.6276541232
C  C345  1  0.41770000  0.79000000  0.20420000  1.0 -0.1297108634
C  C346  1  0.41820000  0.79520000  0.02580000  1.0 0.2446802437
C  C347  1  0.31460000  0.82860000  0.02030000  1.0 0.0569295669
C  C348  1  0.32690000  0.77780000  0.04210000  1.0 -0.1219133327
C  C349  1  0.45270000  0.91850000  0.30350000  1.0 -0.1297108634
C  C350  1  0.58990000  0.81600000  0.28730000  1.0 -0.1219133327
C  C351  1  0.44560000  0.75780000  0.85900000  1.0 -0.0720263016
C  C352  1  0.43930000  0.86370000  0.83230000  1.0 0.0569295669
C  C353  1  0.44490000  0.84950000  0.88540000  1.0 0.0485343836
C  C354  1  0.44100000  0.95510000  0.85530000  1.0 -0.1091201882
C  C355  1  0.40970000  0.88780000  0.31160000  1.0 -0.1297108634
C  C356  1  0.62990000  0.75360000  0.34260000  1.0 -0.0720263016
C  C357  1  0.33690000  0.77630000  0.25500000  1.0 -0.1091201882
C  C358  1  0.37080000  0.76550000  0.21200000  1.0 -0.0720263016
C  C359  1  0.62000000  0.71470000  0.30970000  1.0 -0.1297108634
C  C360  1  0.61900000  0.80600000  0.33140000  1.0 -0.0596088291
C  C361  1  0.26160000  0.84500000  0.01840000  1.0 -0.1372297874
C  C362  1  0.43530000  0.82150000  0.79320000  1.0 -0.1297108634
C  C363  1  0.35230000  0.81630000  0.28850000  1.0 -0.1297108634
C  C364  1  0.28900000  0.92790000  0.98410000  1.0 -0.0596088291
C  C365  1  0.43760000  0.77180000  0.80660000  1.0 -0.0904439808
C  C366  1  0.43410000  0.01170000  0.83750000  1.0 0.6136465772
C  C367  1  0.43680000  0.91470000  0.81810000  1.0 -0.1475699813
C  C368  1  0.25030000  0.89410000  0.00050000  1.0 -0.0596088291
C  C369  1  0.33060000  0.46150000  0.24630000  1.0 0.2717211897
C  C370  1  0.49780000  0.64570000  0.36060000  1.0 0.0337879855
C  C371  1  0.26650000  0.51880000  0.35750000  1.0 -0.0290593022
C  C372  1  0.23660000  0.50980000  0.40230000  1.0 0.2717211897
C  C373  1  0.45500000  0.62220000  0.26270000  1.0 -0.1475699813
C  C374  1  0.26050000  0.56710000  0.33120000  1.0 0.0485343836
C  C375  1  0.29420000  0.45420000  0.28660000  1.0 -0.0201727599
C  C376  1  0.30560000  0.47760000  0.34000000  1.0 -0.2420879241
C  C377  1  0.31920000  0.44260000  0.19490000  1.0 -0.1372297874
C  C378  1  0.59100000  0.55570000  0.44090000  1.0 0.245922495
C  C379  1  0.27380000  0.41900000  0.18500000  1.0 -0.1091201882
C  C380  1  0.43020000  0.61200000  0.21160000  1.0 0.6136465772
C  C381  1  0.49630000  0.59290000  0.34380000  1.0 -0.0051946704
C  C382  1  0.60300000  0.55020000  0.29440000  1.0 -0.1219133327
C  C383  1  0.23730000  0.40800000  0.22500000  1.0 0.0569295669
C  C384  1  0.51800000  0.54840000  0.37660000  1.0 -0.2454190076
C  C385  1  0.35720000  0.44820000  0.15080000  1.0 0.6212311714
C  C386  1  0.21990000  0.60220000  0.34510000  1.0 0.0485343836
C  C387  1  0.51540000  0.65870000  0.41180000  1.0 -0.1219133327
C  C388  1  0.24800000  0.42410000  0.27600000  1.0 0.0427016757
C  C389  1  0.57600000  0.55330000  0.38900000  1.0 -0.0201727599
C  C390  1  0.16590000  0.53940000  0.46770000  1.0 0.6276541232
C  C391  1  0.29580000  0.58230000  0.29000000  1.0 -0.1297108634
C  C392  1  0.47420000  0.58180000  0.29520000  1.0 0.2446802437
C  C393  1  0.47970000  0.68540000  0.32860000  1.0 0.0569295669
C  C394  1  0.45790000  0.67310000  0.27780000  1.0 -0.1219133327
C  C395  1  0.19650000  0.54730000  0.41850000  1.0 -0.1297108634
C  C396  1  0.21270000  0.41010000  0.31600000  1.0 -0.1219133327
C  C397  1  0.64100000  0.55440000  0.25780000  1.0 -0.0720263016
C  C398  1  0.66770000  0.56070000  0.36370000  1.0 0.0569295669
C  C399  1  0.61460000  0.55510000  0.34950000  1.0 0.0485343836
C  C400  1  0.64470000  0.55900000  0.45510000  1.0 -0.1091201882
C  C401  1  0.18840000  0.59030000  0.38780000  1.0 -0.1297108634
C  C402  1  0.15740000  0.37010000  0.25360000  1.0 -0.0720263016
C  C403  1  0.24500000  0.66310000  0.27630000  1.0 -0.1091201882
C  C404  1  0.28800000  0.62920000  0.26550000  1.0 -0.0720263016
C  C405  1  0.19030000  0.38000000  0.21470000  1.0 -0.1297108634
C  C406  1  0.16860000  0.38100000  0.30600000  1.0 -0.0596088291
C  C407  1  0.48160000  0.73840000  0.34500000  1.0 -0.1372297874
C  C408  1  0.70680000  0.56470000  0.32150000  1.0 -0.1297108634
C  C409  1  0.21150000  0.64770000  0.31630000  1.0 -0.1297108634
C  C410  1  0.51590000  0.71100000  0.42790000  1.0 -0.0596088291
C  C411  1  0.69340000  0.56240000  0.27180000  1.0 -0.0904439808
C  C412  1  0.66250000  0.56590000  0.51170000  1.0 0.6136465772
C  C413  1  0.68190000  0.56320000  0.41470000  1.0 -0.1475699813
C  C414  1  0.49950000  0.74970000  0.39410000  1.0 -0.0596088291
C  C415  1  0.66940000  0.96150000  0.25370000  1.0 0.2717211897
C  C416  1  0.50220000  0.14570000  0.13940000  1.0 0.0337879855
C  C417  1  0.73350000  0.01880000  0.14250000  1.0 -0.0290593022
C  C418  1  0.76340000  0.00980000  0.09770000  1.0 0.2717211897
C  C419  1  0.54500000  0.12220000  0.23730000  1.0 -0.1475699813
C  C420  1  0.73950000  0.06710000  0.16880000  1.0 0.0485343836
C  C421  1  0.70580000  0.95420000  0.21340000  1.0 -0.0201727599
C  C422  1  0.69440000  0.97760000  0.16000000  1.0 -0.2420879241
C  C423  1  0.68080000  0.94260000  0.30510000  1.0 -0.1372297874
C  C424  1  0.40900000  0.05570000  0.05910000  1.0 0.245922495
C  C425  1  0.72620000  0.91900000  0.31500000  1.0 -0.1091201882
C  C426  1  0.56980000  0.11200000  0.28840000  1.0 0.6136465772
C  C427  1  0.50370000  0.09290000  0.15620000  1.0 -0.0051946704
C  C428  1  0.39700000  0.05020000  0.20560000  1.0 -0.1219133327
C  C429  1  0.76270000  0.90800000  0.27500000  1.0 0.0569295669
C  C430  1  0.48200000  0.04840000  0.12340000  1.0 -0.2454190076
C  C431  1  0.64280000  0.94820000  0.34920000  1.0 0.6212311714
C  C432  1  0.78010000  0.10220000  0.15490000  1.0 0.0485343836
C  C433  1  0.48460000  0.15870000  0.08820000  1.0 -0.1219133327
C  C434  1  0.75200000  0.92410000  0.22400000  1.0 0.0427016757
C  C435  1  0.42400000  0.05330000  0.11100000  1.0 -0.0201727599
C  C436  1  0.83410000  0.03940000  0.03230000  1.0 0.6276541232
C  C437  1  0.70420000  0.08230000  0.21000000  1.0 -0.1297108634
C  C438  1  0.52580000  0.08180000  0.20480000  1.0 0.2446802437
C  C439  1  0.52030000  0.18540000  0.17140000  1.0 0.0569295669
C  C440  1  0.54210000  0.17310000  0.22220000  1.0 -0.1219133327
C  C441  1  0.80350000  0.04730000  0.08150000  1.0 -0.1297108634
C  C442  1  0.78730000  0.91010000  0.18400000  1.0 -0.1219133327
C  C443  1  0.35900000  0.05440000  0.24220000  1.0 -0.0720263016
C  C444  1  0.33230000  0.06070000  0.13630000  1.0 0.0569295669
C  C445  1  0.38540000  0.05510000  0.15050000  1.0 0.0485343836
C  C446  1  0.35530000  0.05900000  0.04490000  1.0 -0.1091201882
C  C447  1  0.81160000  0.09030000  0.11220000  1.0 -0.1297108634
C  C448  1  0.84260000  0.87010000  0.24640000  1.0 -0.0720263016
C  C449  1  0.75500000  0.16310000  0.22370000  1.0 -0.1091201882
C  C450  1  0.71200000  0.12920000  0.23450000  1.0 -0.0720263016
C  C451  1  0.80970000  0.88000000  0.28530000  1.0 -0.1297108634
C  C452  1  0.83140000  0.88100000  0.19400000  1.0 -0.0596088291
C  C453  1  0.51840000  0.23840000  0.15500000  1.0 -0.1372297874
C  C454  1  0.29320000  0.06470000  0.17850000  1.0 -0.1297108634
C  C455  1  0.78850000  0.14770000  0.18370000  1.0 -0.1297108634
C  C456  1  0.48410000  0.21100000  0.07210000  1.0 -0.0596088291
C  C457  1  0.30660000  0.06240000  0.22820000  1.0 -0.0904439808
C  C458  1  0.33750000  0.06590000  0.98830000  1.0 0.6136465772
C  C459  1  0.31810000  0.06320000  0.08530000  1.0 -0.1475699813
C  C460  1  0.50050000  0.24970000  0.10590000  1.0 -0.0596088291
C  C461  1  0.83060000  0.03850000  0.75370000  1.0 0.2717211897
C  C462  1  0.99780000  0.85430000  0.63940000  1.0 0.0337879855
C  C463  1  0.76650000  0.98120000  0.64250000  1.0 -0.0290593022
C  C464  1  0.73660000  0.99020000  0.59770000  1.0 0.2717211897
C  C465  1  0.95500000  0.87780000  0.73730000  1.0 -0.1475699813
C  C466  1  0.76050000  0.93290000  0.66880000  1.0 0.0485343836
C  C467  1  0.79420000  0.04580000  0.71340000  1.0 -0.0201727599
C  C468  1  0.80560000  0.02240000  0.66000000  1.0 -0.2420879241
C  C469  1  0.81920000  0.05740000  0.80510000  1.0 -0.1372297874
C  C470  1  0.09100000  0.94430000  0.55910000  1.0 0.245922495
C  C471  1  0.77380000  0.08100000  0.81500000  1.0 -0.1091201882
C  C472  1  0.93020000  0.88800000  0.78840000  1.0 0.6136465772
C  C473  1  0.99630000  0.90710000  0.65620000  1.0 -0.0051946704
C  C474  1  0.10300000  0.94980000  0.70560000  1.0 -0.1219133327
C  C475  1  0.73730000  0.09200000  0.77500000  1.0 0.0569295669
C  C476  1  0.01800000  0.95160000  0.62340000  1.0 -0.2454190076
C  C477  1  0.85720000  0.05180000  0.84920000  1.0 0.6212311714
C  C478  1  0.71990000  0.89780000  0.65490000  1.0 0.0485343836
C  C479  1  0.01540000  0.84130000  0.58820000  1.0 -0.1219133327
C  C480  1  0.74800000  0.07590000  0.72400000  1.0 0.0427016757
C  C481  1  0.07600000  0.94670000  0.61100000  1.0 -0.0201727599
C  C482  1  0.66590000  0.96060000  0.53230000  1.0 0.6276541232
C  C483  1  0.79580000  0.91770000  0.71000000  1.0 -0.1297108634
C  C484  1  0.97420000  0.91820000  0.70480000  1.0 0.2446802437
C  C485  1  0.97970000  0.81460000  0.67140000  1.0 0.0569295669
C  C486  1  0.95790000  0.82690000  0.72220000  1.0 -0.1219133327
C  C487  1  0.69650000  0.95270000  0.58150000  1.0 -0.1297108634
C  C488  1  0.71270000  0.08990000  0.68400000  1.0 -0.1219133327
C  C489  1  0.14100000  0.94560000  0.74220000  1.0 -0.0720263016
C  C490  1  0.16770000  0.93930000  0.63630000  1.0 0.0569295669
C  C491  1  0.11460000  0.94490000  0.65050000  1.0 0.0485343836
C  C492  1  0.14470000  0.94100000  0.54490000  1.0 -0.1091201882
C  C493  1  0.68840000  0.90970000  0.61220000  1.0 -0.1297108634
C  C494  1  0.65740000  0.12990000  0.74640000  1.0 -0.0720263016
C  C495  1  0.74500000  0.83690000  0.72370000  1.0 -0.1091201882
C  C496  1  0.78800000  0.87080000  0.73450000  1.0 -0.0720263016
C  C497  1  0.69030000  0.12000000  0.78530000  1.0 -0.1297108634
C  C498  1  0.66860000  0.11900000  0.69400000  1.0 -0.0596088291
C  C499  1  0.98160000  0.76160000  0.65500000  1.0 -0.1372297874
C  C500  1  0.20680000  0.93530000  0.67850000  1.0 -0.1297108634
C  C501  1  0.71150000  0.85230000  0.68370000  1.0 -0.1297108634
C  C502  1  0.01590000  0.78900000  0.57210000  1.0 -0.0596088291
C  C503  1  0.19340000  0.93760000  0.72820000  1.0 -0.0904439808
C  C504  1  0.16250000  0.93410000  0.48830000  1.0 0.6136465772
C  C505  1  0.18190000  0.93680000  0.58530000  1.0 -0.1475699813
C  C506  1  0.99950000  0.75030000  0.60590000  1.0 -0.0596088291
C  C507  1  0.16940000  0.53850000  0.74630000  1.0 0.2717211897
C  C508  1  0.00220000  0.35430000  0.86060000  1.0 0.0337879855
C  C509  1  0.23350000  0.48120000  0.85750000  1.0 -0.0290593022
C  C510  1  0.26340000  0.49020000  0.90230000  1.0 0.2717211897
C  C511  1  0.04500000  0.37780000  0.76270000  1.0 -0.1475699813
C  C512  1  0.23950000  0.43290000  0.83120000  1.0 0.0485343836
C  C513  1  0.20580000  0.54580000  0.78660000  1.0 -0.0201727599
C  C514  1  0.19440000  0.52240000  0.84000000  1.0 -0.2420879241
C  C515  1  0.18080000  0.55740000  0.69490000  1.0 -0.1372297874
C  C516  1  0.90900000  0.44430000  0.94090000  1.0 0.245922495
C  C517  1  0.22620000  0.58100000  0.68500000  1.0 -0.1091201882
C  C518  1  0.06980000  0.38800000  0.71160000  1.0 0.6136465772
C  C519  1  0.00370000  0.40710000  0.84380000  1.0 -0.0051946704
C  C520  1  0.89700000  0.44980000  0.79440000  1.0 -0.1219133327
C  C521  1  0.26270000  0.59200000  0.72500000  1.0 0.0569295669
C  C522  1  0.98200000  0.45160000  0.87660000  1.0 -0.2454190076
C  C523  1  0.14280000  0.55180000  0.65080000  1.0 0.6212311714
C  C524  1  0.28010000  0.39780000  0.84510000  1.0 0.0485343836
C  C525  1  0.98460000  0.34130000  0.91180000  1.0 -0.1219133327
C  C526  1  0.25200000  0.57590000  0.77600000  1.0 0.0427016757
C  C527  1  0.92400000  0.44670000  0.88900000  1.0 -0.0201727599
C  C528  1  0.33410000  0.46060000  0.96770000  1.0 0.6276541232
C  C529  1  0.20420000  0.41770000  0.79000000  1.0 -0.1297108634
C  C530  1  0.02580000  0.41820000  0.79520000  1.0 0.2446802437
C  C531  1  0.02030000  0.31460000  0.82860000  1.0 0.0569295669
C  C532  1  0.04210000  0.32690000  0.77780000  1.0 -0.1219133327
C  C533  1  0.30350000  0.45270000  0.91850000  1.0 -0.1297108634
C  C534  1  0.28730000  0.58990000  0.81600000  1.0 -0.1219133327
C  C535  1  0.85900000  0.44560000  0.75780000  1.0 -0.0720263016
C  C536  1  0.83230000  0.43930000  0.86370000  1.0 0.0569295669
C  C537  1  0.88540000  0.44490000  0.84950000  1.0 0.0485343836
C  C538  1  0.85530000  0.44100000  0.95510000  1.0 -0.1091201882
C  C539  1  0.31160000  0.40970000  0.88780000  1.0 -0.1297108634
C  C540  1  0.34260000  0.62990000  0.75360000  1.0 -0.0720263016
C  C541  1  0.25500000  0.33690000  0.77630000  1.0 -0.1091201882
C  C542  1  0.21200000  0.37080000  0.76550000  1.0 -0.0720263016
C  C543  1  0.30970000  0.62000000  0.71470000  1.0 -0.1297108634
C  C544  1  0.33140000  0.61900000  0.80600000  1.0 -0.0596088291
C  C545  1  0.01840000  0.26160000  0.84500000  1.0 -0.1372297874
C  C546  1  0.79320000  0.43530000  0.82150000  1.0 -0.1297108634
C  C547  1  0.28850000  0.35230000  0.81630000  1.0 -0.1297108634
C  C548  1  0.98410000  0.28900000  0.92790000  1.0 -0.0596088291
C  C549  1  0.80660000  0.43760000  0.77180000  1.0 -0.0904439808
C  C550  1  0.83750000  0.43410000  0.01170000  1.0 0.6136465772
C  C551  1  0.81810000  0.43680000  0.91470000  1.0 -0.1475699813
C  C552  1  0.00050000  0.25030000  0.89410000  1.0 -0.0596088291
O  O1  1  0.25614000  0.37483000  0.48600000  1.0 -0.5869697297
O  O2  1  0.43010000  0.24350000  0.46610000  1.0 -0.6068031014
O  O3  1  0.19450000  0.42460000  0.56522000  1.0 -0.5869697297
O  O4  1  0.27830000  0.47088000  0.53129000  1.0 -0.6450838566
O  O5  1  0.49650000  0.17350000  0.50130000  1.0 -0.5292768002
O  O6  1  0.47810000  0.55490000  0.55230000  1.0 -0.5765334798
O  O7  1  0.15920000  0.40290000  0.46770000  1.0 -0.555318904
O  O8  1  0.10750000  0.34550000  0.43090000  1.0 -0.505566907
O  O9  1  0.18360000  0.41420000  0.64920000  1.0 -0.5040522188
O  O10  1  0.54790000  0.62880000  0.56050000  1.0 -0.5765334798
O  O11  1  0.48070000  0.13470000  0.57540000  1.0 -0.4818038837
O  O12  1  0.52030000  0.70950000  0.57020000  1.0 -0.4239102498
O  O13  1  0.54370000  0.08660000  0.65850000  1.0 -0.5512771577
O  O14  1  0.55560000  0.03930000  0.54160000  1.0 -0.8196539899
O  O15  1  0.24386000  0.62517000  0.98600000  1.0 -0.5869697297
O  O16  1  0.06990000  0.75650000  0.96610000  1.0 -0.6068031014
O  O17  1  0.30550000  0.57540000  0.06522000  1.0 -0.5869697297
O  O18  1  0.22170000  0.52912000  0.03129000  1.0 -0.6450838566
O  O19  1  0.00350000  0.82650000  0.00130000  1.0 -0.5292768002
O  O20  1  0.02190000  0.44510000  0.05230000  1.0 -0.5748682142
O  O21  1  0.34080000  0.59710000  0.96770000  1.0 -0.555318904
O  O22  1  0.39250000  0.65450000  0.93090000  1.0 -0.505566907
O  O23  1  0.31640000  0.58580000  0.14920000  1.0 -0.5040522188
O  O24  1  0.95210000  0.37120000  0.06050000  1.0 -0.5765334798
O  O25  1  0.01930000  0.86530000  0.07540000  1.0 -0.4818038837
O  O26  1  0.97970000  0.29050000  0.07020000  1.0 -0.4239102498
O  O27  1  0.95630000  0.91340000  0.15850000  1.0 -0.5512771577
O  O28  1  0.94440000  0.96070000  0.04160000  1.0 -0.8196539899
O  O29  1  0.74386000  0.87483000  0.01400000  1.0 -0.5765334798
O  O30  1  0.56990000  0.74350000  0.03390000  1.0 -0.6068031014
O  O31  1  0.80550000  0.92460000  0.93478000  1.0 -0.5869697297
O  O32  1  0.72170000  0.97088000  0.96871000  1.0 -0.6448581339
O  O33  1  0.50350000  0.67350000  0.99870000  1.0 -0.5292768002
O  O34  1  0.52190000  0.05490000  0.94770000  1.0 -0.5765334798
O  O35  1  0.84080000  0.90290000  0.03230000  1.0 -0.555318904
O  O36  1  0.89250000  0.84550000  0.06910000  1.0 -0.505566907
O  O37  1  0.81640000  0.91420000  0.85080000  1.0 -0.5040522188
O  O38  1  0.45210000  0.12880000  0.93950000  1.0 -0.5765334798
O  O39  1  0.51930000  0.63470000  0.92460000  1.0 -0.4818038837
O  O40  1  0.47970000  0.20950000  0.92980000  1.0 -0.4239102498
O  O41  1  0.45630000  0.58660000  0.84150000  1.0 -0.5512771577
O  O42  1  0.44440000  0.53930000  0.95840000  1.0 -0.8196539899
O  O43  1  0.75614000  0.12517000  0.51400000  1.0 -0.5869697297
O  O44  1  0.93010000  0.25650000  0.53390000  1.0 -0.6068031014
O  O45  1  0.69450000  0.07540000  0.43478000  1.0 -0.5869697297
O  O46  1  0.77830000  0.02912000  0.46871000  1.0 -0.6450838566
O  O47  1  0.99650000  0.32650000  0.49870000  1.0 -0.5292768002
O  O48  1  0.97810000  0.94510000  0.44770000  1.0 -0.5765334798
O  O49  1  0.65920000  0.09710000  0.53230000  1.0 -0.555318904
O  O50  1  0.60750000  0.15450000  0.56910000  1.0 -0.505566907
O  O51  1  0.68360000  0.08580000  0.35080000  1.0 -0.5040522188
O  O52  1  0.04790000  0.87120000  0.43950000  1.0 -0.5765334798
O  O53  1  0.98070000  0.36530000  0.42460000  1.0 -0.4818038837
O  O54  1  0.02030000  0.79050000  0.42980000  1.0 -0.4239102498
O  O55  1  0.04370000  0.41340000  0.34150000  1.0 -0.5512771577
O  O56  1  0.05560000  0.46070000  0.45840000  1.0 -0.8196539899
O  O57  1  0.48600000  0.25614000  0.37483000  1.0 -0.5869697297
O  O58  1  0.46610000  0.43010000  0.24350000  1.0 -0.6068031014
O  O59  1  0.56522000  0.19450000  0.42460000  1.0 -0.5869697297
O  O60  1  0.53129000  0.27830000  0.47088000  1.0 -0.6450838566
O  O61  1  0.50130000  0.49650000  0.17350000  1.0 -0.5292768002
O  O62  1  0.55230000  0.47810000  0.55490000  1.0 -0.5765334798
O  O63  1  0.46770000  0.15920000  0.40290000  1.0 -0.555318904
O  O64  1  0.43090000  0.10750000  0.34550000  1.0 -0.505566907
O  O65  1  0.64920000  0.18360000  0.41420000  1.0 -0.5040522188
O  O66  1  0.56050000  0.54790000  0.62880000  1.0 -0.5765334798
O  O67  1  0.57540000  0.48070000  0.13470000  1.0 -0.4818038837
O  O68  1  0.57020000  0.52030000  0.70950000  1.0 -0.4239102498
O  O69  1  0.65850000  0.54370000  0.08660000  1.0 -0.5512771577
O  O70  1  0.54160000  0.55560000  0.03930000  1.0 -0.8196539899
O  O71  1  0.98600000  0.24386000  0.62517000  1.0 -0.5869697297
O  O72  1  0.96610000  0.06990000  0.75650000  1.0 -0.6068031014
O  O73  1  0.06522000  0.30550000  0.57540000  1.0 -0.5869697297
O  O74  1  0.03129000  0.22170000  0.52912000  1.0 -0.6450838566
O  O75  1  0.00130000  0.00350000  0.82650000  1.0 -0.5292768002
O  O76  1  0.05230000  0.02190000  0.44510000  1.0 -0.5765334798
O  O77  1  0.96770000  0.34080000  0.59710000  1.0 -0.555318904
O  O78  1  0.93090000  0.39250000  0.65450000  1.0 -0.505566907
O  O79  1  0.14920000  0.31640000  0.58580000  1.0 -0.5040522188
O  O80  1  0.06050000  0.95210000  0.37120000  1.0 -0.5765334798
O  O81  1  0.07540000  0.01930000  0.86530000  1.0 -0.4818038837
O  O82  1  0.07020000  0.97970000  0.29050000  1.0 -0.4239102498
O  O83  1  0.15850000  0.95630000  0.91340000  1.0 -0.5512771577
O  O84  1  0.04160000  0.94440000  0.96070000  1.0 -0.8196539899
O  O85  1  0.01400000  0.74386000  0.87483000  1.0 -0.5869697297
O  O86  1  0.03390000  0.56990000  0.74350000  1.0 -0.6068031014
O  O87  1  0.93478000  0.80550000  0.92460000  1.0 -0.5869697297
O  O88  1  0.96871000  0.72170000  0.97088000  1.0 -0.6448581339
O  O89  1  0.99870000  0.50350000  0.67350000  1.0 -0.5292768002
O  O90  1  0.94770000  0.52190000  0.05490000  1.0 -0.5748682142
O  O91  1  0.03230000  0.84080000  0.90290000  1.0 -0.555318904
O  O92  1  0.06910000  0.89250000  0.84550000  1.0 -0.505566907
O  O93  1  0.85080000  0.81640000  0.91420000  1.0 -0.5040522188
O  O94  1  0.93950000  0.45210000  0.12880000  1.0 -0.5765334798
O  O95  1  0.92460000  0.51930000  0.63470000  1.0 -0.4818038837
O  O96  1  0.92980000  0.47970000  0.20950000  1.0 -0.4239102498
O  O97  1  0.84150000  0.45630000  0.58660000  1.0 -0.5512771577
O  O98  1  0.95840000  0.44440000  0.53930000  1.0 -0.8196539899
O  O99  1  0.51400000  0.75614000  0.12517000  1.0 -0.5869697297
O  O100  1  0.53390000  0.93010000  0.25650000  1.0 -0.6068031014
O  O101  1  0.43478000  0.69450000  0.07540000  1.0 -0.5869697297
O  O102  1  0.46871000  0.77830000  0.02912000  1.0 -0.6450838566
O  O103  1  0.49870000  0.99650000  0.32650000  1.0 -0.5292768002
O  O104  1  0.44770000  0.97810000  0.94510000  1.0 -0.5765334798
O  O105  1  0.53230000  0.65920000  0.09710000  1.0 -0.555318904
O  O106  1  0.56910000  0.60750000  0.15450000  1.0 -0.505566907
O  O107  1  0.35080000  0.68360000  0.08580000  1.0 -0.5040522188
O  O108  1  0.43950000  0.04790000  0.87120000  1.0 -0.5765334798
O  O109  1  0.42460000  0.98070000  0.36530000  1.0 -0.4818038837
O  O110  1  0.42980000  0.02030000  0.79050000  1.0 -0.4239102498
O  O111  1  0.34150000  0.04370000  0.41340000  1.0 -0.5512771577
O  O112  1  0.45840000  0.05560000  0.46070000  1.0 -0.8196539899
O  O113  1  0.37483000  0.48600000  0.25614000  1.0 -0.5869697297
O  O114  1  0.24350000  0.46610000  0.43010000  1.0 -0.6068031014
O  O115  1  0.42460000  0.56522000  0.19450000  1.0 -0.5869697297
O  O116  1  0.47088000  0.53129000  0.27830000  1.0 -0.6450838566
O  O117  1  0.17350000  0.50130000  0.49650000  1.0 -0.5292768002
O  O118  1  0.55490000  0.55230000  0.47810000  1.0 -0.5765334798
O  O119  1  0.40290000  0.46770000  0.15920000  1.0 -0.555318904
O  O120  1  0.34550000  0.43090000  0.10750000  1.0 -0.505566907
O  O121  1  0.41420000  0.64920000  0.18360000  1.0 -0.5040522188
O  O122  1  0.62880000  0.56050000  0.54790000  1.0 -0.5765334798
O  O123  1  0.13470000  0.57540000  0.48070000  1.0 -0.4818038837
O  O124  1  0.70950000  0.57020000  0.52030000  1.0 -0.4239102498
O  O125  1  0.08660000  0.65850000  0.54370000  1.0 -0.5512771577
O  O126  1  0.03930000  0.54160000  0.55560000  1.0 -0.8196539899
O  O127  1  0.62517000  0.98600000  0.24386000  1.0 -0.5869697297
O  O128  1  0.75650000  0.96610000  0.06990000  1.0 -0.6068031014
O  O129  1  0.57540000  0.06522000  0.30550000  1.0 -0.5869697297
O  O130  1  0.52912000  0.03129000  0.22170000  1.0 -0.6450838566
O  O131  1  0.82650000  0.00130000  0.00350000  1.0 -0.5292768002
O  O132  1  0.44510000  0.05230000  0.02190000  1.0 -0.5765334798
O  O133  1  0.59710000  0.96770000  0.34080000  1.0 -0.555318904
O  O134  1  0.65450000  0.93090000  0.39250000  1.0 -0.505566907
O  O135  1  0.58580000  0.14920000  0.31640000  1.0 -0.5040522188
O  O136  1  0.37120000  0.06050000  0.95210000  1.0 -0.5765334798
O  O137  1  0.86530000  0.07540000  0.01930000  1.0 -0.4818038837
O  O138  1  0.29050000  0.07020000  0.97970000  1.0 -0.4239102498
O  O139  1  0.91340000  0.15850000  0.95630000  1.0 -0.5512771577
O  O140  1  0.96070000  0.04160000  0.94440000  1.0 -0.8196539899
O  O141  1  0.87483000  0.01400000  0.74386000  1.0 -0.5869697297
O  O142  1  0.74350000  0.03390000  0.56990000  1.0 -0.6068031014
O  O143  1  0.92460000  0.93478000  0.80550000  1.0 -0.5869697297
O  O144  1  0.97088000  0.96871000  0.72170000  1.0 -0.6450838566
O  O145  1  0.67350000  0.99870000  0.50350000  1.0 -0.5292768002
O  O146  1  0.05490000  0.94770000  0.52190000  1.0 -0.5765334798
O  O147  1  0.90290000  0.03230000  0.84080000  1.0 -0.555318904
O  O148  1  0.84550000  0.06910000  0.89250000  1.0 -0.505566907
O  O149  1  0.91420000  0.85080000  0.81640000  1.0 -0.5040522188
O  O150  1  0.12880000  0.93950000  0.45210000  1.0 -0.5765334798
O  O151  1  0.63470000  0.92460000  0.51930000  1.0 -0.4818038837
O  O152  1  0.20950000  0.92980000  0.47970000  1.0 -0.4239102498
O  O153  1  0.58660000  0.84150000  0.45630000  1.0 -0.5512771577
O  O154  1  0.53930000  0.95840000  0.44440000  1.0 -0.8196539899
O  O155  1  0.12517000  0.51400000  0.75614000  1.0 -0.5869697297
O  O156  1  0.25650000  0.53390000  0.93010000  1.0 -0.6068031014
O  O157  1  0.07540000  0.43478000  0.69450000  1.0 -0.5869697297
O  O158  1  0.02912000  0.46871000  0.77830000  1.0 -0.6448581339
O  O159  1  0.32650000  0.49870000  0.99650000  1.0 -0.5292768002
O  O160  1  0.94510000  0.44770000  0.97810000  1.0 -0.5765334798
O  O161  1  0.09710000  0.53230000  0.65920000  1.0 -0.555318904
O  O162  1  0.15450000  0.56910000  0.60750000  1.0 -0.505566907
O  O163  1  0.08580000  0.35080000  0.68360000  1.0 -0.5040522188
O  O164  1  0.87120000  0.43950000  0.04790000  1.0 -0.5765334798
O  O165  1  0.36530000  0.42460000  0.98070000  1.0 -0.4818038837
O  O166  1  0.79050000  0.42980000  0.02030000  1.0 -0.4239102498
O  O167  1  0.41340000  0.34150000  0.04370000  1.0 -0.5512771577
O  O168  1  0.46070000  0.45840000  0.05560000  1.0 -0.8196539899
O  O169  1  0.07610000  0.42390000  0.57610000  1.0 -0.1726147156
O  O170  1  0.42390000  0.57610000  0.07610000  1.0 -0.1755118192
O  O171  1  0.92390000  0.92390000  0.92390000  1.0 -0.1726147156
O  O172  1  0.57610000  0.07610000  0.42390000  1.0 -0.1726147156
O  O173  1  0.45700000  0.95700000  0.54300000  1.0 -0.691523251
O  O174  1  0.04300000  0.04300000  0.04300000  1.0 -0.691523251
O  O175  1  0.54300000  0.45700000  0.95700000  1.0 -0.691523251
O  O176  1  0.95700000  0.54300000  0.45700000  1.0 -0.691523251
