# DDEC6 charges by PACMAN v1.1 (https://github.com/mtap-research/PACMAN-charge/)
data_EJOQUR_ASR_pacman
_symmetry_space_group_name_H-M   'P 1'
_cell_length_a   18.59240000
_cell_length_b   18.59240000
_cell_length_c   42.22930000
_cell_angle_alpha   90.00000000
_cell_angle_beta   90.00000000
_cell_angle_gamma   90.00000000
_symmetry_Int_Tables_number   1
_chemical_formula_structural   Cu5H12C32O19
_chemical_formula_sum   'Cu40 H96 C256 O152'
_cell_volume   14597.71199947
_cell_formula_units_Z   8
loop_
 _symmetry_equiv_pos_site_id
 _symmetry_equiv_pos_as_xyz
  1  'x, y, z'
loop_
 _atom_site_type_symbol
 _atom_site_label
 _atom_site_symmetry_multiplicity
 _atom_site_fract_x
 _atom_site_fract_y
 _atom_site_fract_z
 _atom_site_occupancy
 _atom_site_charge
Cu  Cu1  1  0.05655000  0.05655000  0.39513000  1.0 1.0695886233
Cu  Cu2  1  0.44345000  0.55655000  0.89513000  1.0 1.0695886233
Cu  Cu3  1  0.55655000  0.44345000  0.89513000  1.0 1.0695886233
Cu  Cu4  1  0.55655000  0.44345000  0.10487000  1.0 1.0695886233
Cu  Cu5  1  0.44345000  0.55655000  0.10487000  1.0 1.0695886233
Cu  Cu6  1  0.94345000  0.94345000  0.39513000  1.0 1.0695886233
Cu  Cu7  1  0.05655000  0.05655000  0.60487000  1.0 1.0695886233
Cu  Cu8  1  0.94345000  0.94345000  0.60487000  1.0 1.0695886233
Cu  Cu9  1  0.90633000  0.09367000  0.43252000  1.0 0.9685588101
Cu  Cu10  1  0.40633000  0.40633000  0.93252000  1.0 0.9685588101
Cu  Cu11  1  0.59367000  0.59367000  0.93252000  1.0 0.9685588101
Cu  Cu12  1  0.40633000  0.40633000  0.06748000  1.0 0.9685588101
Cu  Cu13  1  0.59367000  0.59367000  0.06748000  1.0 0.9685588101
Cu  Cu14  1  0.09367000  0.90633000  0.43252000  1.0 0.9685588101
Cu  Cu15  1  0.09367000  0.90633000  0.56748000  1.0 0.9685588101
Cu  Cu16  1  0.90633000  0.09367000  0.56748000  1.0 0.9685588101
Cu  Cu17  1  0.15412000  0.15412000  0.50000000  1.0 0.8196190217
Cu  Cu18  1  0.34588000  0.65412000  0.00000000  1.0 0.8196190217
Cu  Cu19  1  0.65412000  0.34588000  0.00000000  1.0 0.8196190217
Cu  Cu20  1  0.84588000  0.84588000  0.50000000  1.0 0.8196190217
Cu  Cu21  1  0.25497000  0.25497000  0.50000000  1.0 0.890306122
Cu  Cu22  1  0.24503000  0.75497000  0.00000000  1.0 0.890306122
Cu  Cu23  1  0.75497000  0.24503000  0.00000000  1.0 0.890306122
Cu  Cu24  1  0.74503000  0.74503000  0.50000000  1.0 0.890306122
Cu  Cu25  1  0.25859000  0.25859000  0.28004000  1.0 0.8542086998
Cu  Cu26  1  0.24141000  0.75859000  0.78004000  1.0 0.8542086998
Cu  Cu27  1  0.75859000  0.24141000  0.78004000  1.0 0.8542086998
Cu  Cu28  1  0.75859000  0.24141000  0.21996000  1.0 0.8542086998
Cu  Cu29  1  0.24141000  0.75859000  0.21996000  1.0 0.8542086998
Cu  Cu30  1  0.74141000  0.74141000  0.28004000  1.0 0.8542086998
Cu  Cu31  1  0.25859000  0.25859000  0.71996000  1.0 0.8542086998
Cu  Cu32  1  0.74141000  0.74141000  0.71996000  1.0 0.8542086998
Cu  Cu33  1  0.19182000  0.19182000  0.23290000  1.0 0.8717390964
Cu  Cu34  1  0.30818000  0.69182000  0.73290000  1.0 0.8717390964
Cu  Cu35  1  0.69182000  0.30818000  0.73290000  1.0 0.8717390964
Cu  Cu36  1  0.69182000  0.30818000  0.26710000  1.0 0.8717390964
Cu  Cu37  1  0.30818000  0.69182000  0.26710000  1.0 0.8717390964
Cu  Cu38  1  0.80818000  0.80818000  0.23290000  1.0 0.8717390964
Cu  Cu39  1  0.19182000  0.19182000  0.76710000  1.0 0.8717390964
Cu  Cu40  1  0.80818000  0.80818000  0.76710000  1.0 0.8717390964
H  H1  1  0.14670000  0.40270000  0.44310000  1.0 0.1283846715
H  H2  1  0.09730000  0.64670000  0.94310000  1.0 0.1283846715
H  H3  1  0.90270000  0.35330000  0.94310000  1.0 0.1283846715
H  H4  1  0.64670000  0.09730000  0.05690000  1.0 0.1283846715
H  H5  1  0.35330000  0.90270000  0.05690000  1.0 0.1283846715
H  H6  1  0.85330000  0.59730000  0.44310000  1.0 0.1283846715
H  H7  1  0.40270000  0.14670000  0.55690000  1.0 0.1283846715
H  H8  1  0.59730000  0.85330000  0.55690000  1.0 0.1283846715
H  H9  1  0.85330000  0.59730000  0.55690000  1.0 0.1283846715
H  H10  1  0.90270000  0.35330000  0.05690000  1.0 0.1283846715
H  H11  1  0.09730000  0.64670000  0.05690000  1.0 0.1283846715
H  H12  1  0.35330000  0.90270000  0.94310000  1.0 0.1283846715
H  H13  1  0.64670000  0.09730000  0.94310000  1.0 0.1283846715
H  H14  1  0.14670000  0.40270000  0.55690000  1.0 0.1283846715
H  H15  1  0.59730000  0.85330000  0.44310000  1.0 0.1283846715
H  H16  1  0.40270000  0.14670000  0.44310000  1.0 0.1283846715
H  H17  1  0.08260000  0.47550000  0.40610000  1.0 0.1110076377
H  H18  1  0.02450000  0.58260000  0.90610000  1.0 0.1110076377
H  H19  1  0.97550000  0.41740000  0.90610000  1.0 0.1110076377
H  H20  1  0.58260000  0.02450000  0.09390000  1.0 0.1110076377
H  H21  1  0.41740000  0.97550000  0.09390000  1.0 0.1110076377
H  H22  1  0.91740000  0.52450000  0.40610000  1.0 0.1110076377
H  H23  1  0.47550000  0.08260000  0.59390000  1.0 0.1110076377
H  H24  1  0.52450000  0.91740000  0.59390000  1.0 0.1110076377
H  H25  1  0.91740000  0.52450000  0.59390000  1.0 0.1110076377
H  H26  1  0.97550000  0.41740000  0.09390000  1.0 0.1110076377
H  H27  1  0.02450000  0.58260000  0.09390000  1.0 0.1110076377
H  H28  1  0.41740000  0.97550000  0.90610000  1.0 0.1110076377
H  H29  1  0.58260000  0.02450000  0.90610000  1.0 0.1110076377
H  H30  1  0.08260000  0.47550000  0.59390000  1.0 0.1110076377
H  H31  1  0.52450000  0.91740000  0.40610000  1.0 0.1110076377
H  H32  1  0.47550000  0.08260000  0.40610000  1.0 0.1110076377
H  H33  1  0.99700000  0.41890000  0.37500000  1.0 0.1239065522
H  H34  1  0.08110000  0.49700000  0.87500000  1.0 0.1239065522
H  H35  1  0.91890000  0.50300000  0.87500000  1.0 0.1239065522
H  H36  1  0.49700000  0.08110000  0.12500000  1.0 0.1239065522
H  H37  1  0.50300000  0.91890000  0.12500000  1.0 0.1239065522
H  H38  1  0.00300000  0.58110000  0.37500000  1.0 0.1239065522
H  H39  1  0.41890000  0.99700000  0.62500000  1.0 0.1239065522
H  H40  1  0.58110000  0.00300000  0.62500000  1.0 0.1239065522
H  H41  1  0.00300000  0.58110000  0.62500000  1.0 0.1239065522
H  H42  1  0.91890000  0.50300000  0.12500000  1.0 0.1239065522
H  H43  1  0.08110000  0.49700000  0.12500000  1.0 0.1239065522
H  H44  1  0.50300000  0.91890000  0.87500000  1.0 0.1239065522
H  H45  1  0.49700000  0.08110000  0.87500000  1.0 0.1239065522
H  H46  1  0.99700000  0.41890000  0.62500000  1.0 0.1239065522
H  H47  1  0.58110000  0.00300000  0.37500000  1.0 0.1239065522
H  H48  1  0.41890000  0.99700000  0.37500000  1.0 0.1239065522
H  H49  1  0.85870000  0.30560000  0.33340000  1.0 0.1492405901
H  H50  1  0.19440000  0.35870000  0.83340000  1.0 0.1492405901
H  H51  1  0.80560000  0.64130000  0.83340000  1.0 0.1492405901
H  H52  1  0.35870000  0.19440000  0.16660000  1.0 0.1492405901
H  H53  1  0.64130000  0.80560000  0.16660000  1.0 0.1492405901
H  H54  1  0.14130000  0.69440000  0.33340000  1.0 0.1492405901
H  H55  1  0.30560000  0.85870000  0.66666667  1.0 0.1492405901
H  H56  1  0.69440000  0.14130000  0.66666667  1.0 0.1492405901
H  H57  1  0.14130000  0.69440000  0.66666667  1.0 0.1492405901
H  H58  1  0.80560000  0.64130000  0.16660000  1.0 0.1492405901
H  H59  1  0.19440000  0.35870000  0.16660000  1.0 0.1492405901
H  H60  1  0.64130000  0.80560000  0.83340000  1.0 0.1492405901
H  H61  1  0.35870000  0.19440000  0.83340000  1.0 0.1492405901
H  H62  1  0.85870000  0.30560000  0.66666667  1.0 0.1492405901
H  H63  1  0.69440000  0.14130000  0.33340000  1.0 0.1492405901
H  H64  1  0.30560000  0.85870000  0.33340000  1.0 0.1492405901
H  H65  1  0.97710000  0.25440000  0.25820000  1.0 0.1416975827
H  H66  1  0.24560000  0.47710000  0.75820000  1.0 0.1416975827
H  H67  1  0.75440000  0.52290000  0.75820000  1.0 0.1416975827
H  H68  1  0.47710000  0.24560000  0.24180000  1.0 0.1416975827
H  H69  1  0.52290000  0.75440000  0.24180000  1.0 0.1416975827
H  H70  1  0.02290000  0.74560000  0.25820000  1.0 0.1416975827
H  H71  1  0.25440000  0.97710000  0.74180000  1.0 0.1416975827
H  H72  1  0.74560000  0.02290000  0.74180000  1.0 0.1416975827
H  H73  1  0.02290000  0.74560000  0.74180000  1.0 0.1416975827
H  H74  1  0.75440000  0.52290000  0.24180000  1.0 0.1416975827
H  H75  1  0.24560000  0.47710000  0.24180000  1.0 0.1416975827
H  H76  1  0.52290000  0.75440000  0.75820000  1.0 0.1416975827
H  H77  1  0.47710000  0.24560000  0.75820000  1.0 0.1416975827
H  H78  1  0.97710000  0.25440000  0.74180000  1.0 0.1416975827
H  H79  1  0.74560000  0.02290000  0.25820000  1.0 0.1416975827
H  H80  1  0.25440000  0.97710000  0.25820000  1.0 0.1416975827
H  H81  1  0.07040000  0.27130000  0.34400000  1.0 0.1416975827
H  H82  1  0.22870000  0.57040000  0.84400000  1.0 0.1416975827
H  H83  1  0.77130000  0.42960000  0.84400000  1.0 0.1416975827
H  H84  1  0.57040000  0.22870000  0.15600000  1.0 0.1416975827
H  H85  1  0.42960000  0.77130000  0.15600000  1.0 0.1416975827
H  H86  1  0.92960000  0.72870000  0.34400000  1.0 0.1416975827
H  H87  1  0.27130000  0.07040000  0.65600000  1.0 0.1416975827
H  H88  1  0.72870000  0.92960000  0.65600000  1.0 0.1416975827
H  H89  1  0.92960000  0.72870000  0.65600000  1.0 0.1416975827
H  H90  1  0.77130000  0.42960000  0.15600000  1.0 0.1416975827
H  H91  1  0.22870000  0.57040000  0.15600000  1.0 0.1416975827
H  H92  1  0.42960000  0.77130000  0.84400000  1.0 0.1416975827
H  H93  1  0.57040000  0.22870000  0.84400000  1.0 0.1416975827
H  H94  1  0.07040000  0.27130000  0.65600000  1.0 0.1416975827
H  H95  1  0.72870000  0.92960000  0.34400000  1.0 0.1416975827
H  H96  1  0.27130000  0.07040000  0.34400000  1.0 0.1416975827
C  C1  1  0.00520000  0.32240000  0.39385000  1.0 0.2006933907
C  C2  1  0.17760000  0.50520000  0.89385000  1.0 0.2006933907
C  C3  1  0.82240000  0.49480000  0.89385000  1.0 0.2006933907
C  C4  1  0.50520000  0.17760000  0.10615000  1.0 0.2006933907
C  C5  1  0.49480000  0.82240000  0.10615000  1.0 0.2006933907
C  C6  1  0.99480000  0.67760000  0.39385000  1.0 0.2006933907
C  C7  1  0.32240000  0.00520000  0.60615000  1.0 0.2006933907
C  C8  1  0.67760000  0.99480000  0.60615000  1.0 0.2006933907
C  C9  1  0.99480000  0.67760000  0.60615000  1.0 0.2006933907
C  C10  1  0.82240000  0.49480000  0.10615000  1.0 0.2006933907
C  C11  1  0.17760000  0.50520000  0.10615000  1.0 0.2006933907
C  C12  1  0.49480000  0.82240000  0.89385000  1.0 0.2006933907
C  C13  1  0.50520000  0.17760000  0.89385000  1.0 0.2006933907
C  C14  1  0.00520000  0.32240000  0.60615000  1.0 0.2006933907
C  C15  1  0.67760000  0.99480000  0.39385000  1.0 0.2006933907
C  C16  1  0.32240000  0.00520000  0.39385000  1.0 0.2006933907
C  C17  1  0.03920000  0.27950000  0.41608000  1.0 -0.1197455345
C  C18  1  0.22050000  0.53920000  0.91608000  1.0 -0.1197455345
C  C19  1  0.77950000  0.46080000  0.91608000  1.0 -0.1197455345
C  C20  1  0.53920000  0.22050000  0.08392000  1.0 -0.1197455345
C  C21  1  0.46080000  0.77950000  0.08392000  1.0 -0.1197455345
C  C22  1  0.96080000  0.72050000  0.41608000  1.0 -0.1197455345
C  C23  1  0.27950000  0.03920000  0.58392000  1.0 -0.1197455345
C  C24  1  0.72050000  0.96080000  0.58392000  1.0 -0.1197455345
C  C25  1  0.96080000  0.72050000  0.58392000  1.0 -0.1197455345
C  C26  1  0.77950000  0.46080000  0.08392000  1.0 -0.1197455345
C  C27  1  0.22050000  0.53920000  0.08392000  1.0 -0.1197455345
C  C28  1  0.46080000  0.77950000  0.91608000  1.0 -0.1197455345
C  C29  1  0.53920000  0.22050000  0.91608000  1.0 -0.1197455345
C  C30  1  0.03920000  0.27950000  0.58392000  1.0 -0.1197455345
C  C31  1  0.72050000  0.96080000  0.41608000  1.0 -0.1197455345
C  C32  1  0.27950000  0.03920000  0.41608000  1.0 -0.1197455345
C  C33  1  0.09330000  0.31300000  0.43468000  1.0 -0.0214663079
C  C34  1  0.18700000  0.59330000  0.93468000  1.0 -0.0214663079
C  C35  1  0.81300000  0.40670000  0.93468000  1.0 -0.0214663079
C  C36  1  0.59330000  0.18700000  0.06532000  1.0 -0.0214663079
C  C37  1  0.40670000  0.81300000  0.06532000  1.0 -0.0214663079
C  C38  1  0.90670000  0.68700000  0.43468000  1.0 -0.0214663079
C  C39  1  0.31300000  0.09330000  0.56532000  1.0 -0.0214663079
C  C40  1  0.68700000  0.90670000  0.56532000  1.0 -0.0214663079
C  C41  1  0.90670000  0.68700000  0.56532000  1.0 -0.0214663079
C  C42  1  0.81300000  0.40670000  0.06532000  1.0 -0.0214663079
C  C43  1  0.18700000  0.59330000  0.06532000  1.0 -0.0214663079
C  C44  1  0.40670000  0.81300000  0.93468000  1.0 -0.0214663079
C  C45  1  0.59330000  0.18700000  0.93468000  1.0 -0.0214663079
C  C46  1  0.09330000  0.31300000  0.56532000  1.0 -0.0214663079
C  C47  1  0.68700000  0.90670000  0.43468000  1.0 -0.0214663079
C  C48  1  0.31300000  0.09330000  0.43468000  1.0 -0.0214663079
C  C49  1  0.11020000  0.38270000  0.43090000  1.0 -0.1025756305
C  C50  1  0.11730000  0.61020000  0.93090000  1.0 -0.1025756305
C  C51  1  0.88270000  0.38980000  0.93090000  1.0 -0.1025756305
C  C52  1  0.61020000  0.11730000  0.06910000  1.0 -0.1025756305
C  C53  1  0.38980000  0.88270000  0.06910000  1.0 -0.1025756305
C  C54  1  0.88980000  0.61730000  0.43090000  1.0 -0.1025756305
C  C55  1  0.38270000  0.11020000  0.56910000  1.0 -0.1025756305
C  C56  1  0.61730000  0.88980000  0.56910000  1.0 -0.1025756305
C  C57  1  0.88980000  0.61730000  0.56910000  1.0 -0.1025756305
C  C58  1  0.88270000  0.38980000  0.06910000  1.0 -0.1025756305
C  C59  1  0.11730000  0.61020000  0.06910000  1.0 -0.1025756305
C  C60  1  0.38980000  0.88270000  0.93090000  1.0 -0.1025756305
C  C61  1  0.61020000  0.11730000  0.93090000  1.0 -0.1025756305
C  C62  1  0.11020000  0.38270000  0.56910000  1.0 -0.1025756305
C  C63  1  0.61730000  0.88980000  0.43090000  1.0 -0.1025756305
C  C64  1  0.38270000  0.11020000  0.43090000  1.0 -0.1025756305
C  C65  1  0.07280000  0.42680000  0.40840000  1.0 -0.0920686839
C  C66  1  0.07320000  0.57280000  0.90840000  1.0 -0.0920686839
C  C67  1  0.92680000  0.42720000  0.90840000  1.0 -0.0920686839
C  C68  1  0.57280000  0.07320000  0.09160000  1.0 -0.0920686839
C  C69  1  0.42720000  0.92680000  0.09160000  1.0 -0.0920686839
C  C70  1  0.92720000  0.57320000  0.40840000  1.0 -0.0920686839
C  C71  1  0.42680000  0.07280000  0.59160000  1.0 -0.0920686839
C  C72  1  0.57320000  0.92720000  0.59160000  1.0 -0.0920686839
C  C73  1  0.92720000  0.57320000  0.59160000  1.0 -0.0920686839
C  C74  1  0.92680000  0.42720000  0.09160000  1.0 -0.0920686839
C  C75  1  0.07320000  0.57280000  0.09160000  1.0 -0.0920686839
C  C76  1  0.42720000  0.92680000  0.90840000  1.0 -0.0920686839
C  C77  1  0.57280000  0.07320000  0.90840000  1.0 -0.0920686839
C  C78  1  0.07280000  0.42680000  0.59160000  1.0 -0.0920686839
C  C79  1  0.57320000  0.92720000  0.40840000  1.0 -0.0920686839
C  C80  1  0.42680000  0.07280000  0.40840000  1.0 -0.0920686839
C  C81  1  0.02140000  0.39250000  0.39026000  1.0 -0.1802313366
C  C82  1  0.10750000  0.52140000  0.89026000  1.0 -0.1802313366
C  C83  1  0.89250000  0.47860000  0.89026000  1.0 -0.1802313366
C  C84  1  0.52140000  0.10750000  0.10974000  1.0 -0.1802313366
C  C85  1  0.47860000  0.89250000  0.10974000  1.0 -0.1802313366
C  C86  1  0.97860000  0.60750000  0.39026000  1.0 -0.1802313366
C  C87  1  0.39250000  0.02140000  0.60974000  1.0 -0.1802313366
C  C88  1  0.60750000  0.97860000  0.60974000  1.0 -0.1802313366
C  C89  1  0.97860000  0.60750000  0.60974000  1.0 -0.1802313366
C  C90  1  0.89250000  0.47860000  0.10974000  1.0 -0.1802313366
C  C91  1  0.10750000  0.52140000  0.10974000  1.0 -0.1802313366
C  C92  1  0.47860000  0.89250000  0.89026000  1.0 -0.1802313366
C  C93  1  0.52140000  0.10750000  0.89026000  1.0 -0.1802313366
C  C94  1  0.02140000  0.39250000  0.60974000  1.0 -0.1802313366
C  C95  1  0.60750000  0.97860000  0.39026000  1.0 -0.1802313366
C  C96  1  0.39250000  0.02140000  0.39026000  1.0 -0.1802313366
C  C97  1  0.96290000  0.28720000  0.34365000  1.0 0.2359147681
C  C98  1  0.21280000  0.46290000  0.84365000  1.0 0.2359147681
C  C99  1  0.78720000  0.53710000  0.84365000  1.0 0.2359147681
C  C100  1  0.46290000  0.21280000  0.15635000  1.0 0.2359147681
C  C101  1  0.53710000  0.78720000  0.15635000  1.0 0.2359147681
C  C102  1  0.03710000  0.71280000  0.34365000  1.0 0.2359147681
C  C103  1  0.28720000  0.96290000  0.65635000  1.0 0.2359147681
C  C104  1  0.71280000  0.03710000  0.65635000  1.0 0.2359147681
C  C105  1  0.03710000  0.71280000  0.65635000  1.0 0.2359147681
C  C106  1  0.78720000  0.53710000  0.15635000  1.0 0.2359147681
C  C107  1  0.21280000  0.46290000  0.15635000  1.0 0.2359147681
C  C108  1  0.53710000  0.78720000  0.84365000  1.0 0.2359147681
C  C109  1  0.46290000  0.21280000  0.84365000  1.0 0.2359147681
C  C110  1  0.96290000  0.28720000  0.65635000  1.0 0.2359147681
C  C111  1  0.71280000  0.03710000  0.34365000  1.0 0.2359147681
C  C112  1  0.28720000  0.96290000  0.34365000  1.0 0.2359147681
C  C113  1  0.90300000  0.29370000  0.32463000  1.0 -0.1802313366
C  C114  1  0.20630000  0.40300000  0.82463000  1.0 -0.1802313366
C  C115  1  0.79370000  0.59700000  0.82463000  1.0 -0.1802313366
C  C116  1  0.40300000  0.20630000  0.17537000  1.0 -0.1802313366
C  C117  1  0.59700000  0.79370000  0.17537000  1.0 -0.1802313366
C  C118  1  0.09700000  0.70630000  0.32463000  1.0 -0.1802313366
C  C119  1  0.29370000  0.90300000  0.67537000  1.0 -0.1802313366
C  C120  1  0.70630000  0.09700000  0.67537000  1.0 -0.1802313366
C  C121  1  0.09700000  0.70630000  0.67537000  1.0 -0.1802313366
C  C122  1  0.79370000  0.59700000  0.17537000  1.0 -0.1802313366
C  C123  1  0.20630000  0.40300000  0.17537000  1.0 -0.1802313366
C  C124  1  0.59700000  0.79370000  0.82463000  1.0 -0.1802313366
C  C125  1  0.40300000  0.20630000  0.82463000  1.0 -0.1802313366
C  C126  1  0.90300000  0.29370000  0.67537000  1.0 -0.1802313366
C  C127  1  0.70630000  0.09700000  0.32463000  1.0 -0.1802313366
C  C128  1  0.29370000  0.90300000  0.32463000  1.0 -0.1802313366
C  C129  1  0.90890000  0.28260000  0.29296000  1.0 -0.0123076957
C  C130  1  0.21740000  0.40890000  0.79296000  1.0 -0.0123076957
C  C131  1  0.78260000  0.59110000  0.79296000  1.0 -0.0123076957
C  C132  1  0.40890000  0.21740000  0.20704000  1.0 -0.0123076957
C  C133  1  0.59110000  0.78260000  0.20704000  1.0 -0.0123076957
C  C134  1  0.09110000  0.71740000  0.29296000  1.0 -0.0123076957
C  C135  1  0.28260000  0.90890000  0.70704000  1.0 -0.0123076957
C  C136  1  0.71740000  0.09110000  0.70704000  1.0 -0.0123076957
C  C137  1  0.09110000  0.71740000  0.70704000  1.0 -0.0123076957
C  C138  1  0.78260000  0.59110000  0.20704000  1.0 -0.0123076957
C  C139  1  0.21740000  0.40890000  0.20704000  1.0 -0.0123076957
C  C140  1  0.59110000  0.78260000  0.79296000  1.0 -0.0123076957
C  C141  1  0.40890000  0.21740000  0.79296000  1.0 -0.0123076957
C  C142  1  0.90890000  0.28260000  0.70704000  1.0 -0.0123076957
C  C143  1  0.71740000  0.09110000  0.29296000  1.0 -0.0123076957
C  C144  1  0.28260000  0.90890000  0.29296000  1.0 -0.0123076957
C  C145  1  0.97410000  0.26480000  0.27967000  1.0 -0.1101490647
C  C146  1  0.23520000  0.47410000  0.77967000  1.0 -0.1101490647
C  C147  1  0.76480000  0.52590000  0.77967000  1.0 -0.1101490647
C  C148  1  0.47410000  0.23520000  0.22033000  1.0 -0.1101490647
C  C149  1  0.52590000  0.76480000  0.22033000  1.0 -0.1101490647
C  C150  1  0.02590000  0.73520000  0.27967000  1.0 -0.1101490647
C  C151  1  0.26480000  0.97410000  0.72033000  1.0 -0.1101490647
C  C152  1  0.73520000  0.02590000  0.72033000  1.0 -0.1101490647
C  C153  1  0.02590000  0.73520000  0.72033000  1.0 -0.1101490647
C  C154  1  0.76480000  0.52590000  0.22033000  1.0 -0.1101490647
C  C155  1  0.23520000  0.47410000  0.22033000  1.0 -0.1101490647
C  C156  1  0.52590000  0.76480000  0.77967000  1.0 -0.1101490647
C  C157  1  0.47410000  0.23520000  0.77967000  1.0 -0.1101490647
C  C158  1  0.97410000  0.26480000  0.72033000  1.0 -0.1101490647
C  C159  1  0.73520000  0.02590000  0.27967000  1.0 -0.1101490647
C  C160  1  0.26480000  0.97410000  0.27967000  1.0 -0.1101490647
C  C161  1  0.03580000  0.26230000  0.29860000  1.0 0.0037542575
C  C162  1  0.23770000  0.53580000  0.79860000  1.0 0.0037542575
C  C163  1  0.76230000  0.46420000  0.79860000  1.0 0.0037542575
C  C164  1  0.53580000  0.23770000  0.20140000  1.0 0.0037542575
C  C165  1  0.46420000  0.76230000  0.20140000  1.0 0.0037542575
C  C166  1  0.96420000  0.73770000  0.29860000  1.0 0.0037542575
C  C167  1  0.26230000  0.03580000  0.70140000  1.0 0.0037542575
C  C168  1  0.73770000  0.96420000  0.70140000  1.0 0.0037542575
C  C169  1  0.96420000  0.73770000  0.70140000  1.0 0.0037542575
C  C170  1  0.76230000  0.46420000  0.20140000  1.0 0.0037542575
C  C171  1  0.23770000  0.53580000  0.20140000  1.0 0.0037542575
C  C172  1  0.46420000  0.76230000  0.79860000  1.0 0.0037542575
C  C173  1  0.53580000  0.23770000  0.79860000  1.0 0.0037542575
C  C174  1  0.03580000  0.26230000  0.70140000  1.0 0.0037542575
C  C175  1  0.73770000  0.96420000  0.29860000  1.0 0.0037542575
C  C176  1  0.26230000  0.03580000  0.29860000  1.0 0.0037542575
C  C177  1  0.03000000  0.27330000  0.33104000  1.0 -0.2004710795
C  C178  1  0.22670000  0.53000000  0.83104000  1.0 -0.2004710795
C  C179  1  0.77330000  0.47000000  0.83104000  1.0 -0.2004710795
C  C180  1  0.53000000  0.22670000  0.16896000  1.0 -0.2004710795
C  C181  1  0.47000000  0.77330000  0.16896000  1.0 -0.2004710795
C  C182  1  0.97000000  0.72670000  0.33104000  1.0 -0.2004710795
C  C183  1  0.27330000  0.03000000  0.66896000  1.0 -0.2004710795
C  C184  1  0.72670000  0.97000000  0.66896000  1.0 -0.2004710795
C  C185  1  0.97000000  0.72670000  0.66896000  1.0 -0.2004710795
C  C186  1  0.77330000  0.47000000  0.16896000  1.0 -0.2004710795
C  C187  1  0.22670000  0.53000000  0.16896000  1.0 -0.2004710795
C  C188  1  0.47000000  0.77330000  0.83104000  1.0 -0.2004710795
C  C189  1  0.53000000  0.22670000  0.83104000  1.0 -0.2004710795
C  C190  1  0.03000000  0.27330000  0.66896000  1.0 -0.2004710795
C  C191  1  0.72670000  0.97000000  0.33104000  1.0 -0.2004710795
C  C192  1  0.27330000  0.03000000  0.33104000  1.0 -0.2004710795
C  C193  1  0.02060000  0.20110000  0.41618000  1.0 0.6315853627
C  C194  1  0.29890000  0.52060000  0.91618000  1.0 0.6315853627
C  C195  1  0.70110000  0.47940000  0.91618000  1.0 0.6315853627
C  C196  1  0.52060000  0.29890000  0.08382000  1.0 0.6315853627
C  C197  1  0.47940000  0.70110000  0.08382000  1.0 0.6315853627
C  C198  1  0.97940000  0.79890000  0.41618000  1.0 0.6315853627
C  C199  1  0.20110000  0.02060000  0.58382000  1.0 0.6315853627
C  C200  1  0.79890000  0.97940000  0.58382000  1.0 0.6315853627
C  C201  1  0.97940000  0.79890000  0.58382000  1.0 0.6315853627
C  C202  1  0.70110000  0.47940000  0.08382000  1.0 0.6315853627
C  C203  1  0.29890000  0.52060000  0.08382000  1.0 0.6315853627
C  C204  1  0.47940000  0.70110000  0.91618000  1.0 0.6315853627
C  C205  1  0.52060000  0.29890000  0.91618000  1.0 0.6315853627
C  C206  1  0.02060000  0.20110000  0.58382000  1.0 0.6315853627
C  C207  1  0.79890000  0.97940000  0.41618000  1.0 0.6315853627
C  C208  1  0.20110000  0.02060000  0.41618000  1.0 0.6315853627
C  C209  1  0.13450000  0.26930000  0.45869000  1.0 0.5736775318
C  C210  1  0.23070000  0.63450000  0.95869000  1.0 0.5736775318
C  C211  1  0.76930000  0.36550000  0.95869000  1.0 0.5736775318
C  C212  1  0.63450000  0.23070000  0.04131000  1.0 0.5736775318
C  C213  1  0.36550000  0.76930000  0.04131000  1.0 0.5736775318
C  C214  1  0.86550000  0.73070000  0.45869000  1.0 0.5736775318
C  C215  1  0.26930000  0.13450000  0.54131000  1.0 0.5736775318
C  C216  1  0.73070000  0.86550000  0.54131000  1.0 0.5736775318
C  C217  1  0.86550000  0.73070000  0.54131000  1.0 0.5736775318
C  C218  1  0.76930000  0.36550000  0.04131000  1.0 0.5736775318
C  C219  1  0.23070000  0.63450000  0.04131000  1.0 0.5736775318
C  C220  1  0.36550000  0.76930000  0.95869000  1.0 0.5736775318
C  C221  1  0.63450000  0.23070000  0.95869000  1.0 0.5736775318
C  C222  1  0.13450000  0.26930000  0.54131000  1.0 0.5736775318
C  C223  1  0.73070000  0.86550000  0.45869000  1.0 0.5736775318
C  C224  1  0.26930000  0.13450000  0.45869000  1.0 0.5736775318
C  C225  1  0.10740000  0.24560000  0.28386000  1.0 0.5789665574
C  C226  1  0.25440000  0.60740000  0.78386000  1.0 0.5789665574
C  C227  1  0.74560000  0.39260000  0.78386000  1.0 0.5789665574
C  C228  1  0.60740000  0.25440000  0.21614000  1.0 0.5789665574
C  C229  1  0.39260000  0.74560000  0.21614000  1.0 0.5789665574
C  C230  1  0.89260000  0.75440000  0.28386000  1.0 0.5789665574
C  C231  1  0.24560000  0.10740000  0.71614000  1.0 0.5789665574
C  C232  1  0.75440000  0.89260000  0.71614000  1.0 0.5789665574
C  C233  1  0.89260000  0.75440000  0.71614000  1.0 0.5789665574
C  C234  1  0.74560000  0.39260000  0.21614000  1.0 0.5789665574
C  C235  1  0.25440000  0.60740000  0.21614000  1.0 0.5789665574
C  C236  1  0.39260000  0.74560000  0.78386000  1.0 0.5789665574
C  C237  1  0.60740000  0.25440000  0.78386000  1.0 0.5789665574
C  C238  1  0.10740000  0.24560000  0.71614000  1.0 0.5789665574
C  C239  1  0.75440000  0.89260000  0.28386000  1.0 0.5789665574
C  C240  1  0.24560000  0.10740000  0.28386000  1.0 0.5789665574
C  C241  1  0.84230000  0.28470000  0.27301000  1.0 0.5789665574
C  C242  1  0.21530000  0.34230000  0.77301000  1.0 0.5789665574
C  C243  1  0.78470000  0.65770000  0.77301000  1.0 0.5789665574
C  C244  1  0.34230000  0.21530000  0.22699000  1.0 0.5789665574
C  C245  1  0.65770000  0.78470000  0.22699000  1.0 0.5789665574
C  C246  1  0.15770000  0.71530000  0.27301000  1.0 0.5789665574
C  C247  1  0.28470000  0.84230000  0.72699000  1.0 0.5789665574
C  C248  1  0.71530000  0.15770000  0.72699000  1.0 0.5789665574
C  C249  1  0.15770000  0.71530000  0.72699000  1.0 0.5789665574
C  C250  1  0.78470000  0.65770000  0.22699000  1.0 0.5789665574
C  C251  1  0.21530000  0.34230000  0.22699000  1.0 0.5789665574
C  C252  1  0.65770000  0.78470000  0.77301000  1.0 0.5789665574
C  C253  1  0.34230000  0.21530000  0.77301000  1.0 0.5789665574
C  C254  1  0.84230000  0.28470000  0.72699000  1.0 0.5789665574
C  C255  1  0.71530000  0.15770000  0.27301000  1.0 0.5789665574
C  C256  1  0.28470000  0.84230000  0.27301000  1.0 0.5789665574
O  O1  1  0.05930000  0.16140000  0.39978000  1.0 -0.5466274401
O  O2  1  0.33860000  0.55930000  0.89978000  1.0 -0.5466274401
O  O3  1  0.66140000  0.44070000  0.89978000  1.0 -0.5466274401
O  O4  1  0.55930000  0.33860000  0.10022000  1.0 -0.5466274401
O  O5  1  0.44070000  0.66140000  0.10022000  1.0 -0.5466274401
O  O6  1  0.94070000  0.83860000  0.39978000  1.0 -0.5466274401
O  O7  1  0.16140000  0.05930000  0.60022000  1.0 -0.5466274401
O  O8  1  0.83860000  0.94070000  0.60022000  1.0 -0.5466274401
O  O9  1  0.94070000  0.83860000  0.60022000  1.0 -0.5466274401
O  O10  1  0.66140000  0.44070000  0.10022000  1.0 -0.5466274401
O  O11  1  0.33860000  0.55930000  0.10022000  1.0 -0.5466274401
O  O12  1  0.44070000  0.66140000  0.89978000  1.0 -0.5466274401
O  O13  1  0.55930000  0.33860000  0.89978000  1.0 -0.5466274401
O  O14  1  0.05930000  0.16140000  0.60022000  1.0 -0.5466274401
O  O15  1  0.83860000  0.94070000  0.39978000  1.0 -0.5466274401
O  O16  1  0.16140000  0.05930000  0.39978000  1.0 -0.5466274401
O  O17  1  0.96570000  0.18240000  0.43239000  1.0 -0.5803360796
O  O18  1  0.31760000  0.46570000  0.93239000  1.0 -0.5803360796
O  O19  1  0.68240000  0.53430000  0.93239000  1.0 -0.5803360796
O  O20  1  0.46570000  0.31760000  0.06761000  1.0 -0.5803360796
O  O21  1  0.53430000  0.68240000  0.06761000  1.0 -0.5803360796
O  O22  1  0.03430000  0.81760000  0.43239000  1.0 -0.5803360796
O  O23  1  0.18240000  0.96570000  0.56761000  1.0 -0.5803360796
O  O24  1  0.81760000  0.03430000  0.56761000  1.0 -0.5803360796
O  O25  1  0.03430000  0.81760000  0.56761000  1.0 -0.5803360796
O  O26  1  0.68240000  0.53430000  0.06761000  1.0 -0.5803360796
O  O27  1  0.31760000  0.46570000  0.06761000  1.0 -0.5803360796
O  O28  1  0.53430000  0.68240000  0.93239000  1.0 -0.5803360796
O  O29  1  0.46570000  0.31760000  0.93239000  1.0 -0.5803360796
O  O30  1  0.96570000  0.18240000  0.56761000  1.0 -0.5803360796
O  O31  1  0.81760000  0.03430000  0.43239000  1.0 -0.5803360796
O  O32  1  0.18240000  0.96570000  0.43239000  1.0 -0.5803360796
O  O33  1  0.10820000  0.21340000  0.46826000  1.0 -0.4447723111
O  O34  1  0.28660000  0.60820000  0.96826000  1.0 -0.4452214917
O  O35  1  0.71340000  0.39180000  0.96826000  1.0 -0.4452214917
O  O36  1  0.60820000  0.28660000  0.03174000  1.0 -0.4452214917
O  O37  1  0.39180000  0.71340000  0.03174000  1.0 -0.4447723111
O  O38  1  0.89180000  0.78660000  0.46826000  1.0 -0.4452214917
O  O39  1  0.21340000  0.10820000  0.53174000  1.0 -0.4447723111
O  O40  1  0.78660000  0.89180000  0.53174000  1.0 -0.4452214917
O  O41  1  0.89180000  0.78660000  0.53174000  1.0 -0.4452214917
O  O42  1  0.71340000  0.39180000  0.03174000  1.0 -0.4447723111
O  O43  1  0.28660000  0.60820000  0.03174000  1.0 -0.4452214917
O  O44  1  0.39180000  0.71340000  0.96826000  1.0 -0.4452214917
O  O45  1  0.60820000  0.28660000  0.96826000  1.0 -0.4452214917
O  O46  1  0.10820000  0.21340000  0.53174000  1.0 -0.4447723111
O  O47  1  0.78660000  0.89180000  0.46826000  1.0 -0.4452214917
O  O48  1  0.21340000  0.10820000  0.46826000  1.0 -0.4447723111
O  O49  1  0.19380000  0.29860000  0.46791000  1.0 -0.5289043343
O  O50  1  0.20140000  0.69380000  0.96791000  1.0 -0.5289043343
O  O51  1  0.79860000  0.30620000  0.96791000  1.0 -0.5289043343
O  O52  1  0.69380000  0.20140000  0.03209000  1.0 -0.5289043343
O  O53  1  0.30620000  0.79860000  0.03209000  1.0 -0.5289043343
O  O54  1  0.80620000  0.70140000  0.46791000  1.0 -0.5289043343
O  O55  1  0.29860000  0.19380000  0.53209000  1.0 -0.5289043343
O  O56  1  0.70140000  0.80620000  0.53209000  1.0 -0.5289043343
O  O57  1  0.80620000  0.70140000  0.53209000  1.0 -0.5289043343
O  O58  1  0.79860000  0.30620000  0.03209000  1.0 -0.5289043343
O  O59  1  0.20140000  0.69380000  0.03209000  1.0 -0.5289043343
O  O60  1  0.30620000  0.79860000  0.96791000  1.0 -0.5289043343
O  O61  1  0.69380000  0.20140000  0.96791000  1.0 -0.5289043343
O  O62  1  0.19380000  0.29860000  0.53209000  1.0 -0.5289043343
O  O63  1  0.70140000  0.80620000  0.46791000  1.0 -0.5289043343
O  O64  1  0.29860000  0.19380000  0.46791000  1.0 -0.5289043343
O  O65  1  0.16240000  0.26670000  0.29798000  1.0 -0.5126410449
O  O66  1  0.23330000  0.66240000  0.79798000  1.0 -0.5126410449
O  O67  1  0.76670000  0.33760000  0.79798000  1.0 -0.5126410449
O  O68  1  0.66240000  0.23330000  0.20202000  1.0 -0.5126410449
O  O69  1  0.33760000  0.76670000  0.20202000  1.0 -0.5126410449
O  O70  1  0.83760000  0.73330000  0.29798000  1.0 -0.5126410449
O  O71  1  0.26670000  0.16240000  0.70202000  1.0 -0.5126410449
O  O72  1  0.73330000  0.83760000  0.70202000  1.0 -0.5126410449
O  O73  1  0.83760000  0.73330000  0.70202000  1.0 -0.5126410449
O  O74  1  0.76670000  0.33760000  0.20202000  1.0 -0.5126410449
O  O75  1  0.23330000  0.66240000  0.20202000  1.0 -0.5126410449
O  O76  1  0.33760000  0.76670000  0.79798000  1.0 -0.5126410449
O  O77  1  0.66240000  0.23330000  0.79798000  1.0 -0.5126410449
O  O78  1  0.16240000  0.26670000  0.70202000  1.0 -0.5126410449
O  O79  1  0.73330000  0.83760000  0.29798000  1.0 -0.5126410449
O  O80  1  0.26670000  0.16240000  0.29798000  1.0 -0.5126410449
O  O81  1  0.10580000  0.21210000  0.25795000  1.0 -0.520734415
O  O82  1  0.28790000  0.60580000  0.75795000  1.0 -0.520734415
O  O83  1  0.71210000  0.39420000  0.75795000  1.0 -0.520734415
O  O84  1  0.60580000  0.28790000  0.24205000  1.0 -0.520734415
O  O85  1  0.39420000  0.71210000  0.24205000  1.0 -0.520734415
O  O86  1  0.89420000  0.78790000  0.25795000  1.0 -0.520734415
O  O87  1  0.21210000  0.10580000  0.74205000  1.0 -0.520734415
O  O88  1  0.78790000  0.89420000  0.74205000  1.0 -0.520734415
O  O89  1  0.89420000  0.78790000  0.74205000  1.0 -0.520734415
O  O90  1  0.71210000  0.39420000  0.24205000  1.0 -0.520734415
O  O91  1  0.28790000  0.60580000  0.24205000  1.0 -0.520734415
O  O92  1  0.39420000  0.71210000  0.75795000  1.0 -0.520734415
O  O93  1  0.60580000  0.28790000  0.75795000  1.0 -0.520734415
O  O94  1  0.10580000  0.21210000  0.74205000  1.0 -0.520734415
O  O95  1  0.78790000  0.89420000  0.25795000  1.0 -0.520734415
O  O96  1  0.21210000  0.10580000  0.25795000  1.0 -0.520734415
O  O97  1  0.84510000  0.25770000  0.24570000  1.0 -0.5126410449
O  O98  1  0.24230000  0.34510000  0.74570000  1.0 -0.5126410449
O  O99  1  0.75770000  0.65490000  0.74570000  1.0 -0.5126410449
O  O100  1  0.34510000  0.24230000  0.25430000  1.0 -0.5126410449
O  O101  1  0.65490000  0.75770000  0.25430000  1.0 -0.5126410449
O  O102  1  0.15490000  0.74230000  0.24570000  1.0 -0.5126410449
O  O103  1  0.25770000  0.84510000  0.75430000  1.0 -0.5126410449
O  O104  1  0.74230000  0.15490000  0.75430000  1.0 -0.5126410449
O  O105  1  0.15490000  0.74230000  0.75430000  1.0 -0.5126410449
O  O106  1  0.75770000  0.65490000  0.25430000  1.0 -0.5126410449
O  O107  1  0.24230000  0.34510000  0.25430000  1.0 -0.5126410449
O  O108  1  0.65490000  0.75770000  0.74570000  1.0 -0.5126410449
O  O109  1  0.34510000  0.24230000  0.74570000  1.0 -0.5126410449
O  O110  1  0.84510000  0.25770000  0.75430000  1.0 -0.5126410449
O  O111  1  0.74230000  0.15490000  0.24570000  1.0 -0.5126410449
O  O112  1  0.25770000  0.84510000  0.24570000  1.0 -0.5126410449
O  O113  1  0.78800000  0.31490000  0.28546000  1.0 -0.5289043343
O  O114  1  0.18510000  0.28800000  0.78546000  1.0 -0.5289043343
O  O115  1  0.81490000  0.71200000  0.78546000  1.0 -0.5289043343
O  O116  1  0.28800000  0.18510000  0.21454000  1.0 -0.5289043343
O  O117  1  0.71200000  0.81490000  0.21454000  1.0 -0.5289043343
O  O118  1  0.21200000  0.68510000  0.28546000  1.0 -0.5289043343
O  O119  1  0.31490000  0.78800000  0.71454000  1.0 -0.5289043343
O  O120  1  0.68510000  0.21200000  0.71454000  1.0 -0.5289043343
O  O121  1  0.21200000  0.68510000  0.71454000  1.0 -0.5289043343
O  O122  1  0.81490000  0.71200000  0.21454000  1.0 -0.5289043343
O  O123  1  0.18510000  0.28800000  0.21454000  1.0 -0.5289043343
O  O124  1  0.71200000  0.81490000  0.78546000  1.0 -0.5289043343
O  O125  1  0.28800000  0.18510000  0.78546000  1.0 -0.5289043343
O  O126  1  0.78800000  0.31490000  0.71454000  1.0 -0.5289043343
O  O127  1  0.68510000  0.21200000  0.28546000  1.0 -0.5289043343
O  O128  1  0.31490000  0.78800000  0.28546000  1.0 -0.5289043343
O  O129  1  0.95060000  0.29090000  0.37597000  1.0 -0.2096898478
O  O130  1  0.20910000  0.45060000  0.87597000  1.0 -0.2096898478
O  O131  1  0.79090000  0.54940000  0.87597000  1.0 -0.2096898478
O  O132  1  0.45060000  0.20910000  0.12403000  1.0 -0.2096898478
O  O133  1  0.54940000  0.79090000  0.12403000  1.0 -0.2096898478
O  O134  1  0.04940000  0.70910000  0.37597000  1.0 -0.2096898478
O  O135  1  0.29090000  0.95060000  0.62403000  1.0 -0.2096898478
O  O136  1  0.70910000  0.04940000  0.62403000  1.0 -0.2096898478
O  O137  1  0.04940000  0.70910000  0.62403000  1.0 -0.2096898478
O  O138  1  0.79090000  0.54940000  0.12403000  1.0 -0.2096898478
O  O139  1  0.20910000  0.45060000  0.12403000  1.0 -0.2096898478
O  O140  1  0.54940000  0.79090000  0.87597000  1.0 -0.2096898478
O  O141  1  0.45060000  0.20910000  0.87597000  1.0 -0.2096898478
O  O142  1  0.95060000  0.29090000  0.62403000  1.0 -0.2096898478
O  O143  1  0.70910000  0.04940000  0.37597000  1.0 -0.2096898478
O  O144  1  0.29090000  0.95060000  0.37597000  1.0 -0.2096898478
O  O145  1  0.95040000  0.04960000  0.39543000  1.0 -1.0084873667
O  O146  1  0.45040000  0.45040000  0.89543000  1.0 -1.0084873667
O  O147  1  0.54960000  0.54960000  0.89543000  1.0 -1.0084873667
O  O148  1  0.45040000  0.45040000  0.10457000  1.0 -1.0084873667
O  O149  1  0.54960000  0.54960000  0.10457000  1.0 -1.0084873667
O  O150  1  0.04960000  0.95040000  0.39543000  1.0 -1.0084873667
O  O151  1  0.04960000  0.95040000  0.60457000  1.0 -1.0084873667
O  O152  1  0.95040000  0.04960000  0.60457000  1.0 -1.0084873667
