# DDEC6 charges by PACMAN v1.1 (https://github.com/mtap-research/PACMAN-charge/)
data_EJOQOL_ASR_pacman
_symmetry_space_group_name_H-M   'P 1'
_cell_length_a   17.50700000
_cell_length_b   17.50700000
_cell_length_c   19.29680000
_cell_angle_alpha   66.45730000
_cell_angle_beta   113.54300000
_cell_angle_gamma   103.69500000
_symmetry_Int_Tables_number   1
_chemical_formula_structural   K2Cu7H24(C32O19)2
_chemical_formula_sum   'K4 Cu14 H48 C128 O76'
_cell_volume   4949.72885879
_cell_formula_units_Z   2
loop_
 _symmetry_equiv_pos_site_id
 _symmetry_equiv_pos_as_xyz
  1  'x, y, z'
loop_
 _atom_site_type_symbol
 _atom_site_label
 _atom_site_symmetry_multiplicity
 _atom_site_fract_x
 _atom_site_fract_y
 _atom_site_fract_z
 _atom_site_occupancy
 _atom_site_charge
K  K1  1  0.67044000  0.84320000  0.68443000  1.0 1.0813028833
K  K2  1  0.84320000  0.67044000  0.81557000  1.0 1.0813028833
K  K3  1  0.32956000  0.15680000  0.31557000  1.0 1.0856321474
K  K4  1  0.15680000  0.32956000  0.18443000  1.0 1.0856321474
Cu  Cu1  1  0.70577000  0.94753000  0.86891000  1.0 0.8421699276
Cu  Cu2  1  0.94753000  0.70577000  0.63109000  1.0 0.8421699276
Cu  Cu3  1  0.29423000  0.05247000  0.13109000  1.0 0.8421699276
Cu  Cu4  1  0.05247000  0.29423000  0.36891000  1.0 0.8421699276
Cu  Cu5  1  0.67453000  0.10191000  0.83472000  1.0 0.8302628567
Cu  Cu6  1  0.10191000  0.67453000  0.66528000  1.0 0.8302628567
Cu  Cu7  1  0.32547000  0.89809000  0.16528000  1.0 0.8302628567
Cu  Cu8  1  0.89809000  0.32547000  0.33472000  1.0 0.8302628567
Cu  Cu9  1  0.58973000  0.58973000  0.25000000  1.0 0.9099387547
Cu  Cu10  1  0.41027000  0.41027000  0.75000000  1.0 0.9099387547
Cu  Cu11  1  0.62821000  0.00773000  0.58742000  1.0 1.0124764462
Cu  Cu12  1  0.00773000  0.62821000  0.91258000  1.0 1.0124764462
Cu  Cu13  1  0.37179000  0.99227000  0.41258000  1.0 1.0124764462
Cu  Cu14  1  0.99227000  0.37179000  0.08742000  1.0 1.0124764462
H  H1  1  0.85120000  0.23500000  0.53310000  1.0 0.1287109239
H  H2  1  0.23500000  0.85120000  0.96690000  1.0 0.1287109239
H  H3  1  0.14880000  0.76500000  0.46690000  1.0 0.1287109239
H  H4  1  0.76500000  0.14880000  0.03310000  1.0 0.1287109239
H  H5  1  0.98730000  0.21110000  0.61370000  1.0 0.1116443297
H  H6  1  0.21110000  0.98730000  0.88630000  1.0 0.1116443297
H  H7  1  0.01270000  0.78890000  0.38630000  1.0 0.1116443297
H  H8  1  0.78890000  0.01270000  0.11370000  1.0 0.1116443297
H  H9  1  0.02010000  0.13130000  0.75010000  1.0 0.1287109239
H  H10  1  0.13130000  0.02010000  0.74990000  1.0 0.1287109239
H  H11  1  0.97990000  0.86870000  0.24990000  1.0 0.1287109239
H  H12  1  0.86870000  0.97990000  0.25010000  1.0 0.1287109239
H  H13  1  0.89060000  0.93220000  0.81550000  1.0 0.1526667664
H  H14  1  0.93220000  0.89060000  0.68450000  1.0 0.1526667664
H  H15  1  0.10940000  0.06780000  0.18450000  1.0 0.1526667664
H  H16  1  0.06780000  0.10940000  0.31550000  1.0 0.1526667664
H  H17  1  0.09160000  0.82880000  0.00040000  1.0 0.1287109239
H  H18  1  0.82880000  0.09160000  0.49960000  1.0 0.1287109239
H  H19  1  0.90840000  0.17120000  0.99960000  1.0 0.1287109239
H  H20  1  0.17120000  0.90840000  0.50040000  1.0 0.1287109239
H  H21  1  0.05880000  0.06740000  0.94470000  1.0 0.1526667664
H  H22  1  0.06740000  0.05880000  0.55530000  1.0 0.1526667664
H  H23  1  0.94120000  0.93260000  0.05530000  1.0 0.1526667664
H  H24  1  0.93260000  0.94120000  0.44470000  1.0 0.1526667664
H  H25  1  0.69170000  0.08410000  0.41880000  1.0 0.1214185154
H  H26  1  0.08410000  0.69170000  0.08120000  1.0 0.1214185154
H  H27  1  0.30830000  0.91590000  0.58120000  1.0 0.1214185154
H  H28  1  0.91590000  0.30830000  0.91880000  1.0 0.1214185154
H  H29  1  0.77180000  0.11020000  0.34020000  1.0 0.1214185154
H  H30  1  0.11020000  0.77180000  0.15980000  1.0 0.1214185154
H  H31  1  0.22820000  0.88980000  0.65980000  1.0 0.1214185154
H  H32  1  0.88980000  0.22820000  0.84020000  1.0 0.1214185154
H  H33  1  0.71070000  0.09350000  0.21540000  1.0 0.1287109239
H  H34  1  0.09350000  0.71070000  0.28460000  1.0 0.1287109239
H  H35  1  0.28930000  0.90650000  0.78460000  1.0 0.1287109239
H  H36  1  0.90650000  0.28930000  0.71540000  1.0 0.1287109239
H  H37  1  0.56120000  0.89360000  0.22450000  1.0 0.1526667664
H  H38  1  0.89360000  0.56120000  0.27550000  1.0 0.1526667664
H  H39  1  0.43880000  0.10640000  0.77550000  1.0 0.1526667664
H  H40  1  0.10640000  0.43880000  0.72450000  1.0 0.1526667664
H  H41  1  0.61770000  0.83110000  0.07330000  1.0 0.1418845227
H  H42  1  0.83110000  0.61770000  0.42670000  1.0 0.1418845227
H  H43  1  0.38230000  0.16890000  0.92670000  1.0 0.1418845227
H  H44  1  0.16890000  0.38230000  0.57330000  1.0 0.1418845227
H  H45  1  0.59820000  0.07080000  0.02760000  1.0 0.1526667664
H  H46  1  0.07080000  0.59820000  0.47240000  1.0 0.1526667664
H  H47  1  0.40180000  0.92920000  0.97240000  1.0 0.1526667664
H  H48  1  0.92920000  0.40180000  0.52760000  1.0 0.1526667664
C  C1  1  0.90137000  0.11183000  0.74820000  1.0 0.1989859214
C  C2  1  0.11183000  0.90137000  0.75180000  1.0 0.1989859214
C  C3  1  0.09863000  0.88817000  0.25180000  1.0 0.1989859214
C  C4  1  0.88817000  0.09863000  0.24820000  1.0 0.1989859214
C  C5  1  0.81906000  0.12074000  0.70210000  1.0 -0.1284378486
C  C6  1  0.12074000  0.81906000  0.79790000  1.0 -0.1284378486
C  C7  1  0.18094000  0.87926000  0.29790000  1.0 -0.1284378486
C  C8  1  0.87926000  0.18094000  0.20210000  1.0 -0.1284378486
C  C9  1  0.79870000  0.16690000  0.62000000  1.0 -0.0195335186
C  C10  1  0.16690000  0.79870000  0.88000000  1.0 -0.0195335186
C  C11  1  0.20130000  0.83310000  0.38000000  1.0 -0.0195335186
C  C12  1  0.83310000  0.20130000  0.12000000  1.0 -0.0195335186
C  C13  1  0.86370000  0.20250000  0.58720000  1.0 -0.1284378486
C  C14  1  0.20250000  0.86370000  0.91280000  1.0 -0.1284378486
C  C15  1  0.13630000  0.79750000  0.41280000  1.0 -0.1284378486
C  C16  1  0.79750000  0.13630000  0.08720000  1.0 -0.1284378486
C  C17  1  0.94490000  0.18890000  0.63560000  1.0 -0.069964228
C  C18  1  0.18890000  0.94490000  0.86440000  1.0 -0.069964228
C  C19  1  0.05510000  0.81110000  0.36440000  1.0 -0.069964228
C  C20  1  0.81110000  0.05510000  0.13560000  1.0 -0.069964228
C  C21  1  0.96510000  0.14190000  0.71750000  1.0 -0.2114175762
C  C22  1  0.14190000  0.96510000  0.78250000  1.0 -0.2114175762
C  C23  1  0.03490000  0.85810000  0.28250000  1.0 -0.2114175762
C  C24  1  0.85810000  0.03490000  0.21750000  1.0 -0.2114175762
C  C25  1  0.96793000  0.01047000  0.87320000  1.0 0.2506200244
C  C26  1  0.01047000  0.96793000  0.62680000  1.0 0.2506200244
C  C27  1  0.03207000  0.98953000  0.12680000  1.0 0.2506200244
C  C28  1  0.98953000  0.03207000  0.37320000  1.0 0.2506200244
C  C29  1  0.93980000  0.93600000  0.85770000  1.0 -0.200775784
C  C30  1  0.93600000  0.93980000  0.64230000  1.0 -0.200775784
C  C31  1  0.06020000  0.06400000  0.14230000  1.0 -0.200775784
C  C32  1  0.06400000  0.06020000  0.35770000  1.0 -0.200775784
C  C33  1  0.98590000  0.86650000  0.90600000  1.0 -0.0032966334
C  C34  1  0.86650000  0.98590000  0.59400000  1.0 -0.0032966334
C  C35  1  0.01410000  0.13350000  0.09400000  1.0 -0.0032966334
C  C36  1  0.13350000  0.01410000  0.40600000  1.0 -0.0032966334
C  C37  1  0.05980000  0.87420000  0.96840000  1.0 -0.122887818
C  C38  1  0.87420000  0.05980000  0.53160000  1.0 -0.122887818
C  C39  1  0.94020000  0.12580000  0.03160000  1.0 -0.122887818
C  C40  1  0.12580000  0.94020000  0.46840000  1.0 -0.122887818
C  C41  1  0.08614000  0.94954000  0.98280000  1.0 -0.008801594
C  C42  1  0.94954000  0.08614000  0.51720000  1.0 -0.008801594
C  C43  1  0.91386000  0.05046000  0.01720000  1.0 -0.008801594
C  C44  1  0.05046000  0.91386000  0.48280000  1.0 -0.008801594
C  C45  1  0.04055000  0.01705000  0.93510000  1.0 -0.200775784
C  C46  1  0.01705000  0.04055000  0.56490000  1.0 -0.200775784
C  C47  1  0.95945000  0.98295000  0.06490000  1.0 -0.200775784
C  C48  1  0.98295000  0.95945000  0.43510000  1.0 -0.200775784
C  C49  1  0.75652000  0.08628000  0.74460000  1.0 0.6139720699
C  C50  1  0.08628000  0.75652000  0.75540000  1.0 0.6139720699
C  C51  1  0.24348000  0.91372000  0.25540000  1.0 0.6139720699
C  C52  1  0.91372000  0.24348000  0.24460000  1.0 0.6139720699
C  C53  1  0.71040000  0.17700000  0.56490000  1.0 0.5690400024
C  C54  1  0.17700000  0.71040000  0.93510000  1.0 0.5690400024
C  C55  1  0.28960000  0.82300000  0.43510000  1.0 0.5690400024
C  C56  1  0.82300000  0.28960000  0.06490000  1.0 0.5690400024
C  C57  1  0.16756000  0.95724000  0.04800000  1.0 0.5690400024
C  C58  1  0.95724000  0.16756000  0.45200000  1.0 0.5690400024
C  C59  1  0.83244000  0.04276000  0.95200000  1.0 0.5690400024
C  C60  1  0.04276000  0.83244000  0.54800000  1.0 0.5690400024
C  C61  1  0.95780000  0.78580000  0.89120000  1.0 0.5819167515
C  C62  1  0.78580000  0.95780000  0.60880000  1.0 0.5819167515
C  C63  1  0.04220000  0.21420000  0.10880000  1.0 0.5819167515
C  C64  1  0.21420000  0.04220000  0.39120000  1.0 0.5819167515
C  C65  1  0.59480000  0.05560000  0.22240000  1.0 0.2246748378
C  C66  1  0.05560000  0.59480000  0.27760000  1.0 0.2246748378
C  C67  1  0.40520000  0.94440000  0.77760000  1.0 0.2246748378
C  C68  1  0.94440000  0.40520000  0.72240000  1.0 0.2246748378
C  C69  1  0.54530000  0.03870000  0.26870000  1.0 -0.1351644973
C  C70  1  0.03870000  0.54530000  0.23130000  1.0 -0.1351644973
C  C71  1  0.45470000  0.96130000  0.73130000  1.0 -0.1351644973
C  C72  1  0.96130000  0.45470000  0.76870000  1.0 -0.1351644973
C  C73  1  0.58220000  0.05040000  0.34410000  1.0 -0.0331101174
C  C74  1  0.05040000  0.58220000  0.15590000  1.0 -0.0331101174
C  C75  1  0.41780000  0.94960000  0.65590000  1.0 -0.0331101174
C  C76  1  0.94960000  0.41780000  0.84410000  1.0 -0.0331101174
C  C77  1  0.66666667  0.07670000  0.36900000  1.0 -0.0989766399
C  C78  1  0.07670000  0.66666667  0.13100000  1.0 -0.0989766399
C  C79  1  0.33333333  0.92330000  0.63100000  1.0 -0.0989766399
C  C80  1  0.92330000  0.33333333  0.86900000  1.0 -0.0989766399
C  C81  1  0.71520000  0.09280000  0.32190000  1.0 -0.0643075051
C  C82  1  0.09280000  0.71520000  0.17810000  1.0 -0.0643075051
C  C83  1  0.28480000  0.90720000  0.67810000  1.0 -0.0643075051
C  C84  1  0.90720000  0.28480000  0.82190000  1.0 -0.0643075051
C  C85  1  0.67910000  0.08250000  0.24770000  1.0 -0.1900383921
C  C86  1  0.08250000  0.67910000  0.25230000  1.0 -0.1900383921
C  C87  1  0.32090000  0.91750000  0.75230000  1.0 -0.1900383921
C  C88  1  0.91750000  0.32090000  0.74770000  1.0 -0.1900383921
C  C89  1  0.57630000  0.99230000  0.12890000  1.0 0.2506200244
C  C90  1  0.99230000  0.57630000  0.37110000  1.0 0.2506200244
C  C91  1  0.42370000  0.00770000  0.87110000  1.0 0.2506200244
C  C92  1  0.00770000  0.42370000  0.62890000  1.0 0.2506200244
C  C93  1  0.57320000  0.90880000  0.17760000  1.0 -0.1755476127
C  C94  1  0.90880000  0.57320000  0.32240000  1.0 -0.1755476127
C  C95  1  0.42680000  0.09120000  0.82240000  1.0 -0.1755476127
C  C96  1  0.09120000  0.42680000  0.67760000  1.0 -0.1755476127
C  C97  1  0.58740000  0.84980000  0.15710000  1.0 -0.008801594
C  C98  1  0.84980000  0.58740000  0.34290000  1.0 -0.008801594
C  C99  1  0.41260000  0.15020000  0.84290000  1.0 -0.008801594
C  C100  1  0.15020000  0.41260000  0.65710000  1.0 -0.008801594
C  C101  1  0.60740000  0.87200000  0.08700000  1.0 -0.1134429107
C  C102  1  0.87200000  0.60740000  0.41300000  1.0 -0.1134429107
C  C103  1  0.39260000  0.12800000  0.91300000  1.0 -0.1134429107
C  C104  1  0.12800000  0.39260000  0.58700000  1.0 -0.1134429107
C  C105  1  0.61160000  0.95360000  0.04010000  1.0 -0.008801594
C  C106  1  0.95360000  0.61160000  0.45990000  1.0 -0.008801594
C  C107  1  0.38840000  0.04640000  0.95990000  1.0 -0.008801594
C  C108  1  0.04640000  0.38840000  0.54010000  1.0 -0.008801594
C  C109  1  0.59570000  0.01490000  0.06020000  1.0 -0.1900383921
C  C110  1  0.01490000  0.59570000  0.43980000  1.0 -0.1900383921
C  C111  1  0.40430000  0.98510000  0.93980000  1.0 -0.1900383921
C  C112  1  0.98510000  0.40430000  0.56020000  1.0 -0.1900383921
C  C113  1  0.45500000  0.01560000  0.23300000  1.0 0.6189570447
C  C114  1  0.01560000  0.45500000  0.26700000  1.0 0.6189570447
C  C115  1  0.54500000  0.98440000  0.76700000  1.0 0.6189570447
C  C116  1  0.98440000  0.54500000  0.73300000  1.0 0.6189570447
C  C117  1  0.53230000  0.03630000  0.39500000  1.0 0.5900244733
C  C118  1  0.03630000  0.53230000  0.10500000  1.0 0.5900244733
C  C119  1  0.46770000  0.96370000  0.60500000  1.0 0.5900244733
C  C120  1  0.96370000  0.46770000  0.89500000  1.0 0.5900244733
C  C121  1  0.63600000  0.98080000  0.96710000  1.0 0.5690400024
C  C122  1  0.98080000  0.63600000  0.53290000  1.0 0.5690400024
C  C123  1  0.36400000  0.01920000  0.03290000  1.0 0.5690400024
C  C124  1  0.01920000  0.36400000  0.46710000  1.0 0.5690400024
C  C125  1  0.57940000  0.76140000  0.20720000  1.0 0.5690400024
C  C126  1  0.76140000  0.57940000  0.29280000  1.0 0.5690400024
C  C127  1  0.42060000  0.23860000  0.79280000  1.0 0.5690400024
C  C128  1  0.23860000  0.42060000  0.70720000  1.0 0.5690400024
O  O1  1  0.74527000  0.00771000  0.77487000  1.0 -0.5377830127
O  O2  1  0.00771000  0.74527000  0.72513000  1.0 -0.5377830127
O  O3  1  0.25473000  0.99229000  0.22513000  1.0 -0.5377830127
O  O4  1  0.99229000  0.25473000  0.27487000  1.0 -0.5377830127
O  O5  1  0.72620000  0.13894000  0.75268000  1.0 -0.4614672678
O  O6  1  0.13894000  0.72620000  0.74732000  1.0 -0.4614672678
O  O7  1  0.27380000  0.86106000  0.24732000  1.0 -0.4614672678
O  O8  1  0.86106000  0.27380000  0.25268000  1.0 -0.4614672678
O  O9  1  0.65463000  0.12277000  0.58538000  1.0 -0.5212930619
O  O10  1  0.12277000  0.65463000  0.91462000  1.0 -0.5212930619
O  O11  1  0.34537000  0.87723000  0.41462000  1.0 -0.5212930619
O  O12  1  0.87723000  0.34537000  0.08538000  1.0 -0.5212930619
O  O13  1  0.69590000  0.23670000  0.50150000  1.0 -0.4614672678
O  O14  1  0.23670000  0.69590000  0.99850000  1.0 -0.4614672678
O  O15  1  0.30410000  0.76330000  0.49850000  1.0 -0.4614672678
O  O16  1  0.76330000  0.30410000  0.00150000  1.0 -0.4614672678
O  O17  1  0.18626000  0.02582000  0.05964000  1.0 -0.4922375907
O  O18  1  0.02582000  0.18626000  0.44036000  1.0 -0.4922375907
O  O19  1  0.81374000  0.97418000  0.94036000  1.0 -0.4922375907
O  O20  1  0.97418000  0.81374000  0.55964000  1.0 -0.4922375907
O  O21  1  0.21070000  0.89656000  0.08505000  1.0 -0.4966854284
O  O22  1  0.89656000  0.21070000  0.41495000  1.0 -0.4966854284
O  O23  1  0.78930000  0.10344000  0.91495000  1.0 -0.4966854284
O  O24  1  0.10344000  0.78930000  0.58505000  1.0 -0.4966854284
O  O25  1  0.01107000  0.73395000  0.92420000  1.0 -0.5212930619
O  O26  1  0.73395000  0.01107000  0.57580000  1.0 -0.5212930619
O  O27  1  0.98893000  0.26605000  0.07580000  1.0 -0.5212930619
O  O28  1  0.26605000  0.98893000  0.42420000  1.0 -0.5212930619
O  O29  1  0.88630000  0.77490000  0.85040000  1.0 -0.5451806167
O  O30  1  0.77490000  0.88630000  0.64960000  1.0 -0.5451806167
O  O31  1  0.11370000  0.22510000  0.14960000  1.0 -0.5377830127
O  O32  1  0.22510000  0.11370000  0.35040000  1.0 -0.5451806167
O  O33  1  0.92065000  0.07773000  0.83199000  1.0 -0.2114175762
O  O34  1  0.07773000  0.92065000  0.66801000  1.0 -0.2114175762
O  O35  1  0.07935000  0.92227000  0.16801000  1.0 -0.2114175762
O  O36  1  0.92227000  0.07935000  0.33199000  1.0 -0.2114175762
O  O37  1  0.43369000  0.94037000  0.23491000  1.0 -0.5143016855
O  O38  1  0.94037000  0.43369000  0.26509000  1.0 -0.5143016855
O  O39  1  0.56631000  0.05963000  0.76509000  1.0 -0.5143016855
O  O40  1  0.05963000  0.56631000  0.73491000  1.0 -0.5143016855
O  O41  1  0.40731000  0.07305000  0.19891000  1.0 -0.4922375907
O  O42  1  0.07305000  0.40731000  0.30109000  1.0 -0.4922375907
O  O43  1  0.59269000  0.92695000  0.80109000  1.0 -0.4922375907
O  O44  1  0.92695000  0.59269000  0.69891000  1.0 -0.4922375907
O  O45  1  0.46056000  0.99836000  0.37600000  1.0 -0.5143016855
O  O46  1  0.99836000  0.46056000  0.12400000  1.0 -0.5143016855
O  O47  1  0.53944000  0.00164000  0.62400000  1.0 -0.5143016855
O  O48  1  0.00164000  0.53944000  0.87600000  1.0 -0.5143016855
O  O49  1  0.56220000  0.06500000  0.45120000  1.0 -0.5266390125
O  O50  1  0.06500000  0.56220000  0.04880000  1.0 -0.5266390125
O  O51  1  0.43780000  0.93500000  0.54880000  1.0 -0.5266390125
O  O52  1  0.93500000  0.43780000  0.95120000  1.0 -0.5266390125
O  O53  1  0.63271000  0.05587000  0.92341000  1.0 -0.4922375907
O  O54  1  0.05587000  0.63271000  0.57659000  1.0 -0.4922375907
O  O55  1  0.36729000  0.94413000  0.07659000  1.0 -0.4922375907
O  O56  1  0.94413000  0.36729000  0.42341000  1.0 -0.4922375907
O  O57  1  0.66128000  0.92520000  0.95645000  1.0 -0.5212930619
O  O58  1  0.92520000  0.66128000  0.54355000  1.0 -0.5212930619
O  O59  1  0.33872000  0.07480000  0.04355000  1.0 -0.5212930619
O  O60  1  0.07480000  0.33872000  0.45645000  1.0 -0.5212930619
O  O61  1  0.59680000  0.70620000  0.18820000  1.0 -0.565797923
O  O62  1  0.70620000  0.59680000  0.31180000  1.0 -0.565797923
O  O63  1  0.40320000  0.29380000  0.81180000  1.0 -0.565797923
O  O64  1  0.29380000  0.40320000  0.68820000  1.0 -0.565797923
O  O65  1  0.55400000  0.74120000  0.26370000  1.0 -0.4966854284
O  O66  1  0.74120000  0.55400000  0.23630000  1.0 -0.4966854284
O  O67  1  0.44600000  0.25880000  0.73630000  1.0 -0.4966854284
O  O68  1  0.25880000  0.44600000  0.76370000  1.0 -0.4966854284
O  O69  1  0.55551000  0.05361000  0.14439000  1.0 -0.200775784
O  O70  1  0.05361000  0.55551000  0.35561000  1.0 -0.200775784
O  O71  1  0.44449000  0.94639000  0.85561000  1.0 -0.200775784
O  O72  1  0.94639000  0.44449000  0.64439000  1.0 -0.200775784
O  O73  1  0.60360000  0.89160000  0.59670000  1.0 -0.7673507909
O  O74  1  0.89160000  0.60360000  0.90330000  1.0 -0.7673507909
O  O75  1  0.39640000  0.10840000  0.40330000  1.0 -0.7673507909
O  O76  1  0.10840000  0.39640000  0.09670000  1.0 -0.7673507909
