# DDEC6 charges by PACMAN v1.1 (https://github.com/mtap-research/PACMAN-charge/)
data_EJORAY_ASR_pacman
_symmetry_space_group_name_H-M   'P 1'
_cell_length_a   10.78800000
_cell_length_b   11.25200000
_cell_length_c   11.84000000
_cell_angle_alpha   100.85400000
_cell_angle_beta   110.28900000
_cell_angle_gamma   99.77700000
_symmetry_Int_Tables_number   1
_chemical_formula_structural   Cu5H10(C8O5)4
_chemical_formula_sum   'Cu5 H10 C32 O20'
_cell_volume   1280.08184741
_cell_formula_units_Z   1
loop_
 _symmetry_equiv_pos_site_id
 _symmetry_equiv_pos_as_xyz
  1  'x, y, z'
loop_
 _atom_site_type_symbol
 _atom_site_label
 _atom_site_symmetry_multiplicity
 _atom_site_fract_x
 _atom_site_fract_y
 _atom_site_fract_z
 _atom_site_occupancy
 _atom_site_charge
Cu  Cu1  1  0.64293000  0.50999000  0.01128000  1.0 1.1065049544
Cu  Cu2  1  0.35707000  0.49001000  0.98872000  1.0 1.1065049544
Cu  Cu3  1  0.56086000  0.38500000  0.21096000  1.0 1.0467859283
Cu  Cu4  1  0.43914000  0.61500000  0.78904000  1.0 1.0467859283
Cu  Cu5  1  0.50000000  0.00000000  0.00000000  1.0 0.5709111467
H  H1  1  0.16500000  0.26030000  0.49550000  1.0 0.1397291073
H  H2  1  0.83500000  0.73970000  0.50450000  1.0 0.1397291073
H  H3  1  0.25230000  0.90000000  0.60570000  1.0 0.1397291073
H  H4  1  0.74770000  0.10000000  0.39430000  1.0 0.1397291073
H  H5  1  0.22870000  0.18300000  0.26270000  1.0 0.1498467587
H  H6  1  0.77130000  0.81700000  0.73730000  1.0 0.1498467587
H  H7  1  0.02470000  0.41350000  0.09990000  1.0 0.1397291073
H  H8  1  0.97530000  0.58650000  0.90010000  1.0 0.1397291073
H  H9  1  0.85000000  0.17460000  0.24970000  1.0 0.1498467587
H  H10  1  0.15000000  0.82540000  0.75030000  1.0 0.1498467587
C  C1  1  0.12480000  0.07370000  0.43170000  1.0 0.221556209
C  C2  1  0.87520000  0.92630000  0.56830000  1.0 0.221556209
C  C3  1  0.18220000  0.18820000  0.51830000  1.0 -0.2160306275
C  C4  1  0.81780000  0.81180000  0.48170000  1.0 -0.2160306275
C  C5  1  0.26680000  0.19590000  0.64090000  1.0 0.0425797998
C  C6  1  0.73320000  0.80410000  0.35910000  1.0 0.0425797998
C  C7  1  0.29420000  0.08640000  0.67400000  1.0 -0.0258592293
C  C8  1  0.70580000  0.91360000  0.32600000  1.0 -0.0258592293
C  C9  1  0.23440000  0.97260000  0.58420000  1.0 -0.1054189578
C  C10  1  0.76560000  0.02740000  0.41580000  1.0 -0.1054189578
C  C11  1  0.14800000  0.96400000  0.46210000  1.0 -0.0549244211
C  C12  1  0.85200000  0.03600000  0.53790000  1.0 -0.0549244211
C  C13  1  0.03880000  0.16360000  0.26160000  1.0 0.2376578748
C  C14  1  0.96120000  0.83640000  0.73840000  1.0 0.2376578748
C  C15  1  0.15080000  0.21270000  0.23840000  1.0 -0.1804634705
C  C16  1  0.84920000  0.78730000  0.76160000  1.0 -0.1804634705
C  C17  1  0.14500000  0.30710000  0.17800000  1.0 0.0038425937
C  C18  1  0.85500000  0.69290000  0.82200000  1.0 0.0038425937
C  C19  1  0.02910000  0.35190000  0.14260000  1.0 -0.101946082
C  C20  1  0.97090000  0.64810000  0.85740000  1.0 -0.101946082
C  C21  1  0.91880000  0.30390000  0.17130000  1.0 0.0182891339
C  C22  1  0.08120000  0.69610000  0.82870000  1.0 0.0182891339
C  C23  1  0.92320000  0.20790000  0.23100000  1.0 -0.1749249325
C  C24  1  0.07680000  0.79210000  0.76900000  1.0 -0.1749249325
C  C25  1  0.31570000  0.32440000  0.73270000  1.0 0.6046090498
C  C26  1  0.68430000  0.67560000  0.26730000  1.0 0.6046090498
C  C27  1  0.38980000  0.09130000  0.80320000  1.0 0.5559443012
C  C28  1  0.61020000  0.90870000  0.19680000  1.0 0.5559443012
C  C29  1  0.79670000  0.35790000  0.14220000  1.0 0.6109473779
C  C30  1  0.20330000  0.64210000  0.85780000  1.0 0.6109473779
C  C31  1  0.26610000  0.36020000  0.15080000  1.0 0.6109473779
C  C32  1  0.73390000  0.63980000  0.84920000  1.0 0.6109473779
O  O1  1  0.39750000  0.40700000  0.71830000  1.0 -0.5724533722
O  O2  1  0.60250000  0.59300000  0.28170000  1.0 -0.5724533722
O  O3  1  0.26263000  0.34026000  0.81155000  1.0 -0.55087436
O  O4  1  0.73737000  0.65974000  0.18845000  1.0 -0.55087436
O  O5  1  0.47120000  0.19050000  0.87551000  1.0 -0.4345647619
O  O6  1  0.52880000  0.80950000  0.12449000  1.0 -0.4355607257
O  O7  1  0.38440000  0.98636000  0.83034000  1.0 -0.5263881311
O  O8  1  0.61560000  0.01364000  0.16966000  1.0 -0.5263881311
O  O9  1  0.72980000  0.34640000  0.20894000  1.0 -0.55087436
O  O10  1  0.27020000  0.65360000  0.79106000  1.0 -0.55087436
O  O11  1  0.77411000  0.41116000  0.05582000  1.0 -0.4933245257
O  O12  1  0.22589000  0.58884000  0.94418000  1.0 -0.4933245257
O  O13  1  0.24508000  0.42200000  0.07079000  1.0 -0.5040474162
O  O14  1  0.75492000  0.57800000  0.92921000  1.0 -0.5040474162
O  O15  1  0.37760000  0.33920000  0.21032000  1.0 -0.543410264
O  O16  1  0.62240000  0.66080000  0.78968000  1.0 -0.543410264
O  O17  1  0.03590000  0.05865000  0.31010000  1.0 -0.1804634705
O  O18  1  0.96410000  0.94135000  0.68990000  1.0 -0.1804634705
O  O19  1  0.49959000  0.39988000  0.04148000  1.0 -0.8475346491
O  O20  1  0.50041000  0.60012000  0.95852000  1.0 -0.8475346491
