# DDEC6 charges by PACMAN v1.1 (https://github.com/mtap-research/PACMAN-charge/)
data_EKAMUB_FSR_pacman
_symmetry_space_group_name_H-M   'P 1'
_cell_length_a   21.21980000
_cell_length_b   21.21980000
_cell_length_c   20.87950000
_cell_angle_alpha   90.00000000
_cell_angle_beta   90.00000000
_cell_angle_gamma   90.00000000
_symmetry_Int_Tables_number   1
_chemical_formula_structural   CoH36C34(NO)4
_chemical_formula_sum   'Co8 H288 C272 N32 O32'
_cell_volume   9401.61942344
_cell_formula_units_Z   8
loop_
 _symmetry_equiv_pos_site_id
 _symmetry_equiv_pos_as_xyz
  1  'x, y, z'
loop_
 _atom_site_type_symbol
 _atom_site_label
 _atom_site_symmetry_multiplicity
 _atom_site_fract_x
 _atom_site_fract_y
 _atom_site_fract_z
 _atom_site_occupancy
 _atom_site_charge
Co  Co1  1  0.21911000  0.71124000  0.65004000  1.0 0.6690625238
Co  Co2  1  0.21967000  0.28483000  0.26916000  1.0 0.6771159309
Co  Co3  1  0.78089000  0.28876000  0.15004000  1.0 0.6690625238
Co  Co4  1  0.78033000  0.71517000  0.76916000  1.0 0.6771159309
Co  Co5  1  0.71124000  0.78089000  0.40004000  1.0 0.6690625238
Co  Co6  1  0.28483000  0.78033000  0.01916000  1.0 0.6771159309
Co  Co7  1  0.28876000  0.21911000  0.90004000  1.0 0.6690625238
Co  Co8  1  0.71517000  0.21967000  0.51916000  1.0 0.6771159309
H  H1  1  0.04610000  0.34010000  0.27250000  1.0 0.1097654168
H  H2  1  0.44870000  0.32310000  0.16520000  1.0 0.1097654168
H  H3  1  0.21880000  0.89640000  0.82230000  1.0 0.1097654168
H  H4  1  0.18980000  0.00520000  0.85570000  1.0 0.1389868502
H  H5  1  0.21040000  0.09490000  0.91260000  1.0 0.1097654168
H  H6  1  0.36490000  0.12250000  0.81480000  1.0 0.1000770964
H  H7  1  0.34790000  0.03330000  0.75540000  1.0 0.1389868502
H  H8  1  0.27960000  0.99670000  0.67290000  1.0 0.1097654168
H  H9  1  0.32010000  0.99550000  0.57500000  1.0 0.121437203
H  H10  1  0.28060000  0.99350000  0.51160000  1.0 0.1294850374
H  H11  1  0.24990000  0.01840000  0.57500000  1.0 0.121437203
H  H12  1  0.29390000  0.83200000  0.54990000  1.0 0.1389868502
H  H13  1  0.31870000  0.88570000  0.50490000  1.0 0.1294850374
H  H14  1  0.34580000  0.87880000  0.57440000  1.0 0.121437203
H  H15  1  0.16140000  0.94010000  0.55790000  1.0 0.1294850374
H  H16  1  0.19460000  0.91440000  0.49610000  1.0 0.1294850374
H  H17  1  0.17560000  0.86790000  0.55130000  1.0 0.1389868502
H  H18  1  0.18570000  0.79310000  0.81420000  1.0 0.1097654168
H  H19  1  0.09780000  0.62770000  0.78820000  1.0 0.1097654168
H  H20  1  0.12250000  0.64780000  0.72040000  1.0 0.1000770964
H  H21  1  0.15560000  0.54570000  0.74380000  1.0 0.121437203
H  H22  1  0.18880000  0.56960000  0.80620000  1.0 0.121437203
H  H23  1  0.24960000  0.53170000  0.63670000  1.0 0.1097654168
H  H24  1  0.19920000  0.76710000  0.48520000  1.0 0.1491839687
H  H25  1  0.19610000  0.79270000  0.41480000  1.0 0.1389868502
H  H26  1  0.15880000  0.73170000  0.43370000  1.0 0.121437203
H  H27  1  0.35150000  0.71650000  0.42250000  1.0 0.121437203
H  H28  1  0.32130000  0.78380000  0.41940000  1.0 0.1294850374
H  H29  1  0.32240000  0.74660000  0.48430000  1.0 0.1294850374
H  H30  1  0.20520000  0.69520000  0.33560000  1.0 0.1294850374
H  H31  1  0.26160000  0.74150000  0.32400000  1.0 0.1389868502
H  H32  1  0.27430000  0.66920000  0.33250000  1.0 0.121437203
H  H33  1  0.24700000  0.59520000  0.37670000  1.0 0.1097654168
H  H34  1  0.25770000  0.51580000  0.32150000  1.0 0.1389868502
H  H35  1  0.24990000  0.42680000  0.26110000  1.0 0.1097654168
H  H36  1  0.21170000  0.32540000  0.40880000  1.0 0.1294850374
H  H37  1  0.21780000  0.40960000  0.47470000  1.0 0.1389868502
H  H38  1  0.24060000  0.48850000  0.53430000  1.0 0.1097654168
H  H39  1  0.97670000  0.28500000  0.33230000  1.0 0.1097654168
H  H40  1  0.90990000  0.30380000  0.41430000  1.0 0.1294850374
H  H41  1  0.80940000  0.30180000  0.45200000  1.0 0.1097654168
H  H42  1  0.81290000  0.11930000  0.46650000  1.0 0.1000770964
H  H43  1  0.91310000  0.11490000  0.42590000  1.0 0.1389868502
H  H44  1  0.02500000  0.13640000  0.43870000  1.0 0.1097654168
H  H45  1  0.08600000  0.05530000  0.43820000  1.0 0.1097654168
H  H46  1  0.14860000  0.04700000  0.47720000  1.0 0.1294850374
H  H47  1  0.09810000  0.09620000  0.49950000  1.0 0.121437203
H  H48  1  0.20590000  0.12330000  0.34040000  1.0 0.1389868502
H  H49  1  0.21160000  0.06250000  0.38260000  1.0 0.1294850374
H  H50  1  0.15220000  0.07270000  0.33910000  1.0 0.121437203
H  H51  1  0.17520000  0.18690000  0.49530000  1.0 0.1294850374
H  H52  1  0.22540000  0.13410000  0.48280000  1.0 0.1294850374
H  H53  1  0.22080000  0.19200000  0.43650000  1.0 0.1389868502
H  H54  1  0.08910000  0.34330000  0.13170000  1.0 0.1097654168
H  H55  1  0.12260000  0.40830000  0.12130000  1.0 0.1294850374
H  H56  1  0.18530000  0.33250000  0.07570000  1.0 0.1097654168
H  H57  1  0.18390000  0.29150000  0.13820000  1.0 0.1000770964
H  H58  1  0.34460000  0.34850000  0.14870000  1.0 0.1097654168
H  H59  1  0.38130000  0.12070000  0.33940000  1.0 0.1294850374
H  H60  1  0.35380000  0.12360000  0.40900000  1.0 0.1294850374
H  H61  1  0.32030000  0.16010000  0.35330000  1.0 0.1389868502
H  H62  1  0.32140000  0.24610000  0.42510000  1.0 0.1389868502
H  H63  1  0.37750000  0.24200000  0.47370000  1.0 0.1294850374
H  H64  1  0.37760000  0.29390000  0.42020000  1.0 0.1294850374
H  H65  1  0.48860000  0.21920000  0.42400000  1.0 0.1097654168
H  H66  1  0.45270000  0.16230000  0.45500000  1.0 0.1294850374
H  H67  1  0.48360000  0.15490000  0.38720000  1.0 0.1097654168
H  H68  1  0.50650000  0.23660000  0.32360000  1.0 0.1097654168
H  H69  1  0.59320000  0.30270000  0.30350000  1.0 0.1294850374
H  H70  1  0.69570000  0.30640000  0.27180000  1.0 0.1000770964
H  H71  1  0.64820000  0.27100000  0.09590000  1.0 0.121437203
H  H72  1  0.54340000  0.26790000  0.12120000  1.0 0.1294850374
H  H73  1  0.95390000  0.65990000  0.77250000  1.0 0.1097654168
H  H74  1  0.55130000  0.67690000  0.66520000  1.0 0.1097654168
H  H75  1  0.78120000  0.10360000  0.32230000  1.0 0.1000770964
H  H76  1  0.81020000  0.99480000  0.35570000  1.0 0.1389868502
H  H77  1  0.78960000  0.90510000  0.41260000  1.0 0.1097654168
H  H78  1  0.63510000  0.87750000  0.31480000  1.0 0.1000770964
H  H79  1  0.65210000  0.96670000  0.25540000  1.0 0.1389868502
H  H80  1  0.72040000  0.00330000  0.17290000  1.0 0.1097654168
H  H81  1  0.67990000  0.00450000  0.07500000  1.0 0.121437203
H  H82  1  0.71940000  0.00650000  0.01160000  1.0 0.1294850374
H  H83  1  0.75010000  0.98160000  0.07500000  1.0 0.121437203
H  H84  1  0.70610000  0.16800000  0.04990000  1.0 0.1389868502
H  H85  1  0.68130000  0.11430000  0.00490000  1.0 0.1294850374
H  H86  1  0.65420000  0.12120000  0.07440000  1.0 0.121437203
H  H87  1  0.83860000  0.05990000  0.05790000  1.0 0.1294850374
H  H88  1  0.80540000  0.08560000  0.99610000  1.0 0.1294850374
H  H89  1  0.82440000  0.13210000  0.05130000  1.0 0.1389868502
H  H90  1  0.81430000  0.20690000  0.31420000  1.0 0.1097654168
H  H91  1  0.90220000  0.37230000  0.28820000  1.0 0.1097654168
H  H92  1  0.87750000  0.35220000  0.22040000  1.0 0.1000770964
H  H93  1  0.84440000  0.45430000  0.24380000  1.0 0.121437203
H  H94  1  0.81120000  0.43040000  0.30620000  1.0 0.121437203
H  H95  1  0.75040000  0.46830000  0.13670000  1.0 0.1097654168
H  H96  1  0.80080000  0.23290000  0.98520000  1.0 0.1491839687
H  H97  1  0.80390000  0.20730000  0.91480000  1.0 0.1389868502
H  H98  1  0.84120000  0.26830000  0.93370000  1.0 0.121437203
H  H99  1  0.64850000  0.28350000  0.92250000  1.0 0.121437203
H  H100  1  0.67870000  0.21620000  0.91940000  1.0 0.1294850374
H  H101  1  0.67760000  0.25340000  0.98430000  1.0 0.1294850374
H  H102  1  0.79480000  0.30480000  0.83560000  1.0 0.1294850374
H  H103  1  0.73840000  0.25850000  0.82400000  1.0 0.1389868502
H  H104  1  0.72570000  0.33080000  0.83250000  1.0 0.121437203
H  H105  1  0.75300000  0.40480000  0.87670000  1.0 0.1097654168
H  H106  1  0.74230000  0.48420000  0.82150000  1.0 0.1389868502
H  H107  1  0.75010000  0.57320000  0.76110000  1.0 0.1097654168
H  H108  1  0.78830000  0.67460000  0.90880000  1.0 0.1294850374
H  H109  1  0.78220000  0.59040000  0.97470000  1.0 0.1389868502
H  H110  1  0.75940000  0.51150000  0.03430000  1.0 0.1097654168
H  H111  1  0.02330000  0.71500000  0.83230000  1.0 0.1097654168
H  H112  1  0.09010000  0.69620000  0.91430000  1.0 0.1294850374
H  H113  1  0.19060000  0.69820000  0.95200000  1.0 0.1097654168
H  H114  1  0.18710000  0.88070000  0.96650000  1.0 0.1000770964
H  H115  1  0.08690000  0.88510000  0.92590000  1.0 0.1389868502
H  H116  1  0.97500000  0.86360000  0.93870000  1.0 0.1097654168
H  H117  1  0.91400000  0.94470000  0.93820000  1.0 0.1097654168
H  H118  1  0.85140000  0.95300000  0.97720000  1.0 0.1294850374
H  H119  1  0.90190000  0.90380000  0.99950000  1.0 0.121437203
H  H120  1  0.79410000  0.87670000  0.84040000  1.0 0.1389868502
H  H121  1  0.78840000  0.93750000  0.88260000  1.0 0.1294850374
H  H122  1  0.84780000  0.92730000  0.83910000  1.0 0.121437203
H  H123  1  0.82480000  0.81310000  0.99530000  1.0 0.1294850374
H  H124  1  0.77460000  0.86590000  0.98280000  1.0 0.1294850374
H  H125  1  0.77920000  0.80800000  0.93650000  1.0 0.1389868502
H  H126  1  0.91090000  0.65670000  0.63170000  1.0 0.1097654168
H  H127  1  0.87740000  0.59170000  0.62130000  1.0 0.121437203
H  H128  1  0.81470000  0.66750000  0.57570000  1.0 0.1097654168
H  H129  1  0.81610000  0.70850000  0.63820000  1.0 0.1000770964
H  H130  1  0.65540000  0.65150000  0.64870000  1.0 0.1097654168
H  H131  1  0.61870000  0.87930000  0.83940000  1.0 0.1294850374
H  H132  1  0.64620000  0.87640000  0.90900000  1.0 0.1294850374
H  H133  1  0.67970000  0.83990000  0.85330000  1.0 0.1389868502
H  H134  1  0.67860000  0.75390000  0.92510000  1.0 0.1389868502
H  H135  1  0.62250000  0.75800000  0.97370000  1.0 0.1294850374
H  H136  1  0.62240000  0.70610000  0.92020000  1.0 0.1294850374
H  H137  1  0.51140000  0.78080000  0.92400000  1.0 0.1097654168
H  H138  1  0.54730000  0.83770000  0.95500000  1.0 0.1294850374
H  H139  1  0.51640000  0.84510000  0.88720000  1.0 0.1097654168
H  H140  1  0.49350000  0.76340000  0.82360000  1.0 0.1097654168
H  H141  1  0.40680000  0.69730000  0.80350000  1.0 0.1294850374
H  H142  1  0.30430000  0.69360000  0.77180000  1.0 0.1000770964
H  H143  1  0.35180000  0.72900000  0.59590000  1.0 0.121437203
H  H144  1  0.45660000  0.73210000  0.62120000  1.0 0.1294850374
H  H145  1  0.34010000  0.95390000  0.02250000  1.0 0.1097654168
H  H146  1  0.32310000  0.55130000  0.91520000  1.0 0.1097654168
H  H147  1  0.89640000  0.78120000  0.57230000  1.0 0.1000770964
H  H148  1  0.00520000  0.81020000  0.60570000  1.0 0.1389868502
H  H149  1  0.09490000  0.78960000  0.66260000  1.0 0.1097654168
H  H150  1  0.12250000  0.63510000  0.56480000  1.0 0.1000770964
H  H151  1  0.03330000  0.65210000  0.50540000  1.0 0.1389868502
H  H152  1  0.99670000  0.72040000  0.42290000  1.0 0.1097654168
H  H153  1  0.99550000  0.67990000  0.32500000  1.0 0.121437203
H  H154  1  0.99350000  0.71940000  0.26160000  1.0 0.1294850374
H  H155  1  0.01840000  0.75010000  0.32500000  1.0 0.121437203
H  H156  1  0.83200000  0.70610000  0.29990000  1.0 0.1389868502
H  H157  1  0.88570000  0.68130000  0.25490000  1.0 0.1294850374
H  H158  1  0.87880000  0.65420000  0.32440000  1.0 0.121437203
H  H159  1  0.94010000  0.83860000  0.30790000  1.0 0.1294850374
H  H160  1  0.91440000  0.80540000  0.24610000  1.0 0.1294850374
H  H161  1  0.86790000  0.82440000  0.30130000  1.0 0.1389868502
H  H162  1  0.79310000  0.81430000  0.56420000  1.0 0.1097654168
H  H163  1  0.62770000  0.90220000  0.53820000  1.0 0.1097654168
H  H164  1  0.64780000  0.87750000  0.47040000  1.0 0.1000770964
H  H165  1  0.54570000  0.84440000  0.49380000  1.0 0.121437203
H  H166  1  0.56960000  0.81120000  0.55620000  1.0 0.121437203
H  H167  1  0.53170000  0.75040000  0.38670000  1.0 0.1097654168
H  H168  1  0.76710000  0.80080000  0.23520000  1.0 0.1491839687
H  H169  1  0.79270000  0.80390000  0.16480000  1.0 0.1389868502
H  H170  1  0.73170000  0.84120000  0.18370000  1.0 0.121437203
H  H171  1  0.71650000  0.64850000  0.17250000  1.0 0.121437203
H  H172  1  0.78380000  0.67870000  0.16940000  1.0 0.1294850374
H  H173  1  0.74660000  0.67760000  0.23430000  1.0 0.1294850374
H  H174  1  0.69520000  0.79480000  0.08560000  1.0 0.1294850374
H  H175  1  0.74150000  0.73840000  0.07400000  1.0 0.1389868502
H  H176  1  0.66920000  0.72570000  0.08250000  1.0 0.121437203
H  H177  1  0.59520000  0.75300000  0.12670000  1.0 0.1097654168
H  H178  1  0.51580000  0.74230000  0.07150000  1.0 0.1389868502
H  H179  1  0.42680000  0.75010000  0.01110000  1.0 0.1097654168
H  H180  1  0.32540000  0.78830000  0.15880000  1.0 0.1294850374
H  H181  1  0.40960000  0.78220000  0.22470000  1.0 0.1389868502
H  H182  1  0.48850000  0.75940000  0.28430000  1.0 0.1097654168
H  H183  1  0.28500000  0.02330000  0.08230000  1.0 0.1097654168
H  H184  1  0.30380000  0.09010000  0.16430000  1.0 0.1294850374
H  H185  1  0.30180000  0.19060000  0.20200000  1.0 0.1097654168
H  H186  1  0.11930000  0.18710000  0.21650000  1.0 0.1000770964
H  H187  1  0.11490000  0.08690000  0.17590000  1.0 0.1389868502
H  H188  1  0.13640000  0.97500000  0.18870000  1.0 0.1097654168
H  H189  1  0.05530000  0.91400000  0.18820000  1.0 0.1097654168
H  H190  1  0.04700000  0.85140000  0.22720000  1.0 0.1294850374
H  H191  1  0.09620000  0.90190000  0.24950000  1.0 0.121437203
H  H192  1  0.12330000  0.79410000  0.09040000  1.0 0.1389868502
H  H193  1  0.06250000  0.78840000  0.13260000  1.0 0.1294850374
H  H194  1  0.07270000  0.84780000  0.08910000  1.0 0.121437203
H  H195  1  0.18690000  0.82480000  0.24530000  1.0 0.1294850374
H  H196  1  0.13410000  0.77460000  0.23280000  1.0 0.1294850374
H  H197  1  0.19200000  0.77920000  0.18650000  1.0 0.1389868502
H  H198  1  0.34330000  0.91090000  0.88170000  1.0 0.1097654168
H  H199  1  0.40830000  0.87740000  0.87130000  1.0 0.121437203
H  H200  1  0.33250000  0.81470000  0.82570000  1.0 0.1097654168
H  H201  1  0.29150000  0.81610000  0.88820000  1.0 0.1000770964
H  H202  1  0.34850000  0.65540000  0.89870000  1.0 0.1097654168
H  H203  1  0.12070000  0.61870000  0.08940000  1.0 0.1294850374
H  H204  1  0.12360000  0.64620000  0.15900000  1.0 0.1294850374
H  H205  1  0.16010000  0.67970000  0.10330000  1.0 0.1389868502
H  H206  1  0.24610000  0.67860000  0.17510000  1.0 0.1389868502
H  H207  1  0.24200000  0.62250000  0.22370000  1.0 0.1294850374
H  H208  1  0.29390000  0.62240000  0.17020000  1.0 0.1294850374
H  H209  1  0.21920000  0.51140000  0.17400000  1.0 0.1097654168
H  H210  1  0.16230000  0.54730000  0.20500000  1.0 0.1294850374
H  H211  1  0.15490000  0.51640000  0.13720000  1.0 0.1097654168
H  H212  1  0.23660000  0.49350000  0.07360000  1.0 0.1097654168
H  H213  1  0.30270000  0.40680000  0.05350000  1.0 0.1294850374
H  H214  1  0.30640000  0.30430000  0.02180000  1.0 0.1000770964
H  H215  1  0.27100000  0.35180000  0.84590000  1.0 0.121437203
H  H216  1  0.26790000  0.45660000  0.87120000  1.0 0.1294850374
H  H217  1  0.65990000  0.04610000  0.52250000  1.0 0.1097654168
H  H218  1  0.67690000  0.44870000  0.41520000  1.0 0.1097654168
H  H219  1  0.10360000  0.21880000  0.07230000  1.0 0.1000770964
H  H220  1  0.99480000  0.18980000  0.10570000  1.0 0.1389868502
H  H221  1  0.90510000  0.21040000  0.16260000  1.0 0.1097654168
H  H222  1  0.87750000  0.36490000  0.06480000  1.0 0.1000770964
H  H223  1  0.96670000  0.34790000  0.00540000  1.0 0.1389868502
H  H224  1  0.00330000  0.27960000  0.92290000  1.0 0.1097654168
H  H225  1  0.00450000  0.32010000  0.82500000  1.0 0.121437203
H  H226  1  0.00650000  0.28060000  0.76160000  1.0 0.1294850374
H  H227  1  0.98160000  0.24990000  0.82500000  1.0 0.121437203
H  H228  1  0.16800000  0.29390000  0.79990000  1.0 0.1389868502
H  H229  1  0.11430000  0.31870000  0.75490000  1.0 0.1294850374
H  H230  1  0.12120000  0.34580000  0.82440000  1.0 0.121437203
H  H231  1  0.05990000  0.16140000  0.80790000  1.0 0.121437203
H  H232  1  0.08560000  0.19460000  0.74610000  1.0 0.1294850374
H  H233  1  0.13210000  0.17560000  0.80130000  1.0 0.1389868502
H  H234  1  0.20690000  0.18570000  0.06420000  1.0 0.1097654168
H  H235  1  0.37230000  0.09780000  0.03820000  1.0 0.1097654168
H  H236  1  0.35220000  0.12250000  0.97040000  1.0 0.1000770964
H  H237  1  0.45430000  0.15560000  0.99380000  1.0 0.121437203
H  H238  1  0.43040000  0.18880000  0.05620000  1.0 0.121437203
H  H239  1  0.46830000  0.24960000  0.88670000  1.0 0.1097654168
H  H240  1  0.23290000  0.19920000  0.73520000  1.0 0.1491839687
H  H241  1  0.20730000  0.19610000  0.66480000  1.0 0.1389868502
H  H242  1  0.26830000  0.15880000  0.68370000  1.0 0.121437203
H  H243  1  0.28350000  0.35150000  0.67250000  1.0 0.121437203
H  H244  1  0.21620000  0.32130000  0.66940000  1.0 0.1294850374
H  H245  1  0.25340000  0.32240000  0.73430000  1.0 0.1294850374
H  H246  1  0.30480000  0.20520000  0.58560000  1.0 0.1294850374
H  H247  1  0.25850000  0.26160000  0.57400000  1.0 0.1389868502
H  H248  1  0.33080000  0.27430000  0.58250000  1.0 0.121437203
H  H249  1  0.40480000  0.24700000  0.62670000  1.0 0.1097654168
H  H250  1  0.48420000  0.25770000  0.57150000  1.0 0.1389868502
H  H251  1  0.57320000  0.24990000  0.51110000  1.0 0.1097654168
H  H252  1  0.67460000  0.21170000  0.65880000  1.0 0.1294850374
H  H253  1  0.59040000  0.21780000  0.72470000  1.0 0.1389868502
H  H254  1  0.51150000  0.24060000  0.78430000  1.0 0.1097654168
H  H255  1  0.71500000  0.97670000  0.58230000  1.0 0.1097654168
H  H256  1  0.69620000  0.90990000  0.66430000  1.0 0.1294850374
H  H257  1  0.69820000  0.80940000  0.70200000  1.0 0.1097654168
H  H258  1  0.88070000  0.81290000  0.71650000  1.0 0.1000770964
H  H259  1  0.88510000  0.91310000  0.67590000  1.0 0.1389868502
H  H260  1  0.86360000  0.02500000  0.68870000  1.0 0.1097654168
H  H261  1  0.94470000  0.08600000  0.68820000  1.0 0.1097654168
H  H262  1  0.95300000  0.14860000  0.72720000  1.0 0.1294850374
H  H263  1  0.90380000  0.09810000  0.74950000  1.0 0.121437203
H  H264  1  0.87670000  0.20590000  0.59040000  1.0 0.1389868502
H  H265  1  0.93750000  0.21160000  0.63260000  1.0 0.1294850374
H  H266  1  0.92730000  0.15220000  0.58910000  1.0 0.121437203
H  H267  1  0.81310000  0.17520000  0.74530000  1.0 0.1294850374
H  H268  1  0.86590000  0.22540000  0.73280000  1.0 0.1294850374
H  H269  1  0.80800000  0.22080000  0.68650000  1.0 0.1389868502
H  H270  1  0.65670000  0.08910000  0.38170000  1.0 0.1097654168
H  H271  1  0.59170000  0.12260000  0.37130000  1.0 0.1294850374
H  H272  1  0.66750000  0.18530000  0.32570000  1.0 0.1097654168
H  H273  1  0.70850000  0.18390000  0.38820000  1.0 0.1000770964
H  H274  1  0.65150000  0.34460000  0.39870000  1.0 0.1097654168
H  H275  1  0.87930000  0.38130000  0.58940000  1.0 0.1294850374
H  H276  1  0.87640000  0.35380000  0.65900000  1.0 0.1294850374
H  H277  1  0.83990000  0.32030000  0.60330000  1.0 0.1389868502
H  H278  1  0.75390000  0.32140000  0.67510000  1.0 0.1389868502
H  H279  1  0.75800000  0.37750000  0.72370000  1.0 0.1294850374
H  H280  1  0.70610000  0.37760000  0.67020000  1.0 0.1294850374
H  H281  1  0.78080000  0.48860000  0.67400000  1.0 0.1097654168
H  H282  1  0.83770000  0.45270000  0.70500000  1.0 0.1294850374
H  H283  1  0.84510000  0.48360000  0.63720000  1.0 0.1097654168
H  H284  1  0.76340000  0.50650000  0.57360000  1.0 0.1097654168
H  H285  1  0.69730000  0.59320000  0.55350000  1.0 0.1294850374
H  H286  1  0.69360000  0.69570000  0.52180000  1.0 0.1000770964
H  H287  1  0.72900000  0.64820000  0.34590000  1.0 0.121437203
H  H288  1  0.73210000  0.54340000  0.37120000  1.0 0.1294850374
C  C1  1  0.22880000  0.85080000  0.67180000  1.0 0.2702947843
C  C2  1  0.07920000  0.31210000  0.27930000  1.0 -0.0009097262
C  C3  1  0.21680000  0.84670000  0.73910000  1.0 -0.0635246613
C  C4  1  0.44000000  0.30310000  0.20390000  1.0 -0.2098449021
C  C5  1  0.22790000  0.89960000  0.77880000  1.0 -0.2098449021
C  C6  1  0.25090000  0.95390000  0.75670000  1.0 0.0306093601
C  C7  1  0.26510000  0.00890000  0.79660000  1.0 0.121437203
C  C8  1  0.22530000  0.02890000  0.84570000  1.0 -0.2098449021
C  C9  1  0.23770000  0.08330000  0.87980000  1.0 0.0905335995
C  C10  1  0.32840000  0.09940000  0.82220000  1.0 0.0905335995
C  C11  1  0.31860000  0.04520000  0.78630000  1.0 -0.2098449021
C  C12  1  0.26270000  0.95930000  0.68870000  1.0 -0.1878737596
C  C13  1  0.24980000  0.91090000  0.64630000  1.0 -0.0404299873
C  C14  1  0.25660000  0.91970000  0.57400000  1.0 0.2923829581
C  C15  1  0.27900000  0.98850000  0.55720000  1.0 -0.4716143413
C  C16  1  0.30870000  0.87470000  0.54830000  1.0 -0.4716143413
C  C17  1  0.19060000  0.90950000  0.54170000  1.0 -0.4716143413
C  C18  1  0.19520000  0.78980000  0.77080000  1.0 -0.0098997944
C  C19  1  0.13540000  0.63760000  0.76370000  1.0 -0.0812026889
C  C20  1  0.17830000  0.58090000  0.76250000  1.0 -0.0904790825
C  C21  1  0.23940000  0.57170000  0.62180000  1.0 0.0133513933
C  C22  1  0.24130000  0.58170000  0.55300000  1.0 -0.0692598575
C  C23  1  0.24440000  0.64300000  0.52470000  1.0 0.2702947843
C  C24  1  0.24700000  0.64610000  0.45550000  1.0 -0.0404299873
C  C25  1  0.25550000  0.71400000  0.42260000  1.0 0.3106541175
C  C26  1  0.19670000  0.75540000  0.44080000  1.0 -0.4878993593
C  C27  1  0.31840000  0.74290000  0.43870000  1.0 -0.5089300287
C  C28  1  0.24840000  0.70400000  0.34580000  1.0 -0.5000171301
C  C29  1  0.24580000  0.59200000  0.42110000  1.0 -0.1674873282
C  C30  1  0.24290000  0.53160000  0.44790000  1.0 0.0391080935
C  C31  1  0.23930000  0.47550000  0.40650000  1.0 0.121437203
C  C32  1  0.24820000  0.47770000  0.34130000  1.0 -0.2010765412
C  C33  1  0.24310000  0.42350000  0.30490000  1.0 0.0702140394
C  C34  1  0.22080000  0.36440000  0.39080000  1.0 0.1000770964
C  C35  1  0.22470000  0.41500000  0.43100000  1.0 -0.2098449021
C  C36  1  0.24150000  0.52790000  0.51490000  1.0 -0.2010765412
C  C37  1  0.11770000  0.22510000  0.35130000  1.0 0.2702947843
C  C38  1  0.06880000  0.26320000  0.32560000  1.0 -0.0692598575
C  C39  1  0.00710000  0.25710000  0.34750000  1.0 -0.2010765412
C  C40  1  0.98940000  0.21210000  0.39020000  1.0 0.0306093601
C  C41  1  0.92460000  0.21040000  0.41540000  1.0 0.121437203
C  C42  1  0.89130000  0.26530000  0.42410000  1.0 -0.2010765412
C  C43  1  0.83060000  0.26380000  0.44730000  1.0 0.0905335995
C  C44  1  0.83270000  0.15680000  0.45530000  1.0 0.0494190144
C  C45  1  0.89330000  0.15360000  0.43140000  1.0 -0.2010765412
C  C46  1  0.03670000  0.16920000  0.41180000  1.0 -0.1878737596
C  C47  1  0.09870000  0.17470000  0.39430000  1.0 -0.0404299873
C  C48  1  0.14930000  0.12760000  0.42140000  1.0 0.2923829581
C  C49  1  0.11750000  0.07670000  0.46300000  1.0 -0.464395636
C  C50  1  0.18290000  0.09330000  0.36560000  1.0 -0.4716143413
C  C51  1  0.19720000  0.16350000  0.46290000  1.0 -0.4878993593
C  C52  1  0.12540000  0.36840000  0.14370000  1.0 -0.0635246613
C  C53  1  0.18480000  0.33440000  0.12220000  1.0 -0.0904790825
C  C54  1  0.33010000  0.32690000  0.18450000  1.0 -0.0009097262
C  C55  1  0.37740000  0.29760000  0.22460000  1.0 -0.0635246613
C  C56  1  0.36100000  0.26630000  0.28370000  1.0 0.2841040703
C  C57  1  0.41380000  0.24140000  0.32030000  1.0 -0.0404299873
C  C58  1  0.40120000  0.20550000  0.38440000  1.0 0.2970114935
C  C59  1  0.36030000  0.14690000  0.37020000  1.0 -0.4800796223
C  C60  1  0.36610000  0.25130000  0.43020000  1.0 -0.4716143413
C  C61  1  0.46210000  0.18340000  0.41550000  1.0 -0.4800796223
C  C62  1  0.47330000  0.25060000  0.29830000  1.0 -0.1878737596
C  C63  1  0.48790000  0.27980000  0.23950000  1.0 0.0494190144
C  C64  1  0.55590000  0.28410000  0.21780000  1.0 0.1294850374
C  C65  1  0.60310000  0.29580000  0.26070000  1.0 -0.2010765412
C  C66  1  0.66490000  0.29750000  0.24140000  1.0 0.0759623188
C  C67  1  0.63660000  0.27700000  0.13840000  1.0 0.0905335995
C  C68  1  0.57350000  0.27500000  0.15280000  1.0 -0.2098449021
C  C69  1  0.77120000  0.14920000  0.17180000  1.0 0.2702947843
C  C70  1  0.92080000  0.68790000  0.77930000  1.0 0.0004881953
C  C71  1  0.78320000  0.15330000  0.23910000  1.0 -0.0635246613
C  C72  1  0.56000000  0.69690000  0.70390000  1.0 -0.2098449021
C  C73  1  0.77210000  0.10040000  0.27880000  1.0 -0.2098449021
C  C74  1  0.74910000  0.04610000  0.25670000  1.0 0.0306093601
C  C75  1  0.73490000  0.99110000  0.29660000  1.0 0.121437203
C  C76  1  0.77470000  0.97110000  0.34570000  1.0 -0.2098449021
C  C77  1  0.76230000  0.91670000  0.37980000  1.0 0.0905335995
C  C78  1  0.67160000  0.90060000  0.32220000  1.0 0.0905335995
C  C79  1  0.68140000  0.95480000  0.28630000  1.0 -0.2098449021
C  C80  1  0.73730000  0.04070000  0.18870000  1.0 -0.1878737596
C  C81  1  0.75020000  0.08910000  0.14630000  1.0 -0.0404299873
C  C82  1  0.74340000  0.08030000  0.07400000  1.0 0.2923829581
C  C83  1  0.72100000  0.01150000  0.05720000  1.0 -0.4716143413
C  C84  1  0.69130000  0.12530000  0.04830000  1.0 -0.4716143413
C  C85  1  0.80940000  0.09050000  0.04170000  1.0 -0.4716143413
C  C86  1  0.80480000  0.21020000  0.27080000  1.0 -0.0098997944
C  C87  1  0.86460000  0.36240000  0.26370000  1.0 -0.0812026889
C  C88  1  0.82170000  0.41910000  0.26250000  1.0 -0.0904790825
C  C89  1  0.76060000  0.42830000  0.12180000  1.0 0.0152275401
C  C90  1  0.75870000  0.41830000  0.05300000  1.0 -0.0692598575
C  C91  1  0.75560000  0.35700000  0.02470000  1.0 0.2702947843
C  C92  1  0.75300000  0.35390000  0.95550000  1.0 -0.0404299873
C  C93  1  0.74450000  0.28600000  0.92260000  1.0 0.3106541175
C  C94  1  0.80330000  0.24460000  0.94080000  1.0 -0.4878993593
C  C95  1  0.68160000  0.25710000  0.93870000  1.0 -0.5089300287
C  C96  1  0.75160000  0.29600000  0.84580000  1.0 -0.5000171301
C  C97  1  0.75420000  0.40800000  0.92110000  1.0 -0.1674873282
C  C98  1  0.75710000  0.46840000  0.94790000  1.0 0.0391080935
C  C99  1  0.76070000  0.52450000  0.90650000  1.0 0.121437203
C  C100  1  0.75180000  0.52230000  0.84130000  1.0 -0.2010765412
C  C101  1  0.75690000  0.57650000  0.80490000  1.0 0.0702140394
C  C102  1  0.77920000  0.63560000  0.89080000  1.0 0.1000770964
C  C103  1  0.77530000  0.58500000  0.93100000  1.0 -0.221237688
C  C104  1  0.75850000  0.47210000  0.01490000  1.0 -0.2010765412
C  C105  1  0.88230000  0.77490000  0.85130000  1.0 0.2702947843
C  C106  1  0.93120000  0.73680000  0.82560000  1.0 -0.0692598575
C  C107  1  0.99290000  0.74290000  0.84750000  1.0 -0.2010765412
C  C108  1  0.01060000  0.78790000  0.89020000  1.0 0.0306093601
C  C109  1  0.07540000  0.78960000  0.91540000  1.0 0.121437203
C  C110  1  0.10870000  0.73470000  0.92410000  1.0 -0.2010765412
C  C111  1  0.16940000  0.73620000  0.94730000  1.0 0.0905335995
C  C112  1  0.16730000  0.84320000  0.95530000  1.0 0.0494190144
C  C113  1  0.10670000  0.84640000  0.93140000  1.0 -0.2098449021
C  C114  1  0.96330000  0.83080000  0.91180000  1.0 -0.1878737596
C  C115  1  0.90130000  0.82530000  0.89430000  1.0 -0.0404299873
C  C116  1  0.85070000  0.87240000  0.92140000  1.0 0.2923829581
C  C117  1  0.88250000  0.92330000  0.96300000  1.0 -0.464395636
C  C118  1  0.81710000  0.90670000  0.86560000  1.0 -0.4716143413
C  C119  1  0.80280000  0.83650000  0.96290000  1.0 -0.4878993593
C  C120  1  0.87460000  0.63160000  0.64370000  1.0 -0.0635246613
C  C121  1  0.81520000  0.66560000  0.62220000  1.0 -0.0904790825
C  C122  1  0.66990000  0.67310000  0.68450000  1.0 -0.0009097262
C  C123  1  0.62260000  0.70240000  0.72460000  1.0 -0.0692598575
C  C124  1  0.63900000  0.73370000  0.78370000  1.0 0.2841040703
C  C125  1  0.58620000  0.75860000  0.82030000  1.0 -0.0404299873
C  C126  1  0.59880000  0.79450000  0.88440000  1.0 0.2970114935
C  C127  1  0.63970000  0.85310000  0.87020000  1.0 -0.4800796223
C  C128  1  0.63390000  0.74870000  0.93020000  1.0 -0.4716143413
C  C129  1  0.53790000  0.81660000  0.91550000  1.0 -0.4800796223
C  C130  1  0.52670000  0.74940000  0.79830000  1.0 -0.1878737596
C  C131  1  0.51210000  0.72020000  0.73950000  1.0 0.0494190144
C  C132  1  0.44410000  0.71590000  0.71780000  1.0 0.1294850374
C  C133  1  0.39690000  0.70420000  0.76070000  1.0 -0.2010765412
C  C134  1  0.33510000  0.70250000  0.74140000  1.0 0.0759623188
C  C135  1  0.36340000  0.72300000  0.63840000  1.0 0.0905335995
C  C136  1  0.42650000  0.72500000  0.65280000  1.0 -0.2098449021
C  C137  1  0.85080000  0.77120000  0.42180000  1.0 0.2702947843
C  C138  1  0.31210000  0.92080000  0.02930000  1.0 -0.0009097262
C  C139  1  0.84670000  0.78320000  0.48910000  1.0 -0.0635246613
C  C140  1  0.30310000  0.56000000  0.95390000  1.0 -0.2098449021
C  C141  1  0.89960000  0.77210000  0.52880000  1.0 -0.2098449021
C  C142  1  0.95390000  0.74910000  0.50670000  1.0 0.0306093601
C  C143  1  0.00890000  0.73490000  0.54660000  1.0 0.121437203
C  C144  1  0.02890000  0.77470000  0.59570000  1.0 -0.2098449021
C  C145  1  0.08330000  0.76230000  0.62980000  1.0 0.0905335995
C  C146  1  0.09940000  0.67160000  0.57220000  1.0 0.0905335995
C  C147  1  0.04520000  0.68140000  0.53630000  1.0 -0.2098449021
C  C148  1  0.95930000  0.73730000  0.43870000  1.0 -0.1878737596
C  C149  1  0.91090000  0.75020000  0.39630000  1.0 -0.0404299873
C  C150  1  0.91970000  0.74340000  0.32400000  1.0 0.2923829581
C  C151  1  0.98850000  0.72100000  0.30720000  1.0 -0.4716143413
C  C152  1  0.87470000  0.69130000  0.29830000  1.0 -0.4716143413
C  C153  1  0.90950000  0.80940000  0.29170000  1.0 -0.4716143413
C  C154  1  0.78980000  0.80480000  0.52080000  1.0 -0.0098997944
C  C155  1  0.63760000  0.86460000  0.51370000  1.0 -0.0812026889
C  C156  1  0.58090000  0.82170000  0.51250000  1.0 -0.0904790825
C  C157  1  0.57170000  0.76060000  0.37180000  1.0 0.0133513933
C  C158  1  0.58170000  0.75870000  0.30300000  1.0 -0.0692598575
C  C159  1  0.64300000  0.75560000  0.27470000  1.0 0.2702947843
C  C160  1  0.64610000  0.75300000  0.20550000  1.0 -0.0404299873
C  C161  1  0.71400000  0.74450000  0.17260000  1.0 0.3106541175
C  C162  1  0.75540000  0.80330000  0.19080000  1.0 -0.4878993593
C  C163  1  0.74290000  0.68160000  0.18870000  1.0 -0.5089300287
C  C164  1  0.70400000  0.75160000  0.09580000  1.0 -0.5000171301
C  C165  1  0.59200000  0.75420000  0.17110000  1.0 -0.1674873282
C  C166  1  0.53160000  0.75710000  0.19790000  1.0 0.0391080935
C  C167  1  0.47550000  0.76070000  0.15650000  1.0 0.121437203
C  C168  1  0.47770000  0.75180000  0.09130000  1.0 -0.2010765412
C  C169  1  0.42350000  0.75690000  0.05490000  1.0 0.0702140394
C  C170  1  0.36440000  0.77920000  0.14080000  1.0 0.1000770964
C  C171  1  0.41500000  0.77530000  0.18100000  1.0 -0.221237688
C  C172  1  0.52790000  0.75850000  0.26490000  1.0 -0.2010765412
C  C173  1  0.22510000  0.88230000  0.10130000  1.0 0.2702947843
C  C174  1  0.26320000  0.93120000  0.07560000  1.0 -0.0692598575
C  C175  1  0.25710000  0.99290000  0.09750000  1.0 -0.2010765412
C  C176  1  0.21210000  0.01060000  0.14020000  1.0 0.0306093601
C  C177  1  0.21040000  0.07540000  0.16540000  1.0 0.121437203
C  C178  1  0.26530000  0.10870000  0.17410000  1.0 -0.2010765412
C  C179  1  0.26380000  0.16940000  0.19730000  1.0 0.0905335995
C  C180  1  0.15680000  0.16730000  0.20530000  1.0 0.0550798389
C  C181  1  0.15360000  0.10670000  0.18140000  1.0 -0.2010765412
C  C182  1  0.16920000  0.96330000  0.16180000  1.0 -0.1878737596
C  C183  1  0.17470000  0.90130000  0.14430000  1.0 -0.0404299873
C  C184  1  0.12760000  0.85070000  0.17140000  1.0 0.2923829581
C  C185  1  0.07670000  0.88250000  0.21300000  1.0 -0.464395636
C  C186  1  0.09330000  0.81710000  0.11560000  1.0 -0.4716143413
C  C187  1  0.16350000  0.80280000  0.21290000  1.0 -0.4878993593
C  C188  1  0.36840000  0.87460000  0.89370000  1.0 -0.0635246613
C  C189  1  0.33440000  0.81520000  0.87220000  1.0 -0.0953365577
C  C190  1  0.32690000  0.66990000  0.93450000  1.0 0.0004881953
C  C191  1  0.29760000  0.62260000  0.97460000  1.0 -0.0635246613
C  C192  1  0.26630000  0.63900000  0.03370000  1.0 0.2841040703
C  C193  1  0.24140000  0.58620000  0.07030000  1.0 -0.0404299873
C  C194  1  0.20550000  0.59880000  0.13440000  1.0 0.2970114935
C  C195  1  0.14690000  0.63970000  0.12020000  1.0 -0.4800796223
C  C196  1  0.25130000  0.63390000  0.18020000  1.0 -0.4716143413
C  C197  1  0.18340000  0.53790000  0.16550000  1.0 -0.4800796223
C  C198  1  0.25060000  0.52670000  0.04830000  1.0 -0.1878737596
C  C199  1  0.27980000  0.51210000  0.98950000  1.0 0.0494190144
C  C200  1  0.28410000  0.44410000  0.96780000  1.0 0.1294850374
C  C201  1  0.29580000  0.39690000  0.01070000  1.0 -0.2010765412
C  C202  1  0.29750000  0.33510000  0.99140000  1.0 0.0759623188
C  C203  1  0.27700000  0.36340000  0.88840000  1.0 0.0905335995
C  C204  1  0.27500000  0.42650000  0.90280000  1.0 -0.2098449021
C  C205  1  0.14920000  0.22880000  0.92180000  1.0 0.2702947843
C  C206  1  0.68790000  0.07920000  0.52930000  1.0 -0.0009097262
C  C207  1  0.15330000  0.21680000  0.98910000  1.0 -0.0635246613
C  C208  1  0.69690000  0.44000000  0.45390000  1.0 -0.2098449021
C  C209  1  0.10040000  0.22790000  0.02880000  1.0 -0.2098449021
C  C210  1  0.04610000  0.25090000  0.00670000  1.0 0.0306093601
C  C211  1  0.99110000  0.26510000  0.04660000  1.0 0.121437203
C  C212  1  0.97110000  0.22530000  0.09570000  1.0 -0.2098449021
C  C213  1  0.91670000  0.23770000  0.12980000  1.0 0.0905335995
C  C214  1  0.90060000  0.32840000  0.07220000  1.0 0.0905335995
C  C215  1  0.95480000  0.31860000  0.03630000  1.0 -0.2098449021
C  C216  1  0.04070000  0.26270000  0.93870000  1.0 -0.1878737596
C  C217  1  0.08910000  0.24980000  0.89630000  1.0 -0.0404299873
C  C218  1  0.08030000  0.25660000  0.82400000  1.0 0.2923829581
C  C219  1  0.01150000  0.27900000  0.80720000  1.0 -0.4716143413
C  C220  1  0.12530000  0.30870000  0.79830000  1.0 -0.4716143413
C  C221  1  0.09050000  0.19060000  0.79170000  1.0 -0.4716143413
C  C222  1  0.21020000  0.19520000  0.02080000  1.0 -0.0098997944
C  C223  1  0.36240000  0.13540000  0.01370000  1.0 -0.0812026889
C  C224  1  0.41910000  0.17830000  0.01250000  1.0 -0.0904790825
C  C225  1  0.42830000  0.23940000  0.87180000  1.0 0.0133513933
C  C226  1  0.41830000  0.24130000  0.80300000  1.0 -0.0692598575
C  C227  1  0.35700000  0.24440000  0.77470000  1.0 0.2702947843
C  C228  1  0.35390000  0.24700000  0.70550000  1.0 -0.0404299873
C  C229  1  0.28600000  0.25550000  0.67260000  1.0 0.3106541175
C  C230  1  0.24460000  0.19670000  0.69080000  1.0 -0.4878993593
C  C231  1  0.25710000  0.31840000  0.68870000  1.0 -0.5089300287
C  C232  1  0.29600000  0.24840000  0.59580000  1.0 -0.5000171301
C  C233  1  0.40800000  0.24580000  0.67110000  1.0 -0.1674873282
C  C234  1  0.46840000  0.24290000  0.69790000  1.0 0.0391080935
C  C235  1  0.52450000  0.23930000  0.65650000  1.0 0.121437203
C  C236  1  0.52230000  0.24820000  0.59130000  1.0 -0.2010765412
C  C237  1  0.57650000  0.24310000  0.55490000  1.0 0.0702140394
C  C238  1  0.63560000  0.22080000  0.64080000  1.0 0.1000770964
C  C239  1  0.58500000  0.22470000  0.68100000  1.0 -0.2098449021
C  C240  1  0.47210000  0.24150000  0.76490000  1.0 -0.2010765412
C  C241  1  0.77490000  0.11770000  0.60130000  1.0 0.2702947843
C  C242  1  0.73680000  0.06880000  0.57560000  1.0 -0.0692598575
C  C243  1  0.74290000  0.00710000  0.59750000  1.0 -0.2010765412
C  C244  1  0.78790000  0.98940000  0.64020000  1.0 0.0306093601
C  C245  1  0.78960000  0.92460000  0.66540000  1.0 0.121437203
C  C246  1  0.73470000  0.89130000  0.67410000  1.0 -0.2010765412
C  C247  1  0.73620000  0.83060000  0.69730000  1.0 0.0905335995
C  C248  1  0.84320000  0.83270000  0.70530000  1.0 0.0550798389
C  C249  1  0.84640000  0.89330000  0.68140000  1.0 -0.2010765412
C  C250  1  0.83080000  0.03670000  0.66180000  1.0 -0.1878737596
C  C251  1  0.82530000  0.09870000  0.64430000  1.0 -0.0404299873
C  C252  1  0.87240000  0.14930000  0.67140000  1.0 0.2923829581
C  C253  1  0.92330000  0.11750000  0.71300000  1.0 -0.464395636
C  C254  1  0.90670000  0.18290000  0.61560000  1.0 -0.4716143413
C  C255  1  0.83650000  0.19720000  0.71290000  1.0 -0.4878993593
C  C256  1  0.63160000  0.12540000  0.39370000  1.0 -0.0635246613
C  C257  1  0.66560000  0.18480000  0.37220000  1.0 -0.0904790825
C  C258  1  0.67310000  0.33010000  0.43450000  1.0 -0.0009097262
C  C259  1  0.70240000  0.37740000  0.47460000  1.0 -0.0635246613
C  C260  1  0.73370000  0.36100000  0.53370000  1.0 0.2841040703
C  C261  1  0.75860000  0.41380000  0.57030000  1.0 -0.0404299873
C  C262  1  0.79450000  0.40120000  0.63440000  1.0 0.2970114935
C  C263  1  0.85310000  0.36030000  0.62020000  1.0 -0.4800796223
C  C264  1  0.74870000  0.36610000  0.68020000  1.0 -0.4800796223
C  C265  1  0.81660000  0.46210000  0.66550000  1.0 -0.4800796223
C  C266  1  0.74940000  0.47330000  0.54830000  1.0 -0.1878737596
C  C267  1  0.72020000  0.48790000  0.48950000  1.0 0.0494190144
C  C268  1  0.71590000  0.55590000  0.46780000  1.0 0.1294850374
C  C269  1  0.70420000  0.60310000  0.51070000  1.0 -0.2010765412
C  C270  1  0.70250000  0.66490000  0.49140000  1.0 0.0759623188
C  C271  1  0.72300000  0.63660000  0.38840000  1.0 0.0905335995
C  C272  1  0.72500000  0.57350000  0.40280000  1.0 -0.2098449021
N  N1  1  0.18780000  0.73480000  0.74470000  1.0 -0.1400201836
N  N2  1  0.28820000  0.12030000  0.86700000  1.0 -0.254204606
N  N3  1  0.22480000  0.61330000  0.66340000  1.0 -0.1400201836
N  N4  1  0.22900000  0.36680000  0.32860000  1.0 -0.221237688
N  N5  1  0.12980000  0.32110000  0.24580000  1.0 -0.1674873282
N  N6  1  0.80040000  0.21110000  0.46330000  1.0 -0.254204606
N  N7  1  0.26930000  0.32630000  0.19330000  1.0 -0.1674873282
N  N8  1  0.68290000  0.28700000  0.18100000  1.0 -0.2319026602
N  N9  1  0.81220000  0.26520000  0.24470000  1.0 -0.1400201836
N  N10  1  0.71180000  0.87970000  0.36700000  1.0 -0.254204606
N  N11  1  0.77520000  0.38670000  0.16340000  1.0 -0.1400201836
N  N12  1  0.77100000  0.63320000  0.82860000  1.0 -0.221237688
N  N13  1  0.87020000  0.67890000  0.74580000  1.0 -0.1674873282
N  N14  1  0.19960000  0.78890000  0.96330000  1.0 -0.254204606
N  N15  1  0.73070000  0.67370000  0.69330000  1.0 -0.1674873282
N  N16  1  0.31710000  0.71300000  0.68100000  1.0 -0.2319026602
N  N17  1  0.73480000  0.81220000  0.49470000  1.0 -0.1400201836
N  N18  1  0.12030000  0.71180000  0.61700000  1.0 -0.254204606
N  N19  1  0.61330000  0.77520000  0.41340000  1.0 -0.1400201836
N  N20  1  0.36680000  0.77100000  0.07860000  1.0 -0.221237688
N  N21  1  0.32110000  0.87020000  0.99580000  1.0 -0.1674873282
N  N22  1  0.21110000  0.19960000  0.21330000  1.0 -0.254204606
N  N23  1  0.32630000  0.73070000  0.94330000  1.0 -0.1674873282
N  N24  1  0.28700000  0.31710000  0.93100000  1.0 -0.2319026602
N  N25  1  0.26520000  0.18780000  0.99470000  1.0 -0.1400201836
N  N26  1  0.87970000  0.28820000  0.11700000  1.0 -0.254204606
N  N27  1  0.38670000  0.22480000  0.91340000  1.0 -0.1400201836
N  N28  1  0.63320000  0.22900000  0.57860000  1.0 -0.221237688
N  N29  1  0.67890000  0.12980000  0.49580000  1.0 -0.1674873282
N  N30  1  0.78890000  0.80040000  0.71330000  1.0 -0.254204606
N  N31  1  0.67370000  0.26930000  0.44330000  1.0 -0.1674873282
N  N32  1  0.71300000  0.68290000  0.43100000  1.0 -0.2319026602
O  O1  1  0.21930000  0.80300000  0.63390000  1.0 -0.4878993593
O  O2  1  0.16650000  0.69100000  0.79170000  1.0 -0.1480080777
O  O3  1  0.23730000  0.59050000  0.72630000  1.0 -0.1480080777
O  O4  1  0.24730000  0.69360000  0.55840000  1.0 -0.4716143413
O  O5  1  0.17620000  0.23330000  0.33790000  1.0 -0.4800796223
O  O6  1  0.12340000  0.37980000  0.21060000  1.0 -0.1172117752
O  O7  1  0.24040000  0.36410000  0.14360000  1.0 -0.131227949
O  O8  1  0.30520000  0.25780000  0.30210000  1.0 -0.4534924713
O  O9  1  0.78070000  0.19700000  0.13390000  1.0 -0.4878993593
O  O10  1  0.83350000  0.30900000  0.29170000  1.0 -0.1480080777
O  O11  1  0.76270000  0.40950000  0.22630000  1.0 -0.1480080777
O  O12  1  0.75270000  0.30640000  0.05840000  1.0 -0.4716143413
O  O13  1  0.82380000  0.76670000  0.83790000  1.0 -0.4800796223
O  O14  1  0.87660000  0.62020000  0.71060000  1.0 -0.1172117752
O  O15  1  0.75960000  0.63590000  0.64360000  1.0 -0.131227949
O  O16  1  0.69480000  0.74220000  0.80210000  1.0 -0.4534924713
O  O17  1  0.80300000  0.78070000  0.38390000  1.0 -0.4878993593
O  O18  1  0.69100000  0.83350000  0.54170000  1.0 -0.1480080777
O  O19  1  0.59050000  0.76270000  0.47630000  1.0 -0.1480080777
O  O20  1  0.69360000  0.75270000  0.30840000  1.0 -0.4716143413
O  O21  1  0.23330000  0.82380000  0.08790000  1.0 -0.4800796223
O  O22  1  0.37980000  0.87660000  0.96060000  1.0 -0.1172117752
O  O23  1  0.36410000  0.75960000  0.89360000  1.0 -0.131227949
O  O24  1  0.25780000  0.69480000  0.05210000  1.0 -0.4534924713
O  O25  1  0.19700000  0.21930000  0.88390000  1.0 -0.4878993593
O  O26  1  0.30900000  0.16650000  0.04170000  1.0 -0.1480080777
O  O27  1  0.40950000  0.23730000  0.97630000  1.0 -0.1480080777
O  O28  1  0.30640000  0.24730000  0.80840000  1.0 -0.4716143413
O  O29  1  0.76670000  0.17620000  0.58790000  1.0 -0.4800796223
O  O30  1  0.62020000  0.12340000  0.46060000  1.0 -0.1172117752
O  O31  1  0.63590000  0.24040000  0.39360000  1.0 -0.131227949
O  O32  1  0.74220000  0.30520000  0.55210000  1.0 -0.4534924713
