# DDEC6 charges by PACMAN v1.1 (https://github.com/mtap-research/PACMAN-charge/)
data_EKIDIL_ASR_pacman
_symmetry_space_group_name_H-M   'P 1'
_cell_length_a   10.36400000
_cell_length_b   16.97390000
_cell_length_c   18.09130000
_cell_angle_alpha   90.00000000
_cell_angle_beta   90.00000000
_cell_angle_gamma   90.00000000
_symmetry_Int_Tables_number   1
_chemical_formula_structural   CsGa6P6(O13F2)2
_chemical_formula_sum   'Cs4 Ga24 P24 O104 F16'
_cell_volume   3182.57626051
_cell_formula_units_Z   4
loop_
 _symmetry_equiv_pos_site_id
 _symmetry_equiv_pos_as_xyz
  1  'x, y, z'
loop_
 _atom_site_type_symbol
 _atom_site_label
 _atom_site_symmetry_multiplicity
 _atom_site_fract_x
 _atom_site_fract_y
 _atom_site_fract_z
 _atom_site_occupancy
 _atom_site_charge
Cs  Cs1  1  0.50000000  0.00000000  0.50000000  1.0 0.9070958889
Cs  Cs2  1  0.00000000  0.50000000  0.00000000  1.0 0.9070958889
Cs  Cs3  1  0.50000000  0.50000000  0.00000000  1.0 0.9070958889
Cs  Cs4  1  0.00000000  0.00000000  0.50000000  1.0 0.9070958889
Ga  Ga1  1  0.08534000  0.23771000  0.20363000  1.0 1.4974883294
Ga  Ga2  1  0.58534000  0.26229000  0.29637000  1.0 1.4974883294
Ga  Ga3  1  0.91466000  0.26229000  0.70363000  1.0 1.4974883294
Ga  Ga4  1  0.41466000  0.23771000  0.79637000  1.0 1.4974883294
Ga  Ga5  1  0.91466000  0.76229000  0.79637000  1.0 1.4974883294
Ga  Ga6  1  0.41466000  0.73771000  0.70363000  1.0 1.4974883294
Ga  Ga7  1  0.08534000  0.73771000  0.29637000  1.0 1.4974883294
Ga  Ga8  1  0.58534000  0.76229000  0.20363000  1.0 1.4974883294
Ga  Ga9  1  0.11145000  0.20742000  0.39910000  1.0 1.5404713039
Ga  Ga10  1  0.61145000  0.29258000  0.10090000  1.0 1.5404713039
Ga  Ga11  1  0.88855000  0.29258000  0.89910000  1.0 1.5404713039
Ga  Ga12  1  0.38855000  0.20742000  0.60090000  1.0 1.5404713039
Ga  Ga13  1  0.88855000  0.79258000  0.60090000  1.0 1.5404713039
Ga  Ga14  1  0.38855000  0.70742000  0.89910000  1.0 1.5452076292
Ga  Ga15  1  0.11145000  0.70742000  0.10090000  1.0 1.5404713039
Ga  Ga16  1  0.61145000  0.79258000  0.39910000  1.0 1.5404713039
Ga  Ga17  1  0.91233000  0.41437000  0.21336000  1.0 1.5404713039
Ga  Ga18  1  0.41233000  0.08563000  0.28664000  1.0 1.5404713039
Ga  Ga19  1  0.08767000  0.08563000  0.71336000  1.0 1.5404713039
Ga  Ga20  1  0.58767000  0.41437000  0.78664000  1.0 1.5404713039
Ga  Ga21  1  0.08767000  0.58563000  0.78664000  1.0 1.5404713039
Ga  Ga22  1  0.58767000  0.91437000  0.71336000  1.0 1.5404713039
Ga  Ga23  1  0.91233000  0.91437000  0.28664000  1.0 1.5404713039
Ga  Ga24  1  0.41233000  0.58563000  0.21336000  1.0 1.5404713039
P  P1  1  0.88117000  0.28415000  0.32287000  1.0 1.5326490299
P  P2  1  0.38117000  0.21585000  0.17713000  1.0 1.5326490299
P  P3  1  0.11883000  0.21585000  0.82287000  1.0 1.5404713039
P  P4  1  0.61883000  0.28415000  0.67713000  1.0 1.5326490299
P  P5  1  0.11883000  0.71585000  0.67713000  1.0 1.5404713039
P  P6  1  0.61883000  0.78415000  0.82287000  1.0 1.5326490299
P  P7  1  0.88117000  0.78415000  0.17713000  1.0 1.5326490299
P  P8  1  0.38117000  0.71585000  0.32287000  1.0 1.5326490299
P  P9  1  0.10519000  0.06986000  0.28283000  1.0 1.5606997034
P  P10  1  0.60519000  0.43014000  0.21717000  1.0 1.5606997034
P  P11  1  0.89481000  0.43014000  0.78283000  1.0 1.5606997034
P  P12  1  0.39481000  0.06986000  0.71717000  1.0 1.5606997034
P  P13  1  0.89481000  0.93014000  0.71717000  1.0 1.5606997034
P  P14  1  0.39481000  0.56986000  0.78283000  1.0 1.5606997034
P  P15  1  0.10519000  0.56986000  0.21717000  1.0 1.5606997034
P  P16  1  0.60519000  0.93014000  0.28283000  1.0 1.5606997034
P  P17  1  0.89970000  0.29690000  0.07615000  1.0 1.5606997034
P  P18  1  0.39970000  0.20310000  0.42385000  1.0 1.5606997034
P  P19  1  0.10030000  0.20310000  0.57615000  1.0 1.5606997034
P  P20  1  0.60030000  0.29690000  0.92385000  1.0 1.5606997034
P  P21  1  0.10030000  0.70310000  0.92385000  1.0 1.5606997034
P  P22  1  0.60030000  0.79690000  0.57615000  1.0 1.5606997034
P  P23  1  0.89970000  0.79690000  0.42385000  1.0 1.5606997034
P  P24  1  0.39970000  0.70310000  0.07615000  1.0 1.5606997034
O  O1  1  0.92340000  0.23673000  0.25601000  1.0 -0.7665651345
O  O2  1  0.42340000  0.26327000  0.24399000  1.0 -0.7665651345
O  O3  1  0.07660000  0.26327000  0.75601000  1.0 -0.7665651345
O  O4  1  0.57660000  0.23673000  0.74399000  1.0 -0.7665651345
O  O5  1  0.07660000  0.76327000  0.74399000  1.0 -0.7665651345
O  O6  1  0.57660000  0.73673000  0.75601000  1.0 -0.7665651345
O  O7  1  0.92340000  0.73673000  0.24399000  1.0 -0.7665651345
O  O8  1  0.42340000  0.76327000  0.25601000  1.0 -0.7665651345
O  O9  1  0.08840000  0.12353000  0.21579000  1.0 -0.7494611645
O  O10  1  0.58840000  0.37647000  0.28421000  1.0 -0.7494611645
O  O11  1  0.91160000  0.37647000  0.71579000  1.0 -0.7494611645
O  O12  1  0.41160000  0.12353000  0.78421000  1.0 -0.7494611645
O  O13  1  0.91160000  0.87647000  0.78421000  1.0 -0.7494611645
O  O14  1  0.41160000  0.62353000  0.71579000  1.0 -0.7494611645
O  O15  1  0.08840000  0.62353000  0.28421000  1.0 -0.7494611645
O  O16  1  0.58840000  0.87647000  0.21579000  1.0 -0.7494611645
O  O17  1  0.00350000  0.24263000  0.10798000  1.0 -0.7000096487
O  O18  1  0.50350000  0.25737000  0.39202000  1.0 -0.6941737491
O  O19  1  0.99650000  0.25737000  0.60798000  1.0 -0.6941737491
O  O20  1  0.49650000  0.24263000  0.89202000  1.0 -0.6941737491
O  O21  1  0.99650000  0.75737000  0.89202000  1.0 -0.6941737491
O  O22  1  0.49650000  0.74263000  0.60798000  1.0 -0.6941737491
O  O23  1  0.00350000  0.74263000  0.39202000  1.0 -0.6941737491
O  O24  1  0.50350000  0.75737000  0.10798000  1.0 -0.6941737491
O  O25  1  0.74680000  0.25706000  0.34728000  1.0 -0.656769512
O  O26  1  0.24680000  0.24294000  0.15272000  1.0 -0.656769512
O  O27  1  0.25320000  0.24294000  0.84728000  1.0 -0.656769512
O  O28  1  0.75320000  0.25706000  0.65272000  1.0 -0.656769512
O  O29  1  0.25320000  0.74294000  0.65272000  1.0 -0.656769512
O  O30  1  0.75320000  0.75706000  0.84728000  1.0 -0.656769512
O  O31  1  0.74680000  0.75706000  0.15272000  1.0 -0.656769512
O  O32  1  0.24680000  0.74294000  0.34728000  1.0 -0.656769512
O  O33  1  0.96950000  0.27281000  0.39080000  1.0 -0.7000096487
O  O34  1  0.46950000  0.22719000  0.10920000  1.0 -0.6941737491
O  O35  1  0.03050000  0.22719000  0.89080000  1.0 -0.7000096487
O  O36  1  0.53050000  0.27281000  0.60920000  1.0 -0.6941737491
O  O37  1  0.03050000  0.72719000  0.60920000  1.0 -0.6941737491
O  O38  1  0.53050000  0.77281000  0.89080000  1.0 -0.7000096487
O  O39  1  0.96950000  0.77281000  0.10920000  1.0 -0.6941737491
O  O40  1  0.46950000  0.72719000  0.39080000  1.0 -0.7000096487
O  O41  1  0.88120000  0.37299000  0.30542000  1.0 -0.7604033106
O  O42  1  0.38120000  0.12701000  0.19458000  1.0 -0.7604033106
O  O43  1  0.11880000  0.12701000  0.80542000  1.0 -0.7604033106
O  O44  1  0.61880000  0.37299000  0.69458000  1.0 -0.7604033106
O  O45  1  0.11880000  0.62701000  0.69458000  1.0 -0.7604033106
O  O46  1  0.61880000  0.87299000  0.80542000  1.0 -0.7604033106
O  O47  1  0.88120000  0.87299000  0.19458000  1.0 -0.7604033106
O  O48  1  0.38120000  0.62701000  0.30542000  1.0 -0.7604033106
O  O49  1  0.08130000  0.11033000  0.35790000  1.0 -0.7961459511
O  O50  1  0.58130000  0.38967000  0.14210000  1.0 -0.7961459511
O  O51  1  0.91870000  0.38967000  0.85790000  1.0 -0.7961459511
O  O52  1  0.41870000  0.11033000  0.64210000  1.0 -0.7961459511
O  O53  1  0.91870000  0.88967000  0.64210000  1.0 -0.7961459511
O  O54  1  0.41870000  0.61033000  0.85790000  1.0 -0.7961459511
O  O55  1  0.08130000  0.61033000  0.14210000  1.0 -0.7961459511
O  O56  1  0.58130000  0.88967000  0.35790000  1.0 -0.7961459511
O  O57  1  0.77160000  0.25175000  0.07649000  1.0 -0.7000096487
O  O58  1  0.27160000  0.24825000  0.42351000  1.0 -0.7000096487
O  O59  1  0.22840000  0.24825000  0.57649000  1.0 -0.7000096487
O  O60  1  0.72840000  0.25175000  0.92351000  1.0 -0.7000096487
O  O61  1  0.22840000  0.74825000  0.92351000  1.0 -0.7000096487
O  O62  1  0.72840000  0.75175000  0.57649000  1.0 -0.7000096487
O  O63  1  0.77160000  0.75175000  0.42351000  1.0 -0.7000096487
O  O64  1  0.27160000  0.74825000  0.07649000  1.0 -0.7000096487
O  O65  1  0.93590000  0.32193000  0.99750000  1.0 -0.7665651345
O  O66  1  0.43590000  0.17807000  0.50250000  1.0 -0.7665651345
O  O67  1  0.06410000  0.17807000  0.49750000  1.0 -0.7604033106
O  O68  1  0.56410000  0.32193000  0.00250000  1.0 -0.7604033106
O  O69  1  0.06410000  0.67807000  0.00250000  1.0 -0.7604033106
O  O70  1  0.56410000  0.82193000  0.49750000  1.0 -0.7604033106
O  O71  1  0.93590000  0.82193000  0.50250000  1.0 -0.7665651345
O  O72  1  0.43590000  0.67807000  0.99750000  1.0 -0.7665651345
O  O73  1  0.24000000  0.03197000  0.28386000  1.0 -0.6664058024
O  O74  1  0.74000000  0.46803000  0.21614000  1.0 -0.6664058024
O  O75  1  0.76000000  0.46803000  0.78386000  1.0 -0.6664058024
O  O76  1  0.26000000  0.03197000  0.71614000  1.0 -0.6664058024
O  O77  1  0.76000000  0.96803000  0.71614000  1.0 -0.6664058024
O  O78  1  0.26000000  0.53197000  0.78386000  1.0 -0.6664058024
O  O79  1  0.24000000  0.53197000  0.21614000  1.0 -0.6664058024
O  O80  1  0.74000000  0.96803000  0.28386000  1.0 -0.6664058024
O  O81  1  0.00090000  0.00628000  0.27539000  1.0 -0.7000096487
O  O82  1  0.50090000  0.49372000  0.22461000  1.0 -0.7000096487
O  O83  1  0.99910000  0.49372000  0.77539000  1.0 -0.7000096487
O  O84  1  0.49910000  0.00628000  0.72461000  1.0 -0.7000096487
O  O85  1  0.99910000  0.99372000  0.72461000  1.0 -0.7000096487
O  O86  1  0.49910000  0.50628000  0.77539000  1.0 -0.7000096487
O  O87  1  0.00090000  0.50628000  0.22461000  1.0 -0.7000096487
O  O88  1  0.50090000  0.99372000  0.27539000  1.0 -0.7000096487
O  O89  1  0.88190000  0.37451000  0.12012000  1.0 -0.8240795487
O  O90  1  0.38190000  0.12549000  0.37988000  1.0 -0.8240795487
O  O91  1  0.11810000  0.12549000  0.62012000  1.0 -0.8240795487
O  O92  1  0.61810000  0.37451000  0.87988000  1.0 -0.8240795487
O  O93  1  0.11810000  0.62549000  0.87988000  1.0 -0.8240795487
O  O94  1  0.61810000  0.87451000  0.62012000  1.0 -0.8240795487
O  O95  1  0.88190000  0.87451000  0.37988000  1.0 -0.8240795487
O  O96  1  0.38190000  0.62549000  0.12012000  1.0 -0.8240795487
O  O97  1  0.24900000  0.92220000  0.40830000  1.0 0.0594417022
O  O98  1  0.74900000  0.57780000  0.09170000  1.0 0.0594417022
O  O99  1  0.75100000  0.57780000  0.90830000  1.0 0.0594417022
O  O100  1  0.25100000  0.92220000  0.59170000  1.0 0.0594417022
O  O101  1  0.75100000  0.07780000  0.59170000  1.0 0.0594417022
O  O102  1  0.25100000  0.42220000  0.90830000  1.0 0.0594417022
O  O103  1  0.24900000  0.42220000  0.09170000  1.0 0.0594417022
O  O104  1  0.74900000  0.07780000  0.40830000  1.0 0.0594417022
F  F1  1  0.16940000  0.24615000  0.29857000  1.0 -0.4920501539
F  F2  1  0.66940000  0.25385000  0.20143000  1.0 -0.4920501539
F  F3  1  0.83060000  0.25385000  0.79857000  1.0 -0.4920501539
F  F4  1  0.33060000  0.24615000  0.70143000  1.0 -0.4920501539
F  F5  1  0.83060000  0.75385000  0.70143000  1.0 -0.4920501539
F  F6  1  0.33060000  0.74615000  0.79857000  1.0 -0.4920501539
F  F7  1  0.16940000  0.74615000  0.20143000  1.0 -0.4920501539
F  F8  1  0.66940000  0.75385000  0.29857000  1.0 -0.4920501539
F  F9  1  0.08110000  0.35507000  0.21007000  1.0 -0.4806375967
F  F10  1  0.58110000  0.14493000  0.28993000  1.0 -0.4806375967
F  F11  1  0.91890000  0.14493000  0.71007000  1.0 -0.4806375967
F  F12  1  0.41890000  0.35507000  0.78993000  1.0 -0.4806375967
F  F13  1  0.91890000  0.64493000  0.78993000  1.0 -0.4806375967
F  F14  1  0.41890000  0.85507000  0.71007000  1.0 -0.4806375967
F  F15  1  0.08110000  0.85507000  0.28993000  1.0 -0.4806375967
F  F16  1  0.58110000  0.64493000  0.21007000  1.0 -0.4806375967
