# DDEC6 charges by PACMAN v1.1 (https://github.com/mtap-research/PACMAN-charge/)
data_EKOBUE_ASR_pacman
_symmetry_space_group_name_H-M   'P 1'
_cell_length_a   16.27960000
_cell_length_b   11.89770000
_cell_length_c   22.61540000
_cell_angle_alpha   90.00000000
_cell_angle_beta   124.38000000
_cell_angle_gamma   90.00000000
_symmetry_Int_Tables_number   1
_chemical_formula_structural   Ca2H18(C10O3)3
_chemical_formula_sum   'Ca8 H72 C120 O36'
_cell_volume   3615.16789316
_cell_formula_units_Z   4
loop_
 _symmetry_equiv_pos_site_id
 _symmetry_equiv_pos_as_xyz
  1  'x, y, z'
loop_
 _atom_site_type_symbol
 _atom_site_label
 _atom_site_symmetry_multiplicity
 _atom_site_fract_x
 _atom_site_fract_y
 _atom_site_fract_z
 _atom_site_occupancy
 _atom_site_charge
Ca  Ca1  1  0.45926000  0.36278000  0.52131000  1.0 1.3350738324
Ca  Ca2  1  0.52705000  0.90351000  0.56930000  1.0 1.3548419513
Ca  Ca3  1  0.54074000  0.86278000  0.97869000  1.0 1.3350738324
Ca  Ca4  1  0.47295000  0.40351000  0.93070000  1.0 1.3548419513
Ca  Ca5  1  0.54074000  0.63722000  0.47869000  1.0 1.3350738324
Ca  Ca6  1  0.47295000  0.09649000  0.43070000  1.0 1.3548419513
Ca  Ca7  1  0.45926000  0.13722000  0.02131000  1.0 1.3350738324
Ca  Ca8  1  0.52705000  0.59649000  0.06930000  1.0 1.3548419513
H  H1  1  0.77120000  0.75040000  0.57730000  1.0 0.1188160523
H  H2  1  0.73320000  0.96150000  0.42410000  1.0 0.1188160523
H  H3  1  0.92960000  0.70610000  0.60770000  1.0 0.1188160523
H  H4  1  0.73280000  0.56040000  0.33930000  1.0 0.1188160523
H  H5  1  0.29520000  0.65220000  0.76130000  1.0 0.1188160523
H  H6  1  0.09220000  0.55320000  0.45330000  1.0 0.1106972762
H  H7  1  0.88860000  0.91230000  0.45110000  1.0 0.1106972762
H  H8  1  0.24240000  0.51910000  0.46690000  1.0 0.1188160523
H  H9  1  0.87410000  0.59340000  0.45360000  1.0 0.1106972762
H  H10  1  0.34910000  0.81450000  0.57170000  1.0 0.1188160523
H  H11  1  0.16080000  0.62310000  0.64400000  1.0 0.1106972762
H  H12  1  0.08380000  0.94960000  0.63010000  1.0 0.1188160523
H  H13  1  0.22420000  0.98080000  0.74470000  1.0 0.1188160523
H  H14  1  0.98490000  0.79230000  0.36990000  1.0 0.1188160523
H  H15  1  0.84330000  0.76120000  0.25590000  1.0 0.1188160523
H  H16  1  0.20080000  0.84480000  0.56120000  1.0 0.1106972762
H  H17  1  0.67400000  0.06200000  0.58800000  1.0 0.3323056139
H  H18  1  0.60500000  0.12300000  0.58600000  1.0 0.3447791276
H  H19  1  0.22880000  0.25040000  0.92270000  1.0 0.1188160523
H  H20  1  0.26680000  0.46150000  0.07590000  1.0 0.1188160523
H  H21  1  0.07040000  0.20610000  0.89230000  1.0 0.1188160523
H  H22  1  0.26720000  0.06040000  0.16070000  1.0 0.1188160523
H  H23  1  0.70480000  0.15220000  0.73870000  1.0 0.1188160523
H  H24  1  0.90780000  0.05320000  0.04670000  1.0 0.1106972762
H  H25  1  0.11140000  0.41230000  0.04890000  1.0 0.1106972762
H  H26  1  0.75760000  0.01910000  0.03310000  1.0 0.1188160523
H  H27  1  0.12590000  0.09340000  0.04640000  1.0 0.1106972762
H  H28  1  0.65090000  0.31450000  0.92830000  1.0 0.1188160523
H  H29  1  0.83920000  0.12310000  0.85600000  1.0 0.1106972762
H  H30  1  0.91620000  0.44960000  0.86990000  1.0 0.1188160523
H  H31  1  0.77580000  0.48080000  0.75530000  1.0 0.1188160523
H  H32  1  0.01510000  0.29230000  0.13010000  1.0 0.1188160523
H  H33  1  0.15670000  0.26120000  0.24410000  1.0 0.1188160523
H  H34  1  0.79920000  0.34480000  0.93880000  1.0 0.1106972762
H  H35  1  0.32600000  0.56200000  0.91200000  1.0 0.3323056139
H  H36  1  0.39500000  0.62300000  0.91400000  1.0 0.3447791276
H  H37  1  0.22880000  0.24960000  0.42270000  1.0 0.1188160523
H  H38  1  0.26680000  0.03850000  0.57590000  1.0 0.1188160523
H  H39  1  0.07040000  0.29390000  0.39230000  1.0 0.1188160523
H  H40  1  0.26720000  0.43960000  0.66070000  1.0 0.1188160523
H  H41  1  0.70480000  0.34780000  0.23870000  1.0 0.1188160523
H  H42  1  0.90780000  0.44680000  0.54670000  1.0 0.1106972762
H  H43  1  0.11140000  0.08770000  0.54890000  1.0 0.1106972762
H  H44  1  0.75760000  0.48090000  0.53310000  1.0 0.1188160523
H  H45  1  0.12590000  0.40660000  0.54640000  1.0 0.1106972762
H  H46  1  0.65090000  0.18550000  0.42830000  1.0 0.1188160523
H  H47  1  0.83920000  0.37690000  0.35600000  1.0 0.1106972762
H  H48  1  0.91620000  0.05040000  0.36990000  1.0 0.1188160523
H  H49  1  0.77580000  0.01920000  0.25530000  1.0 0.1188160523
H  H50  1  0.01510000  0.20770000  0.63010000  1.0 0.1188160523
H  H51  1  0.15670000  0.23880000  0.74410000  1.0 0.1188160523
H  H52  1  0.79920000  0.15520000  0.43880000  1.0 0.1106972762
H  H53  1  0.32600000  0.93800000  0.41200000  1.0 0.3323056139
H  H54  1  0.39500000  0.87700000  0.41400000  1.0 0.3447791276
H  H55  1  0.77120000  0.74960000  0.07730000  1.0 0.1188160523
H  H56  1  0.73320000  0.53850000  0.92410000  1.0 0.1188160523
H  H57  1  0.92960000  0.79390000  0.10770000  1.0 0.1188160523
H  H58  1  0.73280000  0.93960000  0.83930000  1.0 0.1188160523
H  H59  1  0.29520000  0.84780000  0.26130000  1.0 0.1188160523
H  H60  1  0.09220000  0.94680000  0.95330000  1.0 0.1106972762
H  H61  1  0.88860000  0.58770000  0.95110000  1.0 0.1106972762
H  H62  1  0.24240000  0.98090000  0.96690000  1.0 0.1188160523
H  H63  1  0.87410000  0.90660000  0.95360000  1.0 0.1106972762
H  H64  1  0.34910000  0.68550000  0.07170000  1.0 0.1188160523
H  H65  1  0.16080000  0.87690000  0.14400000  1.0 0.1106972762
H  H66  1  0.08380000  0.55040000  0.13010000  1.0 0.1188160523
H  H67  1  0.22420000  0.51920000  0.24470000  1.0 0.1188160523
H  H68  1  0.98490000  0.70770000  0.86990000  1.0 0.1188160523
H  H69  1  0.84330000  0.73880000  0.75590000  1.0 0.1188160523
H  H70  1  0.20080000  0.65520000  0.06120000  1.0 0.1106972762
H  H71  1  0.67400000  0.43800000  0.08800000  1.0 0.3323056139
H  H72  1  0.60500000  0.37700000  0.08600000  1.0 0.3458032944
C  C1  1  0.31066000  0.66390000  0.51993000  1.0 -0.0288511033
C  C2  1  0.73548000  0.85970000  0.49699000  1.0 -0.0394135825
C  C3  1  0.11018000  0.78420000  0.62383000  1.0 0.0794244325
C  C4  1  0.94357000  0.69880000  0.42396000  1.0 0.072595154
C  C5  1  0.03330000  0.72410000  0.49688000  1.0 -0.0196039176
C  C6  1  0.92447000  0.80210000  0.53096000  1.0 0.072595154
C  C7  1  0.27445000  0.81960000  0.76448000  1.0 -0.0196039176
C  C8  1  0.77389000  0.65780000  0.28626000  1.0 -0.0196039176
C  C9  1  0.02388000  0.76730000  0.54776000  1.0 -0.0288511033
C  C10  1  0.63446000  0.89130000  0.47935000  1.0 0.6118402817
C  C11  1  0.79514000  0.78390000  0.55165000  1.0 -0.1059226952
C  C12  1  0.40420000  0.64670000  0.52319000  1.0 0.6242690124
C  C13  1  0.13107000  0.70150000  0.50727000  1.0 0.0794244325
C  C14  1  0.77222000  0.90790000  0.46068000  1.0 -0.0981982527
C  C15  1  0.88897000  0.75640000  0.56923000  1.0 -0.1514405759
C  C16  1  0.78379000  0.60820000  0.34539000  1.0 -0.0981982527
C  C17  1  0.25364000  0.71370000  0.73400000  1.0 -0.0906806917
C  C18  1  0.14491000  0.60600000  0.47841000  1.0 -0.1514405759
C  C19  1  0.86506000  0.87900000  0.47710000  1.0 -0.1415992628
C  C20  1  0.23389000  0.58620000  0.48558000  1.0 -0.0981982527
C  C21  1  0.86790000  0.62820000  0.41346000  1.0 -0.1514405759
C  C22  1  0.29719000  0.76050000  0.54799000  1.0 -0.0906806917
C  C23  1  0.17317000  0.69620000  0.66437000  1.0 -0.1415992628
C  C24  1  0.68424000  0.63700000  0.21193000  1.0 0.552617345
C  C25  1  0.12854000  0.88950000  0.65588000  1.0 -0.1573846302
C  C26  1  0.21089000  0.90760000  0.72456000  1.0 -0.0981982527
C  C27  1  0.93331000  0.74600000  0.36413000  1.0 -0.1514405759
C  C28  1  0.84935000  0.72680000  0.29612000  1.0 -0.0906806917
C  C29  1  0.36433000  0.83960000  0.83901000  1.0 0.5580668636
C  C30  1  0.20873000  0.77840000  0.54163000  1.0 -0.1415992628
C  C31  1  0.68934000  0.16390000  0.98007000  1.0 -0.0288511033
C  C32  1  0.26452000  0.35970000  0.00301000  1.0 -0.0394135825
C  C33  1  0.88982000  0.28420000  0.87617000  1.0 0.0794244325
C  C34  1  0.05643000  0.19880000  0.07604000  1.0 0.072595154
C  C35  1  0.96670000  0.22410000  0.00312000  1.0 -0.0196039176
C  C36  1  0.07553000  0.30210000  0.96904000  1.0 0.072595154
C  C37  1  0.72555000  0.31960000  0.73552000  1.0 -0.0196039176
C  C38  1  0.22611000  0.15780000  0.21374000  1.0 -0.0196039176
C  C39  1  0.97612000  0.26730000  0.95224000  1.0 -0.0288511033
C  C40  1  0.36554000  0.39130000  0.02065000  1.0 0.6118402817
C  C41  1  0.20486000  0.28390000  0.94835000  1.0 -0.1059226952
C  C42  1  0.59580000  0.14670000  0.97681000  1.0 0.6242690124
C  C43  1  0.86893000  0.20150000  0.99273000  1.0 0.0794244325
C  C44  1  0.22778000  0.40790000  0.03932000  1.0 -0.0981982527
C  C45  1  0.11103000  0.25640000  0.93077000  1.0 -0.1415992628
C  C46  1  0.21621000  0.10820000  0.15461000  1.0 -0.0981982527
C  C47  1  0.74636000  0.21370000  0.76600000  1.0 -0.0906806917
C  C48  1  0.85509000  0.10600000  0.02159000  1.0 -0.1514405759
C  C49  1  0.13494000  0.37900000  0.02290000  1.0 -0.1415992628
C  C50  1  0.76611000  0.08620000  0.01442000  1.0 -0.0981982527
C  C51  1  0.13210000  0.12820000  0.08654000  1.0 -0.1514405759
C  C52  1  0.70281000  0.26050000  0.95201000  1.0 -0.0906806917
C  C53  1  0.82683000  0.19620000  0.83563000  1.0 -0.1415992628
C  C54  1  0.31576000  0.13700000  0.28807000  1.0 0.552617345
C  C55  1  0.87146000  0.38950000  0.84412000  1.0 -0.1573846302
C  C56  1  0.78911000  0.40760000  0.77544000  1.0 -0.0981982527
C  C57  1  0.06669000  0.24600000  0.13587000  1.0 -0.1514405759
C  C58  1  0.15065000  0.22680000  0.20388000  1.0 -0.0906806917
C  C59  1  0.63567000  0.33960000  0.66099000  1.0 0.5580668636
C  C60  1  0.79127000  0.27840000  0.95837000  1.0 -0.1415992628
C  C61  1  0.68934000  0.33610000  0.48007000  1.0 -0.0288511033
C  C62  1  0.26452000  0.14030000  0.50301000  1.0 -0.0394135825
C  C63  1  0.88982000  0.21580000  0.37617000  1.0 0.0794244325
C  C64  1  0.05643000  0.30120000  0.57604000  1.0 0.072595154
C  C65  1  0.96670000  0.27590000  0.50312000  1.0 -0.0196039176
C  C66  1  0.07553000  0.19790000  0.46904000  1.0 0.072595154
C  C67  1  0.72555000  0.18040000  0.23552000  1.0 -0.0196039176
C  C68  1  0.22611000  0.34220000  0.71374000  1.0 -0.0196039176
C  C69  1  0.97612000  0.23270000  0.45224000  1.0 -0.0288511033
C  C70  1  0.36554000  0.10870000  0.52065000  1.0 0.6118402817
C  C71  1  0.20486000  0.21610000  0.44835000  1.0 -0.1059226952
C  C72  1  0.59580000  0.35330000  0.47681000  1.0 0.6242690124
C  C73  1  0.86893000  0.29850000  0.49273000  1.0 0.0794244325
C  C74  1  0.22778000  0.09210000  0.53932000  1.0 -0.0981982527
C  C75  1  0.11103000  0.24360000  0.43077000  1.0 -0.1514405759
C  C76  1  0.21621000  0.39180000  0.65461000  1.0 -0.0981982527
C  C77  1  0.74636000  0.28630000  0.26600000  1.0 -0.0906806917
C  C78  1  0.85509000  0.39400000  0.52159000  1.0 -0.1514405759
C  C79  1  0.13494000  0.12100000  0.52290000  1.0 -0.1415992628
C  C80  1  0.76611000  0.41380000  0.51442000  1.0 -0.0981982527
C  C81  1  0.13210000  0.37180000  0.58654000  1.0 -0.1514405759
C  C82  1  0.70281000  0.23950000  0.45201000  1.0 -0.0906806917
C  C83  1  0.82683000  0.30380000  0.33563000  1.0 -0.1415992628
C  C84  1  0.31576000  0.36300000  0.78807000  1.0 0.552617345
C  C85  1  0.87146000  0.11050000  0.34412000  1.0 -0.1573846302
C  C86  1  0.78911000  0.09240000  0.27544000  1.0 -0.0981982527
C  C87  1  0.06669000  0.25400000  0.63587000  1.0 -0.1514405759
C  C88  1  0.15065000  0.27320000  0.70388000  1.0 -0.0906806917
C  C89  1  0.63567000  0.16040000  0.16099000  1.0 0.5580668636
C  C90  1  0.79127000  0.22160000  0.45837000  1.0 -0.1415992628
C  C91  1  0.31066000  0.83610000  0.01993000  1.0 -0.0288511033
C  C92  1  0.73548000  0.64030000  0.99699000  1.0 -0.0394135825
C  C93  1  0.11018000  0.71580000  0.12383000  1.0 0.0794244325
C  C94  1  0.94357000  0.80120000  0.92396000  1.0 0.072595154
C  C95  1  0.03330000  0.77590000  0.99688000  1.0 -0.0196039176
C  C96  1  0.92447000  0.69790000  0.03096000  1.0 0.072595154
C  C97  1  0.27445000  0.68040000  0.26448000  1.0 -0.0196039176
C  C98  1  0.77389000  0.84220000  0.78626000  1.0 -0.0196039176
C  C99  1  0.02388000  0.73270000  0.04776000  1.0 -0.0288511033
C  C100  1  0.63446000  0.60870000  0.97935000  1.0 0.6118402817
C  C101  1  0.79514000  0.71610000  0.05165000  1.0 -0.1059226952
C  C102  1  0.40420000  0.85330000  0.02319000  1.0 0.6242690124
C  C103  1  0.13107000  0.79850000  0.00727000  1.0 0.0794244325
C  C104  1  0.77222000  0.59210000  0.96068000  1.0 -0.0981982527
C  C105  1  0.88897000  0.74360000  0.06923000  1.0 -0.1514405759
C  C106  1  0.78379000  0.89180000  0.84539000  1.0 -0.0981982527
C  C107  1  0.25364000  0.78630000  0.23400000  1.0 -0.0906806917
C  C108  1  0.14491000  0.89400000  0.97841000  1.0 -0.1514405759
C  C109  1  0.86506000  0.62100000  0.97710000  1.0 -0.1415992628
C  C110  1  0.23389000  0.91380000  0.98558000  1.0 -0.0981982527
C  C111  1  0.86790000  0.87180000  0.91346000  1.0 -0.1514405759
C  C112  1  0.29719000  0.73950000  0.04799000  1.0 -0.0906806917
C  C113  1  0.17317000  0.80380000  0.16437000  1.0 -0.1415992628
C  C114  1  0.68424000  0.86300000  0.71193000  1.0 0.552617345
C  C115  1  0.12854000  0.61050000  0.15588000  1.0 -0.1573846302
C  C116  1  0.21089000  0.59240000  0.22456000  1.0 -0.0981982527
C  C117  1  0.93331000  0.75400000  0.86413000  1.0 -0.1514405759
C  C118  1  0.84935000  0.77320000  0.79612000  1.0 -0.0906806917
C  C119  1  0.36433000  0.66040000  0.33901000  1.0 0.5580668636
C  C120  1  0.20873000  0.72160000  0.04163000  1.0 -0.1415992628
O  O1  1  0.59856000  0.83169000  0.50627000  1.0 -0.6787955127
O  O2  1  0.42023000  0.55473000  0.50444000  1.0 -0.6515061743
O  O3  1  0.46414000  0.72765000  0.54212000  1.0 -0.6515061743
O  O4  1  0.60199000  0.06977000  0.56300000  1.0 -0.744907137
O  O5  1  0.59277000  0.97578000  0.44052000  1.0 -0.5988236628
O  O6  1  0.39353000  0.93828000  0.86071000  1.0 -0.5941553526
O  O7  1  0.68678000  0.67320000  0.16019000  1.0 -0.6201458387
O  O8  1  0.41047000  0.75589000  0.87852000  1.0 -0.6201458387
O  O9  1  0.61038000  0.58400000  0.20126000  1.0 -0.6063967906
O  O10  1  0.40144000  0.33169000  0.99373000  1.0 -0.6787955127
O  O11  1  0.57977000  0.05473000  0.99556000  1.0 -0.6515061743
O  O12  1  0.53586000  0.22765000  0.95788000  1.0 -0.6515061743
O  O13  1  0.39801000  0.56977000  0.93700000  1.0 -0.744907137
O  O14  1  0.40723000  0.47578000  0.05948000  1.0 -0.5988236628
O  O15  1  0.60647000  0.43828000  0.63929000  1.0 -0.5941553526
O  O16  1  0.31322000  0.17320000  0.33981000  1.0 -0.6201458387
O  O17  1  0.58953000  0.25589000  0.62148000  1.0 -0.6201458387
O  O18  1  0.38962000  0.08400000  0.29874000  1.0 -0.6063967906
O  O19  1  0.40144000  0.16831000  0.49373000  1.0 -0.6787955127
O  O20  1  0.57977000  0.44527000  0.49556000  1.0 -0.6515061743
O  O21  1  0.53586000  0.27235000  0.45788000  1.0 -0.6515061743
O  O22  1  0.39801000  0.93023000  0.43700000  1.0 -0.744907137
O  O23  1  0.40723000  0.02422000  0.55948000  1.0 -0.5988236628
O  O24  1  0.60647000  0.06172000  0.13929000  1.0 -0.5941553526
O  O25  1  0.31322000  0.32680000  0.83981000  1.0 -0.6201458387
O  O26  1  0.58953000  0.24411000  0.12148000  1.0 -0.6201458387
O  O27  1  0.38962000  0.41600000  0.79874000  1.0 -0.6063967906
O  O28  1  0.59856000  0.66831000  0.00627000  1.0 -0.6787955127
O  O29  1  0.42023000  0.94527000  0.00444000  1.0 -0.6515061743
O  O30  1  0.46414000  0.77235000  0.04212000  1.0 -0.6515061743
O  O31  1  0.60199000  0.43023000  0.06300000  1.0 -0.744907137
O  O32  1  0.59277000  0.52422000  0.94052000  1.0 -0.5988236628
O  O33  1  0.39353000  0.56172000  0.36071000  1.0 -0.5941553526
O  O34  1  0.68678000  0.82680000  0.66019000  1.0 -0.6201458387
O  O35  1  0.41047000  0.74411000  0.37852000  1.0 -0.6201458387
O  O36  1  0.61038000  0.91600000  0.70126000  1.0 -0.6063967906
