# DDEC6 charges by PACMAN v1.1 (https://github.com/mtap-research/PACMAN-charge/)
data_ELEREU_ASR_pacman
_symmetry_space_group_name_H-M   'P 1'
_cell_length_a   33.53290000
_cell_length_b   33.53290000
_cell_length_c   33.53290000
_cell_angle_alpha   109.47100000
_cell_angle_beta   109.47100000
_cell_angle_gamma   109.47100000
_symmetry_Int_Tables_number   1
_chemical_formula_structural   Cu2H33C51N7O16
_chemical_formula_sum   'Cu24 H396 C612 N84 O192'
_cell_volume   29026.52180782
_cell_formula_units_Z   12
loop_
 _symmetry_equiv_pos_site_id
 _symmetry_equiv_pos_as_xyz
  1  'x, y, z'
loop_
 _atom_site_type_symbol
 _atom_site_label
 _atom_site_symmetry_multiplicity
 _atom_site_fract_x
 _atom_site_fract_y
 _atom_site_fract_z
 _atom_site_occupancy
 _atom_site_charge
Cu  Cu1  1  0.85478000  0.85478000  0.70956000  1.0 0.8564673343
Cu  Cu2  1  0.85478000  0.14522000  0.00000000  1.0 0.8564673343
Cu  Cu3  1  0.14522000  0.14522000  0.29044000  1.0 0.8564673343
Cu  Cu4  1  0.14522000  0.85478000  0.00000000  1.0 0.8564673343
Cu  Cu5  1  0.70956000  0.85478000  0.85478000  1.0 0.8564673343
Cu  Cu6  1  0.85478000  0.00000000  0.14522000  1.0 0.8564673343
Cu  Cu7  1  0.00000000  0.85478000  0.14522000  1.0 0.8564673343
Cu  Cu8  1  0.85478000  0.70956000  0.85478000  1.0 0.8564673343
Cu  Cu9  1  0.29044000  0.14522000  0.14522000  1.0 0.8564673343
Cu  Cu10  1  0.14522000  0.00000000  0.85478000  1.0 0.8564673343
Cu  Cu11  1  0.00000000  0.14522000  0.85478000  1.0 0.8564673343
Cu  Cu12  1  0.14522000  0.29044000  0.14522000  1.0 0.8564673343
Cu  Cu13  1  0.80660000  0.80660000  0.61320000  1.0 0.7799220511
Cu  Cu14  1  0.80660000  0.19340000  0.00000000  1.0 0.7799220511
Cu  Cu15  1  0.19340000  0.19340000  0.38680000  1.0 0.7799220511
Cu  Cu16  1  0.19340000  0.80660000  0.00000000  1.0 0.7799220511
Cu  Cu17  1  0.61320000  0.80660000  0.80660000  1.0 0.7799220511
Cu  Cu18  1  0.80660000  0.00000000  0.19340000  1.0 0.7799220511
Cu  Cu19  1  0.00000000  0.80660000  0.19340000  1.0 0.7799220511
Cu  Cu20  1  0.80660000  0.61320000  0.80660000  1.0 0.7799220511
Cu  Cu21  1  0.38680000  0.19340000  0.19340000  1.0 0.7799220511
Cu  Cu22  1  0.19340000  0.00000000  0.80660000  1.0 0.7799220511
Cu  Cu23  1  0.00000000  0.19340000  0.80660000  1.0 0.7799220511
Cu  Cu24  1  0.19340000  0.38680000  0.19340000  1.0 0.7799220511
H  H1  1  0.85100000  0.73620000  0.73620000  1.0 0.1475154853
H  H2  1  0.73620000  0.00000000  0.88520000  1.0 0.1475154853
H  H3  1  0.00000000  0.11480000  0.26380000  1.0 0.1475154853
H  H4  1  0.11480000  0.85100000  0.11480000  1.0 0.1475154853
H  H5  1  0.14900000  0.88520000  0.88520000  1.0 0.1475154853
H  H6  1  0.88520000  0.00000000  0.73620000  1.0 0.1475154853
H  H7  1  0.00000000  0.26380000  0.11480000  1.0 0.1475154853
H  H8  1  0.26380000  0.14900000  0.26380000  1.0 0.1475154853
H  H9  1  0.73620000  0.85100000  0.73620000  1.0 0.1475154853
H  H10  1  0.85100000  0.11480000  0.11480000  1.0 0.1475154853
H  H11  1  0.11480000  0.00000000  0.26380000  1.0 0.1475154853
H  H12  1  0.00000000  0.73620000  0.88520000  1.0 0.1475154853
H  H13  1  0.26380000  0.00000000  0.11480000  1.0 0.1475154853
H  H14  1  0.00000000  0.88520000  0.73620000  1.0 0.1475154853
H  H15  1  0.88520000  0.14900000  0.88520000  1.0 0.1475154853
H  H16  1  0.14900000  0.26380000  0.26380000  1.0 0.1475154853
H  H17  1  0.73620000  0.73620000  0.85100000  1.0 0.1475154853
H  H18  1  0.26380000  0.26380000  0.14900000  1.0 0.1475154853
H  H19  1  0.73620000  0.88520000  0.00000000  1.0 0.1475154853
H  H20  1  0.11480000  0.11480000  0.85100000  1.0 0.1475154853
H  H21  1  0.88520000  0.73620000  0.00000000  1.0 0.1475154853
H  H22  1  0.26380000  0.11480000  0.00000000  1.0 0.1475154853
H  H23  1  0.88520000  0.88520000  0.14900000  1.0 0.1475154853
H  H24  1  0.11480000  0.26380000  0.00000000  1.0 0.1475154853
H  H25  1  0.76100000  0.66070000  0.58870000  1.0 0.1642716397
H  H26  1  0.66070000  0.07200000  0.89970000  1.0 0.1642716397
H  H27  1  0.07200000  0.17230000  0.41130000  1.0 0.1642716397
H  H28  1  0.17230000  0.76100000  0.10030000  1.0 0.1642716397
H  H29  1  0.23900000  0.82770000  0.89970000  1.0 0.1642716397
H  H30  1  0.82770000  0.92800000  0.58870000  1.0 0.1642716397
H  H31  1  0.92800000  0.33930000  0.10030000  1.0 0.1642716397
H  H32  1  0.33930000  0.23900000  0.41130000  1.0 0.1642716397
H  H33  1  0.58870000  0.76100000  0.66070000  1.0 0.1642716397
H  H34  1  0.76100000  0.10030000  0.17230000  1.0 0.1642716397
H  H35  1  0.10030000  0.92800000  0.33930000  1.0 0.1642716397
H  H36  1  0.92800000  0.58870000  0.82770000  1.0 0.1642716397
H  H37  1  0.41130000  0.07200000  0.17230000  1.0 0.1642716397
H  H38  1  0.07200000  0.89970000  0.66070000  1.0 0.1642716397
H  H39  1  0.89970000  0.23900000  0.82770000  1.0 0.1642716397
H  H40  1  0.23900000  0.41130000  0.33930000  1.0 0.1642716397
H  H41  1  0.66070000  0.58870000  0.76100000  1.0 0.1642716397
H  H42  1  0.41130000  0.33930000  0.23900000  1.0 0.1642716397
H  H43  1  0.58870000  0.82770000  0.92800000  1.0 0.1642716397
H  H44  1  0.10030000  0.17230000  0.76100000  1.0 0.1642716397
H  H45  1  0.89970000  0.66070000  0.07200000  1.0 0.1642716397
H  H46  1  0.33930000  0.10030000  0.92800000  1.0 0.1642716397
H  H47  1  0.82770000  0.89970000  0.23900000  1.0 0.1642716397
H  H48  1  0.17230000  0.41130000  0.07200000  1.0 0.1642716397
H  H49  1  0.23900000  0.33930000  0.41130000  1.0 0.1642716397
H  H50  1  0.33930000  0.92800000  0.10030000  1.0 0.1642716397
H  H51  1  0.92800000  0.82770000  0.58870000  1.0 0.1642716397
H  H52  1  0.82770000  0.23900000  0.89970000  1.0 0.1642716397
H  H53  1  0.76100000  0.17230000  0.10030000  1.0 0.1642716397
H  H54  1  0.17230000  0.07200000  0.41130000  1.0 0.1642716397
H  H55  1  0.07200000  0.66070000  0.89970000  1.0 0.1642716397
H  H56  1  0.66070000  0.76100000  0.58870000  1.0 0.1642716397
H  H57  1  0.41130000  0.23900000  0.33930000  1.0 0.1642716397
H  H58  1  0.23900000  0.89970000  0.82770000  1.0 0.1642716397
H  H59  1  0.89970000  0.07200000  0.66070000  1.0 0.1642716397
H  H60  1  0.07200000  0.41130000  0.17230000  1.0 0.1642716397
H  H61  1  0.58870000  0.92800000  0.82770000  1.0 0.1642716397
H  H62  1  0.92800000  0.10030000  0.33930000  1.0 0.1642716397
H  H63  1  0.10030000  0.76100000  0.17230000  1.0 0.1642716397
H  H64  1  0.76100000  0.58870000  0.66070000  1.0 0.1642716397
H  H65  1  0.33930000  0.41130000  0.23900000  1.0 0.1642716397
H  H66  1  0.58870000  0.66070000  0.76100000  1.0 0.1642716397
H  H67  1  0.41130000  0.17230000  0.07200000  1.0 0.1642716397
H  H68  1  0.89970000  0.82770000  0.23900000  1.0 0.1642716397
H  H69  1  0.10030000  0.33930000  0.92800000  1.0 0.1642716397
H  H70  1  0.66070000  0.89970000  0.07200000  1.0 0.1642716397
H  H71  1  0.17230000  0.10030000  0.76100000  1.0 0.1642716397
H  H72  1  0.82770000  0.58870000  0.92800000  1.0 0.1642716397
H  H73  1  0.62090000  0.48130000  0.52520000  1.0 0.1205817756
H  H74  1  0.48130000  0.95610000  0.86040000  1.0 0.1205817756
H  H75  1  0.95610000  0.09570000  0.47480000  1.0 0.1205817756
H  H76  1  0.09570000  0.62090000  0.13960000  1.0 0.1205817756
H  H77  1  0.37910000  0.90430000  0.86040000  1.0 0.1205817756
H  H78  1  0.90430000  0.04390000  0.52520000  1.0 0.1205817756
H  H79  1  0.04390000  0.51870000  0.13960000  1.0 0.1205817756
H  H80  1  0.51870000  0.37910000  0.47480000  1.0 0.1205817756
H  H81  1  0.52520000  0.62090000  0.48130000  1.0 0.1205817756
H  H82  1  0.62090000  0.13960000  0.09570000  1.0 0.1205817756
H  H83  1  0.13960000  0.04390000  0.51870000  1.0 0.1205817756
H  H84  1  0.04390000  0.52520000  0.90430000  1.0 0.1205817756
H  H85  1  0.47480000  0.95610000  0.09570000  1.0 0.1205817756
H  H86  1  0.95610000  0.86040000  0.48130000  1.0 0.1205817756
H  H87  1  0.86040000  0.37910000  0.90430000  1.0 0.1205817756
H  H88  1  0.37910000  0.47480000  0.51870000  1.0 0.1205817756
H  H89  1  0.48130000  0.52520000  0.62090000  1.0 0.1205817756
H  H90  1  0.47480000  0.51870000  0.37910000  1.0 0.1205817756
H  H91  1  0.52520000  0.90430000  0.04390000  1.0 0.1205817756
H  H92  1  0.13960000  0.09570000  0.62090000  1.0 0.1205817756
H  H93  1  0.86040000  0.48130000  0.95610000  1.0 0.1205817756
H  H94  1  0.51870000  0.13960000  0.04390000  1.0 0.1205817756
H  H95  1  0.90430000  0.86040000  0.37910000  1.0 0.1205817756
H  H96  1  0.09570000  0.47480000  0.95610000  1.0 0.1205817756
H  H97  1  0.37910000  0.51870000  0.47480000  1.0 0.1205817756
H  H98  1  0.51870000  0.04390000  0.13960000  1.0 0.1205817756
H  H99  1  0.04390000  0.90430000  0.52520000  1.0 0.1205817756
H  H100  1  0.90430000  0.37910000  0.86040000  1.0 0.1205817756
H  H101  1  0.62090000  0.09570000  0.13960000  1.0 0.1205817756
H  H102  1  0.09570000  0.95610000  0.47480000  1.0 0.1205817756
H  H103  1  0.95610000  0.48130000  0.86040000  1.0 0.1205817756
H  H104  1  0.48130000  0.62090000  0.52520000  1.0 0.1205817756
H  H105  1  0.47480000  0.37910000  0.51870000  1.0 0.1205817756
H  H106  1  0.37910000  0.86040000  0.90430000  1.0 0.1205817756
H  H107  1  0.86040000  0.95610000  0.48130000  1.0 0.1205817756
H  H108  1  0.95610000  0.47480000  0.09570000  1.0 0.1205817756
H  H109  1  0.52520000  0.04390000  0.90430000  1.0 0.1205817756
H  H110  1  0.04390000  0.13960000  0.51870000  1.0 0.1205817756
H  H111  1  0.13960000  0.62090000  0.09570000  1.0 0.1205817756
H  H112  1  0.62090000  0.52520000  0.48130000  1.0 0.1205817756
H  H113  1  0.51870000  0.47480000  0.37910000  1.0 0.1205817756
H  H114  1  0.52520000  0.48130000  0.62090000  1.0 0.1205817756
H  H115  1  0.47480000  0.09570000  0.95610000  1.0 0.1205817756
H  H116  1  0.86040000  0.90430000  0.37910000  1.0 0.1205817756
H  H117  1  0.13960000  0.51870000  0.04390000  1.0 0.1205817756
H  H118  1  0.48130000  0.86040000  0.95610000  1.0 0.1205817756
H  H119  1  0.09570000  0.13960000  0.62090000  1.0 0.1205817756
H  H120  1  0.90430000  0.52520000  0.04390000  1.0 0.1205817756
H  H121  1  0.73190000  0.46790000  0.51240000  1.0 0.1325209991
H  H122  1  0.46790000  0.95550000  0.73600000  1.0 0.1325209991
H  H123  1  0.95550000  0.21950000  0.48760000  1.0 0.1325209991
H  H124  1  0.21950000  0.73190000  0.26400000  1.0 0.1325209991
H  H125  1  0.26810000  0.78050000  0.73600000  1.0 0.1325209991
H  H126  1  0.78050000  0.04450000  0.51240000  1.0 0.1325209991
H  H127  1  0.04450000  0.53210000  0.26400000  1.0 0.1325209991
H  H128  1  0.53210000  0.26810000  0.48760000  1.0 0.1325209991
H  H129  1  0.51240000  0.73190000  0.46790000  1.0 0.1325209991
H  H130  1  0.73190000  0.26400000  0.21950000  1.0 0.1325209991
H  H131  1  0.26400000  0.04450000  0.53210000  1.0 0.1325209991
H  H132  1  0.04450000  0.51240000  0.78050000  1.0 0.1325209991
H  H133  1  0.48760000  0.95550000  0.21950000  1.0 0.1325209991
H  H134  1  0.95550000  0.73600000  0.46790000  1.0 0.1325209991
H  H135  1  0.73600000  0.26810000  0.78050000  1.0 0.1325209991
H  H136  1  0.26810000  0.48760000  0.53210000  1.0 0.1325209991
H  H137  1  0.46790000  0.51240000  0.73190000  1.0 0.1325209991
H  H138  1  0.48760000  0.53210000  0.26810000  1.0 0.1325209991
H  H139  1  0.51240000  0.78050000  0.04450000  1.0 0.1325209991
H  H140  1  0.26400000  0.21950000  0.73190000  1.0 0.1325209991
H  H141  1  0.73600000  0.46790000  0.95550000  1.0 0.1325209991
H  H142  1  0.53210000  0.26400000  0.04450000  1.0 0.1325209991
H  H143  1  0.78050000  0.73600000  0.26810000  1.0 0.1325209991
H  H144  1  0.21950000  0.48760000  0.95550000  1.0 0.1325209991
H  H145  1  0.26810000  0.53210000  0.48760000  1.0 0.1325209991
H  H146  1  0.53210000  0.04450000  0.26400000  1.0 0.1325209991
H  H147  1  0.04450000  0.78050000  0.51240000  1.0 0.1325209991
H  H148  1  0.78050000  0.26810000  0.73600000  1.0 0.1325209991
H  H149  1  0.73190000  0.21950000  0.26400000  1.0 0.1325209991
H  H150  1  0.21950000  0.95550000  0.48760000  1.0 0.1325209991
H  H151  1  0.95550000  0.46790000  0.73600000  1.0 0.1325209991
H  H152  1  0.46790000  0.73190000  0.51240000  1.0 0.1325209991
H  H153  1  0.48760000  0.26810000  0.53210000  1.0 0.1325209991
H  H154  1  0.26810000  0.73600000  0.78050000  1.0 0.1325209991
H  H155  1  0.73600000  0.95550000  0.46790000  1.0 0.1325209991
H  H156  1  0.95550000  0.48760000  0.21950000  1.0 0.1325209991
H  H157  1  0.51240000  0.04450000  0.78050000  1.0 0.1325209991
H  H158  1  0.04450000  0.26400000  0.53210000  1.0 0.1325209991
H  H159  1  0.26400000  0.73190000  0.21950000  1.0 0.1325209991
H  H160  1  0.73190000  0.51240000  0.46790000  1.0 0.1325209991
H  H161  1  0.53210000  0.48760000  0.26810000  1.0 0.1325209991
H  H162  1  0.51240000  0.46790000  0.73190000  1.0 0.1325209991
H  H163  1  0.48760000  0.21950000  0.95550000  1.0 0.1325209991
H  H164  1  0.73600000  0.78050000  0.26810000  1.0 0.1325209991
H  H165  1  0.26400000  0.53210000  0.04450000  1.0 0.1325209991
H  H166  1  0.46790000  0.73600000  0.95550000  1.0 0.1325209991
H  H167  1  0.21950000  0.26400000  0.73190000  1.0 0.1325209991
H  H168  1  0.78050000  0.51240000  0.04450000  1.0 0.1325209991
H  H169  1  0.56470000  0.40780000  0.45370000  1.0 0.1325209991
H  H170  1  0.40780000  0.95410000  0.84310000  1.0 0.1325209991
H  H171  1  0.95410000  0.11100000  0.54630000  1.0 0.1325209991
H  H172  1  0.11100000  0.56470000  0.15690000  1.0 0.1325209991
H  H173  1  0.43530000  0.88900000  0.84310000  1.0 0.1325209991
H  H174  1  0.88900000  0.04590000  0.45370000  1.0 0.1325209991
H  H175  1  0.04590000  0.59220000  0.15690000  1.0 0.1325209991
H  H176  1  0.59220000  0.43530000  0.54630000  1.0 0.1325209991
H  H177  1  0.45370000  0.56470000  0.40780000  1.0 0.1325209991
H  H178  1  0.56470000  0.15690000  0.11100000  1.0 0.1325209991
H  H179  1  0.15690000  0.04590000  0.59220000  1.0 0.1325209991
H  H180  1  0.04590000  0.45370000  0.88900000  1.0 0.1325209991
H  H181  1  0.54630000  0.95410000  0.11100000  1.0 0.1325209991
H  H182  1  0.95410000  0.84310000  0.40780000  1.0 0.1325209991
H  H183  1  0.84310000  0.43530000  0.88900000  1.0 0.1325209991
H  H184  1  0.43530000  0.54630000  0.59220000  1.0 0.1325209991
H  H185  1  0.40780000  0.45370000  0.56470000  1.0 0.1325209991
H  H186  1  0.54630000  0.59220000  0.43530000  1.0 0.1325209991
H  H187  1  0.45370000  0.88900000  0.04590000  1.0 0.1325209991
H  H188  1  0.15690000  0.11100000  0.56470000  1.0 0.1325209991
H  H189  1  0.84310000  0.40780000  0.95410000  1.0 0.1325209991
H  H190  1  0.59220000  0.15690000  0.04590000  1.0 0.1325209991
H  H191  1  0.88900000  0.84310000  0.43530000  1.0 0.1325209991
H  H192  1  0.11100000  0.54630000  0.95410000  1.0 0.1325209991
H  H193  1  0.43530000  0.59220000  0.54630000  1.0 0.1325209991
H  H194  1  0.59220000  0.04590000  0.15690000  1.0 0.1325209991
H  H195  1  0.04590000  0.88900000  0.45370000  1.0 0.1325209991
H  H196  1  0.88900000  0.43530000  0.84310000  1.0 0.1325209991
H  H197  1  0.56470000  0.11100000  0.15690000  1.0 0.1325209991
H  H198  1  0.11100000  0.95410000  0.54630000  1.0 0.1325209991
H  H199  1  0.95410000  0.40780000  0.84310000  1.0 0.1325209991
H  H200  1  0.40780000  0.56470000  0.45370000  1.0 0.1325209991
H  H201  1  0.54630000  0.43530000  0.59220000  1.0 0.1325209991
H  H202  1  0.43530000  0.84310000  0.88900000  1.0 0.1325209991
H  H203  1  0.84310000  0.95410000  0.40780000  1.0 0.1325209991
H  H204  1  0.95410000  0.54630000  0.11100000  1.0 0.1325209991
H  H205  1  0.45370000  0.04590000  0.88900000  1.0 0.1325209991
H  H206  1  0.04590000  0.15690000  0.59220000  1.0 0.1325209991
H  H207  1  0.15690000  0.56470000  0.11100000  1.0 0.1325209991
H  H208  1  0.56470000  0.45370000  0.40780000  1.0 0.1325209991
H  H209  1  0.59220000  0.54630000  0.43530000  1.0 0.1325209991
H  H210  1  0.45370000  0.40780000  0.56470000  1.0 0.1325209991
H  H211  1  0.54630000  0.11100000  0.95410000  1.0 0.1325209991
H  H212  1  0.84310000  0.88900000  0.43530000  1.0 0.1325209991
H  H213  1  0.15690000  0.59220000  0.04590000  1.0 0.1325209991
H  H214  1  0.40780000  0.84310000  0.95410000  1.0 0.1325209991
H  H215  1  0.11100000  0.15690000  0.56470000  1.0 0.1325209991
H  H216  1  0.88900000  0.45370000  0.04590000  1.0 0.1325209991
H  H217  1  0.67640000  0.39590000  0.43810000  1.0 0.1325209991
H  H218  1  0.39590000  0.95780000  0.71950000  1.0 0.1325209991
H  H219  1  0.95780000  0.23830000  0.56190000  1.0 0.1325209991
H  H220  1  0.23830000  0.67640000  0.28050000  1.0 0.1325209991
H  H221  1  0.32360000  0.76170000  0.71950000  1.0 0.1325209991
H  H222  1  0.76170000  0.04220000  0.43810000  1.0 0.1325209991
H  H223  1  0.04220000  0.60410000  0.28050000  1.0 0.1325209991
H  H224  1  0.60410000  0.32360000  0.56190000  1.0 0.1325209991
H  H225  1  0.43810000  0.67640000  0.39590000  1.0 0.1325209991
H  H226  1  0.67640000  0.28050000  0.23830000  1.0 0.1325209991
H  H227  1  0.28050000  0.04220000  0.60410000  1.0 0.1325209991
H  H228  1  0.04220000  0.43810000  0.76170000  1.0 0.1325209991
H  H229  1  0.56190000  0.95780000  0.23830000  1.0 0.1325209991
H  H230  1  0.95780000  0.71950000  0.39590000  1.0 0.1325209991
H  H231  1  0.71950000  0.32360000  0.76170000  1.0 0.1325209991
H  H232  1  0.32360000  0.56190000  0.60410000  1.0 0.1325209991
H  H233  1  0.39590000  0.43810000  0.67640000  1.0 0.1325209991
H  H234  1  0.56190000  0.60410000  0.32360000  1.0 0.1325209991
H  H235  1  0.43810000  0.76170000  0.04220000  1.0 0.1325209991
H  H236  1  0.28050000  0.23830000  0.67640000  1.0 0.1325209991
H  H237  1  0.71950000  0.39590000  0.95780000  1.0 0.1325209991
H  H238  1  0.60410000  0.28050000  0.04220000  1.0 0.1325209991
H  H239  1  0.76170000  0.71950000  0.32360000  1.0 0.1325209991
H  H240  1  0.23830000  0.56190000  0.95780000  1.0 0.1325209991
H  H241  1  0.32360000  0.60410000  0.56190000  1.0 0.1325209991
H  H242  1  0.60410000  0.04220000  0.28050000  1.0 0.1325209991
H  H243  1  0.04220000  0.76170000  0.43810000  1.0 0.1325209991
H  H244  1  0.76170000  0.32360000  0.71950000  1.0 0.1325209991
H  H245  1  0.67640000  0.23830000  0.28050000  1.0 0.1325209991
H  H246  1  0.23830000  0.95780000  0.56190000  1.0 0.1325209991
H  H247  1  0.95780000  0.39590000  0.71950000  1.0 0.1325209991
H  H248  1  0.39590000  0.67640000  0.43810000  1.0 0.1325209991
H  H249  1  0.56190000  0.32360000  0.60410000  1.0 0.1325209991
H  H250  1  0.32360000  0.71950000  0.76170000  1.0 0.1325209991
H  H251  1  0.71950000  0.95780000  0.39590000  1.0 0.1325209991
H  H252  1  0.95780000  0.56190000  0.23830000  1.0 0.1353556045
H  H253  1  0.43810000  0.04220000  0.76170000  1.0 0.1325209991
H  H254  1  0.04220000  0.28050000  0.60410000  1.0 0.1325209991
H  H255  1  0.28050000  0.67640000  0.23830000  1.0 0.1325209991
H  H256  1  0.67640000  0.43810000  0.39590000  1.0 0.1325209991
H  H257  1  0.60410000  0.56190000  0.32360000  1.0 0.1325209991
H  H258  1  0.43810000  0.39590000  0.67640000  1.0 0.1325209991
H  H259  1  0.56190000  0.23830000  0.95780000  1.0 0.1325209991
H  H260  1  0.71950000  0.76170000  0.32360000  1.0 0.1325209991
H  H261  1  0.28050000  0.60410000  0.04220000  1.0 0.1325209991
H  H262  1  0.39590000  0.71950000  0.95780000  1.0 0.1325209991
H  H263  1  0.23830000  0.28050000  0.67640000  1.0 0.1325209991
H  H264  1  0.76170000  0.43810000  0.04220000  1.0 0.1325209991
H  H265  1  0.56310000  0.31590000  0.39060000  1.0 0.3370840239
H  H266  1  0.31590000  0.92530000  0.75280000  1.0 0.3370840239
H  H267  1  0.92530000  0.17250000  0.60940000  1.0 0.3370840239
H  H268  1  0.17250000  0.56310000  0.24720000  1.0 0.3370840239
H  H269  1  0.43690000  0.82750000  0.75280000  1.0 0.3370840239
H  H270  1  0.82750000  0.07470000  0.39060000  1.0 0.3370840239
H  H271  1  0.07470000  0.68410000  0.24720000  1.0 0.3370840239
H  H272  1  0.68410000  0.43690000  0.60940000  1.0 0.3370840239
H  H273  1  0.39060000  0.56310000  0.31590000  1.0 0.3370840239
H  H274  1  0.56310000  0.24720000  0.17250000  1.0 0.3370840239
H  H275  1  0.24720000  0.07470000  0.68410000  1.0 0.3370840239
H  H276  1  0.07470000  0.39060000  0.82750000  1.0 0.3370840239
H  H277  1  0.60940000  0.92530000  0.17250000  1.0 0.3370840239
H  H278  1  0.92530000  0.75280000  0.31590000  1.0 0.3370840239
H  H279  1  0.75280000  0.43690000  0.82750000  1.0 0.3370840239
H  H280  1  0.43690000  0.60940000  0.68410000  1.0 0.3370840239
H  H281  1  0.31590000  0.39060000  0.56310000  1.0 0.3370840239
H  H282  1  0.60940000  0.68410000  0.43690000  1.0 0.3370840239
H  H283  1  0.39060000  0.82750000  0.07470000  1.0 0.3370840239
H  H284  1  0.24720000  0.17250000  0.56310000  1.0 0.3370840239
H  H285  1  0.75280000  0.31590000  0.92530000  1.0 0.3370840239
H  H286  1  0.68410000  0.24720000  0.07470000  1.0 0.3370840239
H  H287  1  0.82750000  0.75280000  0.43690000  1.0 0.3370840239
H  H288  1  0.17250000  0.60940000  0.92530000  1.0 0.3370840239
H  H289  1  0.43690000  0.68410000  0.60940000  1.0 0.3370840239
H  H290  1  0.68410000  0.07470000  0.24720000  1.0 0.3370840239
H  H291  1  0.07470000  0.82750000  0.39060000  1.0 0.3370840239
H  H292  1  0.82750000  0.43690000  0.75280000  1.0 0.3370840239
H  H293  1  0.56310000  0.17250000  0.24720000  1.0 0.3370840239
H  H294  1  0.17250000  0.92530000  0.60940000  1.0 0.3370840239
H  H295  1  0.92530000  0.31590000  0.75280000  1.0 0.3370840239
H  H296  1  0.31590000  0.56310000  0.39060000  1.0 0.3370840239
H  H297  1  0.60940000  0.43690000  0.68410000  1.0 0.3370840239
H  H298  1  0.43690000  0.75280000  0.82750000  1.0 0.3370840239
H  H299  1  0.75280000  0.92530000  0.31590000  1.0 0.3370840239
H  H300  1  0.92530000  0.60940000  0.17250000  1.0 0.3370840239
H  H301  1  0.39060000  0.07470000  0.82750000  1.0 0.3370840239
H  H302  1  0.07470000  0.24720000  0.68410000  1.0 0.3370840239
H  H303  1  0.24720000  0.56310000  0.17250000  1.0 0.3370840239
H  H304  1  0.56310000  0.39060000  0.31590000  1.0 0.3370840239
H  H305  1  0.68410000  0.60940000  0.43690000  1.0 0.3370840239
H  H306  1  0.39060000  0.31590000  0.56310000  1.0 0.3370840239
H  H307  1  0.60940000  0.17250000  0.92530000  1.0 0.3370840239
H  H308  1  0.75280000  0.82750000  0.43690000  1.0 0.3370840239
H  H309  1  0.24720000  0.68410000  0.07470000  1.0 0.3370840239
H  H310  1  0.31590000  0.75280000  0.92530000  1.0 0.3370840239
H  H311  1  0.17250000  0.24720000  0.56310000  1.0 0.3370840239
H  H312  1  0.82750000  0.39060000  0.07470000  1.0 0.3370840239
H  H313  1  0.59960000  0.29980000  0.29980000  1.0 0.1475154853
H  H314  1  0.29980000  0.00000000  0.70020000  1.0 0.1475154853
H  H315  1  0.00000000  0.29980000  0.70020000  1.0 0.1475154853
H  H316  1  0.29980000  0.59960000  0.29980000  1.0 0.1475154853
H  H317  1  0.40040000  0.70020000  0.70020000  1.0 0.1475154853
H  H318  1  0.70020000  0.00000000  0.29980000  1.0 0.1475154853
H  H319  1  0.00000000  0.70020000  0.29980000  1.0 0.1475154853
H  H320  1  0.70020000  0.40040000  0.70020000  1.0 0.1475154853
H  H321  1  0.29980000  0.29980000  0.59960000  1.0 0.1475154853
H  H322  1  0.70020000  0.70020000  0.40040000  1.0 0.1475154853
H  H323  1  0.29980000  0.70020000  0.00000000  1.0 0.1475154853
H  H324  1  0.70020000  0.29980000  0.00000000  1.0 0.1475154853
H  H325  1  0.47060000  0.28610000  0.28610000  1.0 0.1325209991
H  H326  1  0.28610000  0.00000000  0.81550000  1.0 0.1325209991
H  H327  1  0.00000000  0.18450000  0.71390000  1.0 0.1325209991
H  H328  1  0.18450000  0.47060000  0.18450000  1.0 0.1325209991
H  H329  1  0.52940000  0.81550000  0.81550000  1.0 0.1325209991
H  H330  1  0.81550000  0.00000000  0.28610000  1.0 0.1325209991
H  H331  1  0.00000000  0.71390000  0.18450000  1.0 0.1325209991
H  H332  1  0.71390000  0.52940000  0.71390000  1.0 0.1325209991
H  H333  1  0.28610000  0.47060000  0.28610000  1.0 0.1325209991
H  H334  1  0.47060000  0.18450000  0.18450000  1.0 0.1325209991
H  H335  1  0.18450000  0.00000000  0.71390000  1.0 0.1325209991
H  H336  1  0.00000000  0.28610000  0.81550000  1.0 0.1325209991
H  H337  1  0.71390000  0.00000000  0.18450000  1.0 0.1325209991
H  H338  1  0.00000000  0.81550000  0.28610000  1.0 0.1325209991
H  H339  1  0.81550000  0.52940000  0.81550000  1.0 0.1325209991
H  H340  1  0.52940000  0.71390000  0.71390000  1.0 0.1325209991
H  H341  1  0.28610000  0.28610000  0.47060000  1.0 0.1325209991
H  H342  1  0.71390000  0.71390000  0.52940000  1.0 0.1325209991
H  H343  1  0.28610000  0.81550000  0.00000000  1.0 0.1325209991
H  H344  1  0.18450000  0.18450000  0.47060000  1.0 0.1325209991
H  H345  1  0.81550000  0.28610000  0.00000000  1.0 0.1325209991
H  H346  1  0.71390000  0.18450000  0.00000000  1.0 0.1325209991
H  H347  1  0.81550000  0.81550000  0.52940000  1.0 0.1325209991
H  H348  1  0.18450000  0.71390000  0.00000000  1.0 0.1325209991
H  H349  1  0.71830000  0.57140000  0.54350000  1.0 0.1475154853
H  H350  1  0.57140000  0.02790000  0.85310000  1.0 0.1475154853
H  H351  1  0.02790000  0.17480000  0.45650000  1.0 0.1475154853
H  H352  1  0.17480000  0.71830000  0.14690000  1.0 0.1475154853
H  H353  1  0.28170000  0.82520000  0.85310000  1.0 0.1475154853
H  H354  1  0.82520000  0.97210000  0.54350000  1.0 0.1475154853
H  H355  1  0.97210000  0.42860000  0.14690000  1.0 0.1475154853
H  H356  1  0.42860000  0.28170000  0.45650000  1.0 0.1475154853
H  H357  1  0.54350000  0.71830000  0.57140000  1.0 0.1475154853
H  H358  1  0.71830000  0.14690000  0.17480000  1.0 0.1475154853
H  H359  1  0.14690000  0.97210000  0.42860000  1.0 0.1475154853
H  H360  1  0.97210000  0.54350000  0.82520000  1.0 0.1475154853
H  H361  1  0.45650000  0.02790000  0.17480000  1.0 0.1475154853
H  H362  1  0.02790000  0.85310000  0.57140000  1.0 0.1475154853
H  H363  1  0.85310000  0.28170000  0.82520000  1.0 0.1475154853
H  H364  1  0.28170000  0.45650000  0.42860000  1.0 0.1475154853
H  H365  1  0.57140000  0.54350000  0.71830000  1.0 0.1475154853
H  H366  1  0.45650000  0.42860000  0.28170000  1.0 0.1475154853
H  H367  1  0.54350000  0.82520000  0.97210000  1.0 0.1475154853
H  H368  1  0.14690000  0.17480000  0.71830000  1.0 0.1475154853
H  H369  1  0.85310000  0.57140000  0.02790000  1.0 0.1475154853
H  H370  1  0.42860000  0.14690000  0.97210000  1.0 0.1475154853
H  H371  1  0.82520000  0.85310000  0.28170000  1.0 0.1475154853
H  H372  1  0.17480000  0.45650000  0.02790000  1.0 0.1475154853
H  H373  1  0.28170000  0.42860000  0.45650000  1.0 0.1475154853
H  H374  1  0.42860000  0.97210000  0.14690000  1.0 0.1475154853
H  H375  1  0.97210000  0.82520000  0.54350000  1.0 0.1475154853
H  H376  1  0.82520000  0.28170000  0.85310000  1.0 0.1475154853
H  H377  1  0.71830000  0.17480000  0.14690000  1.0 0.1475154853
H  H378  1  0.17480000  0.02790000  0.45650000  1.0 0.1475154853
H  H379  1  0.02790000  0.57140000  0.85310000  1.0 0.1475154853
H  H380  1  0.57140000  0.71830000  0.54350000  1.0 0.1475154853
H  H381  1  0.45650000  0.28170000  0.42860000  1.0 0.1475154853
H  H382  1  0.28170000  0.85310000  0.82520000  1.0 0.1475154853
H  H383  1  0.85310000  0.02790000  0.57140000  1.0 0.1475154853
H  H384  1  0.02790000  0.45650000  0.17480000  1.0 0.1475154853
H  H385  1  0.54350000  0.97210000  0.82520000  1.0 0.1475154853
H  H386  1  0.97210000  0.14690000  0.42860000  1.0 0.1475154853
H  H387  1  0.14690000  0.71830000  0.17480000  1.0 0.1475154853
H  H388  1  0.71830000  0.54350000  0.57140000  1.0 0.1475154853
H  H389  1  0.42860000  0.45650000  0.28170000  1.0 0.1475154853
H  H390  1  0.54350000  0.57140000  0.71830000  1.0 0.1475154853
H  H391  1  0.45650000  0.17480000  0.02790000  1.0 0.1475154853
H  H392  1  0.85310000  0.82520000  0.28170000  1.0 0.1475154853
H  H393  1  0.14690000  0.42860000  0.97210000  1.0 0.1475154853
H  H394  1  0.57140000  0.85310000  0.02790000  1.0 0.1475154853
H  H395  1  0.17480000  0.14690000  0.71830000  1.0 0.1475154853
H  H396  1  0.82520000  0.54350000  0.97210000  1.0 0.1475154853
C  C1  1  0.81569000  0.75345000  0.66124000  1.0 0.5778232394
C  C2  1  0.75345000  0.09221000  0.93776000  1.0 0.5778232394
C  C3  1  0.09221000  0.15445000  0.33876000  1.0 0.5778232394
C  C4  1  0.15445000  0.81569000  0.06224000  1.0 0.5778232394
C  C5  1  0.18431000  0.84555000  0.93776000  1.0 0.5778232394
C  C6  1  0.84555000  0.90779000  0.66124000  1.0 0.5778232394
C  C7  1  0.90779000  0.24655000  0.06224000  1.0 0.5778232394
C  C8  1  0.24655000  0.18431000  0.33876000  1.0 0.5778232394
C  C9  1  0.66124000  0.81569000  0.75345000  1.0 0.5778232394
C  C10  1  0.81569000  0.06224000  0.15445000  1.0 0.5778232394
C  C11  1  0.06224000  0.90779000  0.24655000  1.0 0.5778232394
C  C12  1  0.90779000  0.66124000  0.84555000  1.0 0.5778232394
C  C13  1  0.33876000  0.09221000  0.15445000  1.0 0.5778232394
C  C14  1  0.09221000  0.93776000  0.75345000  1.0 0.5778232394
C  C15  1  0.93776000  0.18431000  0.84555000  1.0 0.5778232394
C  C16  1  0.18431000  0.33876000  0.24655000  1.0 0.5778232394
C  C17  1  0.75345000  0.66124000  0.81569000  1.0 0.5778232394
C  C18  1  0.33876000  0.24655000  0.18431000  1.0 0.5778232394
C  C19  1  0.66124000  0.84555000  0.90779000  1.0 0.5778232394
C  C20  1  0.06224000  0.15445000  0.81569000  1.0 0.5778232394
C  C21  1  0.93776000  0.75345000  0.09221000  1.0 0.5778232394
C  C22  1  0.24655000  0.06224000  0.90779000  1.0 0.5778232394
C  C23  1  0.84555000  0.93776000  0.18431000  1.0 0.5778232394
C  C24  1  0.15445000  0.33876000  0.09221000  1.0 0.5778232394
C  C25  1  0.18431000  0.24655000  0.33876000  1.0 0.5778232394
C  C26  1  0.24655000  0.90779000  0.06224000  1.0 0.5778232394
C  C27  1  0.90779000  0.84555000  0.66124000  1.0 0.5778232394
C  C28  1  0.84555000  0.18431000  0.93776000  1.0 0.5778232394
C  C29  1  0.81569000  0.15445000  0.06224000  1.0 0.5778232394
C  C30  1  0.15445000  0.09221000  0.33876000  1.0 0.5778232394
C  C31  1  0.09221000  0.75345000  0.93776000  1.0 0.5778232394
C  C32  1  0.75345000  0.81569000  0.66124000  1.0 0.5778232394
C  C33  1  0.33876000  0.18431000  0.24655000  1.0 0.5778232394
C  C34  1  0.18431000  0.93776000  0.84555000  1.0 0.5778232394
C  C35  1  0.93776000  0.09221000  0.75345000  1.0 0.5778232394
C  C36  1  0.09221000  0.33876000  0.15445000  1.0 0.5778232394
C  C37  1  0.66124000  0.90779000  0.84555000  1.0 0.5778232394
C  C38  1  0.90779000  0.06224000  0.24655000  1.0 0.5778232394
C  C39  1  0.06224000  0.81569000  0.15445000  1.0 0.5778232394
C  C40  1  0.81569000  0.66124000  0.75345000  1.0 0.5778232394
C  C41  1  0.24655000  0.33876000  0.18431000  1.0 0.5778232394
C  C42  1  0.66124000  0.75345000  0.81569000  1.0 0.5778232394
C  C43  1  0.33876000  0.15445000  0.09221000  1.0 0.5778232394
C  C44  1  0.93776000  0.84555000  0.18431000  1.0 0.5778232394
C  C45  1  0.06224000  0.24655000  0.90779000  1.0 0.5778232394
C  C46  1  0.75345000  0.93776000  0.09221000  1.0 0.5778232394
C  C47  1  0.15445000  0.06224000  0.81569000  1.0 0.5778232394
C  C48  1  0.84555000  0.66124000  0.90779000  1.0 0.5778232394
C  C49  1  0.80532000  0.70639000  0.66195000  1.0 0.0182417372
C  C50  1  0.70639000  0.04444000  0.90107000  1.0 0.0182417372
C  C51  1  0.04444000  0.14337000  0.33805000  1.0 0.0182417372
C  C52  1  0.14337000  0.80532000  0.09893000  1.0 0.0182417372
C  C53  1  0.19468000  0.85663000  0.90107000  1.0 0.0182417372
C  C54  1  0.85663000  0.95556000  0.66195000  1.0 0.0182417372
C  C55  1  0.95556000  0.29361000  0.09893000  1.0 0.0182417372
C  C56  1  0.29361000  0.19468000  0.33805000  1.0 0.0182417372
C  C57  1  0.66195000  0.80532000  0.70639000  1.0 0.0182417372
C  C58  1  0.80532000  0.09893000  0.14337000  1.0 0.0182417372
C  C59  1  0.09893000  0.95556000  0.29361000  1.0 0.0182417372
C  C60  1  0.95556000  0.66195000  0.85663000  1.0 0.0182417372
C  C61  1  0.33805000  0.04444000  0.14337000  1.0 0.0182417372
C  C62  1  0.04444000  0.90107000  0.70639000  1.0 0.0182417372
C  C63  1  0.90107000  0.19468000  0.85663000  1.0 0.0182417372
C  C64  1  0.19468000  0.33805000  0.29361000  1.0 0.0182417372
C  C65  1  0.70639000  0.66195000  0.80532000  1.0 0.0182417372
C  C66  1  0.33805000  0.29361000  0.19468000  1.0 0.0182417372
C  C67  1  0.66195000  0.85663000  0.95556000  1.0 0.0182417372
C  C68  1  0.09893000  0.14337000  0.80532000  1.0 0.0182417372
C  C69  1  0.90107000  0.70639000  0.04444000  1.0 0.0182417372
C  C70  1  0.29361000  0.09893000  0.95556000  1.0 0.0182417372
C  C71  1  0.85663000  0.90107000  0.19468000  1.0 0.0182417372
C  C72  1  0.14337000  0.33805000  0.04444000  1.0 0.0182417372
C  C73  1  0.19468000  0.29361000  0.33805000  1.0 0.0182417372
C  C74  1  0.29361000  0.95556000  0.09893000  1.0 0.0182417372
C  C75  1  0.95556000  0.85663000  0.66195000  1.0 0.0182417372
C  C76  1  0.85663000  0.19468000  0.90107000  1.0 0.0182417372
C  C77  1  0.80532000  0.14337000  0.09893000  1.0 0.0182417372
C  C78  1  0.14337000  0.04444000  0.33805000  1.0 0.0182417372
C  C79  1  0.04444000  0.70639000  0.90107000  1.0 0.0182417372
C  C80  1  0.70639000  0.80532000  0.66195000  1.0 0.0182417372
C  C81  1  0.33805000  0.19468000  0.29361000  1.0 0.0182417372
C  C82  1  0.19468000  0.90107000  0.85663000  1.0 0.0182417372
C  C83  1  0.90107000  0.04444000  0.70639000  1.0 0.0182417372
C  C84  1  0.04444000  0.33805000  0.14337000  1.0 0.0182417372
C  C85  1  0.66195000  0.95556000  0.85663000  1.0 0.0182417372
C  C86  1  0.95556000  0.09893000  0.29361000  1.0 0.0182417372
C  C87  1  0.09893000  0.80532000  0.14337000  1.0 0.0182417372
C  C88  1  0.80532000  0.66195000  0.70639000  1.0 0.0182417372
C  C89  1  0.29361000  0.33805000  0.19468000  1.0 0.0182417372
C  C90  1  0.66195000  0.70639000  0.80532000  1.0 0.0182417372
C  C91  1  0.33805000  0.14337000  0.04444000  1.0 0.0182417372
C  C92  1  0.90107000  0.85663000  0.19468000  1.0 0.0182417372
C  C93  1  0.09893000  0.29361000  0.95556000  1.0 0.0182417372
C  C94  1  0.70639000  0.90107000  0.04444000  1.0 0.0182417372
C  C95  1  0.14337000  0.09893000  0.80532000  1.0 0.0182417372
C  C96  1  0.85663000  0.66195000  0.95556000  1.0 0.0182417372
C  C97  1  0.82522000  0.70687000  0.70687000  1.0 -0.1195569242
C  C98  1  0.70687000  0.00000000  0.88165000  1.0 -0.1195569242
C  C99  1  0.00000000  0.11835000  0.29313000  1.0 -0.1195569242
C  C100  1  0.11835000  0.82522000  0.11835000  1.0 -0.1195569242
C  C101  1  0.17478000  0.88165000  0.88165000  1.0 -0.1195569242
C  C102  1  0.88165000  0.00000000  0.70687000  1.0 -0.1195569242
C  C103  1  0.00000000  0.29313000  0.11835000  1.0 -0.1195569242
C  C104  1  0.29313000  0.17478000  0.29313000  1.0 -0.1195569242
C  C105  1  0.70687000  0.82522000  0.70687000  1.0 -0.1195569242
C  C106  1  0.82522000  0.11835000  0.11835000  1.0 -0.1195569242
C  C107  1  0.11835000  0.00000000  0.29313000  1.0 -0.1195569242
C  C108  1  0.00000000  0.70687000  0.88165000  1.0 -0.1254940502
C  C109  1  0.29313000  0.00000000  0.11835000  1.0 -0.1195569242
C  C110  1  0.00000000  0.88165000  0.70687000  1.0 -0.1254940502
C  C111  1  0.88165000  0.17478000  0.88165000  1.0 -0.1195569242
C  C112  1  0.17478000  0.29313000  0.29313000  1.0 -0.1254940502
C  C113  1  0.70687000  0.70687000  0.82522000  1.0 -0.1195569242
C  C114  1  0.29313000  0.29313000  0.17478000  1.0 -0.1195569242
C  C115  1  0.70687000  0.88165000  0.00000000  1.0 -0.1195569242
C  C116  1  0.11835000  0.11835000  0.82522000  1.0 -0.1195569242
C  C117  1  0.88165000  0.70687000  0.00000000  1.0 -0.1195569242
C  C118  1  0.29313000  0.11835000  0.00000000  1.0 -0.1195569242
C  C119  1  0.88165000  0.88165000  0.17478000  1.0 -0.1195569242
C  C120  1  0.11835000  0.29313000  0.00000000  1.0 -0.1195569242
C  C121  1  0.77457000  0.66166000  0.61897000  1.0 -0.1879156039
C  C122  1  0.66166000  0.04269000  0.88709000  1.0 -0.1879156039
C  C123  1  0.04269000  0.15560000  0.38103000  1.0 -0.1879156039
C  C124  1  0.15560000  0.77457000  0.11291000  1.0 -0.1879156039
C  C125  1  0.22543000  0.84440000  0.88709000  1.0 -0.1879156039
C  C126  1  0.84440000  0.95731000  0.61897000  1.0 -0.1879156039
C  C127  1  0.95731000  0.33834000  0.11291000  1.0 -0.1879156039
C  C128  1  0.33834000  0.22543000  0.38103000  1.0 -0.1879156039
C  C129  1  0.61897000  0.77457000  0.66166000  1.0 -0.1879156039
C  C130  1  0.77457000  0.11291000  0.15560000  1.0 -0.1879156039
C  C131  1  0.11291000  0.95731000  0.33834000  1.0 -0.1879156039
C  C132  1  0.95731000  0.61897000  0.84440000  1.0 -0.1879156039
C  C133  1  0.38103000  0.04269000  0.15560000  1.0 -0.1879156039
C  C134  1  0.04269000  0.88709000  0.66166000  1.0 -0.1879156039
C  C135  1  0.88709000  0.22543000  0.84440000  1.0 -0.1879156039
C  C136  1  0.22543000  0.38103000  0.33834000  1.0 -0.1879156039
C  C137  1  0.66166000  0.61897000  0.77457000  1.0 -0.1879156039
C  C138  1  0.38103000  0.33834000  0.22543000  1.0 -0.1879156039
C  C139  1  0.61897000  0.84440000  0.95731000  1.0 -0.1879156039
C  C140  1  0.11291000  0.15560000  0.77457000  1.0 -0.1879156039
C  C141  1  0.88709000  0.66166000  0.04269000  1.0 -0.1879156039
C  C142  1  0.33834000  0.11291000  0.95731000  1.0 -0.1879156039
C  C143  1  0.84440000  0.88709000  0.22543000  1.0 -0.1879156039
C  C144  1  0.15560000  0.38103000  0.04269000  1.0 -0.1879156039
C  C145  1  0.22543000  0.33834000  0.38103000  1.0 -0.1879156039
C  C146  1  0.33834000  0.95731000  0.11291000  1.0 -0.1879156039
C  C147  1  0.95731000  0.84440000  0.61897000  1.0 -0.1879156039
C  C148  1  0.84440000  0.22543000  0.88709000  1.0 -0.1879156039
C  C149  1  0.77457000  0.15560000  0.11291000  1.0 -0.1879156039
C  C150  1  0.15560000  0.04269000  0.38103000  1.0 -0.1879156039
C  C151  1  0.04269000  0.66166000  0.88709000  1.0 -0.1879156039
C  C152  1  0.66166000  0.77457000  0.61897000  1.0 -0.1879156039
C  C153  1  0.38103000  0.22543000  0.33834000  1.0 -0.1879156039
C  C154  1  0.22543000  0.88709000  0.84440000  1.0 -0.1879156039
C  C155  1  0.88709000  0.04269000  0.66166000  1.0 -0.1879156039
C  C156  1  0.04269000  0.38103000  0.15560000  1.0 -0.1879156039
C  C157  1  0.61897000  0.95731000  0.84440000  1.0 -0.1879156039
C  C158  1  0.95731000  0.11291000  0.33834000  1.0 -0.1879156039
C  C159  1  0.11291000  0.77457000  0.15560000  1.0 -0.1879156039
C  C160  1  0.77457000  0.61897000  0.66166000  1.0 -0.1879156039
C  C161  1  0.33834000  0.38103000  0.22543000  1.0 -0.1879156039
C  C162  1  0.61897000  0.66166000  0.77457000  1.0 -0.1879156039
C  C163  1  0.38103000  0.15560000  0.04269000  1.0 -0.1879156039
C  C164  1  0.88709000  0.84440000  0.22543000  1.0 -0.1879156039
C  C165  1  0.11291000  0.33834000  0.95731000  1.0 -0.1879156039
C  C166  1  0.66166000  0.88709000  0.04269000  1.0 -0.1879156039
C  C167  1  0.15560000  0.11291000  0.77457000  1.0 -0.1879156039
C  C168  1  0.84440000  0.61897000  0.95731000  1.0 -0.1879156039
C  C169  1  0.76392000  0.61992000  0.61992000  1.0 0.1777684822
C  C170  1  0.61992000  0.00000000  0.85600000  1.0 0.1777684822
C  C171  1  0.00000000  0.14400000  0.38008000  1.0 0.1777684822
C  C172  1  0.14400000  0.76392000  0.14400000  1.0 0.1777684822
C  C173  1  0.23608000  0.85600000  0.85600000  1.0 0.1777684822
C  C174  1  0.85600000  0.00000000  0.61992000  1.0 0.1777684822
C  C175  1  0.00000000  0.38008000  0.14400000  1.0 0.1777684822
C  C176  1  0.38008000  0.23608000  0.38008000  1.0 0.1777684822
C  C177  1  0.61992000  0.76392000  0.61992000  1.0 0.1777684822
C  C178  1  0.76392000  0.14400000  0.14400000  1.0 0.1777684822
C  C179  1  0.14400000  0.00000000  0.38008000  1.0 0.1777684822
C  C180  1  0.00000000  0.61992000  0.85600000  1.0 0.1777684822
C  C181  1  0.38008000  0.00000000  0.14400000  1.0 0.1777684822
C  C182  1  0.00000000  0.85600000  0.61992000  1.0 0.1777684822
C  C183  1  0.85600000  0.23608000  0.85600000  1.0 0.1777684822
C  C184  1  0.23608000  0.38008000  0.38008000  1.0 0.1777684822
C  C185  1  0.61992000  0.61992000  0.76392000  1.0 0.1777684822
C  C186  1  0.38008000  0.38008000  0.23608000  1.0 0.1777684822
C  C187  1  0.61992000  0.85600000  0.00000000  1.0 0.1777684822
C  C188  1  0.14400000  0.14400000  0.76392000  1.0 0.1777684822
C  C189  1  0.85600000  0.61992000  0.00000000  1.0 0.1777684822
C  C190  1  0.38008000  0.14400000  0.00000000  1.0 0.1777684822
C  C191  1  0.85600000  0.85600000  0.23608000  1.0 0.1777684822
C  C192  1  0.14400000  0.38008000  0.00000000  1.0 0.1777684822
C  C193  1  0.71842000  0.52905000  0.57407000  1.0 0.266313529
C  C194  1  0.52905000  0.95498000  0.81063000  1.0 0.266313529
C  C195  1  0.95498000  0.14435000  0.42593000  1.0 0.266313529
C  C196  1  0.14435000  0.71842000  0.18937000  1.0 0.266313529
C  C197  1  0.28158000  0.85565000  0.81063000  1.0 0.266313529
C  C198  1  0.85565000  0.04502000  0.57407000  1.0 0.266313529
C  C199  1  0.04502000  0.47095000  0.18937000  1.0 0.266313529
C  C200  1  0.47095000  0.28158000  0.42593000  1.0 0.266313529
C  C201  1  0.57407000  0.71842000  0.52905000  1.0 0.266313529
C  C202  1  0.71842000  0.18937000  0.14435000  1.0 0.266313529
C  C203  1  0.18937000  0.04502000  0.47095000  1.0 0.266313529
C  C204  1  0.04502000  0.57407000  0.85565000  1.0 0.266313529
C  C205  1  0.42593000  0.95498000  0.14435000  1.0 0.266313529
C  C206  1  0.95498000  0.81063000  0.52905000  1.0 0.266313529
C  C207  1  0.81063000  0.28158000  0.85565000  1.0 0.266313529
C  C208  1  0.28158000  0.42593000  0.47095000  1.0 0.266313529
C  C209  1  0.52905000  0.57407000  0.71842000  1.0 0.266313529
C  C210  1  0.42593000  0.47095000  0.28158000  1.0 0.266313529
C  C211  1  0.57407000  0.85565000  0.04502000  1.0 0.266313529
C  C212  1  0.18937000  0.14435000  0.71842000  1.0 0.266313529
C  C213  1  0.81063000  0.52905000  0.95498000  1.0 0.266313529
C  C214  1  0.47095000  0.18937000  0.04502000  1.0 0.266313529
C  C215  1  0.85565000  0.81063000  0.28158000  1.0 0.266313529
C  C216  1  0.14435000  0.42593000  0.95498000  1.0 0.266313529
C  C217  1  0.28158000  0.47095000  0.42593000  1.0 0.266313529
C  C218  1  0.47095000  0.04502000  0.18937000  1.0 0.266313529
C  C219  1  0.04502000  0.85565000  0.57407000  1.0 0.266313529
C  C220  1  0.85565000  0.28158000  0.81063000  1.0 0.266313529
C  C221  1  0.71842000  0.14435000  0.18937000  1.0 0.266313529
C  C222  1  0.14435000  0.95498000  0.42593000  1.0 0.266313529
C  C223  1  0.95498000  0.52905000  0.81063000  1.0 0.266313529
C  C224  1  0.52905000  0.71842000  0.57407000  1.0 0.266313529
C  C225  1  0.42593000  0.28158000  0.47095000  1.0 0.266313529
C  C226  1  0.28158000  0.81063000  0.85565000  1.0 0.266313529
C  C227  1  0.81063000  0.95498000  0.52905000  1.0 0.266313529
C  C228  1  0.95498000  0.42593000  0.14435000  1.0 0.266313529
C  C229  1  0.57407000  0.04502000  0.85565000  1.0 0.266313529
C  C230  1  0.04502000  0.18937000  0.47095000  1.0 0.266313529
C  C231  1  0.18937000  0.71842000  0.14435000  1.0 0.266313529
C  C232  1  0.71842000  0.57407000  0.52905000  1.0 0.266313529
C  C233  1  0.47095000  0.42593000  0.28158000  1.0 0.266313529
C  C234  1  0.57407000  0.52905000  0.71842000  1.0 0.266313529
C  C235  1  0.42593000  0.14435000  0.95498000  1.0 0.266313529
C  C236  1  0.81063000  0.85565000  0.28158000  1.0 0.266313529
C  C237  1  0.18937000  0.47095000  0.04502000  1.0 0.266313529
C  C238  1  0.52905000  0.81063000  0.95498000  1.0 0.266313529
C  C239  1  0.14435000  0.18937000  0.71842000  1.0 0.266313529
C  C240  1  0.85565000  0.57407000  0.04502000  1.0 0.266313529
C  C241  1  0.68211000  0.48024000  0.52581000  1.0 -5.06937e-05
C  C242  1  0.48024000  0.95443000  0.79813000  1.0 0.0008515502
C  C243  1  0.95443000  0.15630000  0.47419000  1.0 0.0008515502
C  C244  1  0.15630000  0.68211000  0.20187000  1.0 0.0008515502
C  C245  1  0.31789000  0.84370000  0.79813000  1.0 0.0008515502
C  C246  1  0.84370000  0.04557000  0.52581000  1.0 0.0008515502
C  C247  1  0.04557000  0.51976000  0.20187000  1.0 0.0008515502
C  C248  1  0.51976000  0.31789000  0.47419000  1.0 0.0008515502
C  C249  1  0.52581000  0.68211000  0.48024000  1.0 0.0008515502
C  C250  1  0.68211000  0.20187000  0.15630000  1.0 0.0008515502
C  C251  1  0.20187000  0.04557000  0.51976000  1.0 0.0008515502
C  C252  1  0.04557000  0.52581000  0.84370000  1.0 -5.06937e-05
C  C253  1  0.47419000  0.95443000  0.15630000  1.0 0.0008515502
C  C254  1  0.95443000  0.79813000  0.48024000  1.0 0.0008515502
C  C255  1  0.79813000  0.31789000  0.84370000  1.0 0.0008515502
C  C256  1  0.31789000  0.47419000  0.51976000  1.0 0.0008515502
C  C257  1  0.48024000  0.52581000  0.68211000  1.0 0.0008515502
C  C258  1  0.47419000  0.51976000  0.31789000  1.0 -5.06937e-05
C  C259  1  0.52581000  0.84370000  0.04557000  1.0 0.0008515502
C  C260  1  0.20187000  0.15630000  0.68211000  1.0 0.0008515502
C  C261  1  0.79813000  0.48024000  0.95443000  1.0 0.0008515502
C  C262  1  0.51976000  0.20187000  0.04557000  1.0 -5.06937e-05
C  C263  1  0.84370000  0.79813000  0.31789000  1.0 0.0008515502
C  C264  1  0.15630000  0.47419000  0.95443000  1.0 0.0008515502
C  C265  1  0.31789000  0.51976000  0.47419000  1.0 0.0008515502
C  C266  1  0.51976000  0.04557000  0.20187000  1.0 0.0008515502
C  C267  1  0.04557000  0.84370000  0.52581000  1.0 -5.06937e-05
C  C268  1  0.84370000  0.31789000  0.79813000  1.0 0.0008515502
C  C269  1  0.68211000  0.15630000  0.20187000  1.0 0.0008515502
C  C270  1  0.15630000  0.95443000  0.47419000  1.0 0.0008515502
C  C271  1  0.95443000  0.48024000  0.79813000  1.0 0.0008515502
C  C272  1  0.48024000  0.68211000  0.52581000  1.0 0.0008515502
C  C273  1  0.47419000  0.31789000  0.51976000  1.0 0.0008515502
C  C274  1  0.31789000  0.79813000  0.84370000  1.0 0.0008515502
C  C275  1  0.79813000  0.95443000  0.48024000  1.0 0.0008515502
C  C276  1  0.95443000  0.47419000  0.15630000  1.0 0.0008515502
C  C277  1  0.52581000  0.04557000  0.84370000  1.0 0.0008515502
C  C278  1  0.04557000  0.20187000  0.51976000  1.0 0.0008515502
C  C279  1  0.20187000  0.68211000  0.15630000  1.0 0.0008515502
C  C280  1  0.68211000  0.52581000  0.48024000  1.0 0.0008515502
C  C281  1  0.51976000  0.47419000  0.31789000  1.0 -5.06937e-05
C  C282  1  0.52581000  0.48024000  0.68211000  1.0 0.0008515502
C  C283  1  0.47419000  0.15630000  0.95443000  1.0 0.0008515502
C  C284  1  0.79813000  0.84370000  0.31789000  1.0 0.0008515502
C  C285  1  0.20187000  0.51976000  0.04557000  1.0 -5.06937e-05
C  C286  1  0.48024000  0.79813000  0.95443000  1.0 0.0008515502
C  C287  1  0.15630000  0.20187000  0.68211000  1.0 0.0008515502
C  C288  1  0.84370000  0.52581000  0.04557000  1.0 0.0008515502
C  C289  1  0.63172000  0.46304000  0.50768000  1.0 -0.1109233728
C  C290  1  0.46304000  0.95536000  0.83132000  1.0 -0.1109233728
C  C291  1  0.95536000  0.12404000  0.49232000  1.0 -0.1109233728
C  C292  1  0.12404000  0.63172000  0.16868000  1.0 -0.1109233728
C  C293  1  0.36828000  0.87596000  0.83132000  1.0 -0.1109233728
C  C294  1  0.87596000  0.04464000  0.50768000  1.0 -0.1109233728
C  C295  1  0.04464000  0.53696000  0.16868000  1.0 -0.1109233728
C  C296  1  0.53696000  0.36828000  0.49232000  1.0 -0.1109233728
C  C297  1  0.50768000  0.63172000  0.46304000  1.0 -0.1109233728
C  C298  1  0.63172000  0.16868000  0.12404000  1.0 -0.1109233728
C  C299  1  0.16868000  0.04464000  0.53696000  1.0 -0.1109233728
C  C300  1  0.04464000  0.50768000  0.87596000  1.0 -0.1109233728
C  C301  1  0.49232000  0.95536000  0.12404000  1.0 -0.1109233728
C  C302  1  0.95536000  0.83132000  0.46304000  1.0 -0.1109233728
C  C303  1  0.83132000  0.36828000  0.87596000  1.0 -0.1109233728
C  C304  1  0.36828000  0.49232000  0.53696000  1.0 -0.1109233728
C  C305  1  0.46304000  0.50768000  0.63172000  1.0 -0.1109233728
C  C306  1  0.49232000  0.53696000  0.36828000  1.0 -0.1109233728
C  C307  1  0.50768000  0.87596000  0.04464000  1.0 -0.1109233728
C  C308  1  0.16868000  0.12404000  0.63172000  1.0 -0.1109233728
C  C309  1  0.83132000  0.46304000  0.95536000  1.0 -0.1109233728
C  C310  1  0.53696000  0.16868000  0.04464000  1.0 -0.1109233728
C  C311  1  0.87596000  0.83132000  0.36828000  1.0 -0.1109233728
C  C312  1  0.12404000  0.49232000  0.95536000  1.0 -0.1109233728
C  C313  1  0.36828000  0.53696000  0.49232000  1.0 -0.1109233728
C  C314  1  0.53696000  0.04464000  0.16868000  1.0 -0.1109233728
C  C315  1  0.04464000  0.87596000  0.50768000  1.0 -0.1109233728
C  C316  1  0.87596000  0.36828000  0.83132000  1.0 -0.1109233728
C  C317  1  0.63172000  0.12404000  0.16868000  1.0 -0.1109233728
C  C318  1  0.12404000  0.95536000  0.49232000  1.0 -0.1109233728
C  C319  1  0.95536000  0.46304000  0.83132000  1.0 -0.1109233728
C  C320  1  0.46304000  0.63172000  0.50768000  1.0 -0.1109233728
C  C321  1  0.49232000  0.36828000  0.53696000  1.0 -0.1109233728
C  C322  1  0.36828000  0.83132000  0.87596000  1.0 -0.1109233728
C  C323  1  0.83132000  0.95536000  0.46304000  1.0 -0.1109233728
C  C324  1  0.95536000  0.49232000  0.12404000  1.0 -0.1109233728
C  C325  1  0.50768000  0.04464000  0.87596000  1.0 -0.1109233728
C  C326  1  0.04464000  0.16868000  0.53696000  1.0 -0.1109233728
C  C327  1  0.16868000  0.63172000  0.12404000  1.0 -0.1109233728
C  C328  1  0.63172000  0.50768000  0.46304000  1.0 -0.1109233728
C  C329  1  0.53696000  0.49232000  0.36828000  1.0 -0.1109233728
C  C330  1  0.50768000  0.46304000  0.63172000  1.0 -0.1109233728
C  C331  1  0.49232000  0.12404000  0.95536000  1.0 -0.1109233728
C  C332  1  0.83132000  0.87596000  0.36828000  1.0 -0.1109233728
C  C333  1  0.16868000  0.53696000  0.04464000  1.0 -0.1109233728
C  C334  1  0.46304000  0.83132000  0.95536000  1.0 -0.1109233728
C  C335  1  0.12404000  0.16868000  0.63172000  1.0 -0.1109233728
C  C336  1  0.87596000  0.50768000  0.04464000  1.0 -0.1109233728
C  C337  1  0.69786000  0.45557000  0.50003000  1.0 -0.1195569242
C  C338  1  0.45557000  0.95554000  0.75771000  1.0 -0.1195569242
C  C339  1  0.95554000  0.19783000  0.49997000  1.0 -0.1195569242
C  C340  1  0.19783000  0.69786000  0.24229000  1.0 -0.1195569242
C  C341  1  0.30214000  0.80217000  0.75771000  1.0 -0.1195569242
C  C342  1  0.80217000  0.04446000  0.50003000  1.0 -0.1195569242
C  C343  1  0.04446000  0.54443000  0.24229000  1.0 -0.1195569242
C  C344  1  0.54443000  0.30214000  0.49997000  1.0 -0.1195569242
C  C345  1  0.50003000  0.69786000  0.45557000  1.0 -0.1195569242
C  C346  1  0.69786000  0.24229000  0.19783000  1.0 -0.1195569242
C  C347  1  0.24229000  0.04446000  0.54443000  1.0 -0.1195569242
C  C348  1  0.04446000  0.50003000  0.80217000  1.0 -0.1195569242
C  C349  1  0.49997000  0.95554000  0.19783000  1.0 -0.1195569242
C  C350  1  0.95554000  0.75771000  0.45557000  1.0 -0.1195569242
C  C351  1  0.75771000  0.30214000  0.80217000  1.0 -0.1195569242
C  C352  1  0.30214000  0.49997000  0.54443000  1.0 -0.1195569242
C  C353  1  0.45557000  0.50003000  0.69786000  1.0 -0.1195569242
C  C354  1  0.49997000  0.54443000  0.30214000  1.0 -0.1195569242
C  C355  1  0.50003000  0.80217000  0.04446000  1.0 -0.1195569242
C  C356  1  0.24229000  0.19783000  0.69786000  1.0 -0.1195569242
C  C357  1  0.75771000  0.45557000  0.95554000  1.0 -0.1195569242
C  C358  1  0.54443000  0.24229000  0.04446000  1.0 -0.1195569242
C  C359  1  0.80217000  0.75771000  0.30214000  1.0 -0.1195569242
C  C360  1  0.19783000  0.49997000  0.95554000  1.0 -0.1195569242
C  C361  1  0.30214000  0.54443000  0.49997000  1.0 -0.1195569242
C  C362  1  0.54443000  0.04446000  0.24229000  1.0 -0.1195569242
C  C363  1  0.04446000  0.80217000  0.50003000  1.0 -0.1195569242
C  C364  1  0.80217000  0.30214000  0.75771000  1.0 -0.1195569242
C  C365  1  0.69786000  0.19783000  0.24229000  1.0 -0.1195569242
C  C366  1  0.19783000  0.95554000  0.49997000  1.0 -0.1195569242
C  C367  1  0.95554000  0.45557000  0.75771000  1.0 -0.1195569242
C  C368  1  0.45557000  0.69786000  0.50003000  1.0 -0.1195569242
C  C369  1  0.49997000  0.30214000  0.54443000  1.0 -0.1195569242
C  C370  1  0.30214000  0.75771000  0.80217000  1.0 -0.1195569242
C  C371  1  0.75771000  0.95554000  0.45557000  1.0 -0.1195569242
C  C372  1  0.95554000  0.49997000  0.19783000  1.0 -0.1195569242
C  C373  1  0.50003000  0.04446000  0.80217000  1.0 -0.1195569242
C  C374  1  0.04446000  0.24229000  0.54443000  1.0 -0.1195569242
C  C375  1  0.24229000  0.69786000  0.19783000  1.0 -0.1195569242
C  C376  1  0.69786000  0.50003000  0.45557000  1.0 -0.1195569242
C  C377  1  0.54443000  0.49997000  0.30214000  1.0 -0.1195569242
C  C378  1  0.50003000  0.45557000  0.69786000  1.0 -0.1195569242
C  C379  1  0.49997000  0.19783000  0.95554000  1.0 -0.1195569242
C  C380  1  0.75771000  0.80217000  0.30214000  1.0 -0.1195569242
C  C381  1  0.24229000  0.54443000  0.04446000  1.0 -0.1195569242
C  C382  1  0.45557000  0.75771000  0.95554000  1.0 -0.1195569242
C  C383  1  0.19783000  0.24229000  0.69786000  1.0 -0.1195569242
C  C384  1  0.80217000  0.50003000  0.04446000  1.0 -0.1195569242
C  C385  1  0.59859000  0.42018000  0.46495000  1.0 -0.160621079
C  C386  1  0.42018000  0.95523000  0.82159000  1.0 -0.160621079
C  C387  1  0.95523000  0.13364000  0.53505000  1.0 -0.160621079
C  C388  1  0.13364000  0.59859000  0.17841000  1.0 -0.160621079
C  C389  1  0.40141000  0.86636000  0.82159000  1.0 -0.160621079
C  C390  1  0.86636000  0.04477000  0.46495000  1.0 -0.160621079
C  C391  1  0.04477000  0.57982000  0.17841000  1.0 -0.160621079
C  C392  1  0.57982000  0.40141000  0.53505000  1.0 -0.160621079
C  C393  1  0.46495000  0.59859000  0.42018000  1.0 -0.160621079
C  C394  1  0.59859000  0.17841000  0.13364000  1.0 -0.160621079
C  C395  1  0.17841000  0.04477000  0.57982000  1.0 -0.160621079
C  C396  1  0.04477000  0.46495000  0.86636000  1.0 -0.160621079
C  C397  1  0.53505000  0.95523000  0.13364000  1.0 -0.160621079
C  C398  1  0.95523000  0.82159000  0.42018000  1.0 -0.160621079
C  C399  1  0.82159000  0.40141000  0.86636000  1.0 -0.160621079
C  C400  1  0.40141000  0.53505000  0.57982000  1.0 -0.160621079
C  C401  1  0.42018000  0.46495000  0.59859000  1.0 -0.160621079
C  C402  1  0.53505000  0.57982000  0.40141000  1.0 -0.160621079
C  C403  1  0.46495000  0.86636000  0.04477000  1.0 -0.160621079
C  C404  1  0.17841000  0.13364000  0.59859000  1.0 -0.160621079
C  C405  1  0.82159000  0.42018000  0.95523000  1.0 -0.160621079
C  C406  1  0.57982000  0.17841000  0.04477000  1.0 -0.160621079
C  C407  1  0.86636000  0.82159000  0.40141000  1.0 -0.160621079
C  C408  1  0.13364000  0.53505000  0.95523000  1.0 -0.160621079
C  C409  1  0.40141000  0.57982000  0.53505000  1.0 -0.160621079
C  C410  1  0.57982000  0.04477000  0.17841000  1.0 -0.160621079
C  C411  1  0.04477000  0.86636000  0.46495000  1.0 -0.160621079
C  C412  1  0.86636000  0.40141000  0.82159000  1.0 -0.160621079
C  C413  1  0.59859000  0.13364000  0.17841000  1.0 -0.160621079
C  C414  1  0.13364000  0.95523000  0.53505000  1.0 -0.160621079
C  C415  1  0.95523000  0.42018000  0.82159000  1.0 -0.160621079
C  C416  1  0.42018000  0.59859000  0.46495000  1.0 -0.160621079
C  C417  1  0.53505000  0.40141000  0.57982000  1.0 -0.160621079
C  C418  1  0.40141000  0.82159000  0.86636000  1.0 -0.160621079
C  C419  1  0.82159000  0.95523000  0.42018000  1.0 -0.160621079
C  C420  1  0.95523000  0.53505000  0.13364000  1.0 -0.160621079
C  C421  1  0.46495000  0.04477000  0.86636000  1.0 -0.160621079
C  C422  1  0.04477000  0.17841000  0.57982000  1.0 -0.160621079
C  C423  1  0.17841000  0.59859000  0.13364000  1.0 -0.160621079
C  C424  1  0.59859000  0.46495000  0.42018000  1.0 -0.160621079
C  C425  1  0.57982000  0.53505000  0.40141000  1.0 -0.160621079
C  C426  1  0.46495000  0.42018000  0.59859000  1.0 -0.160621079
C  C427  1  0.53505000  0.13364000  0.95523000  1.0 -0.160621079
C  C428  1  0.82159000  0.86636000  0.40141000  1.0 -0.160621079
C  C429  1  0.17841000  0.57982000  0.04477000  1.0 -0.160621079
C  C430  1  0.42018000  0.82159000  0.95523000  1.0 -0.160621079
C  C431  1  0.13364000  0.17841000  0.59859000  1.0 -0.160621079
C  C432  1  0.86636000  0.46495000  0.04477000  1.0 -0.160621079
C  C433  1  0.66509000  0.41291000  0.45606000  1.0 -0.139846473
C  C434  1  0.41291000  0.95685000  0.74782000  1.0 -0.139846473
C  C435  1  0.95685000  0.20903000  0.54394000  1.0 -0.139846473
C  C436  1  0.20903000  0.66509000  0.25218000  1.0 -0.139846473
C  C437  1  0.33491000  0.79097000  0.74782000  1.0 -0.139846473
C  C438  1  0.79097000  0.04315000  0.45606000  1.0 -0.139846473
C  C439  1  0.04315000  0.58709000  0.25218000  1.0 -0.139846473
C  C440  1  0.58709000  0.33491000  0.54394000  1.0 -0.139846473
C  C441  1  0.45606000  0.66509000  0.41291000  1.0 -0.139846473
C  C442  1  0.66509000  0.25218000  0.20903000  1.0 -0.139846473
C  C443  1  0.25218000  0.04315000  0.58709000  1.0 -0.139846473
C  C444  1  0.04315000  0.45606000  0.79097000  1.0 -0.139846473
C  C445  1  0.54394000  0.95685000  0.20903000  1.0 -0.139846473
C  C446  1  0.95685000  0.74782000  0.41291000  1.0 -0.139846473
C  C447  1  0.74782000  0.33491000  0.79097000  1.0 -0.139846473
C  C448  1  0.33491000  0.54394000  0.58709000  1.0 -0.139846473
C  C449  1  0.41291000  0.45606000  0.66509000  1.0 -0.139846473
C  C450  1  0.54394000  0.58709000  0.33491000  1.0 -0.139846473
C  C451  1  0.45606000  0.79097000  0.04315000  1.0 -0.139846473
C  C452  1  0.25218000  0.20903000  0.66509000  1.0 -0.139846473
C  C453  1  0.74782000  0.41291000  0.95685000  1.0 -0.139846473
C  C454  1  0.58709000  0.25218000  0.04315000  1.0 -0.139846473
C  C455  1  0.79097000  0.74782000  0.33491000  1.0 -0.139846473
C  C456  1  0.20903000  0.54394000  0.95685000  1.0 -0.139846473
C  C457  1  0.33491000  0.58709000  0.54394000  1.0 -0.139846473
C  C458  1  0.58709000  0.04315000  0.25218000  1.0 -0.139846473
C  C459  1  0.04315000  0.79097000  0.45606000  1.0 -0.139846473
C  C460  1  0.79097000  0.33491000  0.74782000  1.0 -0.139846473
C  C461  1  0.66509000  0.20903000  0.25218000  1.0 -0.139846473
C  C462  1  0.20903000  0.95685000  0.54394000  1.0 -0.139846473
C  C463  1  0.95685000  0.41291000  0.74782000  1.0 -0.139846473
C  C464  1  0.41291000  0.66509000  0.45606000  1.0 -0.139846473
C  C465  1  0.54394000  0.33491000  0.58709000  1.0 -0.139846473
C  C466  1  0.33491000  0.74782000  0.79097000  1.0 -0.139846473
C  C467  1  0.74782000  0.95685000  0.41291000  1.0 -0.139846473
C  C468  1  0.95685000  0.54394000  0.20903000  1.0 -0.139846473
C  C469  1  0.45606000  0.04315000  0.79097000  1.0 -0.139846473
C  C470  1  0.04315000  0.25218000  0.58709000  1.0 -0.139846473
C  C471  1  0.25218000  0.66509000  0.20903000  1.0 -0.139846473
C  C472  1  0.66509000  0.45606000  0.41291000  1.0 -0.139846473
C  C473  1  0.58709000  0.54394000  0.33491000  1.0 -0.139846473
C  C474  1  0.45606000  0.41291000  0.66509000  1.0 -0.139846473
C  C475  1  0.54394000  0.20903000  0.95685000  1.0 -0.139846473
C  C476  1  0.74782000  0.79097000  0.33491000  1.0 -0.139846473
C  C477  1  0.25218000  0.58709000  0.04315000  1.0 -0.139846473
C  C478  1  0.41291000  0.74782000  0.95685000  1.0 -0.139846473
C  C479  1  0.20903000  0.25218000  0.66509000  1.0 -0.139846473
C  C480  1  0.79097000  0.45606000  0.04315000  1.0 -0.139846473
C  C481  1  0.61385000  0.39449000  0.43782000  1.0 0.3370840239
C  C482  1  0.39449000  0.95667000  0.78064000  1.0 0.3370840239
C  C483  1  0.95667000  0.17603000  0.56218000  1.0 0.3370840239
C  C484  1  0.17603000  0.61385000  0.21936000  1.0 0.3370840239
C  C485  1  0.38615000  0.82397000  0.78064000  1.0 0.3370840239
C  C486  1  0.82397000  0.04333000  0.43782000  1.0 0.3370840239
C  C487  1  0.04333000  0.60551000  0.21936000  1.0 0.3370840239
C  C488  1  0.60551000  0.38615000  0.56218000  1.0 0.3370840239
C  C489  1  0.43782000  0.61385000  0.39449000  1.0 0.3370840239
C  C490  1  0.61385000  0.21936000  0.17603000  1.0 0.3370840239
C  C491  1  0.21936000  0.04333000  0.60551000  1.0 0.3370840239
C  C492  1  0.04333000  0.43782000  0.82397000  1.0 0.3370840239
C  C493  1  0.56218000  0.95667000  0.17603000  1.0 0.3370840239
C  C494  1  0.95667000  0.78064000  0.39449000  1.0 0.3370840239
C  C495  1  0.78064000  0.38615000  0.82397000  1.0 0.3370840239
C  C496  1  0.38615000  0.56218000  0.60551000  1.0 0.3370840239
C  C497  1  0.39449000  0.43782000  0.61385000  1.0 0.3370840239
C  C498  1  0.56218000  0.60551000  0.38615000  1.0 0.3370840239
C  C499  1  0.43782000  0.82397000  0.04333000  1.0 0.3370840239
C  C500  1  0.21936000  0.17603000  0.61385000  1.0 0.3370840239
C  C501  1  0.78064000  0.39449000  0.95667000  1.0 0.3370840239
C  C502  1  0.60551000  0.21936000  0.04333000  1.0 0.3370840239
C  C503  1  0.82397000  0.78064000  0.38615000  1.0 0.3370840239
C  C504  1  0.17603000  0.56218000  0.95667000  1.0 0.3370840239
C  C505  1  0.38615000  0.60551000  0.56218000  1.0 0.3370840239
C  C506  1  0.60551000  0.04333000  0.21936000  1.0 0.3370840239
C  C507  1  0.04333000  0.82397000  0.43782000  1.0 0.3370840239
C  C508  1  0.82397000  0.38615000  0.78064000  1.0 0.3370840239
C  C509  1  0.61385000  0.17603000  0.21936000  1.0 0.3370840239
C  C510  1  0.17603000  0.95667000  0.56218000  1.0 0.3370840239
C  C511  1  0.95667000  0.39449000  0.78064000  1.0 0.3370840239
C  C512  1  0.39449000  0.61385000  0.43782000  1.0 0.3370840239
C  C513  1  0.56218000  0.38615000  0.60551000  1.0 0.3370840239
C  C514  1  0.38615000  0.78064000  0.82397000  1.0 0.3370840239
C  C515  1  0.78064000  0.95667000  0.39449000  1.0 0.3370840239
C  C516  1  0.95667000  0.56218000  0.17603000  1.0 0.3370840239
C  C517  1  0.43782000  0.04333000  0.82397000  1.0 0.3370840239
C  C518  1  0.04333000  0.21936000  0.60551000  1.0 0.3370840239
C  C519  1  0.21936000  0.61385000  0.17603000  1.0 0.3370840239
C  C520  1  0.61385000  0.43782000  0.39449000  1.0 0.3370840239
C  C521  1  0.60551000  0.56218000  0.38615000  1.0 0.3370840239
C  C522  1  0.43782000  0.39449000  0.61385000  1.0 0.3370840239
C  C523  1  0.56218000  0.17603000  0.95667000  1.0 0.3370840239
C  C524  1  0.78064000  0.82397000  0.38615000  1.0 0.3370840239
C  C525  1  0.21936000  0.60551000  0.04333000  1.0 0.3370840239
C  C526  1  0.39449000  0.78064000  0.95667000  1.0 0.3370840239
C  C527  1  0.17603000  0.21936000  0.61385000  1.0 0.3370840239
C  C528  1  0.82397000  0.43782000  0.04333000  1.0 0.3370840239
C  C529  1  0.56490000  0.34698000  0.34698000  1.0 0.5669136771
C  C530  1  0.34698000  0.00000000  0.78208000  1.0 0.5669136771
C  C531  1  0.00000000  0.21792000  0.65302000  1.0 0.5669136771
C  C532  1  0.21792000  0.56490000  0.21792000  1.0 0.5669136771
C  C533  1  0.43510000  0.78208000  0.78208000  1.0 0.5669136771
C  C534  1  0.78208000  0.00000000  0.34698000  1.0 0.5669136771
C  C535  1  0.00000000  0.65302000  0.21792000  1.0 0.5669136771
C  C536  1  0.65302000  0.43510000  0.65302000  1.0 0.5669136771
C  C537  1  0.34698000  0.56490000  0.34698000  1.0 0.5669136771
C  C538  1  0.56490000  0.21792000  0.21792000  1.0 0.5669136771
C  C539  1  0.21792000  0.00000000  0.65302000  1.0 0.5669136771
C  C540  1  0.00000000  0.34698000  0.78208000  1.0 0.5669136771
C  C541  1  0.65302000  0.00000000  0.21792000  1.0 0.5669136771
C  C542  1  0.00000000  0.78208000  0.34698000  1.0 0.5669136771
C  C543  1  0.78208000  0.43510000  0.78208000  1.0 0.5669136771
C  C544  1  0.43510000  0.65302000  0.65302000  1.0 0.5669136771
C  C545  1  0.34698000  0.34698000  0.56490000  1.0 0.5669136771
C  C546  1  0.65302000  0.65302000  0.43510000  1.0 0.5669136771
C  C547  1  0.34698000  0.78208000  0.00000000  1.0 0.5669136771
C  C548  1  0.21792000  0.21792000  0.56490000  1.0 0.5669136771
C  C549  1  0.78208000  0.34698000  0.00000000  1.0 0.5669136771
C  C550  1  0.65302000  0.21792000  0.00000000  1.0 0.5669136771
C  C551  1  0.78208000  0.78208000  0.43510000  1.0 0.5669136771
C  C552  1  0.21792000  0.65302000  0.00000000  1.0 0.5669136771
C  C553  1  0.53836000  0.29925000  0.29925000  1.0 -0.0703844807
C  C554  1  0.29925000  0.00000000  0.76089000  1.0 -0.0703844807
C  C555  1  0.00000000  0.23911000  0.70075000  1.0 -0.0703844807
C  C556  1  0.23911000  0.53836000  0.23911000  1.0 -0.0703844807
C  C557  1  0.46164000  0.76089000  0.76089000  1.0 -0.0703844807
C  C558  1  0.76089000  0.00000000  0.29925000  1.0 -0.0703844807
C  C559  1  0.00000000  0.70075000  0.23911000  1.0 -0.0703844807
C  C560  1  0.70075000  0.46164000  0.70075000  1.0 -0.0703844807
C  C561  1  0.29925000  0.53836000  0.29925000  1.0 -0.0703844807
C  C562  1  0.53836000  0.23911000  0.23911000  1.0 -0.0703844807
C  C563  1  0.23911000  0.00000000  0.70075000  1.0 -0.0703844807
C  C564  1  0.00000000  0.29925000  0.76089000  1.0 -0.0703844807
C  C565  1  0.70075000  0.00000000  0.23911000  1.0 -0.0703844807
C  C566  1  0.00000000  0.76089000  0.29925000  1.0 -0.0703844807
C  C567  1  0.76089000  0.46164000  0.76089000  1.0 -0.0703844807
C  C568  1  0.46164000  0.70075000  0.70075000  1.0 -0.0703844807
C  C569  1  0.29925000  0.29925000  0.53836000  1.0 -0.0703844807
C  C570  1  0.70075000  0.70075000  0.46164000  1.0 -0.0703844807
C  C571  1  0.29925000  0.76089000  0.00000000  1.0 -0.0703844807
C  C572  1  0.23911000  0.23911000  0.53836000  1.0 -0.0703844807
C  C573  1  0.76089000  0.29925000  0.00000000  1.0 -0.0703844807
C  C574  1  0.70075000  0.23911000  0.00000000  1.0 -0.0703844807
C  C575  1  0.76089000  0.76089000  0.46164000  1.0 -0.0703844807
C  C576  1  0.23911000  0.70075000  0.00000000  1.0 -0.0703844807
C  C577  1  0.56500000  0.28250000  0.28250000  1.0 -0.0703844807
C  C578  1  0.28250000  0.00000000  0.71750000  1.0 -0.0703844807
C  C579  1  0.00000000  0.28250000  0.71750000  1.0 -0.0703844807
C  C580  1  0.28250000  0.56500000  0.28250000  1.0 -0.0752086512
C  C581  1  0.43500000  0.71750000  0.71750000  1.0 -0.0752086512
C  C582  1  0.71750000  0.00000000  0.28250000  1.0 -0.0703844807
C  C583  1  0.00000000  0.71750000  0.28250000  1.0 -0.0752086512
C  C584  1  0.71750000  0.43500000  0.71750000  1.0 -0.0703844807
C  C585  1  0.28250000  0.28250000  0.56500000  1.0 -0.0752086512
C  C586  1  0.71750000  0.71750000  0.43500000  1.0 -0.0752086512
C  C587  1  0.28250000  0.71750000  0.00000000  1.0 -0.0752086512
C  C588  1  0.71750000  0.28250000  0.00000000  1.0 -0.0703844807
C  C589  1  0.48822000  0.27379000  0.27379000  1.0 0.0842087017
C  C590  1  0.27379000  0.00000000  0.78557000  1.0 0.0842087017
C  C591  1  0.00000000  0.21443000  0.72621000  1.0 0.0842087017
C  C592  1  0.21443000  0.48822000  0.21443000  1.0 0.0842087017
C  C593  1  0.51178000  0.78557000  0.78557000  1.0 0.0842087017
C  C594  1  0.78557000  0.00000000  0.27379000  1.0 0.0842087017
C  C595  1  0.00000000  0.72621000  0.21443000  1.0 0.0842087017
C  C596  1  0.72621000  0.51178000  0.72621000  1.0 0.0842087017
C  C597  1  0.27379000  0.48822000  0.27379000  1.0 0.0842087017
C  C598  1  0.48822000  0.21443000  0.21443000  1.0 0.0842087017
C  C599  1  0.21443000  0.00000000  0.72621000  1.0 0.0842087017
C  C600  1  0.00000000  0.27379000  0.78557000  1.0 0.0842087017
C  C601  1  0.72621000  0.00000000  0.21443000  1.0 0.0842087017
C  C602  1  0.00000000  0.78557000  0.27379000  1.0 0.0842087017
C  C603  1  0.78557000  0.51178000  0.78557000  1.0 0.0842087017
C  C604  1  0.51178000  0.72621000  0.72621000  1.0 0.0842087017
C  C605  1  0.27379000  0.27379000  0.48822000  1.0 0.0842087017
C  C606  1  0.72621000  0.72621000  0.51178000  1.0 0.0842087017
C  C607  1  0.27379000  0.78557000  0.00000000  1.0 0.0842087017
C  C608  1  0.21443000  0.21443000  0.48822000  1.0 0.0842087017
C  C609  1  0.78557000  0.27379000  0.00000000  1.0 0.0853780039
C  C610  1  0.72621000  0.21443000  0.00000000  1.0 0.0842087017
C  C611  1  0.78557000  0.78557000  0.51178000  1.0 0.0842087017
C  C612  1  0.21443000  0.72621000  0.00000000  1.0 0.0842087017
N  N1  1  0.46408000  0.23204000  0.23204000  1.0 -0.1976849359
N  N2  1  0.23204000  0.00000000  0.76796000  1.0 -0.1976849359
N  N3  1  0.00000000  0.23204000  0.76796000  1.0 -0.1976849359
N  N4  1  0.23204000  0.46408000  0.23204000  1.0 -0.1976849359
N  N5  1  0.53592000  0.76796000  0.76796000  1.0 -0.1976849359
N  N6  1  0.76796000  0.00000000  0.23204000  1.0 -0.1976849359
N  N7  1  0.00000000  0.76796000  0.23204000  1.0 -0.1976849359
N  N8  1  0.76796000  0.53592000  0.76796000  1.0 -0.1976849359
N  N9  1  0.23204000  0.23204000  0.46408000  1.0 -0.1976849359
N  N10  1  0.76796000  0.76796000  0.53592000  1.0 -0.1976849359
N  N11  1  0.23204000  0.76796000  0.00000000  1.0 -0.1976849359
N  N12  1  0.76796000  0.23204000  0.00000000  1.0 -0.1976849359
N  N13  1  0.73036000  0.57214000  0.57214000  1.0 -0.286356946
N  N14  1  0.57214000  0.00000000  0.84178000  1.0 -0.286356946
N  N15  1  0.00000000  0.15822000  0.42786000  1.0 -0.286356946
N  N16  1  0.15822000  0.73036000  0.15822000  1.0 -0.286356946
N  N17  1  0.26964000  0.84178000  0.84178000  1.0 -0.286356946
N  N18  1  0.84178000  0.00000000  0.57214000  1.0 -0.286356946
N  N19  1  0.00000000  0.42786000  0.15822000  1.0 -0.2839955933
N  N20  1  0.42786000  0.26964000  0.42786000  1.0 -0.286356946
N  N21  1  0.57214000  0.73036000  0.57214000  1.0 -0.286356946
N  N22  1  0.73036000  0.15822000  0.15822000  1.0 -0.286356946
N  N23  1  0.15822000  0.00000000  0.42786000  1.0 -0.286356946
N  N24  1  0.00000000  0.57214000  0.84178000  1.0 -0.286356946
N  N25  1  0.42786000  0.00000000  0.15822000  1.0 -0.286356946
N  N26  1  0.00000000  0.84178000  0.57214000  1.0 -0.286356946
N  N27  1  0.84178000  0.26964000  0.84178000  1.0 -0.286356946
N  N28  1  0.26964000  0.42786000  0.42786000  1.0 -0.286356946
N  N29  1  0.57214000  0.57214000  0.73036000  1.0 -0.286356946
N  N30  1  0.42786000  0.42786000  0.26964000  1.0 -0.286356946
N  N31  1  0.57214000  0.84178000  0.00000000  1.0 -0.2839955933
N  N32  1  0.15822000  0.15822000  0.73036000  1.0 -0.286356946
N  N33  1  0.84178000  0.57214000  0.00000000  1.0 -0.286356946
N  N34  1  0.42786000  0.15822000  0.00000000  1.0 -0.2839955933
N  N35  1  0.84178000  0.84178000  0.26964000  1.0 -0.2839955933
N  N36  1  0.15822000  0.42786000  0.00000000  1.0 -0.286356946
N  N37  1  0.57620000  0.34390000  0.39030000  1.0 -0.5699554877
N  N38  1  0.34390000  0.95360000  0.76770000  1.0 -0.5699554877
N  N39  1  0.95360000  0.18590000  0.60970000  1.0 -0.5699554877
N  N40  1  0.18590000  0.57620000  0.23230000  1.0 -0.5699554877
N  N41  1  0.42380000  0.81410000  0.76770000  1.0 -0.5699554877
N  N42  1  0.81410000  0.04640000  0.39030000  1.0 -0.5699554877
N  N43  1  0.04640000  0.65610000  0.23230000  1.0 -0.5699554877
N  N44  1  0.65610000  0.42380000  0.60970000  1.0 -0.5699554877
N  N45  1  0.39030000  0.57620000  0.34390000  1.0 -0.5699554877
N  N46  1  0.57620000  0.23230000  0.18590000  1.0 -0.5699554877
N  N47  1  0.23230000  0.04640000  0.65610000  1.0 -0.5699554877
N  N48  1  0.04640000  0.39030000  0.81410000  1.0 -0.5699554877
N  N49  1  0.60970000  0.95360000  0.18590000  1.0 -0.5699554877
N  N50  1  0.95360000  0.76770000  0.34390000  1.0 -0.5699554877
N  N51  1  0.76770000  0.42380000  0.81410000  1.0 -0.5699554877
N  N52  1  0.42380000  0.60970000  0.65610000  1.0 -0.5699554877
N  N53  1  0.34390000  0.39030000  0.57620000  1.0 -0.5699554877
N  N54  1  0.60970000  0.65610000  0.42380000  1.0 -0.5699554877
N  N55  1  0.39030000  0.81410000  0.04640000  1.0 -0.5699554877
N  N56  1  0.23230000  0.18590000  0.57620000  1.0 -0.5699554877
N  N57  1  0.76770000  0.34390000  0.95360000  1.0 -0.5699554877
N  N58  1  0.65610000  0.23230000  0.04640000  1.0 -0.5699554877
N  N59  1  0.81410000  0.76770000  0.42380000  1.0 -0.5699554877
N  N60  1  0.18590000  0.60970000  0.95360000  1.0 -0.5699554877
N  N61  1  0.42380000  0.65610000  0.60970000  1.0 -0.5699554877
N  N62  1  0.65610000  0.04640000  0.23230000  1.0 -0.5699554877
N  N63  1  0.04640000  0.81410000  0.39030000  1.0 -0.5699554877
N  N64  1  0.81410000  0.42380000  0.76770000  1.0 -0.5699554877
N  N65  1  0.57620000  0.18590000  0.23230000  1.0 -0.5699554877
N  N66  1  0.18590000  0.95360000  0.60970000  1.0 -0.5699554877
N  N67  1  0.95360000  0.34390000  0.76770000  1.0 -0.5699554877
N  N68  1  0.34390000  0.57620000  0.39030000  1.0 -0.5699554877
N  N69  1  0.60970000  0.42380000  0.65610000  1.0 -0.5699554877
N  N70  1  0.42380000  0.76770000  0.81410000  1.0 -0.5699554877
N  N71  1  0.76770000  0.95360000  0.34390000  1.0 -0.5699554877
N  N72  1  0.95360000  0.60970000  0.18590000  1.0 -0.5699554877
N  N73  1  0.39030000  0.04640000  0.81410000  1.0 -0.5699554877
N  N74  1  0.04640000  0.23230000  0.65610000  1.0 -0.5699554877
N  N75  1  0.23230000  0.57620000  0.18590000  1.0 -0.5699554877
N  N76  1  0.57620000  0.39030000  0.34390000  1.0 -0.5699554877
N  N77  1  0.65610000  0.60970000  0.42380000  1.0 -0.5699554877
N  N78  1  0.39030000  0.34390000  0.57620000  1.0 -0.5699554877
N  N79  1  0.60970000  0.18590000  0.95360000  1.0 -0.5699554877
N  N80  1  0.76770000  0.81410000  0.42380000  1.0 -0.5699554877
N  N81  1  0.23230000  0.65610000  0.04640000  1.0 -0.5699554877
N  N82  1  0.34390000  0.76770000  0.95360000  1.0 -0.5699554877
N  N83  1  0.18590000  0.23230000  0.57620000  1.0 -0.5699554877
N  N84  1  0.81410000  0.39030000  0.04640000  1.0 -0.5699554877
O  O1  1  0.84117000  0.79072000  0.70199000  1.0 -0.4924565162
O  O2  1  0.79072000  0.08873000  0.94955000  1.0 -0.4924565162
O  O3  1  0.08873000  0.13918000  0.29801000  1.0 -0.4924565162
O  O4  1  0.13918000  0.84117000  0.05045000  1.0 -0.4924565162
O  O5  1  0.15883000  0.86082000  0.94955000  1.0 -0.4924565162
O  O6  1  0.86082000  0.91127000  0.70199000  1.0 -0.4924565162
O  O7  1  0.91127000  0.20928000  0.05045000  1.0 -0.4924565162
O  O8  1  0.20928000  0.15883000  0.29801000  1.0 -0.4924565162
O  O9  1  0.70199000  0.84117000  0.79072000  1.0 -0.4924565162
O  O10  1  0.84117000  0.05045000  0.13918000  1.0 -0.4924565162
O  O11  1  0.05045000  0.91127000  0.20928000  1.0 -0.4924565162
O  O12  1  0.91127000  0.70199000  0.86082000  1.0 -0.4924565162
O  O13  1  0.29801000  0.08873000  0.13918000  1.0 -0.4924565162
O  O14  1  0.08873000  0.94955000  0.79072000  1.0 -0.4924565162
O  O15  1  0.94955000  0.15883000  0.86082000  1.0 -0.4924565162
O  O16  1  0.15883000  0.29801000  0.20928000  1.0 -0.4924565162
O  O17  1  0.79072000  0.70199000  0.84117000  1.0 -0.4924565162
O  O18  1  0.29801000  0.20928000  0.15883000  1.0 -0.4924565162
O  O19  1  0.70199000  0.86082000  0.91127000  1.0 -0.4924565162
O  O20  1  0.05045000  0.13918000  0.84117000  1.0 -0.4924565162
O  O21  1  0.94955000  0.79072000  0.08873000  1.0 -0.4924565162
O  O22  1  0.20928000  0.05045000  0.91127000  1.0 -0.4924565162
O  O23  1  0.86082000  0.94955000  0.15883000  1.0 -0.4924565162
O  O24  1  0.13918000  0.29801000  0.08873000  1.0 -0.4924565162
O  O25  1  0.15883000  0.20928000  0.29801000  1.0 -0.4924565162
O  O26  1  0.20928000  0.91127000  0.05045000  1.0 -0.4924565162
O  O27  1  0.91127000  0.86082000  0.70199000  1.0 -0.4924565162
O  O28  1  0.86082000  0.15883000  0.94955000  1.0 -0.4924565162
O  O29  1  0.84117000  0.13918000  0.05045000  1.0 -0.4924565162
O  O30  1  0.13918000  0.08873000  0.29801000  1.0 -0.4924565162
O  O31  1  0.08873000  0.79072000  0.94955000  1.0 -0.4924565162
O  O32  1  0.79072000  0.84117000  0.70199000  1.0 -0.4924565162
O  O33  1  0.29801000  0.15883000  0.20928000  1.0 -0.4924565162
O  O34  1  0.15883000  0.94955000  0.86082000  1.0 -0.4924565162
O  O35  1  0.94955000  0.08873000  0.79072000  1.0 -0.4924565162
O  O36  1  0.08873000  0.29801000  0.13918000  1.0 -0.4924565162
O  O37  1  0.70199000  0.91127000  0.86082000  1.0 -0.4924565162
O  O38  1  0.91127000  0.05045000  0.20928000  1.0 -0.4924565162
O  O39  1  0.05045000  0.84117000  0.13918000  1.0 -0.4924565162
O  O40  1  0.84117000  0.70199000  0.79072000  1.0 -0.4924565162
O  O41  1  0.20928000  0.29801000  0.15883000  1.0 -0.4924565162
O  O42  1  0.70199000  0.79072000  0.84117000  1.0 -0.4924565162
O  O43  1  0.29801000  0.13918000  0.08873000  1.0 -0.4924565162
O  O44  1  0.94955000  0.86082000  0.15883000  1.0 -0.4924565162
O  O45  1  0.05045000  0.20928000  0.91127000  1.0 -0.4924565162
O  O46  1  0.79072000  0.94955000  0.08873000  1.0 -0.4924565162
O  O47  1  0.13918000  0.05045000  0.84117000  1.0 -0.4924565162
O  O48  1  0.86082000  0.70199000  0.91127000  1.0 -0.4924565162
O  O49  1  0.79866000  0.74998000  0.62036000  1.0 -0.4924565162
O  O50  1  0.74998000  0.12962000  0.95132000  1.0 -0.4924565162
O  O51  1  0.12962000  0.17830000  0.37964000  1.0 -0.4924565162
O  O52  1  0.17830000  0.79866000  0.04868000  1.0 -0.4924565162
O  O53  1  0.20134000  0.82170000  0.95132000  1.0 -0.4924565162
O  O54  1  0.82170000  0.87038000  0.62036000  1.0 -0.4924565162
O  O55  1  0.87038000  0.25002000  0.04868000  1.0 -0.4924565162
O  O56  1  0.25002000  0.20134000  0.37964000  1.0 -0.4924565162
O  O57  1  0.62036000  0.79866000  0.74998000  1.0 -0.4924565162
O  O58  1  0.79866000  0.04868000  0.17830000  1.0 -0.4924565162
O  O59  1  0.04868000  0.87038000  0.25002000  1.0 -0.4924565162
O  O60  1  0.87038000  0.62036000  0.82170000  1.0 -0.4924565162
O  O61  1  0.37964000  0.12962000  0.17830000  1.0 -0.4924565162
O  O62  1  0.12962000  0.95132000  0.74998000  1.0 -0.4924565162
O  O63  1  0.95132000  0.20134000  0.82170000  1.0 -0.4924565162
O  O64  1  0.20134000  0.37964000  0.25002000  1.0 -0.4924565162
O  O65  1  0.74998000  0.62036000  0.79866000  1.0 -0.4924565162
O  O66  1  0.37964000  0.25002000  0.20134000  1.0 -0.4924565162
O  O67  1  0.62036000  0.82170000  0.87038000  1.0 -0.4924565162
O  O68  1  0.04868000  0.17830000  0.79866000  1.0 -0.4924565162
O  O69  1  0.95132000  0.74998000  0.12962000  1.0 -0.4924565162
O  O70  1  0.25002000  0.04868000  0.87038000  1.0 -0.4924565162
O  O71  1  0.82170000  0.95132000  0.20134000  1.0 -0.4924565162
O  O72  1  0.17830000  0.37964000  0.12962000  1.0 -0.4924565162
O  O73  1  0.20134000  0.25002000  0.37964000  1.0 -0.4924565162
O  O74  1  0.25002000  0.87038000  0.04868000  1.0 -0.4924565162
O  O75  1  0.87038000  0.82170000  0.62036000  1.0 -0.4924565162
O  O76  1  0.82170000  0.20134000  0.95132000  1.0 -0.4924565162
O  O77  1  0.79866000  0.17830000  0.04868000  1.0 -0.4924565162
O  O78  1  0.17830000  0.12962000  0.37964000  1.0 -0.4924565162
O  O79  1  0.12962000  0.74998000  0.95132000  1.0 -0.4924565162
O  O80  1  0.74998000  0.79866000  0.62036000  1.0 -0.4924565162
O  O81  1  0.37964000  0.20134000  0.25002000  1.0 -0.4924565162
O  O82  1  0.20134000  0.95132000  0.82170000  1.0 -0.4924565162
O  O83  1  0.95132000  0.12962000  0.74998000  1.0 -0.4924565162
O  O84  1  0.12962000  0.37964000  0.17830000  1.0 -0.4924565162
O  O85  1  0.62036000  0.87038000  0.82170000  1.0 -0.4924565162
O  O86  1  0.87038000  0.04868000  0.25002000  1.0 -0.4924565162
O  O87  1  0.04868000  0.79866000  0.17830000  1.0 -0.4924565162
O  O88  1  0.79866000  0.62036000  0.74998000  1.0 -0.4924565162
O  O89  1  0.25002000  0.37964000  0.20134000  1.0 -0.4924565162
O  O90  1  0.62036000  0.74998000  0.79866000  1.0 -0.4924565162
O  O91  1  0.37964000  0.17830000  0.12962000  1.0 -0.4924565162
O  O92  1  0.95132000  0.82170000  0.20134000  1.0 -0.4924565162
O  O93  1  0.04868000  0.25002000  0.87038000  1.0 -0.4924565162
O  O94  1  0.74998000  0.95132000  0.12962000  1.0 -0.4924565162
O  O95  1  0.17830000  0.04868000  0.79866000  1.0 -0.4924565162
O  O96  1  0.82170000  0.62036000  0.87038000  1.0 -0.4924565162
O  O97  1  0.72920000  0.52150000  0.60908000  1.0 -0.4126950456
O  O98  1  0.52150000  0.91242000  0.79230000  1.0 -0.4126950456
O  O99  1  0.91242000  0.12012000  0.39092000  1.0 -0.4126950456
O  O100  1  0.12012000  0.72920000  0.20770000  1.0 -0.4126950456
O  O101  1  0.27080000  0.87988000  0.79230000  1.0 -0.4126950456
O  O102  1  0.87988000  0.08758000  0.60908000  1.0 -0.4126950456
O  O103  1  0.08758000  0.47850000  0.20770000  1.0 -0.4126950456
O  O104  1  0.47850000  0.27080000  0.39092000  1.0 -0.4126950456
O  O105  1  0.60908000  0.72920000  0.52150000  1.0 -0.4126950456
O  O106  1  0.72920000  0.20770000  0.12012000  1.0 -0.4126950456
O  O107  1  0.20770000  0.08758000  0.47850000  1.0 -0.4126950456
O  O108  1  0.08758000  0.60908000  0.87988000  1.0 -0.4126950456
O  O109  1  0.39092000  0.91242000  0.12012000  1.0 -0.4126950456
O  O110  1  0.91242000  0.79230000  0.52150000  1.0 -0.4126950456
O  O111  1  0.79230000  0.27080000  0.87988000  1.0 -0.4126950456
O  O112  1  0.27080000  0.39092000  0.47850000  1.0 -0.4126950456
O  O113  1  0.52150000  0.60908000  0.72920000  1.0 -0.4126950456
O  O114  1  0.39092000  0.47850000  0.27080000  1.0 -0.4126950456
O  O115  1  0.60908000  0.87988000  0.08758000  1.0 -0.4126950456
O  O116  1  0.20770000  0.12012000  0.72920000  1.0 -0.4126950456
O  O117  1  0.79230000  0.52150000  0.91242000  1.0 -0.4126950456
O  O118  1  0.47850000  0.20770000  0.08758000  1.0 -0.4126950456
O  O119  1  0.87988000  0.79230000  0.27080000  1.0 -0.4126950456
O  O120  1  0.12012000  0.39092000  0.91242000  1.0 -0.4126950456
O  O121  1  0.27080000  0.47850000  0.39092000  1.0 -0.4126950456
O  O122  1  0.47850000  0.08758000  0.20770000  1.0 -0.4126950456
O  O123  1  0.08758000  0.87988000  0.60908000  1.0 -0.4126950456
O  O124  1  0.87988000  0.27080000  0.79230000  1.0 -0.4126950456
O  O125  1  0.72920000  0.12012000  0.20770000  1.0 -0.4126950456
O  O126  1  0.12012000  0.91242000  0.39092000  1.0 -0.4126950456
O  O127  1  0.91242000  0.52150000  0.79230000  1.0 -0.4126950456
O  O128  1  0.52150000  0.72920000  0.60908000  1.0 -0.4126950456
O  O129  1  0.39092000  0.27080000  0.47850000  1.0 -0.4126950456
O  O130  1  0.27080000  0.79230000  0.87988000  1.0 -0.4126950456
O  O131  1  0.79230000  0.91242000  0.52150000  1.0 -0.4126950456
O  O132  1  0.91242000  0.39092000  0.12012000  1.0 -0.4126950456
O  O133  1  0.60908000  0.08758000  0.87988000  1.0 -0.4126950456
O  O134  1  0.08758000  0.20770000  0.47850000  1.0 -0.4126950456
O  O135  1  0.20770000  0.72920000  0.12012000  1.0 -0.4126950456
O  O136  1  0.72920000  0.60908000  0.52150000  1.0 -0.4126950456
O  O137  1  0.47850000  0.39092000  0.27080000  1.0 -0.4126950456
O  O138  1  0.60908000  0.52150000  0.72920000  1.0 -0.4126950456
O  O139  1  0.39092000  0.12012000  0.91242000  1.0 -0.4126950456
O  O140  1  0.79230000  0.87988000  0.27080000  1.0 -0.4126950456
O  O141  1  0.20770000  0.47850000  0.08758000  1.0 -0.4126950456
O  O142  1  0.52150000  0.79230000  0.91242000  1.0 -0.4126950456
O  O143  1  0.12012000  0.20770000  0.72920000  1.0 -0.4126950456
O  O144  1  0.87988000  0.60908000  0.08758000  1.0 -0.4126950456
O  O145  1  0.57360000  0.34310000  0.38250000  1.0 -0.3756686038
O  O146  1  0.34310000  0.96060000  0.76950000  1.0 -0.3737621925
O  O147  1  0.96060000  0.19110000  0.61750000  1.0 -0.3756686038
O  O148  1  0.19110000  0.57360000  0.23050000  1.0 -0.3756686038
O  O149  1  0.42640000  0.80890000  0.76950000  1.0 -0.3737621925
O  O150  1  0.80890000  0.03940000  0.38250000  1.0 -0.3737621925
O  O151  1  0.03940000  0.65690000  0.23050000  1.0 -0.3756686038
O  O152  1  0.65690000  0.42640000  0.61750000  1.0 -0.3756686038
O  O153  1  0.38250000  0.57360000  0.34310000  1.0 -0.3756686038
O  O154  1  0.57360000  0.23050000  0.19110000  1.0 -0.3756686038
O  O155  1  0.23050000  0.03940000  0.65690000  1.0 -0.3756686038
O  O156  1  0.03940000  0.38250000  0.80890000  1.0 -0.3756686038
O  O157  1  0.61750000  0.96060000  0.19110000  1.0 -0.3756686038
O  O158  1  0.96060000  0.76950000  0.34310000  1.0 -0.3756686038
O  O159  1  0.76950000  0.42640000  0.80890000  1.0 -0.3756686038
O  O160  1  0.42640000  0.61750000  0.65690000  1.0 -0.3756686038
O  O161  1  0.34310000  0.38250000  0.57360000  1.0 -0.3756686038
O  O162  1  0.61750000  0.65690000  0.42640000  1.0 -0.3756686038
O  O163  1  0.38250000  0.80890000  0.03940000  1.0 -0.3737621925
O  O164  1  0.23050000  0.19110000  0.57360000  1.0 -0.3756686038
O  O165  1  0.76950000  0.34310000  0.96060000  1.0 -0.3756686038
O  O166  1  0.65690000  0.23050000  0.03940000  1.0 -0.3756686038
O  O167  1  0.80890000  0.76950000  0.42640000  1.0 -0.3756686038
O  O168  1  0.19110000  0.61750000  0.96060000  1.0 -0.3756686038
O  O169  1  0.42640000  0.65690000  0.61750000  1.0 -0.3756686038
O  O170  1  0.65690000  0.03940000  0.23050000  1.0 -0.3756686038
O  O171  1  0.03940000  0.80890000  0.38250000  1.0 -0.3756686038
O  O172  1  0.80890000  0.42640000  0.76950000  1.0 -0.3756686038
O  O173  1  0.57360000  0.19110000  0.23050000  1.0 -0.3756686038
O  O174  1  0.19110000  0.96060000  0.61750000  1.0 -0.3737621925
O  O175  1  0.96060000  0.34310000  0.76950000  1.0 -0.3756686038
O  O176  1  0.34310000  0.57360000  0.38250000  1.0 -0.3756686038
O  O177  1  0.61750000  0.42640000  0.65690000  1.0 -0.3756686038
O  O178  1  0.42640000  0.76950000  0.80890000  1.0 -0.3737621925
O  O179  1  0.76950000  0.96060000  0.34310000  1.0 -0.3756686038
O  O180  1  0.96060000  0.61750000  0.19110000  1.0 -0.3756686038
O  O181  1  0.38250000  0.03940000  0.80890000  1.0 -0.3756686038
O  O182  1  0.03940000  0.23050000  0.65690000  1.0 -0.3756686038
O  O183  1  0.23050000  0.57360000  0.19110000  1.0 -0.3756686038
O  O184  1  0.57360000  0.38250000  0.34310000  1.0 -0.3756686038
O  O185  1  0.65690000  0.61750000  0.42640000  1.0 -0.3737621925
O  O186  1  0.38250000  0.34310000  0.57360000  1.0 -0.3756686038
O  O187  1  0.61750000  0.19110000  0.96060000  1.0 -0.3756686038
O  O188  1  0.76950000  0.80890000  0.42640000  1.0 -0.3756686038
O  O189  1  0.23050000  0.65690000  0.03940000  1.0 -0.3756686038
O  O190  1  0.34310000  0.76950000  0.96060000  1.0 -0.3756686038
O  O191  1  0.19110000  0.23050000  0.57360000  1.0 -0.3756686038
O  O192  1  0.80890000  0.38250000  0.03940000  1.0 -0.3737621925
