# DDEC6 charges by PACMAN v1.1 (https://github.com/mtap-research/PACMAN-charge/)
data_ELERIY_ASR_pacman
_symmetry_space_group_name_H-M   'P 1'
_cell_length_a   26.94110000
_cell_length_b   26.94110000
_cell_length_c   26.94110000
_cell_angle_alpha   109.47100000
_cell_angle_beta   109.47100000
_cell_angle_gamma   109.47100000
_symmetry_Int_Tables_number   1
_chemical_formula_structural   Cu2H9C25NO8
_chemical_formula_sum   'Cu24 H108 C300 N12 O96'
_cell_volume   15053.15829510
_cell_formula_units_Z   12
loop_
 _symmetry_equiv_pos_site_id
 _symmetry_equiv_pos_as_xyz
  1  'x, y, z'
loop_
 _atom_site_type_symbol
 _atom_site_label
 _atom_site_symmetry_multiplicity
 _atom_site_fract_x
 _atom_site_fract_y
 _atom_site_fract_z
 _atom_site_occupancy
 _atom_site_charge
Cu  Cu1  1  0.36096000  0.18048000  0.18048000  1.0 0.8562413516
Cu  Cu2  1  0.18048000  0.00000000  0.81952000  1.0 0.8562413516
Cu  Cu3  1  0.00000000  0.18048000  0.81952000  1.0 0.8562413516
Cu  Cu4  1  0.18048000  0.36096000  0.18048000  1.0 0.8562413516
Cu  Cu5  1  0.63904000  0.81952000  0.81952000  1.0 0.8562413516
Cu  Cu6  1  0.81952000  0.00000000  0.18048000  1.0 0.8562413516
Cu  Cu7  1  0.00000000  0.81952000  0.18048000  1.0 0.8562413516
Cu  Cu8  1  0.81952000  0.63904000  0.81952000  1.0 0.8562413516
Cu  Cu9  1  0.18048000  0.18048000  0.36096000  1.0 0.8562413516
Cu  Cu10  1  0.81952000  0.81952000  0.63904000  1.0 0.8562413516
Cu  Cu11  1  0.18048000  0.81952000  0.00000000  1.0 0.8562413516
Cu  Cu12  1  0.81952000  0.18048000  0.00000000  1.0 0.8562413516
Cu  Cu13  1  0.48094000  0.24047000  0.24047000  1.0 0.7661574445
Cu  Cu14  1  0.24047000  0.00000000  0.75953000  1.0 0.7661574445
Cu  Cu15  1  0.00000000  0.24047000  0.75953000  1.0 0.7661574445
Cu  Cu16  1  0.24047000  0.48094000  0.24047000  1.0 0.7661574445
Cu  Cu17  1  0.51906000  0.75953000  0.75953000  1.0 0.7661574445
Cu  Cu18  1  0.75953000  0.00000000  0.24047000  1.0 0.7661574445
Cu  Cu19  1  0.00000000  0.75953000  0.24047000  1.0 0.7661574445
Cu  Cu20  1  0.75953000  0.51906000  0.75953000  1.0 0.7661574445
Cu  Cu21  1  0.24047000  0.24047000  0.48094000  1.0 0.7661574445
Cu  Cu22  1  0.75953000  0.75953000  0.51906000  1.0 0.7661574445
Cu  Cu23  1  0.24047000  0.75953000  0.00000000  1.0 0.7661574445
Cu  Cu24  1  0.75953000  0.24047000  0.00000000  1.0 0.7661574445
H  H1  1  0.64430000  0.64430000  0.41320000  1.0 0.1180570131
H  H2  1  0.64430000  0.23110000  0.00000000  1.0 0.1180570131
H  H3  1  0.23110000  0.23110000  0.58680000  1.0 0.1180570131
H  H4  1  0.23110000  0.64430000  0.00000000  1.0 0.1180570131
H  H5  1  0.35570000  0.76890000  0.00000000  1.0 0.1180570131
H  H6  1  0.76890000  0.76890000  0.41320000  1.0 0.1180570131
H  H7  1  0.76890000  0.35570000  0.00000000  1.0 0.1180570131
H  H8  1  0.35570000  0.35570000  0.58680000  1.0 0.1180570131
H  H9  1  0.41320000  0.64430000  0.64430000  1.0 0.1180570131
H  H10  1  0.64430000  0.00000000  0.23110000  1.0 0.1180570131
H  H11  1  0.00000000  0.76890000  0.35570000  1.0 0.1180570131
H  H12  1  0.76890000  0.41320000  0.76890000  1.0 0.1180570131
H  H13  1  0.58680000  0.23110000  0.23110000  1.0 0.1180570131
H  H14  1  0.23110000  0.00000000  0.64430000  1.0 0.1180570131
H  H15  1  0.00000000  0.35570000  0.76890000  1.0 0.1180570131
H  H16  1  0.35570000  0.58680000  0.35570000  1.0 0.1180570131
H  H17  1  0.64430000  0.41320000  0.64430000  1.0 0.1180570131
H  H18  1  0.58680000  0.35570000  0.35570000  1.0 0.1180570131
H  H19  1  0.41320000  0.76890000  0.76890000  1.0 0.1180570131
H  H20  1  0.00000000  0.23110000  0.64430000  1.0 0.1180570131
H  H21  1  0.00000000  0.64430000  0.23110000  1.0 0.1180570131
H  H22  1  0.35570000  0.00000000  0.76890000  1.0 0.1180570131
H  H23  1  0.76890000  0.00000000  0.35570000  1.0 0.1180570131
H  H24  1  0.23110000  0.58680000  0.23110000  1.0 0.1180570131
H  H25  1  0.62630000  0.62630000  0.25260000  1.0 0.13949879
H  H26  1  0.62630000  0.37370000  0.00000000  1.0 0.13949879
H  H27  1  0.37370000  0.37370000  0.74740000  1.0 0.13949879
H  H28  1  0.37370000  0.62630000  0.00000000  1.0 0.13949879
H  H29  1  0.25260000  0.62630000  0.62630000  1.0 0.13949879
H  H30  1  0.62630000  0.00000000  0.37370000  1.0 0.13949879
H  H31  1  0.00000000  0.62630000  0.37370000  1.0 0.13949879
H  H32  1  0.62630000  0.25260000  0.62630000  1.0 0.13949879
H  H33  1  0.74740000  0.37370000  0.37370000  1.0 0.13949879
H  H34  1  0.37370000  0.00000000  0.62630000  1.0 0.13949879
H  H35  1  0.00000000  0.37370000  0.62630000  1.0 0.13949879
H  H36  1  0.37370000  0.74740000  0.37370000  1.0 0.13949879
H  H37  1  0.50770000  0.41710000  0.26160000  1.0 0.1301964248
H  H38  1  0.41710000  0.15550000  0.90940000  1.0 0.1301964248
H  H39  1  0.15550000  0.24610000  0.73840000  1.0 0.1301964248
H  H40  1  0.24610000  0.50770000  0.09060000  1.0 0.1301964248
H  H41  1  0.49230000  0.75390000  0.90940000  1.0 0.1301964248
H  H42  1  0.75390000  0.84450000  0.26160000  1.0 0.1301964248
H  H43  1  0.84450000  0.58290000  0.09060000  1.0 0.1301964248
H  H44  1  0.58290000  0.49230000  0.73840000  1.0 0.1301964248
H  H45  1  0.26160000  0.50770000  0.41710000  1.0 0.1301964248
H  H46  1  0.50770000  0.09060000  0.24610000  1.0 0.1301964248
H  H47  1  0.09060000  0.84450000  0.58290000  1.0 0.1301964248
H  H48  1  0.84450000  0.26160000  0.75390000  1.0 0.1301964248
H  H49  1  0.73840000  0.15550000  0.24610000  1.0 0.1301964248
H  H50  1  0.15550000  0.90940000  0.41710000  1.0 0.1301964248
H  H51  1  0.90940000  0.49230000  0.75390000  1.0 0.1301964248
H  H52  1  0.49230000  0.73840000  0.58290000  1.0 0.1301964248
H  H53  1  0.41710000  0.26160000  0.50770000  1.0 0.1301964248
H  H54  1  0.73840000  0.58290000  0.49230000  1.0 0.1301964248
H  H55  1  0.26160000  0.75390000  0.84450000  1.0 0.1301964248
H  H56  1  0.09060000  0.24610000  0.50770000  1.0 0.1301964248
H  H57  1  0.90940000  0.41710000  0.15550000  1.0 0.1301964248
H  H58  1  0.58290000  0.09060000  0.84450000  1.0 0.1301964248
H  H59  1  0.75390000  0.90940000  0.49230000  1.0 0.1301964248
H  H60  1  0.24610000  0.73840000  0.15550000  1.0 0.1301964248
H  H61  1  0.49230000  0.58290000  0.73840000  1.0 0.1301964248
H  H62  1  0.58290000  0.84450000  0.09060000  1.0 0.1301964248
H  H63  1  0.84450000  0.75390000  0.26160000  1.0 0.1301964248
H  H64  1  0.75390000  0.49230000  0.90940000  1.0 0.1301964248
H  H65  1  0.50770000  0.24610000  0.09060000  1.0 0.1301964248
H  H66  1  0.24610000  0.15550000  0.73840000  1.0 0.1301964248
H  H67  1  0.15550000  0.41710000  0.90940000  1.0 0.1301964248
H  H68  1  0.41710000  0.50770000  0.26160000  1.0 0.1301964248
H  H69  1  0.73840000  0.49230000  0.58290000  1.0 0.1301964248
H  H70  1  0.49230000  0.90940000  0.75390000  1.0 0.1301964248
H  H71  1  0.90940000  0.15550000  0.41710000  1.0 0.1301964248
H  H72  1  0.15550000  0.73840000  0.24610000  1.0 0.1301964248
H  H73  1  0.26160000  0.84450000  0.75390000  1.0 0.1301964248
H  H74  1  0.84450000  0.09060000  0.58290000  1.0 0.1301964248
H  H75  1  0.09060000  0.50770000  0.24610000  1.0 0.1301964248
H  H76  1  0.50770000  0.26160000  0.41710000  1.0 0.1301964248
H  H77  1  0.58290000  0.73840000  0.49230000  1.0 0.1301964248
H  H78  1  0.26160000  0.41710000  0.50770000  1.0 0.1301964248
H  H79  1  0.73840000  0.24610000  0.15550000  1.0 0.1301964248
H  H80  1  0.90940000  0.75390000  0.49230000  1.0 0.1301964248
H  H81  1  0.09060000  0.58290000  0.84450000  1.0 0.1301964248
H  H82  1  0.41710000  0.90940000  0.15550000  1.0 0.1301964248
H  H83  1  0.24610000  0.09060000  0.50770000  1.0 0.1301964248
H  H84  1  0.75390000  0.26160000  0.84450000  1.0 0.1301964248
H  H85  1  0.33120000  0.33120000  0.20980000  1.0 0.13949879
H  H86  1  0.33120000  0.12140000  0.00000000  1.0 0.13949879
H  H87  1  0.12140000  0.12140000  0.79020000  1.0 0.13949879
H  H88  1  0.12140000  0.33120000  0.00000000  1.0 0.13949879
H  H89  1  0.66880000  0.87860000  0.00000000  1.0 0.13949879
H  H90  1  0.87860000  0.87860000  0.20980000  1.0 0.13949879
H  H91  1  0.87860000  0.66880000  0.00000000  1.0 0.13949879
H  H92  1  0.66880000  0.66880000  0.79020000  1.0 0.13949879
H  H93  1  0.20980000  0.33120000  0.33120000  1.0 0.13949879
H  H94  1  0.33120000  0.00000000  0.12140000  1.0 0.13949879
H  H95  1  0.00000000  0.87860000  0.66880000  1.0 0.13949879
H  H96  1  0.87860000  0.20980000  0.87860000  1.0 0.13949879
H  H97  1  0.79020000  0.12140000  0.12140000  1.0 0.13949879
H  H98  1  0.12140000  0.00000000  0.33120000  1.0 0.13949879
H  H99  1  0.00000000  0.66880000  0.87860000  1.0 0.13949879
H  H100  1  0.66880000  0.79020000  0.66880000  1.0 0.13949879
H  H101  1  0.33120000  0.20980000  0.33120000  1.0 0.13949879
H  H102  1  0.79020000  0.66880000  0.66880000  1.0 0.13949879
H  H103  1  0.20980000  0.87860000  0.87860000  1.0 0.13949879
H  H104  1  0.00000000  0.12140000  0.33120000  1.0 0.13949879
H  H105  1  0.00000000  0.33120000  0.12140000  1.0 0.13949879
H  H106  1  0.66880000  0.00000000  0.87860000  1.0 0.13949879
H  H107  1  0.87860000  0.00000000  0.66880000  1.0 0.13949879
H  H108  1  0.12140000  0.79020000  0.12140000  1.0 0.13949879
C  C1  1  0.65900000  0.65900000  0.39140000  1.0 0.0581014001
C  C2  1  0.65900000  0.26760000  0.00000000  1.0 0.0581014001
C  C3  1  0.26760000  0.26760000  0.60860000  1.0 0.0581014001
C  C4  1  0.26760000  0.65900000  0.00000000  1.0 0.0581014001
C  C5  1  0.34100000  0.73240000  0.00000000  1.0 0.0581014001
C  C6  1  0.73240000  0.73240000  0.39140000  1.0 0.0581014001
C  C7  1  0.73240000  0.34100000  0.00000000  1.0 0.0581014001
C  C8  1  0.34100000  0.34100000  0.60860000  1.0 0.0581014001
C  C9  1  0.39140000  0.65900000  0.65900000  1.0 0.0581014001
C  C10  1  0.65900000  0.00000000  0.26760000  1.0 0.0581014001
C  C11  1  0.00000000  0.73240000  0.34100000  1.0 0.0581014001
C  C12  1  0.73240000  0.39140000  0.73240000  1.0 0.0581014001
C  C13  1  0.60860000  0.26760000  0.26760000  1.0 0.0581014001
C  C14  1  0.26760000  0.00000000  0.65900000  1.0 0.0581014001
C  C15  1  0.00000000  0.34100000  0.73240000  1.0 0.0581014001
C  C16  1  0.34100000  0.60860000  0.34100000  1.0 0.0581014001
C  C17  1  0.65900000  0.39140000  0.65900000  1.0 0.0581014001
C  C18  1  0.60860000  0.34100000  0.34100000  1.0 0.0581014001
C  C19  1  0.39140000  0.73240000  0.73240000  1.0 0.0581014001
C  C20  1  0.00000000  0.26760000  0.65900000  1.0 0.0581014001
C  C21  1  0.00000000  0.65900000  0.26760000  1.0 0.0581014001
C  C22  1  0.34100000  0.00000000  0.73240000  1.0 0.0581014001
C  C23  1  0.73240000  0.00000000  0.34100000  1.0 0.0581014001
C  C24  1  0.26760000  0.60860000  0.26760000  1.0 0.0581014001
C  C25  1  0.62510000  0.62510000  0.32720000  1.0 0.092993586
C  C26  1  0.62510000  0.29790000  0.00000000  1.0 0.092993586
C  C27  1  0.29790000  0.29790000  0.67280000  1.0 0.092993586
C  C28  1  0.29790000  0.62510000  0.00000000  1.0 0.092993586
C  C29  1  0.37490000  0.70210000  0.00000000  1.0 0.092993586
C  C30  1  0.70210000  0.70210000  0.32720000  1.0 0.092993586
C  C31  1  0.70210000  0.37490000  0.00000000  1.0 0.092993586
C  C32  1  0.37490000  0.37490000  0.67280000  1.0 0.092993586
C  C33  1  0.32720000  0.62510000  0.62510000  1.0 0.092993586
C  C34  1  0.62510000  0.00000000  0.29790000  1.0 0.092993586
C  C35  1  0.00000000  0.70210000  0.37490000  1.0 0.092993586
C  C36  1  0.70210000  0.32720000  0.70210000  1.0 0.092993586
C  C37  1  0.67280000  0.29790000  0.29790000  1.0 0.092993586
C  C38  1  0.29790000  0.00000000  0.62510000  1.0 0.092993586
C  C39  1  0.00000000  0.37490000  0.70210000  1.0 0.092993586
C  C40  1  0.37490000  0.67280000  0.37490000  1.0 0.092993586
C  C41  1  0.62510000  0.32720000  0.62510000  1.0 0.092993586
C  C42  1  0.67280000  0.37490000  0.37490000  1.0 0.092993586
C  C43  1  0.32720000  0.70210000  0.70210000  1.0 0.092993586
C  C44  1  0.00000000  0.29790000  0.62510000  1.0 0.092993586
C  C45  1  0.00000000  0.62510000  0.29790000  1.0 0.092993586
C  C46  1  0.37490000  0.00000000  0.70210000  1.0 0.092993586
C  C47  1  0.70210000  0.00000000  0.37490000  1.0 0.092993586
C  C48  1  0.29790000  0.67280000  0.29790000  1.0 0.092993586
C  C49  1  0.64740000  0.64740000  0.29480000  1.0 -0.1370226418
C  C50  1  0.64740000  0.35260000  0.00000000  1.0 -0.1370226418
C  C51  1  0.35260000  0.35260000  0.70520000  1.0 -0.1370226418
C  C52  1  0.35260000  0.64740000  0.00000000  1.0 -0.1370226418
C  C53  1  0.29480000  0.64740000  0.64740000  1.0 -0.1370226418
C  C54  1  0.64740000  0.00000000  0.35260000  1.0 -0.1370226418
C  C55  1  0.00000000  0.64740000  0.35260000  1.0 -0.1370226418
C  C56  1  0.64740000  0.29480000  0.64740000  1.0 -0.1370226418
C  C57  1  0.70520000  0.35260000  0.35260000  1.0 -0.1370226418
C  C58  1  0.35260000  0.00000000  0.64740000  1.0 -0.1370226418
C  C59  1  0.00000000  0.35260000  0.64740000  1.0 -0.1370226418
C  C60  1  0.35260000  0.70520000  0.35260000  1.0 -0.1370226418
C  C61  1  0.56930000  0.56930000  0.29900000  1.0 -0.0909640238
C  C62  1  0.56930000  0.27030000  0.00000000  1.0 -0.0909640238
C  C63  1  0.27030000  0.27030000  0.70100000  1.0 -0.0909640238
C  C64  1  0.27030000  0.56930000  0.00000000  1.0 -0.0909640238
C  C65  1  0.43070000  0.72970000  0.00000000  1.0 -0.0909640238
C  C66  1  0.72970000  0.72970000  0.29900000  1.0 -0.0909640238
C  C67  1  0.72970000  0.43070000  0.00000000  1.0 -0.0909640238
C  C68  1  0.43070000  0.43070000  0.70100000  1.0 -0.0909640238
C  C69  1  0.29900000  0.56930000  0.56930000  1.0 -0.0909640238
C  C70  1  0.56930000  0.00000000  0.27030000  1.0 -0.0909640238
C  C71  1  0.00000000  0.72970000  0.43070000  1.0 -0.0909640238
C  C72  1  0.72970000  0.29900000  0.72970000  1.0 -0.0909640238
C  C73  1  0.70100000  0.27030000  0.27030000  1.0 -0.0909640238
C  C74  1  0.27030000  0.00000000  0.56930000  1.0 -0.0909640238
C  C75  1  0.00000000  0.43070000  0.72970000  1.0 -0.0909640238
C  C76  1  0.43070000  0.70100000  0.43070000  1.0 -0.0909640238
C  C77  1  0.56930000  0.29900000  0.56930000  1.0 -0.0909640238
C  C78  1  0.70100000  0.43070000  0.43070000  1.0 -0.0909640238
C  C79  1  0.29900000  0.72970000  0.72970000  1.0 -0.0909640238
C  C80  1  0.00000000  0.27030000  0.56930000  1.0 -0.0909640238
C  C81  1  0.00000000  0.56930000  0.27030000  1.0 -0.0909640238
C  C82  1  0.43070000  0.00000000  0.72970000  1.0 -0.0909640238
C  C83  1  0.72970000  0.00000000  0.43070000  1.0 -0.0909640238
C  C84  1  0.27030000  0.70100000  0.27030000  1.0 -0.0909640238
C  C85  1  0.52410000  0.52410000  0.28200000  1.0 -0.0909640238
C  C86  1  0.52410000  0.24210000  0.00000000  1.0 -0.0909640238
C  C87  1  0.24210000  0.24210000  0.71800000  1.0 -0.0909640238
C  C88  1  0.24210000  0.52410000  0.00000000  1.0 -0.0909640238
C  C89  1  0.47590000  0.75790000  0.00000000  1.0 -0.0909640238
C  C90  1  0.75790000  0.75790000  0.28200000  1.0 -0.0909640238
C  C91  1  0.75790000  0.47590000  0.00000000  1.0 -0.0909640238
C  C92  1  0.47590000  0.47590000  0.71800000  1.0 -0.0909640238
C  C93  1  0.28200000  0.52410000  0.52410000  1.0 -0.0955655662
C  C94  1  0.52410000  0.00000000  0.24210000  1.0 -0.0909640238
C  C95  1  0.00000000  0.75790000  0.47590000  1.0 -0.0909640238
C  C96  1  0.75790000  0.28200000  0.75790000  1.0 -0.0909640238
C  C97  1  0.71800000  0.24210000  0.24210000  1.0 -0.0909640238
C  C98  1  0.24210000  0.00000000  0.52410000  1.0 -0.0909640238
C  C99  1  0.00000000  0.47590000  0.75790000  1.0 -0.0909640238
C  C100  1  0.47590000  0.71800000  0.47590000  1.0 -0.0909640238
C  C101  1  0.52410000  0.28200000  0.52410000  1.0 -0.0909640238
C  C102  1  0.71800000  0.47590000  0.47590000  1.0 -0.0909640238
C  C103  1  0.28200000  0.75790000  0.75790000  1.0 -0.0955655662
C  C104  1  0.00000000  0.24210000  0.52410000  1.0 -0.0909640238
C  C105  1  0.00000000  0.52410000  0.24210000  1.0 -0.0909640238
C  C106  1  0.47590000  0.00000000  0.75790000  1.0 -0.0909640238
C  C107  1  0.75790000  0.00000000  0.47590000  1.0 -0.0909640238
C  C108  1  0.24210000  0.71800000  0.24210000  1.0 -0.0909640238
C  C109  1  0.47110000  0.47110000  0.26320000  1.0 0.1110748303
C  C110  1  0.47110000  0.20790000  0.00000000  1.0 0.1110748303
C  C111  1  0.20790000  0.20790000  0.73680000  1.0 0.1110748303
C  C112  1  0.20790000  0.47110000  0.00000000  1.0 0.1110748303
C  C113  1  0.52890000  0.79210000  0.00000000  1.0 0.1110748303
C  C114  1  0.79210000  0.79210000  0.26320000  1.0 0.1110748303
C  C115  1  0.79210000  0.52890000  0.00000000  1.0 0.1110748303
C  C116  1  0.52890000  0.52890000  0.73680000  1.0 0.1110748303
C  C117  1  0.26320000  0.47110000  0.47110000  1.0 0.1110748303
C  C118  1  0.47110000  0.00000000  0.20790000  1.0 0.1110748303
C  C119  1  0.00000000  0.79210000  0.52890000  1.0 0.1110748303
C  C120  1  0.79210000  0.26320000  0.79210000  1.0 0.1110748303
C  C121  1  0.73680000  0.20790000  0.20790000  1.0 0.1110748303
C  C122  1  0.20790000  0.00000000  0.47110000  1.0 0.1110748303
C  C123  1  0.00000000  0.52890000  0.79210000  1.0 0.1110748303
C  C124  1  0.52890000  0.73680000  0.52890000  1.0 0.1110748303
C  C125  1  0.47110000  0.26320000  0.47110000  1.0 0.1110748303
C  C126  1  0.73680000  0.52890000  0.52890000  1.0 0.1110748303
C  C127  1  0.26320000  0.79210000  0.79210000  1.0 0.1110748303
C  C128  1  0.00000000  0.20790000  0.47110000  1.0 0.1110748303
C  C129  1  0.00000000  0.47110000  0.20790000  1.0 0.1110748303
C  C130  1  0.52890000  0.00000000  0.79210000  1.0 0.1110748303
C  C131  1  0.79210000  0.00000000  0.52890000  1.0 0.1110748303
C  C132  1  0.20790000  0.73680000  0.20790000  1.0 0.1110748303
C  C133  1  0.47190000  0.41780000  0.25450000  1.0 -0.1263079093
C  C134  1  0.41780000  0.16330000  0.94590000  1.0 -0.1263079093
C  C135  1  0.16330000  0.21740000  0.74550000  1.0 -0.1263079093
C  C136  1  0.21740000  0.47190000  0.05410000  1.0 -0.1263079093
C  C137  1  0.52810000  0.78260000  0.94590000  1.0 -0.1263079093
C  C138  1  0.78260000  0.83670000  0.25450000  1.0 -0.1263079093
C  C139  1  0.83670000  0.58220000  0.05410000  1.0 -0.1263079093
C  C140  1  0.58220000  0.52810000  0.74550000  1.0 -0.1263079093
C  C141  1  0.25450000  0.47190000  0.41780000  1.0 -0.1263079093
C  C142  1  0.47190000  0.05410000  0.21740000  1.0 -0.1263079093
C  C143  1  0.05410000  0.83670000  0.58220000  1.0 -0.1263079093
C  C144  1  0.83670000  0.25450000  0.78260000  1.0 -0.1263079093
C  C145  1  0.74550000  0.16330000  0.21740000  1.0 -0.1263079093
C  C146  1  0.16330000  0.94590000  0.41780000  1.0 -0.1263079093
C  C147  1  0.94590000  0.52810000  0.78260000  1.0 -0.1263079093
C  C148  1  0.52810000  0.74550000  0.58220000  1.0 -0.1263079093
C  C149  1  0.41780000  0.25450000  0.47190000  1.0 -0.1263079093
C  C150  1  0.74550000  0.58220000  0.52810000  1.0 -0.1263079093
C  C151  1  0.25450000  0.78260000  0.83670000  1.0 -0.1263079093
C  C152  1  0.05410000  0.21740000  0.47190000  1.0 -0.1263079093
C  C153  1  0.94590000  0.41780000  0.16330000  1.0 -0.1263079093
C  C154  1  0.58220000  0.05410000  0.83670000  1.0 -0.1263079093
C  C155  1  0.78260000  0.94590000  0.52810000  1.0 -0.1263079093
C  C156  1  0.21740000  0.74550000  0.16330000  1.0 -0.1263079093
C  C157  1  0.52810000  0.58220000  0.74550000  1.0 -0.1263079093
C  C158  1  0.58220000  0.83670000  0.05410000  1.0 -0.1263079093
C  C159  1  0.83670000  0.78260000  0.25450000  1.0 -0.1263079093
C  C160  1  0.78260000  0.52810000  0.94590000  1.0 -0.1263079093
C  C161  1  0.47190000  0.21740000  0.05410000  1.0 -0.1263079093
C  C162  1  0.21740000  0.16330000  0.74550000  1.0 -0.1263079093
C  C163  1  0.16330000  0.41780000  0.94590000  1.0 -0.1263079093
C  C164  1  0.41780000  0.47190000  0.25450000  1.0 -0.1263079093
C  C165  1  0.74550000  0.52810000  0.58220000  1.0 -0.1263079093
C  C166  1  0.52810000  0.94590000  0.78260000  1.0 -0.1263079093
C  C167  1  0.94590000  0.16330000  0.41780000  1.0 -0.1263079093
C  C168  1  0.16330000  0.74550000  0.21740000  1.0 -0.1263079093
C  C169  1  0.25450000  0.83670000  0.78260000  1.0 -0.1263079093
C  C170  1  0.83670000  0.05410000  0.58220000  1.0 -0.1263079093
C  C171  1  0.05410000  0.47190000  0.21740000  1.0 -0.1263079093
C  C172  1  0.47190000  0.25450000  0.41780000  1.0 -0.1263079093
C  C173  1  0.58220000  0.74550000  0.52810000  1.0 -0.1263079093
C  C174  1  0.25450000  0.41780000  0.47190000  1.0 -0.1263079093
C  C175  1  0.74550000  0.21740000  0.16330000  1.0 -0.1263079093
C  C176  1  0.94590000  0.78260000  0.52810000  1.0 -0.1263079093
C  C177  1  0.05410000  0.58220000  0.83670000  1.0 -0.1263079093
C  C178  1  0.41780000  0.94590000  0.16330000  1.0 -0.1263079093
C  C179  1  0.21740000  0.05410000  0.47190000  1.0 -0.1263079093
C  C180  1  0.78260000  0.25450000  0.83670000  1.0 -0.1263079093
C  C181  1  0.41970000  0.36510000  0.23540000  1.0 -0.0299593616
C  C182  1  0.36510000  0.12970000  0.94540000  1.0 -0.0299593616
C  C183  1  0.12970000  0.18430000  0.76460000  1.0 -0.0299593616
C  C184  1  0.18430000  0.41970000  0.05460000  1.0 -0.0299593616
C  C185  1  0.58030000  0.81570000  0.94540000  1.0 -0.0299593616
C  C186  1  0.81570000  0.87030000  0.23540000  1.0 -0.0299593616
C  C187  1  0.87030000  0.63490000  0.05460000  1.0 -0.0299593616
C  C188  1  0.63490000  0.58030000  0.76460000  1.0 -0.0299593616
C  C189  1  0.23540000  0.41970000  0.36510000  1.0 -0.0299593616
C  C190  1  0.41970000  0.05460000  0.18430000  1.0 -0.0299593616
C  C191  1  0.05460000  0.87030000  0.63490000  1.0 -0.0299593616
C  C192  1  0.87030000  0.23540000  0.81570000  1.0 -0.0299593616
C  C193  1  0.76460000  0.12970000  0.18430000  1.0 -0.0299593616
C  C194  1  0.12970000  0.94540000  0.36510000  1.0 -0.0299593616
C  C195  1  0.94540000  0.58030000  0.81570000  1.0 -0.0299593616
C  C196  1  0.58030000  0.76460000  0.63490000  1.0 -0.0299593616
C  C197  1  0.36510000  0.23540000  0.41970000  1.0 -0.0299593616
C  C198  1  0.76460000  0.63490000  0.58030000  1.0 -0.0299593616
C  C199  1  0.23540000  0.81570000  0.87030000  1.0 -0.0299593616
C  C200  1  0.05460000  0.18430000  0.41970000  1.0 -0.0299593616
C  C201  1  0.94540000  0.36510000  0.12970000  1.0 -0.0299593616
C  C202  1  0.63490000  0.05460000  0.87030000  1.0 -0.0299593616
C  C203  1  0.81570000  0.94540000  0.58030000  1.0 -0.0299593616
C  C204  1  0.18430000  0.76460000  0.12970000  1.0 -0.0299593616
C  C205  1  0.58030000  0.63490000  0.76460000  1.0 -0.0299593616
C  C206  1  0.63490000  0.87030000  0.05460000  1.0 -0.0299593616
C  C207  1  0.87030000  0.81570000  0.23540000  1.0 -0.0299593616
C  C208  1  0.81570000  0.58030000  0.94540000  1.0 -0.0299593616
C  C209  1  0.41970000  0.18430000  0.05460000  1.0 -0.0299593616
C  C210  1  0.18430000  0.12970000  0.76460000  1.0 -0.0299593616
C  C211  1  0.12970000  0.36510000  0.94540000  1.0 -0.0299593616
C  C212  1  0.36510000  0.41970000  0.23540000  1.0 -0.0299593616
C  C213  1  0.76460000  0.58030000  0.63490000  1.0 -0.0299593616
C  C214  1  0.58030000  0.94540000  0.81570000  1.0 -0.0299593616
C  C215  1  0.94540000  0.12970000  0.36510000  1.0 -0.0299593616
C  C216  1  0.12970000  0.76460000  0.18430000  1.0 -0.0299593616
C  C217  1  0.23540000  0.87030000  0.81570000  1.0 -0.0299593616
C  C218  1  0.87030000  0.05460000  0.63490000  1.0 -0.0299593616
C  C219  1  0.05460000  0.41970000  0.18430000  1.0 -0.0299593616
C  C220  1  0.41970000  0.23540000  0.36510000  1.0 -0.0299593616
C  C221  1  0.63490000  0.76460000  0.58030000  1.0 -0.0299593616
C  C222  1  0.23540000  0.36510000  0.41970000  1.0 -0.0299593616
C  C223  1  0.76460000  0.18430000  0.12970000  1.0 -0.0299593616
C  C224  1  0.94540000  0.81570000  0.58030000  1.0 -0.0299593616
C  C225  1  0.05460000  0.63490000  0.87030000  1.0 -0.0299593616
C  C226  1  0.36510000  0.94540000  0.12970000  1.0 -0.0299593616
C  C227  1  0.18430000  0.05460000  0.41970000  1.0 -0.0299593616
C  C228  1  0.81570000  0.23540000  0.87030000  1.0 -0.0299593616
C  C229  1  0.36660000  0.36660000  0.22460000  1.0 -0.0846055983
C  C230  1  0.36660000  0.14200000  0.00000000  1.0 -0.0909640238
C  C231  1  0.14200000  0.14200000  0.77540000  1.0 -0.0846055983
C  C232  1  0.14200000  0.36660000  0.00000000  1.0 -0.0909640238
C  C233  1  0.63340000  0.85800000  0.00000000  1.0 -0.0909640238
C  C234  1  0.85800000  0.85800000  0.22460000  1.0 -0.0909640238
C  C235  1  0.85800000  0.63340000  0.00000000  1.0 -0.0909640238
C  C236  1  0.63340000  0.63340000  0.77540000  1.0 -0.0846055983
C  C237  1  0.22460000  0.36660000  0.36660000  1.0 -0.0909640238
C  C238  1  0.36660000  0.00000000  0.14200000  1.0 -0.0909640238
C  C239  1  0.00000000  0.85800000  0.63340000  1.0 -0.0909640238
C  C240  1  0.85800000  0.22460000  0.85800000  1.0 -0.0909640238
C  C241  1  0.77540000  0.14200000  0.14200000  1.0 -0.0909640238
C  C242  1  0.14200000  0.00000000  0.36660000  1.0 -0.0909640238
C  C243  1  0.00000000  0.63340000  0.85800000  1.0 -0.0909640238
C  C244  1  0.63340000  0.77540000  0.63340000  1.0 -0.0909640238
C  C245  1  0.36660000  0.22460000  0.36660000  1.0 -0.0909640238
C  C246  1  0.77540000  0.63340000  0.63340000  1.0 -0.0909640238
C  C247  1  0.22460000  0.85800000  0.85800000  1.0 -0.0909640238
C  C248  1  0.00000000  0.14200000  0.36660000  1.0 -0.0909640238
C  C249  1  0.00000000  0.36660000  0.14200000  1.0 -0.0846055983
C  C250  1  0.63340000  0.00000000  0.85800000  1.0 -0.0909640238
C  C251  1  0.85800000  0.00000000  0.63340000  1.0 -0.0909640238
C  C252  1  0.14200000  0.77540000  0.14200000  1.0 -0.0909640238
C  C253  1  0.42060000  0.30810000  0.22690000  1.0 0.5747324905
C  C254  1  0.30810000  0.08120000  0.88750000  1.0 0.5753203096
C  C255  1  0.08120000  0.19370000  0.77310000  1.0 0.5747324905
C  C256  1  0.19370000  0.42060000  0.11250000  1.0 0.5747324905
C  C257  1  0.57940000  0.80630000  0.88750000  1.0 0.5753203096
C  C258  1  0.80630000  0.91880000  0.22690000  1.0 0.5747324905
C  C259  1  0.91880000  0.69190000  0.11250000  1.0 0.5753203096
C  C260  1  0.69190000  0.57940000  0.77310000  1.0 0.5747324905
C  C261  1  0.22690000  0.42060000  0.30810000  1.0 0.5747324905
C  C262  1  0.42060000  0.11250000  0.19370000  1.0 0.5747324905
C  C263  1  0.11250000  0.91880000  0.69190000  1.0 0.5753203096
C  C264  1  0.91880000  0.22690000  0.80630000  1.0 0.5747324905
C  C265  1  0.77310000  0.08120000  0.19370000  1.0 0.5753203096
C  C266  1  0.08120000  0.88750000  0.30810000  1.0 0.5747324905
C  C267  1  0.88750000  0.57940000  0.80630000  1.0 0.5747324905
C  C268  1  0.57940000  0.77310000  0.69190000  1.0 0.5747324905
C  C269  1  0.30810000  0.22690000  0.42060000  1.0 0.5747324905
C  C270  1  0.77310000  0.69190000  0.57940000  1.0 0.5753203096
C  C271  1  0.22690000  0.80630000  0.91880000  1.0 0.5753203096
C  C272  1  0.11250000  0.19370000  0.42060000  1.0 0.5747324905
C  C273  1  0.88750000  0.30810000  0.08120000  1.0 0.5747324905
C  C274  1  0.69190000  0.11250000  0.91880000  1.0 0.5747324905
C  C275  1  0.80630000  0.88750000  0.57940000  1.0 0.5747324905
C  C276  1  0.19370000  0.77310000  0.08120000  1.0 0.5747324905
C  C277  1  0.57940000  0.69190000  0.77310000  1.0 0.5753203096
C  C278  1  0.69190000  0.91880000  0.11250000  1.0 0.5747324905
C  C279  1  0.91880000  0.80630000  0.22690000  1.0 0.5747324905
C  C280  1  0.80630000  0.57940000  0.88750000  1.0 0.5753203096
C  C281  1  0.42060000  0.19370000  0.11250000  1.0 0.5747324905
C  C282  1  0.19370000  0.08120000  0.77310000  1.0 0.5753203096
C  C283  1  0.08120000  0.30810000  0.88750000  1.0 0.5753203096
C  C284  1  0.30810000  0.42060000  0.22690000  1.0 0.5747324905
C  C285  1  0.77310000  0.57940000  0.69190000  1.0 0.5753203096
C  C286  1  0.57940000  0.88750000  0.80630000  1.0 0.5753203096
C  C287  1  0.88750000  0.08120000  0.30810000  1.0 0.5753203096
C  C288  1  0.08120000  0.77310000  0.19370000  1.0 0.5747324905
C  C289  1  0.22690000  0.91880000  0.80630000  1.0 0.5747324905
C  C290  1  0.91880000  0.11250000  0.69190000  1.0 0.5753203096
C  C291  1  0.11250000  0.42060000  0.19370000  1.0 0.5753203096
C  C292  1  0.42060000  0.22690000  0.30810000  1.0 0.5747324905
C  C293  1  0.69190000  0.77310000  0.57940000  1.0 0.5747324905
C  C294  1  0.22690000  0.30810000  0.42060000  1.0 0.5747324905
C  C295  1  0.77310000  0.19370000  0.08120000  1.0 0.5747324905
C  C296  1  0.88750000  0.80630000  0.57940000  1.0 0.5747324905
C  C297  1  0.11250000  0.69190000  0.91880000  1.0 0.5747324905
C  C298  1  0.30810000  0.88750000  0.08120000  1.0 0.5747324905
C  C299  1  0.19370000  0.11250000  0.42060000  1.0 0.5747324905
C  C300  1  0.80630000  0.22690000  0.91880000  1.0 0.5753203096
N  N1  1  0.71070000  0.71070000  0.42140000  1.0 -0.1967037718
N  N2  1  0.71070000  0.28930000  0.00000000  1.0 -0.1967037718
N  N3  1  0.28930000  0.28930000  0.57860000  1.0 -0.1967037718
N  N4  1  0.28930000  0.71070000  0.00000000  1.0 -0.1967037718
N  N5  1  0.42140000  0.71070000  0.71070000  1.0 -0.1967037718
N  N6  1  0.71070000  0.00000000  0.28930000  1.0 -0.1967037718
N  N7  1  0.00000000  0.71070000  0.28930000  1.0 -0.1967037718
N  N8  1  0.71070000  0.42140000  0.71070000  1.0 -0.1967037718
N  N9  1  0.57860000  0.28930000  0.28930000  1.0 -0.1967037718
N  N10  1  0.28930000  0.00000000  0.71070000  1.0 -0.1967037718
N  N11  1  0.00000000  0.28930000  0.71070000  1.0 -0.1967037718
N  N12  1  0.28930000  0.57860000  0.28930000  1.0 -0.1967037718
O  O1  1  0.36995000  0.26007000  0.19800000  1.0 -0.5136739724
O  O2  1  0.26007000  0.06207000  0.89012000  1.0 -0.5136739724
O  O3  1  0.06207000  0.17195000  0.80200000  1.0 -0.5136739724
O  O4  1  0.17195000  0.36995000  0.10988000  1.0 -0.5136739724
O  O5  1  0.63005000  0.82805000  0.89012000  1.0 -0.5136739724
O  O6  1  0.82805000  0.93793000  0.19800000  1.0 -0.5136739724
O  O7  1  0.93793000  0.73993000  0.10988000  1.0 -0.5136739724
O  O8  1  0.73993000  0.63005000  0.80200000  1.0 -0.5136739724
O  O9  1  0.19800000  0.36995000  0.26007000  1.0 -0.5136739724
O  O10  1  0.36995000  0.10988000  0.17195000  1.0 -0.5136739724
O  O11  1  0.10988000  0.93793000  0.73993000  1.0 -0.5136739724
O  O12  1  0.93793000  0.19800000  0.82805000  1.0 -0.5136739724
O  O13  1  0.80200000  0.06207000  0.17195000  1.0 -0.5136739724
O  O14  1  0.06207000  0.89012000  0.26007000  1.0 -0.5136739724
O  O15  1  0.89012000  0.63005000  0.82805000  1.0 -0.5136739724
O  O16  1  0.63005000  0.80200000  0.73993000  1.0 -0.5136739724
O  O17  1  0.26007000  0.19800000  0.36995000  1.0 -0.5136739724
O  O18  1  0.80200000  0.73993000  0.63005000  1.0 -0.5136739724
O  O19  1  0.19800000  0.82805000  0.93793000  1.0 -0.5136739724
O  O20  1  0.10988000  0.17195000  0.36995000  1.0 -0.5136739724
O  O21  1  0.89012000  0.26007000  0.06207000  1.0 -0.5136739724
O  O22  1  0.73993000  0.10988000  0.93793000  1.0 -0.5136739724
O  O23  1  0.82805000  0.89012000  0.63005000  1.0 -0.5136739724
O  O24  1  0.17195000  0.80200000  0.06207000  1.0 -0.5136739724
O  O25  1  0.63005000  0.73993000  0.80200000  1.0 -0.5136739724
O  O26  1  0.73993000  0.93793000  0.10988000  1.0 -0.5136739724
O  O27  1  0.93793000  0.82805000  0.19800000  1.0 -0.5136739724
O  O28  1  0.82805000  0.63005000  0.89012000  1.0 -0.5136739724
O  O29  1  0.36995000  0.17195000  0.10988000  1.0 -0.5136739724
O  O30  1  0.17195000  0.06207000  0.80200000  1.0 -0.5136739724
O  O31  1  0.06207000  0.26007000  0.89012000  1.0 -0.5136739724
O  O32  1  0.26007000  0.36995000  0.19800000  1.0 -0.5136739724
O  O33  1  0.80200000  0.63005000  0.73993000  1.0 -0.5136739724
O  O34  1  0.63005000  0.89012000  0.82805000  1.0 -0.5136739724
O  O35  1  0.89012000  0.06207000  0.26007000  1.0 -0.5136739724
O  O36  1  0.06207000  0.80200000  0.17195000  1.0 -0.5136739724
O  O37  1  0.19800000  0.93793000  0.82805000  1.0 -0.5136739724
O  O38  1  0.93793000  0.10988000  0.73993000  1.0 -0.5136739724
O  O39  1  0.10988000  0.36995000  0.17195000  1.0 -0.5136739724
O  O40  1  0.36995000  0.19800000  0.26007000  1.0 -0.5136739724
O  O41  1  0.73993000  0.80200000  0.63005000  1.0 -0.5136739724
O  O42  1  0.19800000  0.26007000  0.36995000  1.0 -0.5136739724
O  O43  1  0.80200000  0.17195000  0.06207000  1.0 -0.5136739724
O  O44  1  0.89012000  0.82805000  0.63005000  1.0 -0.5136739724
O  O45  1  0.10988000  0.73993000  0.93793000  1.0 -0.5136739724
O  O46  1  0.26007000  0.89012000  0.06207000  1.0 -0.5136739724
O  O47  1  0.17195000  0.10988000  0.36995000  1.0 -0.5136739724
O  O48  1  0.82805000  0.19800000  0.93793000  1.0 -0.5136739724
O  O49  1  0.47225000  0.31206000  0.24893000  1.0 -0.5159935629
O  O50  1  0.31206000  0.06313000  0.83981000  1.0 -0.5159935629
O  O51  1  0.06313000  0.22332000  0.75107000  1.0 -0.5159935629
O  O52  1  0.22332000  0.47225000  0.16019000  1.0 -0.5159935629
O  O53  1  0.52775000  0.77668000  0.83981000  1.0 -0.5159935629
O  O54  1  0.77668000  0.93687000  0.24893000  1.0 -0.5159935629
O  O55  1  0.93687000  0.68794000  0.16019000  1.0 -0.5159935629
O  O56  1  0.68794000  0.52775000  0.75107000  1.0 -0.5159935629
O  O57  1  0.24893000  0.47225000  0.31206000  1.0 -0.5159935629
O  O58  1  0.47225000  0.16019000  0.22332000  1.0 -0.5159935629
O  O59  1  0.16019000  0.93687000  0.68794000  1.0 -0.5159935629
O  O60  1  0.93687000  0.24893000  0.77668000  1.0 -0.5159935629
O  O61  1  0.75107000  0.06313000  0.22332000  1.0 -0.5159935629
O  O62  1  0.06313000  0.83981000  0.31206000  1.0 -0.5159935629
O  O63  1  0.83981000  0.52775000  0.77668000  1.0 -0.5159935629
O  O64  1  0.52775000  0.75107000  0.68794000  1.0 -0.5159935629
O  O65  1  0.31206000  0.24893000  0.47225000  1.0 -0.5159935629
O  O66  1  0.75107000  0.68794000  0.52775000  1.0 -0.5159935629
O  O67  1  0.24893000  0.77668000  0.93687000  1.0 -0.5159935629
O  O68  1  0.16019000  0.22332000  0.47225000  1.0 -0.5159935629
O  O69  1  0.83981000  0.31206000  0.06313000  1.0 -0.5159935629
O  O70  1  0.68794000  0.16019000  0.93687000  1.0 -0.5159935629
O  O71  1  0.77668000  0.83981000  0.52775000  1.0 -0.5159935629
O  O72  1  0.22332000  0.75107000  0.06313000  1.0 -0.5159935629
O  O73  1  0.52775000  0.68794000  0.75107000  1.0 -0.5159935629
O  O74  1  0.68794000  0.93687000  0.16019000  1.0 -0.5159935629
O  O75  1  0.93687000  0.77668000  0.24893000  1.0 -0.5159935629
O  O76  1  0.77668000  0.52775000  0.83981000  1.0 -0.5159935629
O  O77  1  0.47225000  0.22332000  0.16019000  1.0 -0.5159935629
O  O78  1  0.22332000  0.06313000  0.75107000  1.0 -0.5159935629
O  O79  1  0.06313000  0.31206000  0.83981000  1.0 -0.5159935629
O  O80  1  0.31206000  0.47225000  0.24893000  1.0 -0.5159935629
O  O81  1  0.75107000  0.52775000  0.68794000  1.0 -0.5159935629
O  O82  1  0.52775000  0.83981000  0.77668000  1.0 -0.5159935629
O  O83  1  0.83981000  0.06313000  0.31206000  1.0 -0.5159935629
O  O84  1  0.06313000  0.75107000  0.22332000  1.0 -0.5159935629
O  O85  1  0.24893000  0.93687000  0.77668000  1.0 -0.5159935629
O  O86  1  0.93687000  0.16019000  0.68794000  1.0 -0.5159935629
O  O87  1  0.16019000  0.47225000  0.22332000  1.0 -0.5159935629
O  O88  1  0.47225000  0.24893000  0.31206000  1.0 -0.5159935629
O  O89  1  0.68794000  0.75107000  0.52775000  1.0 -0.5159935629
O  O90  1  0.24893000  0.31206000  0.47225000  1.0 -0.5159935629
O  O91  1  0.75107000  0.22332000  0.06313000  1.0 -0.5159935629
O  O92  1  0.83981000  0.77668000  0.52775000  1.0 -0.5159935629
O  O93  1  0.16019000  0.68794000  0.93687000  1.0 -0.5159935629
O  O94  1  0.31206000  0.83981000  0.06313000  1.0 -0.5159935629
O  O95  1  0.22332000  0.16019000  0.47225000  1.0 -0.5159935629
O  O96  1  0.77668000  0.24893000  0.93687000  1.0 -0.5159935629
