# DDEC6 charges by PACMAN v1.1 (https://github.com/mtap-research/PACMAN-charge/)
data_ELEROE_ASR_pacman
_symmetry_space_group_name_H-M   'P 1'
_cell_length_a   26.33830000
_cell_length_b   26.33830000
_cell_length_c   26.33830000
_cell_angle_alpha   109.47100000
_cell_angle_beta   109.47100000
_cell_angle_gamma   109.47100000
_symmetry_Int_Tables_number   1
_chemical_formula_structural   Cu2H12C28(NO4)3
_chemical_formula_sum   'Cu24 H144 C336 N36 O144'
_cell_volume   14065.16648393
_cell_formula_units_Z   12
loop_
 _symmetry_equiv_pos_site_id
 _symmetry_equiv_pos_as_xyz
  1  'x, y, z'
loop_
 _atom_site_type_symbol
 _atom_site_label
 _atom_site_symmetry_multiplicity
 _atom_site_fract_x
 _atom_site_fract_y
 _atom_site_fract_z
 _atom_site_occupancy
 _atom_site_charge
Cu  Cu1  1  0.36732000  0.18366000  0.18366000  1.0 0.877989902
Cu  Cu2  1  0.00000000  0.18366000  0.81634000  1.0 0.877989902
Cu  Cu3  1  0.00000000  0.81634000  0.18366000  1.0 0.877989902
Cu  Cu4  1  0.63268000  0.81634000  0.81634000  1.0 0.877989902
Cu  Cu5  1  0.18366000  0.36732000  0.18366000  1.0 0.877989902
Cu  Cu6  1  0.81634000  0.00000000  0.18366000  1.0 0.877989902
Cu  Cu7  1  0.18366000  0.00000000  0.81634000  1.0 0.877989902
Cu  Cu8  1  0.81634000  0.63268000  0.81634000  1.0 0.877989902
Cu  Cu9  1  0.18366000  0.18366000  0.36732000  1.0 0.877989902
Cu  Cu10  1  0.18366000  0.81634000  0.00000000  1.0 0.877989902
Cu  Cu11  1  0.81634000  0.18366000  0.00000000  1.0 0.877989902
Cu  Cu12  1  0.81634000  0.81634000  0.63268000  1.0 0.877989902
Cu  Cu13  1  0.49032000  0.24516000  0.24516000  1.0 0.7942439654
Cu  Cu14  1  0.00000000  0.24516000  0.75484000  1.0 0.7942439654
Cu  Cu15  1  0.00000000  0.75484000  0.24516000  1.0 0.7942439654
Cu  Cu16  1  0.50968000  0.75484000  0.75484000  1.0 0.7942439654
Cu  Cu17  1  0.24516000  0.49032000  0.24516000  1.0 0.7942439654
Cu  Cu18  1  0.75484000  0.00000000  0.24516000  1.0 0.7942439654
Cu  Cu19  1  0.24516000  0.00000000  0.75484000  1.0 0.7942439654
Cu  Cu20  1  0.75484000  0.50968000  0.75484000  1.0 0.7942439654
Cu  Cu21  1  0.24516000  0.24516000  0.49032000  1.0 0.7942439654
Cu  Cu22  1  0.24516000  0.75484000  0.00000000  1.0 0.7942439654
Cu  Cu23  1  0.75484000  0.24516000  0.00000000  1.0 0.7942439654
Cu  Cu24  1  0.75484000  0.75484000  0.50968000  1.0 0.7942439654
H  H1  1  0.65360000  0.44230000  0.44230000  1.0 0.2362114373
H  H2  1  0.00000000  0.21130000  0.55770000  1.0 0.2362114373
H  H3  1  0.00000000  0.55770000  0.21130000  1.0 0.2362114373
H  H4  1  0.34640000  0.78870000  0.78870000  1.0 0.2362114373
H  H5  1  0.44230000  0.65360000  0.44230000  1.0 0.2362114373
H  H6  1  0.55770000  0.00000000  0.21130000  1.0 0.2362114373
H  H7  1  0.21130000  0.00000000  0.55770000  1.0 0.2362114373
H  H8  1  0.78870000  0.34640000  0.78870000  1.0 0.2362114373
H  H9  1  0.44230000  0.44230000  0.65360000  1.0 0.2362114373
H  H10  1  0.21130000  0.55770000  0.00000000  1.0 0.2362114373
H  H11  1  0.55770000  0.21130000  0.00000000  1.0 0.2362114373
H  H12  1  0.78870000  0.78870000  0.34640000  1.0 0.2362114373
H  H13  1  0.78870000  0.00000000  0.44230000  1.0 0.2362114373
H  H14  1  0.55770000  0.34640000  0.55770000  1.0 0.2362114373
H  H15  1  0.21130000  0.65360000  0.21130000  1.0 0.2362114373
H  H16  1  0.44230000  0.00000000  0.78870000  1.0 0.2362114373
H  H17  1  0.00000000  0.78870000  0.44230000  1.0 0.2362114373
H  H18  1  0.65360000  0.21130000  0.21130000  1.0 0.2362114373
H  H19  1  0.34640000  0.55770000  0.55770000  1.0 0.2362114373
H  H20  1  0.00000000  0.44230000  0.78870000  1.0 0.2362114373
H  H21  1  0.21130000  0.21130000  0.65360000  1.0 0.2362114373
H  H22  1  0.78870000  0.44230000  0.00000000  1.0 0.2362114373
H  H23  1  0.44230000  0.78870000  0.00000000  1.0 0.2362114373
H  H24  1  0.55770000  0.55770000  0.34640000  1.0 0.2362114373
H  H25  1  0.59980000  0.36490000  0.36490000  1.0 0.100345228
H  H26  1  0.00000000  0.23490000  0.63510000  1.0 0.100345228
H  H27  1  0.00000000  0.63510000  0.23490000  1.0 0.100345228
H  H28  1  0.40020000  0.76510000  0.76510000  1.0 0.100345228
H  H29  1  0.36490000  0.59980000  0.36490000  1.0 0.100345228
H  H30  1  0.63510000  0.00000000  0.23490000  1.0 0.100345228
H  H31  1  0.23490000  0.00000000  0.63510000  1.0 0.100345228
H  H32  1  0.76510000  0.40020000  0.76510000  1.0 0.100345228
H  H33  1  0.36490000  0.36490000  0.59980000  1.0 0.100345228
H  H34  1  0.23490000  0.63510000  0.00000000  1.0 0.100345228
H  H35  1  0.63510000  0.23490000  0.00000000  1.0 0.100345228
H  H36  1  0.76510000  0.76510000  0.40020000  1.0 0.100345228
H  H37  1  0.76510000  0.00000000  0.36490000  1.0 0.100345228
H  H38  1  0.63510000  0.40020000  0.63510000  1.0 0.100345228
H  H39  1  0.23490000  0.59980000  0.23490000  1.0 0.100345228
H  H40  1  0.36490000  0.00000000  0.76510000  1.0 0.100345228
H  H41  1  0.00000000  0.76510000  0.36490000  1.0 0.100345228
H  H42  1  0.59980000  0.23490000  0.23490000  1.0 0.100345228
H  H43  1  0.40020000  0.63510000  0.63510000  1.0 0.100345228
H  H44  1  0.00000000  0.36490000  0.76510000  1.0 0.100345228
H  H45  1  0.23490000  0.23490000  0.59980000  1.0 0.100345228
H  H46  1  0.76510000  0.36490000  0.00000000  1.0 0.100345228
H  H47  1  0.36490000  0.76510000  0.00000000  1.0 0.100345228
H  H48  1  0.63510000  0.63510000  0.40020000  1.0 0.100345228
H  H49  1  0.74630000  0.35730000  0.38900000  1.0 0.107052954
H  H50  1  0.96830000  0.35730000  0.61100000  1.0 0.107052954
H  H51  1  0.03170000  0.64270000  0.38900000  1.0 0.107052954
H  H52  1  0.25370000  0.64270000  0.61100000  1.0 0.107052954
H  H53  1  0.38900000  0.74630000  0.35730000  1.0 0.107052954
H  H54  1  0.61100000  0.96830000  0.35730000  1.0 0.107052954
H  H55  1  0.38900000  0.03170000  0.64270000  1.0 0.107052954
H  H56  1  0.61100000  0.25370000  0.64270000  1.0 0.107052954
H  H57  1  0.35730000  0.38900000  0.74630000  1.0 0.107052954
H  H58  1  0.35730000  0.61100000  0.96830000  1.0 0.107052954
H  H59  1  0.64270000  0.38900000  0.03170000  1.0 0.107052954
H  H60  1  0.64270000  0.61100000  0.25370000  1.0 0.107052954
H  H61  1  0.64270000  0.03170000  0.38900000  1.0 0.107052954
H  H62  1  0.64270000  0.25370000  0.61100000  1.0 0.107052954
H  H63  1  0.35730000  0.74630000  0.38900000  1.0 0.107052954
H  H64  1  0.35730000  0.96830000  0.61100000  1.0 0.107052954
H  H65  1  0.96830000  0.61100000  0.35730000  1.0 0.107052954
H  H66  1  0.74630000  0.38900000  0.35730000  1.0 0.107052954
H  H67  1  0.25370000  0.61100000  0.64270000  1.0 0.107052954
H  H68  1  0.03170000  0.38900000  0.64270000  1.0 0.107052954
H  H69  1  0.38900000  0.35730000  0.74630000  1.0 0.107052954
H  H70  1  0.61100000  0.35730000  0.96830000  1.0 0.107052954
H  H71  1  0.38900000  0.64270000  0.03170000  1.0 0.107052954
H  H72  1  0.61100000  0.64270000  0.25370000  1.0 0.107052954
H  H73  1  0.78320000  0.66290000  0.66290000  1.0 0.144853417
H  H74  1  0.00000000  0.12030000  0.33710000  1.0 0.144853417
H  H75  1  0.00000000  0.33710000  0.12030000  1.0 0.144853417
H  H76  1  0.21680000  0.87970000  0.87970000  1.0 0.144853417
H  H77  1  0.66290000  0.78320000  0.66290000  1.0 0.144853417
H  H78  1  0.33710000  0.00000000  0.12030000  1.0 0.144853417
H  H79  1  0.12030000  0.00000000  0.33710000  1.0 0.144853417
H  H80  1  0.87970000  0.21680000  0.87970000  1.0 0.144853417
H  H81  1  0.66290000  0.66290000  0.78320000  1.0 0.144853417
H  H82  1  0.12030000  0.33710000  0.00000000  1.0 0.144853417
H  H83  1  0.33710000  0.12030000  0.00000000  1.0 0.144853417
H  H84  1  0.87970000  0.87970000  0.21680000  1.0 0.144853417
H  H85  1  0.87970000  0.00000000  0.66290000  1.0 0.144853417
H  H86  1  0.33710000  0.21680000  0.33710000  1.0 0.144853417
H  H87  1  0.12030000  0.78320000  0.12030000  1.0 0.144853417
H  H88  1  0.66290000  0.00000000  0.87970000  1.0 0.144853417
H  H89  1  0.00000000  0.87970000  0.66290000  1.0 0.144853417
H  H90  1  0.78320000  0.12030000  0.12030000  1.0 0.144853417
H  H91  1  0.21680000  0.33710000  0.33710000  1.0 0.144853417
H  H92  1  0.00000000  0.66290000  0.87970000  1.0 0.144853417
H  H93  1  0.12030000  0.12030000  0.78320000  1.0 0.144853417
H  H94  1  0.87970000  0.66290000  0.00000000  1.0 0.144853417
H  H95  1  0.66290000  0.87970000  0.00000000  1.0 0.144853417
H  H96  1  0.33710000  0.33710000  0.21680000  1.0 0.144853417
H  H97  1  0.72250000  0.57300000  0.48010000  1.0 0.1482132619
H  H98  1  0.09290000  0.24240000  0.51990000  1.0 0.1482132619
H  H99  1  0.90710000  0.42700000  0.14950000  1.0 0.1482132619
H  H100  1  0.27750000  0.75760000  0.85050000  1.0 0.1482132619
H  H101  1  0.48010000  0.72250000  0.57300000  1.0 0.1482132619
H  H102  1  0.51990000  0.09290000  0.24240000  1.0 0.1482132619
H  H103  1  0.14950000  0.90710000  0.42700000  1.0 0.1482132619
H  H104  1  0.85050000  0.27750000  0.75760000  1.0 0.1482132619
H  H105  1  0.57300000  0.48010000  0.72250000  1.0 0.1482132619
H  H106  1  0.24240000  0.51990000  0.09290000  1.0 0.1482132619
H  H107  1  0.42700000  0.14950000  0.90710000  1.0 0.1482132619
H  H108  1  0.75760000  0.85050000  0.27750000  1.0 0.1482132619
H  H109  1  0.75760000  0.90710000  0.48010000  1.0 0.1482132619
H  H110  1  0.42700000  0.27750000  0.51990000  1.0 0.1482132619
H  H111  1  0.24240000  0.72250000  0.14950000  1.0 0.1482132619
H  H112  1  0.57300000  0.09290000  0.85050000  1.0 0.1482132619
H  H113  1  0.09290000  0.85050000  0.57300000  1.0 0.1482132619
H  H114  1  0.72250000  0.14950000  0.24240000  1.0 0.1482132619
H  H115  1  0.27750000  0.51990000  0.42700000  1.0 0.1482132619
H  H116  1  0.90710000  0.48010000  0.75760000  1.0 0.1482132619
H  H117  1  0.14950000  0.24240000  0.72250000  1.0 0.1482132619
H  H118  1  0.85050000  0.57300000  0.09290000  1.0 0.1482132619
H  H119  1  0.48010000  0.75760000  0.90710000  1.0 0.1482132619
H  H120  1  0.51990000  0.42700000  0.27750000  1.0 0.1482132619
H  H121  1  0.27750000  0.42700000  0.51990000  1.0 0.1482132619
H  H122  1  0.90710000  0.75760000  0.48010000  1.0 0.1482132619
H  H123  1  0.09290000  0.57300000  0.85050000  1.0 0.1482132619
H  H124  1  0.72250000  0.24240000  0.14950000  1.0 0.1482132619
H  H125  1  0.51990000  0.27750000  0.42700000  1.0 0.1482132619
H  H126  1  0.48010000  0.90710000  0.75760000  1.0 0.1482132619
H  H127  1  0.85050000  0.09290000  0.57300000  1.0 0.1482132619
H  H128  1  0.14950000  0.72250000  0.24240000  1.0 0.1482132619
H  H129  1  0.42700000  0.51990000  0.27750000  1.0 0.1482132619
H  H130  1  0.75760000  0.48010000  0.90710000  1.0 0.1482132619
H  H131  1  0.57300000  0.85050000  0.09290000  1.0 0.1482132619
H  H132  1  0.24240000  0.14950000  0.72250000  1.0 0.1482132619
H  H133  1  0.24240000  0.09290000  0.51990000  1.0 0.1482132619
H  H134  1  0.57300000  0.72250000  0.48010000  1.0 0.1482132619
H  H135  1  0.75760000  0.27750000  0.85050000  1.0 0.1482132619
H  H136  1  0.42700000  0.90710000  0.14950000  1.0 0.1482132619
H  H137  1  0.90710000  0.14950000  0.42700000  1.0 0.1482132619
H  H138  1  0.27750000  0.85050000  0.75760000  1.0 0.1482132619
H  H139  1  0.72250000  0.48010000  0.57300000  1.0 0.1482132619
H  H140  1  0.09290000  0.51990000  0.24240000  1.0 0.1482132619
H  H141  1  0.85050000  0.75760000  0.27750000  1.0 0.1482132619
H  H142  1  0.14950000  0.42700000  0.90710000  1.0 0.1482132619
H  H143  1  0.51990000  0.24240000  0.09290000  1.0 0.1482132619
H  H144  1  0.48010000  0.57300000  0.72250000  1.0 0.1482132619
C  C1  1  0.61880000  0.34640000  0.34640000  1.0 0.0639454935
C  C2  1  0.00000000  0.27240000  0.65360000  1.0 0.0639454935
C  C3  1  0.00000000  0.65360000  0.27240000  1.0 0.0639454935
C  C4  1  0.38120000  0.72760000  0.72760000  1.0 0.0639454935
C  C5  1  0.34640000  0.61880000  0.34640000  1.0 0.0639454935
C  C6  1  0.65360000  0.00000000  0.27240000  1.0 0.0639454935
C  C7  1  0.27240000  0.00000000  0.65360000  1.0 0.0639454935
C  C8  1  0.72760000  0.38120000  0.72760000  1.0 0.0639454935
C  C9  1  0.34640000  0.34640000  0.61880000  1.0 0.0639454935
C  C10  1  0.27240000  0.65360000  0.00000000  1.0 0.0639454935
C  C11  1  0.65360000  0.27240000  0.00000000  1.0 0.0639454935
C  C12  1  0.72760000  0.72760000  0.38120000  1.0 0.0639454935
C  C13  1  0.72760000  0.00000000  0.34640000  1.0 0.0639454935
C  C14  1  0.65360000  0.38120000  0.65360000  1.0 0.0639454935
C  C15  1  0.27240000  0.61880000  0.27240000  1.0 0.0639454935
C  C16  1  0.34640000  0.00000000  0.72760000  1.0 0.0639454935
C  C17  1  0.00000000  0.72760000  0.34640000  1.0 0.0639454935
C  C18  1  0.61880000  0.27240000  0.27240000  1.0 0.0639454935
C  C19  1  0.38120000  0.65360000  0.65360000  1.0 0.0639454935
C  C20  1  0.00000000  0.34640000  0.72760000  1.0 0.0639454935
C  C21  1  0.27240000  0.27240000  0.61880000  1.0 0.0639454935
C  C22  1  0.72760000  0.34640000  0.00000000  1.0 0.0639454935
C  C23  1  0.34640000  0.72760000  0.00000000  1.0 0.0639454935
C  C24  1  0.65360000  0.65360000  0.38120000  1.0 0.0639454935
C  C25  1  0.68240000  0.36940000  0.39220000  1.0 -0.0100040665
C  C26  1  0.97720000  0.29020000  0.60780000  1.0 -0.0100040665
C  C27  1  0.02280000  0.63060000  0.31300000  1.0 -0.0100040665
C  C28  1  0.31760000  0.70980000  0.68700000  1.0 -0.0100040665
C  C29  1  0.39220000  0.68240000  0.36940000  1.0 -0.0100040665
C  C30  1  0.60780000  0.97720000  0.29020000  1.0 -0.0100040665
C  C31  1  0.31300000  0.02280000  0.63060000  1.0 -0.0100040665
C  C32  1  0.68700000  0.31760000  0.70980000  1.0 -0.0100040665
C  C33  1  0.36940000  0.39220000  0.68240000  1.0 -0.0100040665
C  C34  1  0.29020000  0.60780000  0.97720000  1.0 -0.0100040665
C  C35  1  0.63060000  0.31300000  0.02280000  1.0 -0.0100040665
C  C36  1  0.70980000  0.68700000  0.31760000  1.0 -0.0100040665
C  C37  1  0.70980000  0.02280000  0.39220000  1.0 -0.0100040665
C  C38  1  0.63060000  0.31760000  0.60780000  1.0 -0.0100040665
C  C39  1  0.29020000  0.68240000  0.31300000  1.0 -0.0100040665
C  C40  1  0.36940000  0.97720000  0.68700000  1.0 -0.0100040665
C  C41  1  0.97720000  0.68700000  0.36940000  1.0 -0.0100040665
C  C42  1  0.68240000  0.31300000  0.29020000  1.0 -0.0100040665
C  C43  1  0.31760000  0.60780000  0.63060000  1.0 -0.0100040665
C  C44  1  0.02280000  0.39220000  0.70980000  1.0 -0.0100040665
C  C45  1  0.31300000  0.29020000  0.68240000  1.0 -0.0100040665
C  C46  1  0.68700000  0.36940000  0.97720000  1.0 -0.0100040665
C  C47  1  0.39220000  0.70980000  0.02280000  1.0 -0.0100040665
C  C48  1  0.60780000  0.63060000  0.31760000  1.0 -0.0100040665
C  C49  1  0.31760000  0.63060000  0.60780000  1.0 -0.0100040665
C  C50  1  0.02280000  0.70980000  0.39220000  1.0 -0.0100040665
C  C51  1  0.97720000  0.36940000  0.68700000  1.0 -0.0044055135
C  C52  1  0.68240000  0.29020000  0.31300000  1.0 -0.0100040665
C  C53  1  0.60780000  0.31760000  0.63060000  1.0 -0.0100040665
C  C54  1  0.39220000  0.02280000  0.70980000  1.0 -0.0100040665
C  C55  1  0.68700000  0.97720000  0.36940000  1.0 -0.0100040665
C  C56  1  0.31300000  0.68240000  0.29020000  1.0 -0.0100040665
C  C57  1  0.63060000  0.60780000  0.31760000  1.0 -0.0100040665
C  C58  1  0.70980000  0.39220000  0.02280000  1.0 -0.0100040665
C  C59  1  0.36940000  0.68700000  0.97720000  1.0 -0.0100040665
C  C60  1  0.29020000  0.31300000  0.68240000  1.0 -0.0100040665
C  C61  1  0.29020000  0.97720000  0.60780000  1.0 -0.0100040665
C  C62  1  0.36940000  0.68240000  0.39220000  1.0 -0.0100040665
C  C63  1  0.70980000  0.31760000  0.68700000  1.0 -0.0100040665
C  C64  1  0.63060000  0.02280000  0.31300000  1.0 -0.0100040665
C  C65  1  0.02280000  0.31300000  0.63060000  1.0 -0.0100040665
C  C66  1  0.31760000  0.68700000  0.70980000  1.0 -0.0100040665
C  C67  1  0.68240000  0.39220000  0.36940000  1.0 -0.0100040665
C  C68  1  0.97720000  0.60780000  0.29020000  1.0 -0.0100040665
C  C69  1  0.68700000  0.70980000  0.31760000  1.0 -0.0100040665
C  C70  1  0.31300000  0.63060000  0.02280000  1.0 -0.0100040665
C  C71  1  0.60780000  0.29020000  0.97720000  1.0 -0.0100040665
C  C72  1  0.39220000  0.36940000  0.68240000  1.0 -0.0100040665
C  C73  1  0.76800000  0.68600000  0.57120000  1.0 0.5763202124
C  C74  1  0.11480000  0.19680000  0.42880000  1.0 0.5763202124
C  C75  1  0.88520000  0.31400000  0.08200000  1.0 0.5763202124
C  C76  1  0.23200000  0.80320000  0.91800000  1.0 0.5763202124
C  C77  1  0.57120000  0.76800000  0.68600000  1.0 0.5763202124
C  C78  1  0.42880000  0.11480000  0.19680000  1.0 0.5763202124
C  C79  1  0.08200000  0.88520000  0.31400000  1.0 0.5763202124
C  C80  1  0.91800000  0.23200000  0.80320000  1.0 0.5763202124
C  C81  1  0.68600000  0.57120000  0.76800000  1.0 0.5763202124
C  C82  1  0.19680000  0.42880000  0.11480000  1.0 0.5763202124
C  C83  1  0.31400000  0.08200000  0.88520000  1.0 0.5763202124
C  C84  1  0.80320000  0.91800000  0.23200000  1.0 0.5763202124
C  C85  1  0.80320000  0.88520000  0.57120000  1.0 0.5763202124
C  C86  1  0.31400000  0.23200000  0.42880000  1.0 0.5763202124
C  C87  1  0.19680000  0.76800000  0.08200000  1.0 0.5763202124
C  C88  1  0.68600000  0.11480000  0.91800000  1.0 0.5763202124
C  C89  1  0.11480000  0.91800000  0.68600000  1.0 0.5763202124
C  C90  1  0.76800000  0.08200000  0.19680000  1.0 0.5763202124
C  C91  1  0.23200000  0.42880000  0.31400000  1.0 0.5763202124
C  C92  1  0.88520000  0.57120000  0.80320000  1.0 0.5763202124
C  C93  1  0.08200000  0.19680000  0.76800000  1.0 0.5763202124
C  C94  1  0.91800000  0.68600000  0.11480000  1.0 0.5763202124
C  C95  1  0.57120000  0.80320000  0.88520000  1.0 0.5763202124
C  C96  1  0.42880000  0.31400000  0.23200000  1.0 0.5763202124
C  C97  1  0.23200000  0.31400000  0.42880000  1.0 0.5763202124
C  C98  1  0.88520000  0.80320000  0.57120000  1.0 0.5763202124
C  C99  1  0.11480000  0.68600000  0.91800000  1.0 0.5763202124
C  C100  1  0.76800000  0.19680000  0.08200000  1.0 0.5763202124
C  C101  1  0.42880000  0.23200000  0.31400000  1.0 0.5763202124
C  C102  1  0.57120000  0.88520000  0.80320000  1.0 0.5763202124
C  C103  1  0.91800000  0.11480000  0.68600000  1.0 0.5763202124
C  C104  1  0.08200000  0.76800000  0.19680000  1.0 0.5763202124
C  C105  1  0.31400000  0.42880000  0.23200000  1.0 0.5763202124
C  C106  1  0.80320000  0.57120000  0.88520000  1.0 0.5763202124
C  C107  1  0.68600000  0.91800000  0.11480000  1.0 0.5763202124
C  C108  1  0.19680000  0.08200000  0.76800000  1.0 0.5763202124
C  C109  1  0.19680000  0.11480000  0.42880000  1.0 0.5763202124
C  C110  1  0.68600000  0.76800000  0.57120000  1.0 0.5763202124
C  C111  1  0.80320000  0.23200000  0.91800000  1.0 0.5763202124
C  C112  1  0.31400000  0.88520000  0.08200000  1.0 0.5763202124
C  C113  1  0.88520000  0.08200000  0.31400000  1.0 0.5763202124
C  C114  1  0.23200000  0.91800000  0.80320000  1.0 0.5763202124
C  C115  1  0.76800000  0.57120000  0.68600000  1.0 0.5763202124
C  C116  1  0.11480000  0.42880000  0.19680000  1.0 0.5763202124
C  C117  1  0.91800000  0.80320000  0.23200000  1.0 0.5763202124
C  C118  1  0.08200000  0.31400000  0.88520000  1.0 0.5763202124
C  C119  1  0.42880000  0.19680000  0.11480000  1.0 0.5763202124
C  C120  1  0.57120000  0.68600000  0.76800000  1.0 0.5763202124
C  C121  1  0.75830000  0.62760000  0.57190000  1.0 -0.0100040665
C  C122  1  0.05570000  0.18640000  0.42810000  1.0 -0.0100040665
C  C123  1  0.94430000  0.37240000  0.13070000  1.0 -0.0100040665
C  C124  1  0.24170000  0.81360000  0.86930000  1.0 -0.0100040665
C  C125  1  0.57190000  0.75830000  0.62760000  1.0 -0.0100040665
C  C126  1  0.42810000  0.05570000  0.18640000  1.0 -0.0100040665
C  C127  1  0.13070000  0.94430000  0.37240000  1.0 -0.0100040665
C  C128  1  0.86930000  0.24170000  0.81360000  1.0 -0.0100040665
C  C129  1  0.62760000  0.57190000  0.75830000  1.0 -0.0100040665
C  C130  1  0.18640000  0.42810000  0.05570000  1.0 -0.0100040665
C  C131  1  0.37240000  0.13070000  0.94430000  1.0 -0.0100040665
C  C132  1  0.81360000  0.86930000  0.24170000  1.0 -0.0100040665
C  C133  1  0.81360000  0.94430000  0.57190000  1.0 -0.0100040665
C  C134  1  0.37240000  0.24170000  0.42810000  1.0 -0.0100040665
C  C135  1  0.18640000  0.75830000  0.13070000  1.0 -0.0100040665
C  C136  1  0.62760000  0.05570000  0.86930000  1.0 -0.0100040665
C  C137  1  0.05570000  0.86930000  0.62760000  1.0 -0.0100040665
C  C138  1  0.75830000  0.13070000  0.18640000  1.0 -0.0100040665
C  C139  1  0.24170000  0.42810000  0.37240000  1.0 -0.0100040665
C  C140  1  0.94430000  0.57190000  0.81360000  1.0 -0.0100040665
C  C141  1  0.13070000  0.18640000  0.75830000  1.0 -0.0100040665
C  C142  1  0.86930000  0.62760000  0.05570000  1.0 -0.0100040665
C  C143  1  0.57190000  0.81360000  0.94430000  1.0 -0.0156909012
C  C144  1  0.42810000  0.37240000  0.24170000  1.0 -0.0100040665
C  C145  1  0.24170000  0.37240000  0.42810000  1.0 -0.0100040665
C  C146  1  0.94430000  0.81360000  0.57190000  1.0 -0.0100040665
C  C147  1  0.05570000  0.62760000  0.86930000  1.0 -0.0100040665
C  C148  1  0.75830000  0.18640000  0.13070000  1.0 -0.0100040665
C  C149  1  0.42810000  0.24170000  0.37240000  1.0 -0.0100040665
C  C150  1  0.57190000  0.94430000  0.81360000  1.0 -0.0100040665
C  C151  1  0.86930000  0.05570000  0.62760000  1.0 -0.0100040665
C  C152  1  0.13070000  0.75830000  0.18640000  1.0 -0.0156909012
C  C153  1  0.37240000  0.42810000  0.24170000  1.0 -0.0100040665
C  C154  1  0.81360000  0.57190000  0.94430000  1.0 -0.0100040665
C  C155  1  0.62760000  0.86930000  0.05570000  1.0 -0.0100040665
C  C156  1  0.18640000  0.13070000  0.75830000  1.0 -0.0100040665
C  C157  1  0.18640000  0.05570000  0.42810000  1.0 -0.0100040665
C  C158  1  0.62760000  0.75830000  0.57190000  1.0 -0.0100040665
C  C159  1  0.81360000  0.24170000  0.86930000  1.0 -0.0100040665
C  C160  1  0.37240000  0.94430000  0.13070000  1.0 -0.0100040665
C  C161  1  0.94430000  0.13070000  0.37240000  1.0 -0.0100040665
C  C162  1  0.24170000  0.86930000  0.81360000  1.0 -0.0100040665
C  C163  1  0.75830000  0.57190000  0.62760000  1.0 -0.0100040665
C  C164  1  0.05570000  0.42810000  0.18640000  1.0 -0.0100040665
C  C165  1  0.86930000  0.81360000  0.24170000  1.0 -0.0156909012
C  C166  1  0.13070000  0.37240000  0.94430000  1.0 -0.0100040665
C  C167  1  0.42810000  0.18640000  0.05570000  1.0 -0.0100040665
C  C168  1  0.57190000  0.62760000  0.75830000  1.0 -0.0100040665
C  C169  1  0.76900000  0.62690000  0.62690000  1.0 -0.0976234437
C  C170  1  0.00000000  0.14210000  0.37310000  1.0 -0.0976234437
C  C171  1  0.00000000  0.37310000  0.14210000  1.0 -0.0976234437
C  C172  1  0.23100000  0.85790000  0.85790000  1.0 -0.0976234437
C  C173  1  0.62690000  0.76900000  0.62690000  1.0 -0.0976234437
C  C174  1  0.37310000  0.00000000  0.14210000  1.0 -0.0976234437
C  C175  1  0.14210000  0.00000000  0.37310000  1.0 -0.0976234437
C  C176  1  0.85790000  0.23100000  0.85790000  1.0 -0.0976234437
C  C177  1  0.62690000  0.62690000  0.76900000  1.0 -0.0976234437
C  C178  1  0.14210000  0.37310000  0.00000000  1.0 -0.0976234437
C  C179  1  0.37310000  0.14210000  0.00000000  1.0 -0.0976234437
C  C180  1  0.85790000  0.85790000  0.23100000  1.0 -0.0976234437
C  C181  1  0.85790000  0.00000000  0.62690000  1.0 -0.0976234437
C  C182  1  0.37310000  0.23100000  0.37310000  1.0 -0.0976234437
C  C183  1  0.14210000  0.76900000  0.14210000  1.0 -0.0976234437
C  C184  1  0.62690000  0.00000000  0.85790000  1.0 -0.0976234437
C  C185  1  0.00000000  0.85790000  0.62690000  1.0 -0.0976234437
C  C186  1  0.76900000  0.14210000  0.14210000  1.0 -0.0976234437
C  C187  1  0.23100000  0.37310000  0.37310000  1.0 -0.0976234437
C  C188  1  0.00000000  0.62690000  0.85790000  1.0 -0.0976234437
C  C189  1  0.14210000  0.14210000  0.76900000  1.0 -0.0976234437
C  C190  1  0.85790000  0.62690000  0.00000000  1.0 -0.0976234437
C  C191  1  0.62690000  0.85790000  0.00000000  1.0 -0.0976234437
C  C192  1  0.37310000  0.37310000  0.23100000  1.0 -0.0976234437
C  C193  1  0.73230000  0.57290000  0.51740000  1.0 -0.1642534259
C  C194  1  0.05550000  0.21490000  0.48260000  1.0 -0.1642534259
C  C195  1  0.94450000  0.42710000  0.15940000  1.0 -0.1642534259
C  C196  1  0.26770000  0.78510000  0.84060000  1.0 -0.1642534259
C  C197  1  0.51740000  0.73230000  0.57290000  1.0 -0.1642534259
C  C198  1  0.48260000  0.05550000  0.21490000  1.0 -0.1642534259
C  C199  1  0.15940000  0.94450000  0.42710000  1.0 -0.1642534259
C  C200  1  0.84060000  0.26770000  0.78510000  1.0 -0.1642534259
C  C201  1  0.57290000  0.51740000  0.73230000  1.0 -0.1642534259
C  C202  1  0.21490000  0.48260000  0.05550000  1.0 -0.1642534259
C  C203  1  0.42710000  0.15940000  0.94450000  1.0 -0.1642534259
C  C204  1  0.78510000  0.84060000  0.26770000  1.0 -0.1642534259
C  C205  1  0.78510000  0.94450000  0.51740000  1.0 -0.1642534259
C  C206  1  0.42710000  0.26770000  0.48260000  1.0 -0.1642534259
C  C207  1  0.21490000  0.73230000  0.15940000  1.0 -0.1642534259
C  C208  1  0.57290000  0.05550000  0.84060000  1.0 -0.1642534259
C  C209  1  0.05550000  0.84060000  0.57290000  1.0 -0.1642534259
C  C210  1  0.73230000  0.15940000  0.21490000  1.0 -0.1642534259
C  C211  1  0.26770000  0.48260000  0.42710000  1.0 -0.1642534259
C  C212  1  0.94450000  0.51740000  0.78510000  1.0 -0.1642534259
C  C213  1  0.15940000  0.21490000  0.73230000  1.0 -0.1642534259
C  C214  1  0.84060000  0.57290000  0.05550000  1.0 -0.1642534259
C  C215  1  0.51740000  0.78510000  0.94450000  1.0 -0.1642534259
C  C216  1  0.48260000  0.42710000  0.26770000  1.0 -0.1642534259
C  C217  1  0.26770000  0.42710000  0.48260000  1.0 -0.1642534259
C  C218  1  0.94450000  0.78510000  0.51740000  1.0 -0.1642534259
C  C219  1  0.05550000  0.57290000  0.84060000  1.0 -0.1642534259
C  C220  1  0.73230000  0.21490000  0.15940000  1.0 -0.1642534259
C  C221  1  0.48260000  0.26770000  0.42710000  1.0 -0.1642534259
C  C222  1  0.51740000  0.94450000  0.78510000  1.0 -0.1642534259
C  C223  1  0.84060000  0.05550000  0.57290000  1.0 -0.1642534259
C  C224  1  0.15940000  0.73230000  0.21490000  1.0 -0.1642534259
C  C225  1  0.42710000  0.48260000  0.26770000  1.0 -0.1642534259
C  C226  1  0.78510000  0.51740000  0.94450000  1.0 -0.1642534259
C  C227  1  0.57290000  0.84060000  0.05550000  1.0 -0.1642534259
C  C228  1  0.21490000  0.15940000  0.73230000  1.0 -0.1642534259
C  C229  1  0.21490000  0.05550000  0.48260000  1.0 -0.1642534259
C  C230  1  0.57290000  0.73230000  0.51740000  1.0 -0.1642534259
C  C231  1  0.78510000  0.26770000  0.84060000  1.0 -0.1642534259
C  C232  1  0.42710000  0.94450000  0.15940000  1.0 -0.1642534259
C  C233  1  0.94450000  0.15940000  0.42710000  1.0 -0.1642534259
C  C234  1  0.26770000  0.84060000  0.78510000  1.0 -0.1642534259
C  C235  1  0.73230000  0.51740000  0.57290000  1.0 -0.1642534259
C  C236  1  0.05550000  0.48260000  0.21490000  1.0 -0.1642534259
C  C237  1  0.84060000  0.78510000  0.26770000  1.0 -0.1642534259
C  C238  1  0.15940000  0.42710000  0.94450000  1.0 -0.1642534259
C  C239  1  0.48260000  0.21490000  0.05550000  1.0 -0.1642534259
C  C240  1  0.51740000  0.57290000  0.73230000  1.0 -0.1642534259
C  C241  1  0.72100000  0.51830000  0.51830000  1.0 0.1633466017
C  C242  1  0.00000000  0.20270000  0.48170000  1.0 0.1633466017
C  C243  1  0.00000000  0.48170000  0.20270000  1.0 0.1633466017
C  C244  1  0.27900000  0.79730000  0.79730000  1.0 0.1633466017
C  C245  1  0.51830000  0.72100000  0.51830000  1.0 0.1633466017
C  C246  1  0.48170000  0.00000000  0.20270000  1.0 0.1633466017
C  C247  1  0.20270000  0.00000000  0.48170000  1.0 0.1633466017
C  C248  1  0.79730000  0.27900000  0.79730000  1.0 0.1633466017
C  C249  1  0.51830000  0.51830000  0.72100000  1.0 0.1633466017
C  C250  1  0.20270000  0.48170000  0.00000000  1.0 0.1633466017
C  C251  1  0.48170000  0.20270000  0.00000000  1.0 0.1633466017
C  C252  1  0.79730000  0.79730000  0.27900000  1.0 0.1633466017
C  C253  1  0.79730000  0.00000000  0.51830000  1.0 0.1633466017
C  C254  1  0.48170000  0.27900000  0.48170000  1.0 0.1633466017
C  C255  1  0.20270000  0.72100000  0.20270000  1.0 0.1633466017
C  C256  1  0.51830000  0.00000000  0.79730000  1.0 0.1633466017
C  C257  1  0.00000000  0.79730000  0.51830000  1.0 0.1633466017
C  C258  1  0.72100000  0.20270000  0.20270000  1.0 0.1633466017
C  C259  1  0.27900000  0.48170000  0.48170000  1.0 0.1633466017
C  C260  1  0.00000000  0.51830000  0.79730000  1.0 0.1633466017
C  C261  1  0.20270000  0.20270000  0.72100000  1.0 0.1633466017
C  C262  1  0.79730000  0.51830000  0.00000000  1.0 0.1633466017
C  C263  1  0.51830000  0.79730000  0.00000000  1.0 0.1633466017
C  C264  1  0.48170000  0.48170000  0.27900000  1.0 0.1633466017
C  C265  1  0.71320000  0.42080000  0.45800000  1.0 0.30062136
C  C266  1  0.96280000  0.25520000  0.54200000  1.0 0.30062136
C  C267  1  0.03720000  0.57920000  0.29240000  1.0 0.30062136
C  C268  1  0.28680000  0.74480000  0.70760000  1.0 0.30062136
C  C269  1  0.45800000  0.71320000  0.42080000  1.0 0.30062136
C  C270  1  0.54200000  0.96280000  0.25520000  1.0 0.30062136
C  C271  1  0.29240000  0.03720000  0.57920000  1.0 0.30062136
C  C272  1  0.70760000  0.28680000  0.74480000  1.0 0.30062136
C  C273  1  0.42080000  0.45800000  0.71320000  1.0 0.30062136
C  C274  1  0.25520000  0.54200000  0.96280000  1.0 0.30062136
C  C275  1  0.57920000  0.29240000  0.03720000  1.0 0.30062136
C  C276  1  0.74480000  0.70760000  0.28680000  1.0 0.30062136
C  C277  1  0.74480000  0.03720000  0.45800000  1.0 0.30062136
C  C278  1  0.57920000  0.28680000  0.54200000  1.0 0.30062136
C  C279  1  0.25520000  0.71320000  0.29240000  1.0 0.30062136
C  C280  1  0.42080000  0.96280000  0.70760000  1.0 0.30062136
C  C281  1  0.96280000  0.70760000  0.42080000  1.0 0.30062136
C  C282  1  0.71320000  0.29240000  0.25520000  1.0 0.30062136
C  C283  1  0.28680000  0.54200000  0.57920000  1.0 0.30062136
C  C284  1  0.03720000  0.45800000  0.74480000  1.0 0.30062136
C  C285  1  0.29240000  0.25520000  0.71320000  1.0 0.30062136
C  C286  1  0.70760000  0.42080000  0.96280000  1.0 0.30062136
C  C287  1  0.45800000  0.74480000  0.03720000  1.0 0.30062136
C  C288  1  0.54200000  0.57920000  0.28680000  1.0 0.30062136
C  C289  1  0.28680000  0.57920000  0.54200000  1.0 0.30062136
C  C290  1  0.03720000  0.74480000  0.45800000  1.0 0.30062136
C  C291  1  0.96280000  0.42080000  0.70760000  1.0 0.30062136
C  C292  1  0.71320000  0.25520000  0.29240000  1.0 0.30062136
C  C293  1  0.54200000  0.28680000  0.57920000  1.0 0.30062136
C  C294  1  0.45800000  0.03720000  0.74480000  1.0 0.30062136
C  C295  1  0.70760000  0.96280000  0.42080000  1.0 0.30062136
C  C296  1  0.29240000  0.71320000  0.25520000  1.0 0.30062136
C  C297  1  0.57920000  0.54200000  0.28680000  1.0 0.30062136
C  C298  1  0.74480000  0.45800000  0.03720000  1.0 0.30062136
C  C299  1  0.42080000  0.70760000  0.96280000  1.0 0.30062136
C  C300  1  0.25520000  0.29240000  0.71320000  1.0 0.30062136
C  C301  1  0.25520000  0.96280000  0.54200000  1.0 0.30062136
C  C302  1  0.42080000  0.71320000  0.45800000  1.0 0.30062136
C  C303  1  0.74480000  0.28680000  0.70760000  1.0 0.30062136
C  C304  1  0.57920000  0.03720000  0.29240000  1.0 0.30062136
C  C305  1  0.03720000  0.29240000  0.57920000  1.0 0.30062136
C  C306  1  0.28680000  0.70760000  0.74480000  1.0 0.30062136
C  C307  1  0.71320000  0.45800000  0.42080000  1.0 0.30062136
C  C308  1  0.96280000  0.54200000  0.25520000  1.0 0.30062136
C  C309  1  0.70760000  0.74480000  0.28680000  1.0 0.30062136
C  C310  1  0.29240000  0.57920000  0.03720000  1.0 0.30062136
C  C311  1  0.54200000  0.25520000  0.96280000  1.0 0.30062136
C  C312  1  0.45800000  0.42080000  0.71320000  1.0 0.30062136
C  C313  1  0.71160000  0.34020000  0.37140000  1.0 -0.0398234612
C  C314  1  0.96880000  0.34020000  0.62860000  1.0 -0.0398234612
C  C315  1  0.03120000  0.65980000  0.37140000  1.0 -0.0398234612
C  C316  1  0.28840000  0.65980000  0.62860000  1.0 -0.0398234612
C  C317  1  0.37140000  0.71160000  0.34020000  1.0 -0.0398234612
C  C318  1  0.62860000  0.96880000  0.34020000  1.0 -0.0398234612
C  C319  1  0.37140000  0.03120000  0.65980000  1.0 -0.0398234612
C  C320  1  0.62860000  0.28840000  0.65980000  1.0 -0.0398234612
C  C321  1  0.34020000  0.37140000  0.71160000  1.0 -0.0398234612
C  C322  1  0.34020000  0.62860000  0.96880000  1.0 -0.0398234612
C  C323  1  0.65980000  0.37140000  0.03120000  1.0 -0.0398234612
C  C324  1  0.65980000  0.62860000  0.28840000  1.0 -0.0398234612
C  C325  1  0.65980000  0.03120000  0.37140000  1.0 -0.0398234612
C  C326  1  0.65980000  0.28840000  0.62860000  1.0 -0.0398234612
C  C327  1  0.34020000  0.71160000  0.37140000  1.0 -0.0398234612
C  C328  1  0.34020000  0.96880000  0.62860000  1.0 -0.0398234612
C  C329  1  0.96880000  0.62860000  0.34020000  1.0 -0.0398234612
C  C330  1  0.71160000  0.37140000  0.34020000  1.0 -0.0398234612
C  C331  1  0.28840000  0.62860000  0.65980000  1.0 -0.0398234612
C  C332  1  0.03120000  0.37140000  0.65980000  1.0 -0.0398234612
C  C333  1  0.37140000  0.34020000  0.71160000  1.0 -0.0398234612
C  C334  1  0.62860000  0.34020000  0.96880000  1.0 -0.0398234612
C  C335  1  0.37140000  0.65980000  0.03120000  1.0 -0.0398234612
C  C336  1  0.62860000  0.65980000  0.28840000  1.0 -0.0398234612
N  N1  1  0.59000000  0.29500000  0.29500000  1.0 -0.2067195213
N  N2  1  0.00000000  0.29500000  0.70500000  1.0 -0.2067195213
N  N3  1  0.00000000  0.70500000  0.29500000  1.0 -0.2039316556
N  N4  1  0.41000000  0.70500000  0.70500000  1.0 -0.2067195213
N  N5  1  0.29500000  0.59000000  0.29500000  1.0 -0.2067195213
N  N6  1  0.70500000  0.00000000  0.29500000  1.0 -0.2067195213
N  N7  1  0.29500000  0.00000000  0.70500000  1.0 -0.2067195213
N  N8  1  0.70500000  0.41000000  0.70500000  1.0 -0.2067195213
N  N9  1  0.29500000  0.29500000  0.59000000  1.0 -0.2067195213
N  N10  1  0.29500000  0.70500000  0.00000000  1.0 -0.2067195213
N  N11  1  0.70500000  0.29500000  0.00000000  1.0 -0.2067195213
N  N12  1  0.70500000  0.70500000  0.41000000  1.0 -0.2039316556
N  N13  1  0.69540000  0.46260000  0.46260000  1.0 -0.2310082067
N  N14  1  0.00000000  0.23280000  0.53740000  1.0 -0.2310082067
N  N15  1  0.00000000  0.53740000  0.23280000  1.0 -0.2310082067
N  N16  1  0.30460000  0.76720000  0.76720000  1.0 -0.2310082067
N  N17  1  0.46260000  0.69540000  0.46260000  1.0 -0.2310082067
N  N18  1  0.53740000  0.00000000  0.23280000  1.0 -0.2310082067
N  N19  1  0.23280000  0.00000000  0.53740000  1.0 -0.2310082067
N  N20  1  0.76720000  0.30460000  0.76720000  1.0 -0.2310082067
N  N21  1  0.46260000  0.46260000  0.69540000  1.0 -0.2310082067
N  N22  1  0.23280000  0.53740000  0.00000000  1.0 -0.2310082067
N  N23  1  0.53740000  0.23280000  0.00000000  1.0 -0.2310082067
N  N24  1  0.76720000  0.76720000  0.30460000  1.0 -0.2310082067
N  N25  1  0.76720000  0.00000000  0.46260000  1.0 -0.2310082067
N  N26  1  0.53740000  0.30460000  0.53740000  1.0 -0.2310082067
N  N27  1  0.23280000  0.69540000  0.23280000  1.0 -0.2310082067
N  N28  1  0.46260000  0.00000000  0.76720000  1.0 -0.2310082067
N  N29  1  0.00000000  0.76720000  0.46260000  1.0 -0.2310082067
N  N30  1  0.69540000  0.23280000  0.23280000  1.0 -0.2310082067
N  N31  1  0.30460000  0.53740000  0.53740000  1.0 -0.2310082067
N  N32  1  0.00000000  0.46260000  0.76720000  1.0 -0.2310082067
N  N33  1  0.23280000  0.23280000  0.69540000  1.0 -0.2310082067
N  N34  1  0.76720000  0.46260000  0.00000000  1.0 -0.2310082067
N  N35  1  0.46260000  0.76720000  0.00000000  1.0 -0.2310082067
N  N36  1  0.53740000  0.53740000  0.30460000  1.0 -0.2310082067
O  O1  1  0.74630000  0.68240000  0.51890000  1.0 -0.5216279152
O  O2  1  0.16350000  0.22740000  0.48110000  1.0 -0.5216279152
O  O3  1  0.83650000  0.31760000  0.06390000  1.0 -0.5216279152
O  O4  1  0.25370000  0.77260000  0.93610000  1.0 -0.5216279152
O  O5  1  0.51890000  0.74630000  0.68240000  1.0 -0.5216279152
O  O6  1  0.48110000  0.16350000  0.22740000  1.0 -0.5216279152
O  O7  1  0.06390000  0.83650000  0.31760000  1.0 -0.5216279152
O  O8  1  0.93610000  0.25370000  0.77260000  1.0 -0.5216279152
O  O9  1  0.68240000  0.51890000  0.74630000  1.0 -0.5216279152
O  O10  1  0.22740000  0.48110000  0.16350000  1.0 -0.5216279152
O  O11  1  0.31760000  0.06390000  0.83650000  1.0 -0.5216279152
O  O12  1  0.77260000  0.93610000  0.25370000  1.0 -0.5216279152
O  O13  1  0.77260000  0.83650000  0.51890000  1.0 -0.5216279152
O  O14  1  0.31760000  0.25370000  0.48110000  1.0 -0.5216279152
O  O15  1  0.22740000  0.74630000  0.06390000  1.0 -0.5216279152
O  O16  1  0.68240000  0.16350000  0.93610000  1.0 -0.5216279152
O  O17  1  0.16350000  0.93610000  0.68240000  1.0 -0.5216279152
O  O18  1  0.74630000  0.06390000  0.22740000  1.0 -0.5216279152
O  O19  1  0.25370000  0.48110000  0.31760000  1.0 -0.5216279152
O  O20  1  0.83650000  0.51890000  0.77260000  1.0 -0.5216279152
O  O21  1  0.06390000  0.22740000  0.74630000  1.0 -0.5216279152
O  O22  1  0.93610000  0.68240000  0.16350000  1.0 -0.5216279152
O  O23  1  0.51890000  0.77260000  0.83650000  1.0 -0.5216279152
O  O24  1  0.48110000  0.31760000  0.25370000  1.0 -0.5216279152
O  O25  1  0.25370000  0.31760000  0.48110000  1.0 -0.5216279152
O  O26  1  0.83650000  0.77260000  0.51890000  1.0 -0.5216279152
O  O27  1  0.16350000  0.68240000  0.93610000  1.0 -0.5216279152
O  O28  1  0.74630000  0.22740000  0.06390000  1.0 -0.5216279152
O  O29  1  0.48110000  0.25370000  0.31760000  1.0 -0.5216279152
O  O30  1  0.51890000  0.83650000  0.77260000  1.0 -0.5216279152
O  O31  1  0.93610000  0.16350000  0.68240000  1.0 -0.5216279152
O  O32  1  0.06390000  0.74630000  0.22740000  1.0 -0.5216279152
O  O33  1  0.31760000  0.48110000  0.25370000  1.0 -0.5216279152
O  O34  1  0.77260000  0.51890000  0.83650000  1.0 -0.5216279152
O  O35  1  0.68240000  0.93610000  0.16350000  1.0 -0.5216279152
O  O36  1  0.22740000  0.06390000  0.74630000  1.0 -0.5216279152
O  O37  1  0.22740000  0.16350000  0.48110000  1.0 -0.5216279152
O  O38  1  0.68240000  0.74630000  0.51890000  1.0 -0.5216279152
O  O39  1  0.77260000  0.25370000  0.93610000  1.0 -0.5216279152
O  O40  1  0.31760000  0.83650000  0.06390000  1.0 -0.5216279152
O  O41  1  0.83650000  0.06390000  0.31760000  1.0 -0.5216279152
O  O42  1  0.25370000  0.93610000  0.77260000  1.0 -0.5216279152
O  O43  1  0.74630000  0.51890000  0.68240000  1.0 -0.5216279152
O  O44  1  0.16350000  0.48110000  0.22740000  1.0 -0.5216279152
O  O45  1  0.93610000  0.77260000  0.25370000  1.0 -0.5216279152
O  O46  1  0.06390000  0.31760000  0.83650000  1.0 -0.5216279152
O  O47  1  0.48110000  0.22740000  0.16350000  1.0 -0.5216279152
O  O48  1  0.51890000  0.68240000  0.74630000  1.0 -0.5216279152
O  O49  1  0.79860000  0.73540000  0.62340000  1.0 -0.5216279152
O  O50  1  0.11200000  0.17520000  0.37660000  1.0 -0.5216279152
O  O51  1  0.88800000  0.26460000  0.06320000  1.0 -0.5216279152
O  O52  1  0.20140000  0.82480000  0.93680000  1.0 -0.5216279152
O  O53  1  0.62340000  0.79860000  0.73540000  1.0 -0.5216279152
O  O54  1  0.37660000  0.11200000  0.17520000  1.0 -0.5216279152
O  O55  1  0.06320000  0.88800000  0.26460000  1.0 -0.5216279152
O  O56  1  0.93680000  0.20140000  0.82480000  1.0 -0.5216279152
O  O57  1  0.73540000  0.62340000  0.79860000  1.0 -0.5216279152
O  O58  1  0.17520000  0.37660000  0.11200000  1.0 -0.5216279152
O  O59  1  0.26460000  0.06320000  0.88800000  1.0 -0.5216279152
O  O60  1  0.82480000  0.93680000  0.20140000  1.0 -0.5216279152
O  O61  1  0.82480000  0.88800000  0.62340000  1.0 -0.5216279152
O  O62  1  0.26460000  0.20140000  0.37660000  1.0 -0.5216279152
O  O63  1  0.17520000  0.79860000  0.06320000  1.0 -0.5216279152
O  O64  1  0.73540000  0.11200000  0.93680000  1.0 -0.5216279152
O  O65  1  0.11200000  0.93680000  0.73540000  1.0 -0.5216279152
O  O66  1  0.79860000  0.06320000  0.17520000  1.0 -0.5216279152
O  O67  1  0.20140000  0.37660000  0.26460000  1.0 -0.5216279152
O  O68  1  0.88800000  0.62340000  0.82480000  1.0 -0.5216279152
O  O69  1  0.06320000  0.17520000  0.79860000  1.0 -0.5216279152
O  O70  1  0.93680000  0.73540000  0.11200000  1.0 -0.5216279152
O  O71  1  0.62340000  0.82480000  0.88800000  1.0 -0.5216279152
O  O72  1  0.37660000  0.26460000  0.20140000  1.0 -0.5216279152
O  O73  1  0.20140000  0.26460000  0.37660000  1.0 -0.5216279152
O  O74  1  0.88800000  0.82480000  0.62340000  1.0 -0.5216279152
O  O75  1  0.11200000  0.73540000  0.93680000  1.0 -0.5216279152
O  O76  1  0.79860000  0.17520000  0.06320000  1.0 -0.5216279152
O  O77  1  0.37660000  0.20140000  0.26460000  1.0 -0.5216279152
O  O78  1  0.62340000  0.88800000  0.82480000  1.0 -0.5216279152
O  O79  1  0.93680000  0.11200000  0.73540000  1.0 -0.5216279152
O  O80  1  0.06320000  0.79860000  0.17520000  1.0 -0.5216279152
O  O81  1  0.26460000  0.37660000  0.20140000  1.0 -0.5216279152
O  O82  1  0.82480000  0.62340000  0.88800000  1.0 -0.5216279152
O  O83  1  0.73540000  0.93680000  0.11200000  1.0 -0.5216279152
O  O84  1  0.17520000  0.06320000  0.79860000  1.0 -0.5216279152
O  O85  1  0.17520000  0.11200000  0.37660000  1.0 -0.5216279152
O  O86  1  0.73540000  0.79860000  0.62340000  1.0 -0.5216279152
O  O87  1  0.82480000  0.20140000  0.93680000  1.0 -0.5216279152
O  O88  1  0.26460000  0.88800000  0.06320000  1.0 -0.5216279152
O  O89  1  0.88800000  0.06320000  0.26460000  1.0 -0.5216279152
O  O90  1  0.20140000  0.93680000  0.82480000  1.0 -0.5216279152
O  O91  1  0.79860000  0.62340000  0.73540000  1.0 -0.5216279152
O  O92  1  0.11200000  0.37660000  0.17520000  1.0 -0.5216279152
O  O93  1  0.93680000  0.82480000  0.20140000  1.0 -0.5216279152
O  O94  1  0.06320000  0.26460000  0.88800000  1.0 -0.5216279152
O  O95  1  0.37660000  0.17520000  0.11200000  1.0 -0.5216279152
O  O96  1  0.62340000  0.73540000  0.79860000  1.0 -0.5216279152
O  O97  1  0.75310000  0.42170000  0.49920000  1.0 -0.3875434118
O  O98  1  0.92250000  0.25390000  0.50080000  1.0 -0.3875434118
O  O99  1  0.07750000  0.57830000  0.33140000  1.0 -0.3875434118
O  O100  1  0.24690000  0.74610000  0.66860000  1.0 -0.3875434118
O  O101  1  0.49920000  0.75310000  0.42170000  1.0 -0.3875434118
O  O102  1  0.50080000  0.92250000  0.25390000  1.0 -0.3875434118
O  O103  1  0.33140000  0.07750000  0.57830000  1.0 -0.3875434118
O  O104  1  0.66860000  0.24690000  0.74610000  1.0 -0.3875434118
O  O105  1  0.42170000  0.49920000  0.75310000  1.0 -0.3875434118
O  O106  1  0.25390000  0.50080000  0.92250000  1.0 -0.3875434118
O  O107  1  0.57830000  0.33140000  0.07750000  1.0 -0.3875434118
O  O108  1  0.74610000  0.66860000  0.24690000  1.0 -0.3875434118
O  O109  1  0.74610000  0.07750000  0.49920000  1.0 -0.3875434118
O  O110  1  0.57830000  0.24690000  0.50080000  1.0 -0.3875434118
O  O111  1  0.25390000  0.75310000  0.33140000  1.0 -0.3875434118
O  O112  1  0.42170000  0.92250000  0.66860000  1.0 -0.3875434118
O  O113  1  0.92250000  0.66860000  0.42170000  1.0 -0.3875434118
O  O114  1  0.75310000  0.33140000  0.25390000  1.0 -0.3875434118
O  O115  1  0.24690000  0.50080000  0.57830000  1.0 -0.3875434118
O  O116  1  0.07750000  0.49920000  0.74610000  1.0 -0.3875434118
O  O117  1  0.33140000  0.25390000  0.75310000  1.0 -0.3875434118
O  O118  1  0.66860000  0.42170000  0.92250000  1.0 -0.3875434118
O  O119  1  0.49920000  0.74610000  0.07750000  1.0 -0.3875434118
O  O120  1  0.50080000  0.57830000  0.24690000  1.0 -0.3875434118
O  O121  1  0.24690000  0.57830000  0.50080000  1.0 -0.3875434118
O  O122  1  0.07750000  0.74610000  0.49920000  1.0 -0.3875434118
O  O123  1  0.92250000  0.42170000  0.66860000  1.0 -0.3875434118
O  O124  1  0.75310000  0.25390000  0.33140000  1.0 -0.3875434118
O  O125  1  0.50080000  0.24690000  0.57830000  1.0 -0.3875434118
O  O126  1  0.49920000  0.07750000  0.74610000  1.0 -0.3875434118
O  O127  1  0.66860000  0.92250000  0.42170000  1.0 -0.3875434118
O  O128  1  0.33140000  0.75310000  0.25390000  1.0 -0.3875434118
O  O129  1  0.57830000  0.50080000  0.24690000  1.0 -0.3875434118
O  O130  1  0.74610000  0.49920000  0.07750000  1.0 -0.3875434118
O  O131  1  0.42170000  0.66860000  0.92250000  1.0 -0.3875434118
O  O132  1  0.25390000  0.33140000  0.75310000  1.0 -0.3875434118
O  O133  1  0.25390000  0.92250000  0.50080000  1.0 -0.3875434118
O  O134  1  0.42170000  0.75310000  0.49920000  1.0 -0.3875434118
O  O135  1  0.74610000  0.24690000  0.66860000  1.0 -0.3875434118
O  O136  1  0.57830000  0.07750000  0.33140000  1.0 -0.3875434118
O  O137  1  0.07750000  0.33140000  0.57830000  1.0 -0.3875434118
O  O138  1  0.24690000  0.66860000  0.74610000  1.0 -0.3875434118
O  O139  1  0.75310000  0.49920000  0.42170000  1.0 -0.3875434118
O  O140  1  0.92250000  0.50080000  0.25390000  1.0 -0.3875434118
O  O141  1  0.66860000  0.74610000  0.24690000  1.0 -0.3875434118
O  O142  1  0.33140000  0.57830000  0.07750000  1.0 -0.3875434118
O  O143  1  0.50080000  0.25390000  0.92250000  1.0 -0.3875434118
O  O144  1  0.49920000  0.42170000  0.75310000  1.0 -0.3875434118
