# DDEC6 charges by PACMAN v1.1 (https://github.com/mtap-research/PACMAN-charge/)
data_ELOHOE_ASR_pacman
_symmetry_space_group_name_H-M   'P 1'
_cell_length_a   11.46070000
_cell_length_b   18.79560000
_cell_length_c   22.72130000
_cell_angle_alpha   90.00000000
_cell_angle_beta   96.86300000
_cell_angle_gamma   90.00000000
_symmetry_Int_Tables_number   1
_chemical_formula_structural   CdH20C28(NO2)2
_chemical_formula_sum   'Cd6 H120 C168 N12 O24'
_cell_volume   4859.34203427
_cell_formula_units_Z   6
loop_
 _symmetry_equiv_pos_site_id
 _symmetry_equiv_pos_as_xyz
  1  'x, y, z'
loop_
 _atom_site_type_symbol
 _atom_site_label
 _atom_site_symmetry_multiplicity
 _atom_site_fract_x
 _atom_site_fract_y
 _atom_site_fract_z
 _atom_site_occupancy
 _atom_site_charge
Cd  Cd1  1  0.35322000  0.97556000  0.94304000  1.0 0.8500853626
Cd  Cd2  1  0.64678000  0.97556000  0.55696000  1.0 0.8500853626
Cd  Cd3  1  0.64678000  0.02444000  0.05696000  1.0 0.8500853626
Cd  Cd4  1  0.35322000  0.02444000  0.44304000  1.0 0.8500853626
Cd  Cd5  1  0.00000000  0.50000000  0.00000000  1.0 0.8577729312
Cd  Cd6  1  0.00000000  0.50000000  0.50000000  1.0 0.8577729312
H  H1  1  0.30760000  0.82640000  0.00810000  1.0 0.1101616499
H  H2  1  0.69240000  0.82640000  0.49190000  1.0 0.1101616499
H  H3  1  0.69240000  0.17360000  0.99190000  1.0 0.1101616499
H  H4  1  0.30760000  0.17360000  0.50810000  1.0 0.1101616499
H  H5  1  0.18480000  0.76980000  0.06500000  1.0 0.1301980187
H  H6  1  0.81520000  0.76980000  0.43500000  1.0 0.1301980187
H  H7  1  0.81520000  0.23020000  0.93500000  1.0 0.1301980187
H  H8  1  0.18480000  0.23020000  0.56500000  1.0 0.1301980187
H  H9  1  0.01600000  0.95210000  0.07830000  1.0 0.1401658568
H  H10  1  0.98400000  0.95210000  0.42170000  1.0 0.1401658568
H  H11  1  0.98400000  0.04790000  0.92170000  1.0 0.1401658568
H  H12  1  0.01600000  0.04790000  0.57830000  1.0 0.1401658568
H  H13  1  0.14380000  0.00460000  0.02310000  1.0 0.1101616499
H  H14  1  0.85620000  0.00460000  0.47690000  1.0 0.1101616499
H  H15  1  0.85620000  0.99540000  0.97690000  1.0 0.1101616499
H  H16  1  0.14380000  0.99540000  0.52310000  1.0 0.1101616499
H  H17  1  0.94200000  0.85130000  0.12610000  1.0 0.1212794274
H  H18  1  0.05800000  0.85130000  0.37390000  1.0 0.1212794274
H  H19  1  0.05800000  0.14870000  0.87390000  1.0 0.1212794274
H  H20  1  0.94200000  0.14870000  0.62610000  1.0 0.1212794274
H  H21  1  0.06010000  0.72730000  0.12200000  1.0 0.1101616499
H  H22  1  0.93990000  0.72730000  0.37800000  1.0 0.1101616499
H  H23  1  0.93990000  0.27270000  0.87800000  1.0 0.1101616499
H  H24  1  0.06010000  0.27270000  0.62200000  1.0 0.1101616499
H  H25  1  0.96570000  0.62530000  0.15630000  1.0 0.1212794274
H  H26  1  0.03430000  0.62530000  0.34370000  1.0 0.1212794274
H  H27  1  0.03430000  0.37470000  0.84370000  1.0 0.1212794274
H  H28  1  0.96570000  0.37470000  0.65630000  1.0 0.1212794274
H  H29  1  0.84100000  0.57060000  0.21400000  1.0 0.1101616499
H  H30  1  0.15900000  0.57060000  0.28600000  1.0 0.1101616499
H  H31  1  0.15900000  0.42940000  0.78600000  1.0 0.1101616499
H  H32  1  0.84100000  0.42940000  0.71400000  1.0 0.1101616499
H  H33  1  0.72300000  0.63720000  0.26780000  1.0 0.1212794274
H  H34  1  0.27700000  0.63720000  0.23220000  1.0 0.1212794274
H  H35  1  0.27700000  0.36280000  0.73220000  1.0 0.1212794274
H  H36  1  0.72300000  0.36280000  0.76780000  1.0 0.1212794274
H  H37  1  0.84670000  0.81320000  0.19950000  1.0 0.1101616499
H  H38  1  0.15330000  0.81320000  0.30050000  1.0 0.1101616499
H  H39  1  0.15330000  0.18680000  0.80050000  1.0 0.1101616499
H  H40  1  0.84670000  0.18680000  0.69950000  1.0 0.1101616499
H  H41  1  0.64050000  0.74620000  0.29160000  1.0 0.1101616499
H  H42  1  0.35950000  0.74620000  0.20840000  1.0 0.1101616499
H  H43  1  0.35950000  0.25380000  0.70840000  1.0 0.1101616499
H  H44  1  0.64050000  0.25380000  0.79160000  1.0 0.1101616499
H  H45  1  0.75200000  0.86710000  0.26670000  1.0 0.1212794274
H  H46  1  0.24800000  0.86710000  0.23330000  1.0 0.1212794274
H  H47  1  0.24800000  0.13290000  0.73330000  1.0 0.1212794274
H  H48  1  0.75200000  0.13290000  0.76670000  1.0 0.1212794274
H  H49  1  0.70240000  0.97390000  0.31660000  1.0 0.1401658568
H  H50  1  0.29760000  0.97390000  0.18340000  1.0 0.1401658568
H  H51  1  0.29760000  0.02610000  0.68340000  1.0 0.1401658568
H  H52  1  0.70240000  0.02610000  0.81660000  1.0 0.1401658568
H  H53  1  0.58450000  0.03600000  0.37100000  1.0 0.1031900257
H  H54  1  0.41550000  0.03600000  0.12900000  1.0 0.1031900257
H  H55  1  0.41550000  0.96400000  0.62900000  1.0 0.1031900257
H  H56  1  0.58450000  0.96400000  0.87100000  1.0 0.1031900257
H  H57  1  0.39020000  0.87150000  0.38740000  1.0 0.1031900257
H  H58  1  0.60980000  0.87150000  0.11260000  1.0 0.1031900257
H  H59  1  0.60980000  0.12850000  0.61260000  1.0 0.1031900257
H  H60  1  0.39020000  0.12850000  0.88740000  1.0 0.1031900257
H  H61  1  0.50340000  0.80400000  0.33290000  1.0 0.1301980187
H  H62  1  0.49660000  0.80400000  0.16710000  1.0 0.1301980187
H  H63  1  0.49660000  0.19600000  0.66710000  1.0 0.1301980187
H  H64  1  0.50340000  0.19600000  0.83290000  1.0 0.1301980187
H  H65  1  0.92450000  0.33820000  0.03190000  1.0 0.1031900257
H  H66  1  0.07550000  0.33820000  0.46810000  1.0 0.1031900257
H  H67  1  0.07550000  0.66180000  0.96810000  1.0 0.1031900257
H  H68  1  0.92450000  0.66180000  0.53190000  1.0 0.1031900257
H  H69  1  0.79790000  0.27730000  0.09400000  1.0 0.1401658568
H  H70  1  0.20210000  0.27730000  0.40600000  1.0 0.1401658568
H  H71  1  0.20210000  0.72270000  0.90600000  1.0 0.1401658568
H  H72  1  0.79790000  0.72270000  0.59400000  1.0 0.1401658568
H  H73  1  0.70370000  0.46060000  0.15080000  1.0 0.1484106106
H  H74  1  0.29630000  0.46060000  0.34920000  1.0 0.1484106106
H  H75  1  0.29630000  0.53940000  0.84920000  1.0 0.1484106106
H  H76  1  0.70370000  0.53940000  0.65080000  1.0 0.1484106106
H  H77  1  0.81670000  0.51460000  0.09090000  1.0 0.1101616499
H  H78  1  0.18330000  0.51460000  0.40910000  1.0 0.1101616499
H  H79  1  0.18330000  0.48540000  0.90910000  1.0 0.1101616499
H  H80  1  0.81670000  0.48540000  0.59090000  1.0 0.1101616499
H  H81  1  0.61180000  0.35590000  0.18860000  1.0 0.1212794274
H  H82  1  0.38820000  0.35590000  0.31140000  1.0 0.1212794274
H  H83  1  0.38820000  0.64410000  0.81140000  1.0 0.1212794274
H  H84  1  0.61180000  0.64410000  0.68860000  1.0 0.1212794274
H  H85  1  0.69860000  0.23420000  0.15950000  1.0 0.1301980187
H  H86  1  0.30140000  0.23420000  0.34050000  1.0 0.1301980187
H  H87  1  0.30140000  0.76580000  0.84050000  1.0 0.1301980187
H  H88  1  0.69860000  0.76580000  0.65950000  1.0 0.1301980187
H  H89  1  0.50000000  0.31610000  0.25000000  1.0 0.1212794274
H  H90  1  0.50000000  0.68390000  0.75000000  1.0 0.1212794274
H  H91  1  0.61820000  0.13130000  0.19340000  1.0 0.1301980187
H  H92  1  0.38180000  0.13130000  0.30660000  1.0 0.1301980187
H  H93  1  0.38180000  0.86870000  0.80660000  1.0 0.1301980187
H  H94  1  0.61820000  0.86870000  0.69340000  1.0 0.1301980187
H  H95  1  0.50000000  0.07300000  0.25000000  1.0 0.1101616499
H  H96  1  0.50000000  0.92700000  0.75000000  1.0 0.1101616499
H  H97  1  0.86190000  0.71760000  0.02690000  1.0 0.1101616499
H  H98  1  0.13810000  0.71760000  0.47310000  1.0 0.1101616499
H  H99  1  0.13810000  0.28240000  0.97310000  1.0 0.1101616499
H  H100  1  0.86190000  0.28240000  0.52690000  1.0 0.1101616499
H  H101  1  0.77970000  0.83030000  0.03020000  1.0 0.1212794274
H  H102  1  0.22030000  0.83030000  0.46980000  1.0 0.1212794274
H  H103  1  0.22030000  0.16970000  0.96980000  1.0 0.1212794274
H  H104  1  0.77970000  0.16970000  0.53020000  1.0 0.1212794274
H  H105  1  0.51160000  0.76670000  0.91590000  1.0 0.1101616499
H  H106  1  0.48840000  0.76670000  0.58410000  1.0 0.1101616499
H  H107  1  0.48840000  0.23330000  0.08410000  1.0 0.1101616499
H  H108  1  0.51160000  0.23330000  0.41590000  1.0 0.1101616499
H  H109  1  0.59550000  0.65630000  0.91010000  1.0 0.1101616499
H  H110  1  0.40450000  0.65630000  0.58990000  1.0 0.1101616499
H  H111  1  0.40450000  0.34370000  0.08990000  1.0 0.1101616499
H  H112  1  0.59550000  0.34370000  0.41010000  1.0 0.1101616499
H  H113  1  0.06460000  0.06960000  0.79160000  1.0 0.1101616499
H  H114  1  0.93540000  0.06960000  0.70840000  1.0 0.1101616499
H  H115  1  0.93540000  0.93040000  0.20840000  1.0 0.1101616499
H  H116  1  0.06460000  0.93040000  0.29160000  1.0 0.1101616499
H  H117  1  0.07040000  0.86200000  0.79140000  1.0 0.1212794274
H  H118  1  0.92960000  0.86200000  0.70860000  1.0 0.1212794274
H  H119  1  0.92960000  0.13800000  0.20860000  1.0 0.1212794274
H  H120  1  0.07040000  0.13800000  0.29140000  1.0 0.1212794274
C  C1  1  0.24810000  0.85240000  0.02240000  1.0 0.0774713445
C  C2  1  0.75190000  0.85240000  0.47760000  1.0 0.0774713445
C  C3  1  0.75190000  0.14760000  0.97760000  1.0 0.0774713445
C  C4  1  0.24810000  0.14760000  0.52240000  1.0 0.0774713445
C  C5  1  0.17450000  0.81800000  0.05680000  1.0 -0.2075727892
C  C6  1  0.82550000  0.81800000  0.44320000  1.0 -0.2075727892
C  C7  1  0.82550000  0.18200000  0.94320000  1.0 -0.2075727892
C  C8  1  0.17450000  0.18200000  0.55680000  1.0 -0.2075727892
C  C9  1  0.08520000  0.85520000  0.07900000  1.0 0.1484106106
C  C10  1  0.91480000  0.85520000  0.42100000  1.0 0.1484106106
C  C11  1  0.91480000  0.14480000  0.92100000  1.0 0.1484106106
C  C12  1  0.08520000  0.14480000  0.57900000  1.0 0.1484106106
C  C13  1  0.07540000  0.92500000  0.06490000  1.0 -0.1995016935
C  C14  1  0.92460000  0.92500000  0.43510000  1.0 -0.1995016935
C  C15  1  0.92460000  0.07500000  0.93510000  1.0 -0.1995016935
C  C16  1  0.07540000  0.07500000  0.56490000  1.0 -0.1995016935
C  C17  1  0.15210000  0.95620000  0.03110000  1.0 0.0688561422
C  C18  1  0.84790000  0.95620000  0.46890000  1.0 0.0688561422
C  C19  1  0.84790000  0.04380000  0.96890000  1.0 0.0688561422
C  C20  1  0.15210000  0.04380000  0.53110000  1.0 0.0688561422
C  C21  1  0.00150000  0.82220000  0.11530000  1.0 -0.1409576184
C  C22  1  0.99850000  0.82220000  0.38470000  1.0 -0.1409576184
C  C23  1  0.99850000  0.17780000  0.88470000  1.0 -0.1409576184
C  C24  1  0.00150000  0.17780000  0.61530000  1.0 -0.1409576184
C  C25  1  0.00210000  0.75690000  0.13370000  1.0 -0.1331263448
C  C26  1  0.99790000  0.75690000  0.36630000  1.0 -0.1331263448
C  C27  1  0.99790000  0.24310000  0.86630000  1.0 -0.1331263448
C  C28  1  0.00210000  0.24310000  0.63370000  1.0 -0.1331263448
C  C29  1  0.91960000  0.72520000  0.17130000  1.0 0.1212794274
C  C30  1  0.08040000  0.72520000  0.32870000  1.0 0.1212794274
C  C31  1  0.08040000  0.27480000  0.82870000  1.0 0.1212794274
C  C32  1  0.91960000  0.27480000  0.67130000  1.0 0.1212794274
C  C33  1  0.91660000  0.65300000  0.17680000  1.0 -0.1585695249
C  C34  1  0.08340000  0.65300000  0.32320000  1.0 -0.1585695249
C  C35  1  0.08340000  0.34700000  0.82320000  1.0 -0.1585695249
C  C36  1  0.91660000  0.34700000  0.67680000  1.0 -0.1585695249
C  C37  1  0.84260000  0.62000000  0.21180000  1.0 -0.0922784584
C  C38  1  0.15740000  0.62000000  0.28820000  1.0 -0.0922784584
C  C39  1  0.15740000  0.38000000  0.78820000  1.0 -0.0922784584
C  C40  1  0.84260000  0.38000000  0.71180000  1.0 -0.0922784584
C  C41  1  0.77150000  0.65950000  0.24340000  1.0 -0.1585695249
C  C42  1  0.22850000  0.65950000  0.25660000  1.0 -0.1585695249
C  C43  1  0.22850000  0.34050000  0.75660000  1.0 -0.1585695249
C  C44  1  0.77150000  0.34050000  0.74340000  1.0 -0.1585695249
C  C45  1  0.77220000  0.73150000  0.23900000  1.0 0.1101616499
C  C46  1  0.22780000  0.73150000  0.26100000  1.0 0.1101616499
C  C47  1  0.22780000  0.26850000  0.76100000  1.0 0.1101616499
C  C48  1  0.77220000  0.26850000  0.73900000  1.0 0.1101616499
C  C49  1  0.84670000  0.76390000  0.20260000  1.0 -0.1941188725
C  C50  1  0.15330000  0.76390000  0.29740000  1.0 -0.1941188725
C  C51  1  0.15330000  0.23610000  0.79740000  1.0 -0.1941188725
C  C52  1  0.84670000  0.23610000  0.70260000  1.0 -0.1941188725
C  C53  1  0.69590000  0.77230000  0.27410000  1.0 -0.1494262705
C  C54  1  0.30410000  0.77230000  0.22590000  1.0 -0.1494262705
C  C55  1  0.30410000  0.22770000  0.72590000  1.0 -0.1494262705
C  C56  1  0.69590000  0.22770000  0.77410000  1.0 -0.1494262705
C  C57  1  0.69610000  0.84080000  0.28370000  1.0 -0.1494262705
C  C58  1  0.30390000  0.84080000  0.21630000  1.0 -0.1494262705
C  C59  1  0.30390000  0.15920000  0.71630000  1.0 -0.1494262705
C  C60  1  0.69610000  0.15920000  0.78370000  1.0 -0.1494262705
C  C61  1  0.61850000  0.88070000  0.31800000  1.0 0.1401658568
C  C62  1  0.38150000  0.88070000  0.18200000  1.0 0.1401658568
C  C63  1  0.38150000  0.11930000  0.68200000  1.0 0.1401658568
C  C64  1  0.61850000  0.11930000  0.81800000  1.0 0.1401658568
C  C65  1  0.63920000  0.95110000  0.33060000  1.0 -0.2075727892
C  C66  1  0.36080000  0.95110000  0.16940000  1.0 -0.2075727892
C  C67  1  0.36080000  0.04890000  0.66940000  1.0 -0.2075727892
C  C68  1  0.63920000  0.04890000  0.83060000  1.0 -0.2075727892
C  C69  1  0.56780000  0.98820000  0.36370000  1.0 0.0688561422
C  C70  1  0.43220000  0.98820000  0.13630000  1.0 0.0688561422
C  C71  1  0.43220000  0.01180000  0.63630000  1.0 0.0688561422
C  C72  1  0.56780000  0.01180000  0.86370000  1.0 0.0688561422
C  C73  1  0.45470000  0.89270000  0.37330000  1.0 0.0774713445
C  C74  1  0.54530000  0.89270000  0.12670000  1.0 0.0774713445
C  C75  1  0.54530000  0.10730000  0.62670000  1.0 0.0774713445
C  C76  1  0.45470000  0.10730000  0.87330000  1.0 0.0774713445
C  C77  1  0.52260000  0.85160000  0.34020000  1.0 -0.2075727892
C  C78  1  0.47740000  0.85160000  0.15980000  1.0 -0.2075727892
C  C79  1  0.47740000  0.14840000  0.65980000  1.0 -0.2075727892
C  C80  1  0.52260000  0.14840000  0.84020000  1.0 -0.2075727892
C  C81  1  0.87950000  0.36410000  0.05570000  1.0 0.1101616499
C  C82  1  0.12050000  0.36410000  0.44430000  1.0 0.1101616499
C  C83  1  0.12050000  0.63590000  0.94430000  1.0 0.1101616499
C  C84  1  0.87950000  0.63590000  0.55570000  1.0 0.1101616499
C  C85  1  0.80180000  0.32670000  0.09440000  1.0 -0.2323328333
C  C86  1  0.19820000  0.32670000  0.40560000  1.0 -0.2323328333
C  C87  1  0.19820000  0.67330000  0.90560000  1.0 -0.2323328333
C  C88  1  0.80180000  0.67330000  0.59440000  1.0 -0.2323328333
C  C89  1  0.73830000  0.36350000  0.12940000  1.0 0.1301980187
C  C90  1  0.26170000  0.36350000  0.37060000  1.0 0.1301980187
C  C91  1  0.26170000  0.63650000  0.87060000  1.0 0.1301980187
C  C92  1  0.73830000  0.63650000  0.62940000  1.0 0.1301980187
C  C93  1  0.74660000  0.43290000  0.12710000  1.0 -0.2075727892
C  C94  1  0.25340000  0.43290000  0.37290000  1.0 -0.2075727892
C  C95  1  0.25340000  0.56710000  0.87290000  1.0 -0.2075727892
C  C96  1  0.74660000  0.56710000  0.62710000  1.0 -0.2075727892
C  C97  1  0.81640000  0.46510000  0.09090000  1.0 0.0633299069
C  C98  1  0.18360000  0.46510000  0.40910000  1.0 0.0633299069
C  C99  1  0.18360000  0.53490000  0.90910000  1.0 0.0633299069
C  C100  1  0.81640000  0.53490000  0.59090000  1.0 0.0633299069
C  C101  1  0.65940000  0.32620000  0.16900000  1.0 -0.0988357023
C  C102  1  0.34060000  0.32620000  0.33100000  1.0 -0.0988357023
C  C103  1  0.34060000  0.67380000  0.83100000  1.0 -0.0988357023
C  C104  1  0.65940000  0.67380000  0.66900000  1.0 -0.0988357023
C  C105  1  0.65020000  0.26420000  0.17830000  1.0 -0.0988357023
C  C106  1  0.34980000  0.26420000  0.32170000  1.0 -0.0988357023
C  C107  1  0.34980000  0.73580000  0.82170000  1.0 -0.0988357023
C  C108  1  0.65020000  0.73580000  0.67830000  1.0 -0.0988357023
C  C109  1  0.50000000  0.26660000  0.25000000  1.0 -0.223262504
C  C110  1  0.50000000  0.73340000  0.75000000  1.0 -0.223262504
C  C111  1  0.57290000  0.23010000  0.21540000  1.0 0.1101616499
C  C112  1  0.42710000  0.23010000  0.28460000  1.0 0.1101616499
C  C113  1  0.42710000  0.76990000  0.78460000  1.0 0.1101616499
C  C114  1  0.57290000  0.76990000  0.71540000  1.0 0.1101616499
C  C115  1  0.57070000  0.15700000  0.21620000  1.0 -0.1585695249
C  C116  1  0.42930000  0.15700000  0.28380000  1.0 -0.1585695249
C  C117  1  0.42930000  0.84300000  0.78380000  1.0 -0.1585695249
C  C118  1  0.57070000  0.84300000  0.71620000  1.0 -0.1585695249
C  C119  1  0.50000000  0.12240000  0.25000000  1.0 -0.0845524075
C  C120  1  0.50000000  0.87760000  0.75000000  1.0 -0.0845524075
C  C121  1  0.79440000  0.60390000  0.96640000  1.0 0.5607571003
C  C122  1  0.20560000  0.60390000  0.53360000  1.0 0.5607571003
C  C123  1  0.20560000  0.39610000  0.03360000  1.0 0.5607571003
C  C124  1  0.79440000  0.39610000  0.46640000  1.0 0.5607571003
C  C125  1  0.73840000  0.67670000  0.96780000  1.0 -0.0016514443
C  C126  1  0.26160000  0.67670000  0.53220000  1.0 -0.0016514443
C  C127  1  0.26160000  0.32330000  0.03220000  1.0 -0.0016514443
C  C128  1  0.73840000  0.32330000  0.46780000  1.0 -0.0016514443
C  C129  1  0.79140000  0.72770000  0.00370000  1.0 -0.1080463335
C  C130  1  0.20860000  0.72770000  0.49630000  1.0 -0.1080463335
C  C131  1  0.20860000  0.27230000  0.99630000  1.0 -0.1080463335
C  C132  1  0.79140000  0.27230000  0.50370000  1.0 -0.1080463335
C  C133  1  0.74160000  0.79510000  0.00640000  1.0 -0.1184778328
C  C134  1  0.25840000  0.79510000  0.49360000  1.0 -0.1184778328
C  C135  1  0.25840000  0.20490000  0.99360000  1.0 -0.1184778328
C  C136  1  0.74160000  0.20490000  0.50640000  1.0 -0.1184778328
C  C137  1  0.63590000  0.80890000  0.97350000  1.0 -0.0249966888
C  C138  1  0.36410000  0.80890000  0.52650000  1.0 -0.0249966888
C  C139  1  0.36410000  0.19110000  0.02650000  1.0 -0.0249966888
C  C140  1  0.63590000  0.19110000  0.47350000  1.0 -0.0249966888
C  C141  1  0.58330000  0.75720000  0.93830000  1.0 -0.1184778328
C  C142  1  0.41670000  0.75720000  0.56170000  1.0 -0.1184778328
C  C143  1  0.41670000  0.24280000  0.06170000  1.0 -0.1184778328
C  C144  1  0.58330000  0.24280000  0.43830000  1.0 -0.1184778328
C  C145  1  0.63300000  0.69100000  0.93470000  1.0 -0.1080463335
C  C146  1  0.36700000  0.69100000  0.56530000  1.0 -0.1080463335
C  C147  1  0.36700000  0.30900000  0.06530000  1.0 -0.1080463335
C  C148  1  0.63300000  0.30900000  0.43470000  1.0 -0.1080463335
C  C149  1  0.57910000  0.88100000  0.97570000  1.0 0.5607571003
C  C150  1  0.42090000  0.88100000  0.52430000  1.0 0.5607571003
C  C151  1  0.42090000  0.11900000  0.02430000  1.0 0.5607571003
C  C152  1  0.57910000  0.11900000  0.47570000  1.0 0.5607571003
C  C153  1  0.17580000  0.96730000  0.85210000  1.0 0.5296102014
C  C154  1  0.82420000  0.96730000  0.64790000  1.0 0.5296102014
C  C155  1  0.82420000  0.03270000  0.14790000  1.0 0.5296102014
C  C156  1  0.17580000  0.03270000  0.35210000  1.0 0.5296102014
C  C157  1  0.08500000  0.96720000  0.79910000  1.0 -0.0123792279
C  C158  1  0.91500000  0.96720000  0.70090000  1.0 -0.0123792279
C  C159  1  0.91500000  0.03280000  0.20090000  1.0 -0.0123792279
C  C160  1  0.08500000  0.03280000  0.29910000  1.0 -0.0123792279
C  C161  1  0.04030000  0.02620000  0.77460000  1.0 -0.1409576184
C  C162  1  0.95970000  0.02620000  0.72540000  1.0 -0.1409576184
C  C163  1  0.95970000  0.97380000  0.22540000  1.0 -0.1409576184
C  C164  1  0.04030000  0.97380000  0.27460000  1.0 -0.1409576184
C  C165  1  0.04270000  0.90490000  0.77490000  1.0 -0.1184778328
C  C166  1  0.95730000  0.90490000  0.72510000  1.0 -0.1184778328
C  C167  1  0.95730000  0.09510000  0.22510000  1.0 -0.1184778328
C  C168  1  0.04270000  0.09510000  0.27490000  1.0 -0.1184778328
N  N1  1  0.23830000  0.92120000  0.00889000  1.0 -0.236040354
N  N2  1  0.76170000  0.92120000  0.49111000  1.0 -0.236040354
N  N3  1  0.76170000  0.07880000  0.99111000  1.0 -0.236040354
N  N4  1  0.23830000  0.07880000  0.50889000  1.0 -0.236040354
N  N5  1  0.47580000  0.96040000  0.38606000  1.0 -0.2469545605
N  N6  1  0.52420000  0.96040000  0.11394000  1.0 -0.2469545605
N  N7  1  0.52420000  0.03960000  0.61394000  1.0 -0.2469545605
N  N8  1  0.47580000  0.03960000  0.88606000  1.0 -0.2469545605
N  N9  1  0.88340000  0.43370000  0.05600000  1.0 -0.2323328333
N  N10  1  0.11660000  0.43370000  0.44400000  1.0 -0.2323328333
N  N11  1  0.11660000  0.56630000  0.94400000  1.0 -0.2323328333
N  N12  1  0.88340000  0.56630000  0.55600000  1.0 -0.2323328333
O  O1  1  0.75110000  0.56140000  0.92830000  1.0 -0.5767730775
O  O2  1  0.24890000  0.56140000  0.57170000  1.0 -0.5767730775
O  O3  1  0.24890000  0.43860000  0.07170000  1.0 -0.5767730775
O  O4  1  0.75110000  0.43860000  0.42830000  1.0 -0.5767730775
O  O5  1  0.88390000  0.59390000  0.00150000  1.0 -0.5767730775
O  O6  1  0.11610000  0.59390000  0.49850000  1.0 -0.5767730775
O  O7  1  0.11610000  0.40610000  0.99850000  1.0 -0.5767730775
O  O8  1  0.88390000  0.40610000  0.50150000  1.0 -0.5767730775
O  O9  1  0.64150000  0.93097000  0.99683000  1.0 -0.5570739063
O  O10  1  0.35850000  0.93097000  0.50317000  1.0 -0.5570739063
O  O11  1  0.35850000  0.06903000  0.00317000  1.0 -0.5570739063
O  O12  1  0.64150000  0.06903000  0.49683000  1.0 -0.5570739063
O  O13  1  0.47460000  0.88436000  0.95431000  1.0 -0.5410939681
O  O14  1  0.52540000  0.88436000  0.54569000  1.0 -0.5410939681
O  O15  1  0.52540000  0.11564000  0.04569000  1.0 -0.5410939681
O  O16  1  0.47460000  0.11564000  0.45431000  1.0 -0.5410939681
O  O17  1  0.19240000  0.02380000  0.88063000  1.0 -0.5410939681
O  O18  1  0.80760000  0.02380000  0.61937000  1.0 -0.5410939681
O  O19  1  0.80760000  0.97620000  0.11937000  1.0 -0.5410939681
O  O20  1  0.19240000  0.97620000  0.38063000  1.0 -0.5410939681
O  O21  1  0.23440000  0.91380000  0.86575000  1.0 -0.5239511433
O  O22  1  0.76560000  0.91380000  0.63425000  1.0 -0.5239511433
O  O23  1  0.76560000  0.08620000  0.13425000  1.0 -0.5239511433
O  O24  1  0.23440000  0.08620000  0.36575000  1.0 -0.5239511433
