# DDEC6 charges by PACMAN v1.1 (https://github.com/mtap-research/PACMAN-charge/)
data_ELUJEC_FSR_pacman
_symmetry_space_group_name_H-M   'P 1'
_cell_length_a   15.18520000
_cell_length_b   15.18520000
_cell_length_c   15.18520000
_cell_angle_alpha   128.92800000
_cell_angle_beta   127.77100000
_cell_angle_gamma   76.06290000
_symmetry_Int_Tables_number   1
_chemical_formula_structural   Tb2ZnH20C32(NO5)4
_chemical_formula_sum   'Tb4 Zn2 H40 C64 N8 O40'
_cell_volume   2093.34217389
_cell_formula_units_Z   2
loop_
 _symmetry_equiv_pos_site_id
 _symmetry_equiv_pos_as_xyz
  1  'x, y, z'
loop_
 _atom_site_type_symbol
 _atom_site_label
 _atom_site_symmetry_multiplicity
 _atom_site_fract_x
 _atom_site_fract_y
 _atom_site_fract_z
 _atom_site_occupancy
 _atom_site_charge
Tb  Tb1  1  0.71406000  0.26733000  0.66839000  1.0 1.9697160217
Tb  Tb2  1  0.28594000  0.95433000  0.55327000  1.0 1.9697160217
Tb  Tb3  1  0.59894000  0.76733000  0.05327000  1.0 1.9697160217
Tb  Tb4  1  0.40106000  0.45433000  0.16839000  1.0 1.9697160217
Zn  Zn1  1  0.50000000  0.10940000  0.60940000  1.0 1.0416737589
Zn  Zn2  1  0.50000000  0.60940000  0.10940000  1.0 1.0416737589
H  H1  1  0.19930000  0.08760000  0.25570000  1.0 0.1281911227
H  H2  1  0.80070000  0.05640000  0.88830000  1.0 0.1281911227
H  H3  1  0.83190000  0.58760000  0.38830000  1.0 0.1281911227
H  H4  1  0.16810000  0.55640000  0.75570000  1.0 0.1281911227
H  H5  1  0.42630000  0.28270000  0.35160000  1.0 0.1484326589
H  H6  1  0.57370000  0.92530000  0.85640000  1.0 0.1484326589
H  H7  1  0.93110000  0.78270000  0.35640000  1.0 0.1484326589
H  H8  1  0.06890000  0.42530000  0.85160000  1.0 0.1484326589
H  H9  1  0.63540000  0.06540000  0.37540000  1.0 0.3278324547
H  H10  1  0.36460000  0.74000000  0.43000000  1.0 0.3278324547
H  H11  1  0.69000000  0.56540000  0.93000000  1.0 0.3278324547
H  H12  1  0.31000000  0.24000000  0.87540000  1.0 0.3278324547
H  H13  1  0.68440000  0.16800000  0.40840000  1.0 0.4091034624
H  H14  1  0.31560000  0.72400000  0.48360000  1.0 0.4091034624
H  H15  1  0.75960000  0.66800000  0.98360000  1.0 0.4091034624
H  H16  1  0.24040000  0.22400000  0.90840000  1.0 0.4091034624
H  H17  1  0.63000000  0.47040000  0.75920000  1.0 0.4009067061
H  H18  1  0.37000000  0.12920000  0.84040000  1.0 0.4009067061
H  H19  1  0.71120000  0.97040000  0.34040000  1.0 0.4009067061
H  H20  1  0.28880000  0.62920000  0.25920000  1.0 0.4009067061
H  H21  1  0.72710000  0.48880000  0.89090000  1.0 0.3136389944
H  H22  1  0.27290000  0.16380000  0.76170000  1.0 0.3136389944
H  H23  1  0.59790000  0.98880000  0.26170000  1.0 0.3136389944
H  H24  1  0.40210000  0.66380000  0.39090000  1.0 0.3136389944
H  H25  1  0.91040000  0.30460000  0.10400000  1.0 0.1383373594
H  H26  1  0.08960000  0.19360000  0.39420000  1.0 0.1383373594
H  H27  1  0.20060000  0.80460000  0.89420000  1.0 0.1383373594
H  H28  1  0.79940000  0.69360000  0.60400000  1.0 0.1383373594
H  H29  1  0.58520000  0.33970000  0.94250000  1.0 0.1383373594
H  H30  1  0.41480000  0.35730000  0.75450000  1.0 0.1383373594
H  H31  1  0.39720000  0.83970000  0.25450000  1.0 0.1383373594
H  H32  1  0.60280000  0.85730000  0.44250000  1.0 0.1383373594
H  H33  1  0.09110000  0.23620000  0.06910000  1.0 0.1484326589
H  H34  1  0.90890000  0.97800000  0.14510000  1.0 0.1484326589
H  H35  1  0.16710000  0.73620000  0.64510000  1.0 0.1484326589
H  H36  1  0.83290000  0.47800000  0.56910000  1.0 0.1484326589
H  H37  1  0.76480000  0.32830000  0.26610000  1.0 0.1383373594
H  H38  1  0.23520000  0.50130000  0.56350000  1.0 0.1383373594
H  H39  1  0.06220000  0.82830000  0.06350000  1.0 0.1383373594
H  H40  1  0.93780000  0.00130000  0.76610000  1.0 0.1383373594
C  C1  1  0.56860000  0.37580000  0.12280000  1.0 0.5713629964
C  C2  1  0.43140000  0.55420000  0.80720000  1.0 0.5713629964
C  C3  1  0.25300000  0.87580000  0.30720000  1.0 0.5713629964
C  C4  1  0.74700000  0.05420000  0.62280000  1.0 0.5713629964
C  C5  1  0.29820000  0.33610000  0.18430000  1.0 0.5713629964
C  C6  1  0.70180000  0.88610000  0.03790000  1.0 0.5713629964
C  C7  1  0.15180000  0.83610000  0.53790000  1.0 0.5713629964
C  C8  1  0.84820000  0.38610000  0.68430000  1.0 0.5713629964
C  C9  1  0.26500000  0.26460000  0.20260000  1.0 0.0081076539
C  C10  1  0.73500000  0.93760000  0.99960000  1.0 0.0081076539
C  C11  1  0.06200000  0.76460000  0.49960000  1.0 0.0081076539
C  C12  1  0.93800000  0.43760000  0.70260000  1.0 0.0081076539
C  C13  1  0.21510000  0.13430000  0.24480000  1.0 -0.1593415682
C  C14  1  0.78490000  0.02970000  0.91920000  1.0 -0.1593415682
C  C15  1  0.88950000  0.63430000  0.41920000  1.0 -0.1593415682
C  C16  1  0.11050000  0.52970000  0.74480000  1.0 -0.1593415682
C  C17  1  0.32650000  0.18840000  0.32590000  1.0 -0.0128538674
C  C18  1  0.67350000  0.99940000  0.86190000  1.0 -0.0128538674
C  C19  1  0.86250000  0.68840000  0.36190000  1.0 -0.0128538674
C  C20  1  0.13750000  0.49940000  0.82590000  1.0 -0.0128538674
C  C21  1  0.35060000  0.25060000  0.30060000  1.0 -0.1038958012
C  C22  1  0.64940000  0.95000000  0.90000000  1.0 -0.1038958012
C  C23  1  0.95000000  0.75060000  0.40000000  1.0 -0.1038958012
C  C24  1  0.05000000  0.45000000  0.80060000  1.0 -0.1038958012
C  C25  1  0.42660000  0.17860000  0.43920000  1.0 0.6231270227
C  C26  1  0.57340000  0.01260000  0.75200000  1.0 0.6231270227
C  C27  1  0.73940000  0.67860000  0.25200000  1.0 0.6231270227
C  C28  1  0.26060000  0.51260000  0.93920000  1.0 0.6231270227
C  C29  1  0.12580000  0.15030000  0.14570000  1.0 0.1601518075
C  C30  1  0.87420000  0.01990000  0.02450000  1.0 0.1601518075
C  C31  1  0.00460000  0.65030000  0.52450000  1.0 0.1601518075
C  C32  1  0.99540000  0.51990000  0.64570000  1.0 0.1601518075
C  C33  1  0.84710000  0.30980000  0.10230000  1.0 -0.1593415682
C  C34  1  0.15290000  0.25520000  0.46270000  1.0 -0.1593415682
C  C35  1  0.20750000  0.80980000  0.96270000  1.0 -0.1593415682
C  C36  1  0.79250000  0.75520000  0.60230000  1.0 -0.1593415682
C  C37  1  0.65260000  0.33430000  0.00850000  1.0 -0.0881592613
C  C38  1  0.34740000  0.35590000  0.68170000  1.0 -0.0881592613
C  C39  1  0.32580000  0.83430000  0.18170000  1.0 -0.0881592613
C  C40  1  0.67420000  0.85590000  0.50850000  1.0 -0.0881592613
C  C41  1  0.15030000  0.22000000  0.12870000  1.0 -0.1593415682
C  C42  1  0.84970000  0.97840000  0.06970000  1.0 -0.1593415682
C  C43  1  0.09130000  0.72000000  0.56970000  1.0 -0.1593415682
C  C44  1  0.90870000  0.47840000  0.62870000  1.0 -0.1593415682
C  C45  1  0.74380000  0.31190000  0.00050000  1.0 0.0081076539
C  C46  1  0.25620000  0.25670000  0.56810000  1.0 0.0081076539
C  C47  1  0.31140000  0.81190000  0.06810000  1.0 0.0081076539
C  C48  1  0.68860000  0.75670000  0.50050000  1.0 0.0081076539
C  C49  1  0.66160000  0.34840000  0.11300000  1.0 -0.0353689548
C  C50  1  0.33840000  0.45140000  0.68680000  1.0 -0.0353689548
C  C51  1  0.23540000  0.84840000  0.18680000  1.0 -0.0353689548
C  C52  1  0.76460000  0.95140000  0.61300000  1.0 -0.0353689548
C  C53  1  0.85450000  0.31560000  0.20310000  1.0 0.1601518075
C  C54  1  0.14550000  0.34860000  0.46110000  1.0 0.1601518075
C  C55  1  0.11250000  0.81560000  0.96110000  1.0 0.1601518075
C  C56  1  0.88750000  0.84860000  0.70310000  1.0 0.1601518075
C  C57  1  0.76150000  0.33030000  0.20420000  1.0 -0.1462998782
C  C58  1  0.23850000  0.44270000  0.56880000  1.0 -0.1462998782
C  C59  1  0.12610000  0.83030000  0.06880000  1.0 -0.1462998782
C  C60  1  0.87390000  0.94270000  0.70420000  1.0 -0.1462998782
C  C61  1  0.72760000  0.29780000  0.88200000  1.0 0.5640933308
C  C62  1  0.27240000  0.15440000  0.57020000  1.0 0.5640933308
C  C63  1  0.41580000  0.79780000  0.07020000  1.0 0.5640933308
C  C64  1  0.58420000  0.65440000  0.38200000  1.0 0.5640933308
N  N1  1  0.95450000  0.30840000  0.30730000  1.0 -0.1038958012
N  N2  1  0.04550000  0.35280000  0.35390000  1.0 -0.1038958012
N  N3  1  0.00110000  0.80840000  0.85390000  1.0 -0.1038958012
N  N4  1  0.99890000  0.85280000  0.80730000  1.0 -0.1038958012
N  N5  1  0.00710000  0.10510000  0.06420000  1.0 -0.10895768
N  N6  1  0.99290000  0.05710000  0.09800000  1.0 -0.10895768
N  N7  1  0.04090000  0.60510000  0.59800000  1.0 -0.10895768
N  N8  1  0.95910000  0.55710000  0.56420000  1.0 -0.10895768
O  O1  1  0.49530000  0.42190000  0.06780000  1.0 -0.6684200969
O  O2  1  0.50470000  0.57250000  0.92660000  1.0 -0.6684200969
O  O3  1  0.35410000  0.92190000  0.42660000  1.0 -0.6684200969
O  O4  1  0.64590000  0.07250000  0.56780000  1.0 -0.6684200969
O  O5  1  0.56070000  0.35760000  0.18970000  1.0 -0.5932856408
O  O6  1  0.43930000  0.62900000  0.79690000  1.0 -0.5932856408
O  O7  1  0.16790000  0.85760000  0.29690000  1.0 -0.5932856408
O  O8  1  0.83210000  0.12900000  0.68970000  1.0 -0.5932856408
O  O9  1  0.40270000  0.11750000  0.45340000  1.0 -0.5153319892
O  O10  1  0.59730000  0.05070000  0.71480000  1.0 -0.5153319892
O  O11  1  0.66410000  0.61750000  0.21480000  1.0 -0.5153319892
O  O12  1  0.33590000  0.55070000  0.95340000  1.0 -0.5153319892
O  O13  1  0.40450000  0.36870000  0.25420000  1.0 -0.6083423626
O  O14  1  0.59550000  0.84970000  0.96420000  1.0 -0.6083423626
O  O15  1  0.11450000  0.86870000  0.46420000  1.0 -0.6083423626
O  O16  1  0.88550000  0.34970000  0.75420000  1.0 -0.6083423626
O  O17  1  0.22380000  0.35810000  0.10210000  1.0 -0.6083423626
O  O18  1  0.77620000  0.87830000  0.13430000  1.0 -0.6083423626
O  O19  1  0.25600000  0.85810000  0.63430000  1.0 -0.6083423626
O  O20  1  0.74400000  0.37830000  0.60210000  1.0 -0.6083423626
O  O21  1  0.62740000  0.26800000  0.77200000  1.0 -0.6264447179
O  O22  1  0.37260000  0.14460000  0.64060000  1.0 -0.6264447179
O  O23  1  0.49600000  0.76800000  0.14060000  1.0 -0.6264447179
O  O24  1  0.50400000  0.64460000  0.27200000  1.0 -0.6264447179
O  O25  1  0.69800000  0.13490000  0.45270000  1.0 -0.7925649491
O  O26  1  0.30200000  0.75470000  0.43690000  1.0 -0.7925649491
O  O27  1  0.68220000  0.63490000  0.93690000  1.0 -0.7925649491
O  O28  1  0.31780000  0.25470000  0.95270000  1.0 -0.7925649491
O  O29  1  0.70290000  0.46090000  0.80400000  1.0 -0.7572225687
O  O30  1  0.29710000  0.10110000  0.75800000  1.0 -0.7572225687
O  O31  1  0.65690000  0.96090000  0.25800000  1.0 -0.7572225687
O  O32  1  0.34310000  0.60110000  0.30400000  1.0 -0.7572225687
O  O33  1  0.81190000  0.32070000  0.90060000  1.0 -0.5458395687
O  O34  1  0.18810000  0.08870000  0.50880000  1.0 -0.5458395687
O  O35  1  0.42010000  0.82070000  0.00880000  1.0 -0.5458395687
O  O36  1  0.57990000  0.58870000  0.40060000  1.0 -0.5458395687
O  O37  1  0.52300000  0.22880000  0.50400000  1.0 -0.6549842563
O  O38  1  0.47700000  0.98100000  0.70580000  1.0 -0.6556519475
O  O39  1  0.72480000  0.72880000  0.20580000  1.0 -0.6549842563
O  O40  1  0.27520000  0.48100000  0.00400000  1.0 -0.6556519475
