# DDEC6 charges by PACMAN v1.1 (https://github.com/mtap-research/PACMAN-charge/)
data_EMAFII_FSR_pacman
_symmetry_space_group_name_H-M   'P 1'
_cell_length_a   19.89310000
_cell_length_b   19.89310000
_cell_length_c   19.89310000
_cell_angle_alpha   90.00000000
_cell_angle_beta   90.00000000
_cell_angle_gamma   90.00000000
_symmetry_Int_Tables_number   1
_chemical_formula_structural   AgH36(C11N2)3
_chemical_formula_sum   'Ag8 H288 C264 N48'
_cell_volume   7872.40443499
_cell_formula_units_Z   8
loop_
 _symmetry_equiv_pos_site_id
 _symmetry_equiv_pos_as_xyz
  1  'x, y, z'
loop_
 _atom_site_type_symbol
 _atom_site_label
 _atom_site_symmetry_multiplicity
 _atom_site_fract_x
 _atom_site_fract_y
 _atom_site_fract_z
 _atom_site_occupancy
 _atom_site_charge
Ag  Ag1  1  0.00297000  0.00297000  0.00297000  1.0 0.2706053471
Ag  Ag2  1  0.49703000  0.99703000  0.50297000  1.0 0.2706053471
Ag  Ag3  1  0.99703000  0.50297000  0.49703000  1.0 0.2706053471
Ag  Ag4  1  0.50297000  0.49703000  0.99703000  1.0 0.2706053471
Ag  Ag5  1  0.75297000  0.25297000  0.24703000  1.0 0.2706053471
Ag  Ag6  1  0.74703000  0.74703000  0.74703000  1.0 0.2706053471
Ag  Ag7  1  0.25297000  0.24703000  0.75297000  1.0 0.2706053471
Ag  Ag8  1  0.24703000  0.75297000  0.25297000  1.0 0.2706053471
H  H1  1  0.89720000  0.81760000  0.16210000  1.0 0.1501709201
H  H2  1  0.60280000  0.18240000  0.66210000  1.0 0.1501709201
H  H3  1  0.10280000  0.31760000  0.33790000  1.0 0.1501709201
H  H4  1  0.39720000  0.68240000  0.83790000  1.0 0.1501709201
H  H5  1  0.16210000  0.89720000  0.81760000  1.0 0.1501709201
H  H6  1  0.66210000  0.60280000  0.18240000  1.0 0.1501709201
H  H7  1  0.33790000  0.10280000  0.31760000  1.0 0.1501709201
H  H8  1  0.83790000  0.39720000  0.68240000  1.0 0.1501709201
H  H9  1  0.81760000  0.16210000  0.89720000  1.0 0.1501709201
H  H10  1  0.18240000  0.66210000  0.60280000  1.0 0.1501709201
H  H11  1  0.31760000  0.33790000  0.10280000  1.0 0.1501709201
H  H12  1  0.68240000  0.83790000  0.39720000  1.0 0.1501709201
H  H13  1  0.56760000  0.14720000  0.08790000  1.0 0.1501709201
H  H14  1  0.93240000  0.85280000  0.58790000  1.0 0.1501709201
H  H15  1  0.06760000  0.35280000  0.91210000  1.0 0.1501709201
H  H16  1  0.43240000  0.64720000  0.41210000  1.0 0.1501709201
H  H17  1  0.64720000  0.41210000  0.43240000  1.0 0.1501709201
H  H18  1  0.35280000  0.91210000  0.06760000  1.0 0.1501709201
H  H19  1  0.85280000  0.58790000  0.93240000  1.0 0.1501709201
H  H20  1  0.14720000  0.08790000  0.56760000  1.0 0.1501709201
H  H21  1  0.91210000  0.06760000  0.35280000  1.0 0.1501709201
H  H22  1  0.41210000  0.43240000  0.64720000  1.0 0.1501709201
H  H23  1  0.08790000  0.56760000  0.14720000  1.0 0.1501709201
H  H24  1  0.58790000  0.93240000  0.85280000  1.0 0.1501709201
H  H25  1  0.90210000  0.81880000  0.01240000  1.0 0.1501709201
H  H26  1  0.59790000  0.18120000  0.51240000  1.0 0.1501709201
H  H27  1  0.09790000  0.31880000  0.48760000  1.0 0.1501709201
H  H28  1  0.40210000  0.68120000  0.98760000  1.0 0.1501709201
H  H29  1  0.01240000  0.90210000  0.81880000  1.0 0.1501709201
H  H30  1  0.51240000  0.59790000  0.18120000  1.0 0.1501709201
H  H31  1  0.48760000  0.09790000  0.31880000  1.0 0.1501709201
H  H32  1  0.98760000  0.40210000  0.68120000  1.0 0.1501709201
H  H33  1  0.81880000  0.01240000  0.90210000  1.0 0.1501709201
H  H34  1  0.18120000  0.51240000  0.59790000  1.0 0.1501709201
H  H35  1  0.31880000  0.48760000  0.09790000  1.0 0.1501709201
H  H36  1  0.68120000  0.98760000  0.40210000  1.0 0.1501709201
H  H37  1  0.56880000  0.15210000  0.23760000  1.0 0.1501709201
H  H38  1  0.93120000  0.84790000  0.73760000  1.0 0.1501709201
H  H39  1  0.06880000  0.34790000  0.76240000  1.0 0.1501709201
H  H40  1  0.43120000  0.65210000  0.26240000  1.0 0.1501709201
H  H41  1  0.65210000  0.26240000  0.43120000  1.0 0.1501709201
H  H42  1  0.34790000  0.76240000  0.06880000  1.0 0.1501709201
H  H43  1  0.84790000  0.73760000  0.93120000  1.0 0.1501709201
H  H44  1  0.15210000  0.23760000  0.56880000  1.0 0.1501709201
H  H45  1  0.76240000  0.06880000  0.34790000  1.0 0.1501709201
H  H46  1  0.26240000  0.43120000  0.65210000  1.0 0.1501709201
H  H47  1  0.23760000  0.56880000  0.15210000  1.0 0.1501709201
H  H48  1  0.73760000  0.93120000  0.84790000  1.0 0.1501709201
H  H49  1  0.97900000  0.80070000  0.02740000  1.0 0.1501709201
H  H50  1  0.52100000  0.19930000  0.52740000  1.0 0.1501709201
H  H51  1  0.02100000  0.30070000  0.47260000  1.0 0.1501709201
H  H52  1  0.47900000  0.69930000  0.97260000  1.0 0.1501709201
H  H53  1  0.02740000  0.97900000  0.80070000  1.0 0.1501709201
H  H54  1  0.52740000  0.52100000  0.19930000  1.0 0.1501709201
H  H55  1  0.47260000  0.02100000  0.30070000  1.0 0.1501709201
H  H56  1  0.97260000  0.47900000  0.69930000  1.0 0.1501709201
H  H57  1  0.80070000  0.02740000  0.97900000  1.0 0.1501709201
H  H58  1  0.19930000  0.52740000  0.52100000  1.0 0.1501709201
H  H59  1  0.30070000  0.47260000  0.02100000  1.0 0.1501709201
H  H60  1  0.69930000  0.97260000  0.47900000  1.0 0.1501709201
H  H61  1  0.55070000  0.22900000  0.22260000  1.0 0.1501709201
H  H62  1  0.94930000  0.77100000  0.72260000  1.0 0.1501709201
H  H63  1  0.05070000  0.27100000  0.77740000  1.0 0.1501709201
H  H64  1  0.44930000  0.72900000  0.27740000  1.0 0.1501709201
H  H65  1  0.72900000  0.27740000  0.44930000  1.0 0.1501709201
H  H66  1  0.27100000  0.77740000  0.05070000  1.0 0.1501709201
H  H67  1  0.77100000  0.72260000  0.94930000  1.0 0.1501709201
H  H68  1  0.22900000  0.22260000  0.55070000  1.0 0.1501709201
H  H69  1  0.77740000  0.05070000  0.27100000  1.0 0.1501709201
H  H70  1  0.27740000  0.44930000  0.72900000  1.0 0.1501709201
H  H71  1  0.22260000  0.55070000  0.22900000  1.0 0.1501709201
H  H72  1  0.72260000  0.94930000  0.77100000  1.0 0.1501709201
H  H73  1  0.96070000  0.86680000  0.98530000  1.0 0.140712372
H  H74  1  0.53930000  0.13320000  0.48530000  1.0 0.140712372
H  H75  1  0.03930000  0.36680000  0.51470000  1.0 0.140712372
H  H76  1  0.46070000  0.63320000  0.01470000  1.0 0.140712372
H  H77  1  0.98530000  0.96070000  0.86680000  1.0 0.140712372
H  H78  1  0.48530000  0.53930000  0.13320000  1.0 0.140712372
H  H79  1  0.51470000  0.03930000  0.36680000  1.0 0.140712372
H  H80  1  0.01470000  0.46070000  0.63320000  1.0 0.140712372
H  H81  1  0.86680000  0.98530000  0.96070000  1.0 0.140712372
H  H82  1  0.13320000  0.48530000  0.53930000  1.0 0.140712372
H  H83  1  0.36680000  0.51470000  0.03930000  1.0 0.140712372
H  H84  1  0.63320000  0.01470000  0.46070000  1.0 0.140712372
H  H85  1  0.61680000  0.21070000  0.26470000  1.0 0.140712372
H  H86  1  0.88320000  0.78930000  0.76470000  1.0 0.140712372
H  H87  1  0.11680000  0.28930000  0.73530000  1.0 0.140712372
H  H88  1  0.38320000  0.71070000  0.23530000  1.0 0.140712372
H  H89  1  0.71070000  0.23530000  0.38320000  1.0 0.140712372
H  H90  1  0.28930000  0.73530000  0.11680000  1.0 0.140712372
H  H91  1  0.78930000  0.76470000  0.88320000  1.0 0.140712372
H  H92  1  0.21070000  0.26470000  0.61680000  1.0 0.140712372
H  H93  1  0.73530000  0.11680000  0.28930000  1.0 0.140712372
H  H94  1  0.23530000  0.38320000  0.71070000  1.0 0.140712372
H  H95  1  0.26470000  0.61680000  0.21070000  1.0 0.140712372
H  H96  1  0.76470000  0.88320000  0.78930000  1.0 0.140712372
H  H97  1  0.94850000  0.93210000  0.28900000  1.0 0.140712372
H  H98  1  0.55150000  0.06790000  0.78900000  1.0 0.140712372
H  H99  1  0.05150000  0.43210000  0.21100000  1.0 0.140712372
H  H100  1  0.44850000  0.56790000  0.71100000  1.0 0.140712372
H  H101  1  0.28900000  0.94850000  0.93210000  1.0 0.140712372
H  H102  1  0.78900000  0.55150000  0.06790000  1.0 0.140712372
H  H103  1  0.21100000  0.05150000  0.43210000  1.0 0.140712372
H  H104  1  0.71100000  0.44850000  0.56790000  1.0 0.140712372
H  H105  1  0.93210000  0.28900000  0.94850000  1.0 0.140712372
H  H106  1  0.06790000  0.78900000  0.55150000  1.0 0.140712372
H  H107  1  0.43210000  0.21100000  0.05150000  1.0 0.140712372
H  H108  1  0.56790000  0.71100000  0.44850000  1.0 0.140712372
H  H109  1  0.68210000  0.19850000  0.96100000  1.0 0.140712372
H  H110  1  0.81790000  0.80150000  0.46100000  1.0 0.140712372
H  H111  1  0.18210000  0.30150000  0.03900000  1.0 0.140712372
H  H112  1  0.31790000  0.69850000  0.53900000  1.0 0.140712372
H  H113  1  0.69850000  0.53900000  0.31790000  1.0 0.140712372
H  H114  1  0.30150000  0.03900000  0.18210000  1.0 0.140712372
H  H115  1  0.80150000  0.46100000  0.81790000  1.0 0.140712372
H  H116  1  0.19850000  0.96100000  0.68210000  1.0 0.140712372
H  H117  1  0.03900000  0.18210000  0.30150000  1.0 0.140712372
H  H118  1  0.53900000  0.31790000  0.69850000  1.0 0.140712372
H  H119  1  0.96100000  0.68210000  0.19850000  1.0 0.140712372
H  H120  1  0.46100000  0.81790000  0.80150000  1.0 0.140712372
H  H121  1  0.88720000  0.88070000  0.28050000  1.0 0.1501709201
H  H122  1  0.61280000  0.11930000  0.78050000  1.0 0.1501709201
H  H123  1  0.11280000  0.38070000  0.21950000  1.0 0.1501709201
H  H124  1  0.38720000  0.61930000  0.71950000  1.0 0.1501709201
H  H125  1  0.28050000  0.88720000  0.88070000  1.0 0.1501709201
H  H126  1  0.78050000  0.61280000  0.11930000  1.0 0.1501709201
H  H127  1  0.21950000  0.11280000  0.38070000  1.0 0.1501709201
H  H128  1  0.71950000  0.38720000  0.61930000  1.0 0.1501709201
H  H129  1  0.88070000  0.28050000  0.88720000  1.0 0.1501709201
H  H130  1  0.11930000  0.78050000  0.61280000  1.0 0.1501709201
H  H131  1  0.38070000  0.21950000  0.11280000  1.0 0.1501709201
H  H132  1  0.61930000  0.71950000  0.38720000  1.0 0.1501709201
H  H133  1  0.63070000  0.13720000  0.96950000  1.0 0.1501709201
H  H134  1  0.86930000  0.86280000  0.46950000  1.0 0.1501709201
H  H135  1  0.13070000  0.36280000  0.03050000  1.0 0.1501709201
H  H136  1  0.36930000  0.63720000  0.53050000  1.0 0.1501709201
H  H137  1  0.63720000  0.53050000  0.36930000  1.0 0.1501709201
H  H138  1  0.36280000  0.03050000  0.13070000  1.0 0.1501709201
H  H139  1  0.86280000  0.46950000  0.86930000  1.0 0.1501709201
H  H140  1  0.13720000  0.96950000  0.63070000  1.0 0.1501709201
H  H141  1  0.03050000  0.13070000  0.36280000  1.0 0.1501709201
H  H142  1  0.53050000  0.36930000  0.63720000  1.0 0.1501709201
H  H143  1  0.96950000  0.63070000  0.13720000  1.0 0.1501709201
H  H144  1  0.46950000  0.86930000  0.86280000  1.0 0.1501709201
H  H145  1  0.87600000  0.95920000  0.26690000  1.0 0.1501709201
H  H146  1  0.62400000  0.04080000  0.76690000  1.0 0.1501709201
H  H147  1  0.12400000  0.45920000  0.23310000  1.0 0.1501709201
H  H148  1  0.37600000  0.54080000  0.73310000  1.0 0.1501709201
H  H149  1  0.26690000  0.87600000  0.95920000  1.0 0.1501709201
H  H150  1  0.76690000  0.62400000  0.04080000  1.0 0.1501709201
H  H151  1  0.23310000  0.12400000  0.45920000  1.0 0.1501709201
H  H152  1  0.73310000  0.37600000  0.54080000  1.0 0.1501709201
H  H153  1  0.95920000  0.26690000  0.87600000  1.0 0.1501709201
H  H154  1  0.04080000  0.76690000  0.62400000  1.0 0.1501709201
H  H155  1  0.45920000  0.23310000  0.12400000  1.0 0.1501709201
H  H156  1  0.54080000  0.73310000  0.37600000  1.0 0.1501709201
H  H157  1  0.70920000  0.12600000  0.98310000  1.0 0.1501709201
H  H158  1  0.79080000  0.87400000  0.48310000  1.0 0.1501709201
H  H159  1  0.20920000  0.37400000  0.01690000  1.0 0.1501709201
H  H160  1  0.29080000  0.62600000  0.51690000  1.0 0.1501709201
H  H161  1  0.62600000  0.51690000  0.29080000  1.0 0.1501709201
H  H162  1  0.37400000  0.01690000  0.20920000  1.0 0.1501709201
H  H163  1  0.87400000  0.48310000  0.79080000  1.0 0.1501709201
H  H164  1  0.12600000  0.98310000  0.70920000  1.0 0.1501709201
H  H165  1  0.01690000  0.20920000  0.37400000  1.0 0.1501709201
H  H166  1  0.51690000  0.29080000  0.62600000  1.0 0.1501709201
H  H167  1  0.98310000  0.70920000  0.12600000  1.0 0.1501709201
H  H168  1  0.48310000  0.79080000  0.87400000  1.0 0.1501709201
H  H169  1  0.01890000  0.03880000  0.15260000  1.0 0.1072755896
H  H170  1  0.48110000  0.96120000  0.65260000  1.0 0.1072755896
H  H171  1  0.98110000  0.53880000  0.34740000  1.0 0.1072755896
H  H172  1  0.51890000  0.46120000  0.84740000  1.0 0.1072755896
H  H173  1  0.15260000  0.01890000  0.03880000  1.0 0.1072755896
H  H174  1  0.65260000  0.48110000  0.96120000  1.0 0.1072755896
H  H175  1  0.34740000  0.98110000  0.53880000  1.0 0.1072755896
H  H176  1  0.84740000  0.51890000  0.46120000  1.0 0.1072755896
H  H177  1  0.03880000  0.15260000  0.01890000  1.0 0.1072755896
H  H178  1  0.96120000  0.65260000  0.48110000  1.0 0.1072755896
H  H179  1  0.53880000  0.34740000  0.98110000  1.0 0.1072755896
H  H180  1  0.46120000  0.84740000  0.51890000  1.0 0.1072755896
H  H181  1  0.78880000  0.26890000  0.09740000  1.0 0.1072755896
H  H182  1  0.71120000  0.73110000  0.59740000  1.0 0.1072755896
H  H183  1  0.28880000  0.23110000  0.90260000  1.0 0.1072755896
H  H184  1  0.21120000  0.76890000  0.40260000  1.0 0.1072755896
H  H185  1  0.76890000  0.40260000  0.21120000  1.0 0.1072755896
H  H186  1  0.23110000  0.90260000  0.28880000  1.0 0.1072755896
H  H187  1  0.73110000  0.59740000  0.71120000  1.0 0.1072755896
H  H188  1  0.26890000  0.09740000  0.78880000  1.0 0.1072755896
H  H189  1  0.90260000  0.28880000  0.23110000  1.0 0.1072755896
H  H190  1  0.40260000  0.21120000  0.76890000  1.0 0.1072755896
H  H191  1  0.09740000  0.78880000  0.26890000  1.0 0.1072755896
H  H192  1  0.59740000  0.71120000  0.73110000  1.0 0.1072755896
H  H193  1  0.97830000  0.03070000  0.22150000  1.0 0.1216744796
H  H194  1  0.52170000  0.96930000  0.72150000  1.0 0.1216744796
H  H195  1  0.02170000  0.53070000  0.27850000  1.0 0.1216744796
H  H196  1  0.47830000  0.46930000  0.77850000  1.0 0.1216744796
H  H197  1  0.22150000  0.97830000  0.03070000  1.0 0.1216744796
H  H198  1  0.72150000  0.52170000  0.96930000  1.0 0.1216744796
H  H199  1  0.27850000  0.02170000  0.53070000  1.0 0.1216744796
H  H200  1  0.77850000  0.47830000  0.46930000  1.0 0.1216744796
H  H201  1  0.03070000  0.22150000  0.97830000  1.0 0.1216744796
H  H202  1  0.96930000  0.72150000  0.52170000  1.0 0.1216744796
H  H203  1  0.53070000  0.27850000  0.02170000  1.0 0.1216744796
H  H204  1  0.46930000  0.77850000  0.47830000  1.0 0.1216744796
H  H205  1  0.78070000  0.22830000  0.02850000  1.0 0.1216744796
H  H206  1  0.71930000  0.77170000  0.52850000  1.0 0.1216744796
H  H207  1  0.28070000  0.27170000  0.97150000  1.0 0.1216744796
H  H208  1  0.21930000  0.72830000  0.47150000  1.0 0.1216744796
H  H209  1  0.72830000  0.47150000  0.21930000  1.0 0.1216744796
H  H210  1  0.27170000  0.97150000  0.28070000  1.0 0.1216744796
H  H211  1  0.77170000  0.52850000  0.71930000  1.0 0.1216744796
H  H212  1  0.22830000  0.02850000  0.78070000  1.0 0.1216744796
H  H213  1  0.97150000  0.28070000  0.27170000  1.0 0.1216744796
H  H214  1  0.47150000  0.21930000  0.72830000  1.0 0.1216744796
H  H215  1  0.02850000  0.78070000  0.22830000  1.0 0.1216744796
H  H216  1  0.52850000  0.71930000  0.77170000  1.0 0.1216744796
H  H217  1  0.84680000  0.01620000  0.14320000  1.0 0.1216744796
H  H218  1  0.65320000  0.98380000  0.64320000  1.0 0.1216744796
H  H219  1  0.15320000  0.51620000  0.35680000  1.0 0.1216744796
H  H220  1  0.34680000  0.48380000  0.85680000  1.0 0.1216744796
H  H221  1  0.14320000  0.84680000  0.01620000  1.0 0.1216744796
H  H222  1  0.64320000  0.65320000  0.98380000  1.0 0.1216744796
H  H223  1  0.35680000  0.15320000  0.51620000  1.0 0.1216744796
H  H224  1  0.85680000  0.34680000  0.48380000  1.0 0.1216744796
H  H225  1  0.01620000  0.14320000  0.84680000  1.0 0.1216744796
H  H226  1  0.98380000  0.64320000  0.65320000  1.0 0.1216744796
H  H227  1  0.51620000  0.35680000  0.15320000  1.0 0.1216744796
H  H228  1  0.48380000  0.85680000  0.34680000  1.0 0.1216744796
H  H229  1  0.76620000  0.09680000  0.10680000  1.0 0.1216744796
H  H230  1  0.73380000  0.90320000  0.60680000  1.0 0.1216744796
H  H231  1  0.26620000  0.40320000  0.89320000  1.0 0.1216744796
H  H232  1  0.23380000  0.59680000  0.39320000  1.0 0.1216744796
H  H233  1  0.59680000  0.39320000  0.23380000  1.0 0.1216744796
H  H234  1  0.40320000  0.89320000  0.26620000  1.0 0.1216744796
H  H235  1  0.90320000  0.60680000  0.73380000  1.0 0.1216744796
H  H236  1  0.09680000  0.10680000  0.76620000  1.0 0.1216744796
H  H237  1  0.89320000  0.26620000  0.40320000  1.0 0.1216744796
H  H238  1  0.39320000  0.23380000  0.59680000  1.0 0.1216744796
H  H239  1  0.10680000  0.76620000  0.09680000  1.0 0.1216744796
H  H240  1  0.60680000  0.73380000  0.90320000  1.0 0.1216744796
H  H241  1  0.07550000  0.24910000  0.14990000  1.0 0.1072755896
H  H242  1  0.42450000  0.75090000  0.64990000  1.0 0.1072755896
H  H243  1  0.92450000  0.74910000  0.35010000  1.0 0.1072755896
H  H244  1  0.57550000  0.25090000  0.85010000  1.0 0.1072755896
H  H245  1  0.14990000  0.07550000  0.24910000  1.0 0.1072755896
H  H246  1  0.64990000  0.42450000  0.75090000  1.0 0.1072755896
H  H247  1  0.35010000  0.92450000  0.74910000  1.0 0.1072755896
H  H248  1  0.85010000  0.57550000  0.25090000  1.0 0.1072755896
H  H249  1  0.24910000  0.14990000  0.07550000  1.0 0.1072755896
H  H250  1  0.75090000  0.64990000  0.42450000  1.0 0.1072755896
H  H251  1  0.74910000  0.35010000  0.92450000  1.0 0.1072755896
H  H252  1  0.25090000  0.85010000  0.57550000  1.0 0.1072755896
H  H253  1  0.99910000  0.32550000  0.10010000  1.0 0.1072755896
H  H254  1  0.50090000  0.67450000  0.60010000  1.0 0.1072755896
H  H255  1  0.49910000  0.17450000  0.89990000  1.0 0.1072755896
H  H256  1  0.00090000  0.82550000  0.39990000  1.0 0.1072755896
H  H257  1  0.82550000  0.39990000  0.00090000  1.0 0.1072755896
H  H258  1  0.17450000  0.89990000  0.49910000  1.0 0.1072755896
H  H259  1  0.67450000  0.60010000  0.50090000  1.0 0.1072755896
H  H260  1  0.32550000  0.10010000  0.99910000  1.0 0.1072755896
H  H261  1  0.89990000  0.49910000  0.17450000  1.0 0.1072755896
H  H262  1  0.39990000  0.00090000  0.82550000  1.0 0.1072755896
H  H263  1  0.10010000  0.99910000  0.32550000  1.0 0.1072755896
H  H264  1  0.60010000  0.50090000  0.67450000  1.0 0.1072755896
H  H265  1  0.04340000  0.13930000  0.17140000  1.0 0.1072755896
H  H266  1  0.45660000  0.86070000  0.67140000  1.0 0.1072755896
H  H267  1  0.95660000  0.63930000  0.32860000  1.0 0.1072755896
H  H268  1  0.54340000  0.36070000  0.82860000  1.0 0.1072755896
H  H269  1  0.17140000  0.04340000  0.13930000  1.0 0.1072755896
H  H270  1  0.67140000  0.45660000  0.86070000  1.0 0.1072755896
H  H271  1  0.32860000  0.95660000  0.63930000  1.0 0.1072755896
H  H272  1  0.82860000  0.54340000  0.36070000  1.0 0.1072755896
H  H273  1  0.13930000  0.17140000  0.04340000  1.0 0.1072755896
H  H274  1  0.86070000  0.67140000  0.45660000  1.0 0.1072755896
H  H275  1  0.63930000  0.32860000  0.95660000  1.0 0.1072755896
H  H276  1  0.36070000  0.82860000  0.54340000  1.0 0.1072755896
H  H277  1  0.88930000  0.29340000  0.07860000  1.0 0.1072755896
H  H278  1  0.61070000  0.70660000  0.57860000  1.0 0.1072755896
H  H279  1  0.38930000  0.20660000  0.92140000  1.0 0.1072755896
H  H280  1  0.11070000  0.79340000  0.42140000  1.0 0.1072755896
H  H281  1  0.79340000  0.42140000  0.11070000  1.0 0.1072755896
H  H282  1  0.20660000  0.92140000  0.38930000  1.0 0.1072755896
H  H283  1  0.70660000  0.57860000  0.61070000  1.0 0.1072755896
H  H284  1  0.29340000  0.07860000  0.88930000  1.0 0.1072755896
H  H285  1  0.92140000  0.38930000  0.20660000  1.0 0.1072755896
H  H286  1  0.42140000  0.11070000  0.79340000  1.0 0.1072755896
H  H287  1  0.07860000  0.88930000  0.29340000  1.0 0.1072755896
H  H288  1  0.57860000  0.61070000  0.70660000  1.0 0.1072755896
C  C1  1  0.94350000  0.87740000  0.08620000  1.0 0.2451268984
C  C2  1  0.55650000  0.12260000  0.58620000  1.0 0.2451268984
C  C3  1  0.05650000  0.37740000  0.41380000  1.0 0.2451268984
C  C4  1  0.44350000  0.62260000  0.91380000  1.0 0.2451268984
C  C5  1  0.08620000  0.94350000  0.87740000  1.0 0.2451268984
C  C6  1  0.58620000  0.55650000  0.12260000  1.0 0.2451268984
C  C7  1  0.41380000  0.05650000  0.37740000  1.0 0.2451268984
C  C8  1  0.91380000  0.44350000  0.62260000  1.0 0.2451268984
C  C9  1  0.87740000  0.08620000  0.94350000  1.0 0.2451268984
C  C10  1  0.12260000  0.58620000  0.55650000  1.0 0.2451268984
C  C11  1  0.37740000  0.41380000  0.05650000  1.0 0.2451268984
C  C12  1  0.62260000  0.91380000  0.44350000  1.0 0.2451268984
C  C13  1  0.62740000  0.19350000  0.16380000  1.0 0.2451268984
C  C14  1  0.87260000  0.80650000  0.66380000  1.0 0.2451268984
C  C15  1  0.12740000  0.30650000  0.83620000  1.0 0.2451268984
C  C16  1  0.37260000  0.69350000  0.33620000  1.0 0.2451268984
C  C17  1  0.69350000  0.33620000  0.37260000  1.0 0.2451268984
C  C18  1  0.30650000  0.83620000  0.12740000  1.0 0.2451268984
C  C19  1  0.80650000  0.66380000  0.87260000  1.0 0.2451268984
C  C20  1  0.19350000  0.16380000  0.62740000  1.0 0.2451268984
C  C21  1  0.83620000  0.12740000  0.30650000  1.0 0.2451268984
C  C22  1  0.33620000  0.37260000  0.69350000  1.0 0.2451268984
C  C23  1  0.16380000  0.62740000  0.19350000  1.0 0.2451268984
C  C24  1  0.66380000  0.87260000  0.80650000  1.0 0.2451268984
C  C25  1  0.91730000  0.85930000  0.15040000  1.0 -0.3624052614
C  C26  1  0.58270000  0.14070000  0.65040000  1.0 -0.3624052614
C  C27  1  0.08270000  0.35930000  0.34960000  1.0 -0.3624052614
C  C28  1  0.41730000  0.64070000  0.84960000  1.0 -0.3624052614
C  C29  1  0.15040000  0.91730000  0.85930000  1.0 -0.3624052614
C  C30  1  0.65040000  0.58270000  0.14070000  1.0 -0.3624052614
C  C31  1  0.34960000  0.08270000  0.35930000  1.0 -0.3624052614
C  C32  1  0.84960000  0.41730000  0.64070000  1.0 -0.3624052614
C  C33  1  0.85930000  0.15040000  0.91730000  1.0 -0.3624052614
C  C34  1  0.14070000  0.65040000  0.58270000  1.0 -0.3624052614
C  C35  1  0.35930000  0.34960000  0.08270000  1.0 -0.3624052614
C  C36  1  0.64070000  0.84960000  0.41730000  1.0 -0.3624052614
C  C37  1  0.60930000  0.16730000  0.09960000  1.0 -0.3624052614
C  C38  1  0.89070000  0.83270000  0.59960000  1.0 -0.3624052614
C  C39  1  0.10930000  0.33270000  0.90040000  1.0 -0.3624052614
C  C40  1  0.39070000  0.66730000  0.40040000  1.0 -0.3624052614
C  C41  1  0.66730000  0.40040000  0.39070000  1.0 -0.3624052614
C  C42  1  0.33270000  0.90040000  0.10930000  1.0 -0.3624052614
C  C43  1  0.83270000  0.59960000  0.89070000  1.0 -0.3624052614
C  C44  1  0.16730000  0.09960000  0.60930000  1.0 -0.3624052614
C  C45  1  0.90040000  0.10930000  0.33270000  1.0 -0.3624052614
C  C46  1  0.40040000  0.39070000  0.66730000  1.0 -0.3624052614
C  C47  1  0.09960000  0.60930000  0.16730000  1.0 -0.3624052614
C  C48  1  0.59960000  0.89070000  0.83270000  1.0 -0.3624052614
C  C49  1  0.92620000  0.91190000  0.19090000  1.0 0.1797597063
C  C50  1  0.57380000  0.08810000  0.69090000  1.0 0.1797597063
C  C51  1  0.07380000  0.41190000  0.30910000  1.0 0.1797597063
C  C52  1  0.42620000  0.58810000  0.80910000  1.0 0.1797597063
C  C53  1  0.19090000  0.92620000  0.91190000  1.0 0.1797597063
C  C54  1  0.69090000  0.57380000  0.08810000  1.0 0.1797597063
C  C55  1  0.30910000  0.07380000  0.41190000  1.0 0.1797597063
C  C56  1  0.80910000  0.42620000  0.58810000  1.0 0.1797597063
C  C57  1  0.91190000  0.19090000  0.92620000  1.0 0.1797597063
C  C58  1  0.08810000  0.69090000  0.57380000  1.0 0.1797597063
C  C59  1  0.41190000  0.30910000  0.07380000  1.0 0.1797597063
C  C60  1  0.58810000  0.80910000  0.42620000  1.0 0.1797597063
C  C61  1  0.66190000  0.17620000  0.05910000  1.0 0.1797597063
C  C62  1  0.83810000  0.82380000  0.55910000  1.0 0.1797597063
C  C63  1  0.16190000  0.32380000  0.94090000  1.0 0.1797597063
C  C64  1  0.33810000  0.67620000  0.44090000  1.0 0.1797597063
C  C65  1  0.67620000  0.44090000  0.33810000  1.0 0.1797597063
C  C66  1  0.32380000  0.94090000  0.16190000  1.0 0.1797597063
C  C67  1  0.82380000  0.55910000  0.83810000  1.0 0.1797597063
C  C68  1  0.17620000  0.05910000  0.66190000  1.0 0.1797597063
C  C69  1  0.94090000  0.16190000  0.32380000  1.0 0.1797597063
C  C70  1  0.44090000  0.33810000  0.67620000  1.0 0.1797597063
C  C71  1  0.05910000  0.66190000  0.17620000  1.0 0.1797597063
C  C72  1  0.55910000  0.83810000  0.82380000  1.0 0.1797597063
C  C73  1  0.94660000  0.83750000  0.02230000  1.0 -0.5007019326
C  C74  1  0.55340000  0.16250000  0.52230000  1.0 -0.5007019326
C  C75  1  0.05340000  0.33750000  0.47770000  1.0 -0.5007019326
C  C76  1  0.44660000  0.66250000  0.97770000  1.0 -0.5007019326
C  C77  1  0.02230000  0.94660000  0.83750000  1.0 -0.5007019326
C  C78  1  0.52230000  0.55340000  0.16250000  1.0 -0.5007019326
C  C79  1  0.47770000  0.05340000  0.33750000  1.0 -0.5007019326
C  C80  1  0.97770000  0.44660000  0.66250000  1.0 -0.5007019326
C  C81  1  0.83750000  0.02230000  0.94660000  1.0 -0.5007019326
C  C82  1  0.16250000  0.52230000  0.55340000  1.0 -0.5007019326
C  C83  1  0.33750000  0.47770000  0.05340000  1.0 -0.5007019326
C  C84  1  0.66250000  0.97770000  0.44660000  1.0 -0.5007019326
C  C85  1  0.58750000  0.19660000  0.22770000  1.0 -0.5007019326
C  C86  1  0.91250000  0.80340000  0.72770000  1.0 -0.5007019326
C  C87  1  0.08750000  0.30340000  0.77230000  1.0 -0.5007019326
C  C88  1  0.41250000  0.69660000  0.27230000  1.0 -0.5007019326
C  C89  1  0.69660000  0.27230000  0.41250000  1.0 -0.5007019326
C  C90  1  0.30340000  0.77230000  0.08750000  1.0 -0.5007019326
C  C91  1  0.80340000  0.72770000  0.91250000  1.0 -0.5007019326
C  C92  1  0.19660000  0.22770000  0.58750000  1.0 -0.5007019326
C  C93  1  0.77230000  0.08750000  0.30340000  1.0 -0.5007019326
C  C94  1  0.27230000  0.41250000  0.69660000  1.0 -0.5007019326
C  C95  1  0.22770000  0.58750000  0.19660000  1.0 -0.5007019326
C  C96  1  0.72770000  0.91250000  0.80340000  1.0 -0.5007019326
C  C97  1  0.90790000  0.92180000  0.26300000  1.0 -0.5007019326
C  C98  1  0.59210000  0.07820000  0.76300000  1.0 -0.5007019326
C  C99  1  0.09210000  0.42180000  0.23700000  1.0 -0.5007019326
C  C100  1  0.40790000  0.57820000  0.73700000  1.0 -0.5007019326
C  C101  1  0.26300000  0.90790000  0.92180000  1.0 -0.5007019326
C  C102  1  0.76300000  0.59210000  0.07820000  1.0 -0.5007019326
C  C103  1  0.23700000  0.09210000  0.42180000  1.0 -0.5007019326
C  C104  1  0.73700000  0.40790000  0.57820000  1.0 -0.5007019326
C  C105  1  0.92180000  0.26300000  0.90790000  1.0 -0.5007019326
C  C106  1  0.07820000  0.76300000  0.59210000  1.0 -0.5007019326
C  C107  1  0.42180000  0.23700000  0.09210000  1.0 -0.5007019326
C  C108  1  0.57820000  0.73700000  0.40790000  1.0 -0.5007019326
C  C109  1  0.67180000  0.15790000  0.98700000  1.0 -0.5007019326
C  C110  1  0.82820000  0.84210000  0.48700000  1.0 -0.5007019326
C  C111  1  0.17180000  0.34210000  0.01300000  1.0 -0.5007019326
C  C112  1  0.32820000  0.65790000  0.51300000  1.0 -0.5007019326
C  C113  1  0.65790000  0.51300000  0.32820000  1.0 -0.5007019326
C  C114  1  0.34210000  0.01300000  0.17180000  1.0 -0.5007019326
C  C115  1  0.84210000  0.48700000  0.82820000  1.0 -0.5007019326
C  C116  1  0.15790000  0.98700000  0.67180000  1.0 -0.5007019326
C  C117  1  0.01300000  0.17180000  0.34210000  1.0 -0.5007019326
C  C118  1  0.51300000  0.32820000  0.65790000  1.0 -0.5007019326
C  C119  1  0.98700000  0.67180000  0.15790000  1.0 -0.5007019326
C  C120  1  0.48700000  0.82820000  0.84210000  1.0 -0.5007019326
C  C121  1  0.97440000  0.02790000  0.17190000  1.0 -0.1899146708
C  C122  1  0.52560000  0.97210000  0.67190000  1.0 -0.1899146708
C  C123  1  0.02560000  0.52790000  0.32810000  1.0 -0.1899146708
C  C124  1  0.47440000  0.47210000  0.82810000  1.0 -0.1899146708
C  C125  1  0.17190000  0.97440000  0.02790000  1.0 -0.1899146708
C  C126  1  0.67190000  0.52560000  0.97210000  1.0 -0.1899146708
C  C127  1  0.32810000  0.02560000  0.52790000  1.0 -0.1899146708
C  C128  1  0.82810000  0.47440000  0.47210000  1.0 -0.1899146708
C  C129  1  0.02790000  0.17190000  0.97440000  1.0 -0.1899146708
C  C130  1  0.97210000  0.67190000  0.52560000  1.0 -0.1899146708
C  C131  1  0.52790000  0.32810000  0.02560000  1.0 -0.1899146708
C  C132  1  0.47210000  0.82810000  0.47440000  1.0 -0.1899146708
C  C133  1  0.77790000  0.22440000  0.07810000  1.0 -0.1899146708
C  C134  1  0.72210000  0.77560000  0.57810000  1.0 -0.1899146708
C  C135  1  0.27790000  0.27560000  0.92190000  1.0 -0.1899146708
C  C136  1  0.22210000  0.72440000  0.42190000  1.0 -0.1899146708
C  C137  1  0.72440000  0.42190000  0.22210000  1.0 -0.1899146708
C  C138  1  0.27560000  0.92190000  0.27790000  1.0 -0.1899146708
C  C139  1  0.77560000  0.57810000  0.72210000  1.0 -0.1899146708
C  C140  1  0.22440000  0.07810000  0.77790000  1.0 -0.1899146708
C  C141  1  0.92190000  0.27790000  0.27560000  1.0 -0.1899146708
C  C142  1  0.42190000  0.22210000  0.72440000  1.0 -0.1899146708
C  C143  1  0.07810000  0.77790000  0.22440000  1.0 -0.1899146708
C  C144  1  0.57810000  0.72210000  0.77560000  1.0 -0.1899146708
C  C145  1  0.92380000  0.08000000  0.14820000  1.0 0.0497385816
C  C146  1  0.57620000  0.92000000  0.64820000  1.0 0.0497385816
C  C147  1  0.07620000  0.58000000  0.35180000  1.0 0.0497385816
C  C148  1  0.42380000  0.42000000  0.85180000  1.0 0.0497385816
C  C149  1  0.14820000  0.92380000  0.08000000  1.0 0.0497385816
C  C150  1  0.64820000  0.57620000  0.92000000  1.0 0.0497385816
C  C151  1  0.35180000  0.07620000  0.58000000  1.0 0.0497385816
C  C152  1  0.85180000  0.42380000  0.42000000  1.0 0.0497385816
C  C153  1  0.08000000  0.14820000  0.92380000  1.0 0.0497385816
C  C154  1  0.92000000  0.64820000  0.57620000  1.0 0.0497385816
C  C155  1  0.58000000  0.35180000  0.07620000  1.0 0.0497385816
C  C156  1  0.42000000  0.85180000  0.42380000  1.0 0.0497385816
C  C157  1  0.83000000  0.17380000  0.10180000  1.0 0.0497385816
C  C158  1  0.67000000  0.82620000  0.60180000  1.0 0.0497385816
C  C159  1  0.33000000  0.32620000  0.89820000  1.0 0.0497385816
C  C160  1  0.17000000  0.67380000  0.39820000  1.0 0.0497385816
C  C161  1  0.67380000  0.39820000  0.17000000  1.0 0.0497385816
C  C162  1  0.32620000  0.89820000  0.33000000  1.0 0.0497385816
C  C163  1  0.82620000  0.60180000  0.67000000  1.0 0.0497385816
C  C164  1  0.17380000  0.10180000  0.83000000  1.0 0.0497385816
C  C165  1  0.89820000  0.33000000  0.32620000  1.0 0.0497385816
C  C166  1  0.39820000  0.17000000  0.67380000  1.0 0.0497385816
C  C167  1  0.10180000  0.83000000  0.17380000  1.0 0.0497385816
C  C168  1  0.60180000  0.67000000  0.82620000  1.0 0.0497385816
C  C169  1  0.86000000  0.06160000  0.13640000  1.0 -0.156668705
C  C170  1  0.64000000  0.93840000  0.63640000  1.0 -0.156668705
C  C171  1  0.14000000  0.56160000  0.36360000  1.0 -0.156668705
C  C172  1  0.36000000  0.43840000  0.86360000  1.0 -0.156668705
C  C173  1  0.13640000  0.86000000  0.06160000  1.0 -0.156668705
C  C174  1  0.63640000  0.64000000  0.93840000  1.0 -0.156668705
C  C175  1  0.36360000  0.14000000  0.56160000  1.0 -0.156668705
C  C176  1  0.86360000  0.36000000  0.43840000  1.0 -0.156668705
C  C177  1  0.06160000  0.13640000  0.86000000  1.0 -0.156668705
C  C178  1  0.93840000  0.63640000  0.64000000  1.0 -0.156668705
C  C179  1  0.56160000  0.36360000  0.14000000  1.0 -0.156668705
C  C180  1  0.43840000  0.86360000  0.36000000  1.0 -0.156668705
C  C181  1  0.81160000  0.11000000  0.11360000  1.0 -0.156668705
C  C182  1  0.68840000  0.89000000  0.61360000  1.0 -0.156668705
C  C183  1  0.31160000  0.39000000  0.88640000  1.0 -0.156668705
C  C184  1  0.18840000  0.61000000  0.38640000  1.0 -0.156668705
C  C185  1  0.61000000  0.38640000  0.18840000  1.0 -0.156668705
C  C186  1  0.39000000  0.88640000  0.31160000  1.0 -0.156668705
C  C187  1  0.89000000  0.61360000  0.68840000  1.0 -0.156668705
C  C188  1  0.11000000  0.11360000  0.81160000  1.0 -0.156668705
C  C189  1  0.88640000  0.31160000  0.39000000  1.0 -0.156668705
C  C190  1  0.38640000  0.18840000  0.61000000  1.0 -0.156668705
C  C191  1  0.11360000  0.81160000  0.11000000  1.0 -0.156668705
C  C192  1  0.61360000  0.68840000  0.89000000  1.0 -0.156668705
C  C193  1  0.94500000  0.14760000  0.13780000  1.0 0.0270562498
C  C194  1  0.55500000  0.85240000  0.63780000  1.0 0.0270562498
C  C195  1  0.05500000  0.64760000  0.36220000  1.0 0.0270562498
C  C196  1  0.44500000  0.35240000  0.86220000  1.0 0.0270562498
C  C197  1  0.13780000  0.94500000  0.14760000  1.0 0.0270562498
C  C198  1  0.63780000  0.55500000  0.85240000  1.0 0.0270562498
C  C199  1  0.36220000  0.05500000  0.64760000  1.0 0.0270562498
C  C200  1  0.86220000  0.44500000  0.35240000  1.0 0.0270562498
C  C201  1  0.14760000  0.13780000  0.94500000  1.0 0.0270562498
C  C202  1  0.85240000  0.63780000  0.55500000  1.0 0.0270562498
C  C203  1  0.64760000  0.36220000  0.05500000  1.0 0.0270562498
C  C204  1  0.35240000  0.86220000  0.44500000  1.0 0.0270562498
C  C205  1  0.89760000  0.19500000  0.11220000  1.0 0.0270562498
C  C206  1  0.60240000  0.80500000  0.61220000  1.0 0.0270562498
C  C207  1  0.39760000  0.30500000  0.88780000  1.0 0.0270562498
C  C208  1  0.10240000  0.69500000  0.38780000  1.0 0.0270562498
C  C209  1  0.69500000  0.38780000  0.10240000  1.0 0.0270562498
C  C210  1  0.30500000  0.88780000  0.39760000  1.0 0.0270562498
C  C211  1  0.80500000  0.61220000  0.60240000  1.0 0.0270562498
C  C212  1  0.19500000  0.11220000  0.89760000  1.0 0.0270562498
C  C213  1  0.88780000  0.39760000  0.30500000  1.0 0.0270562498
C  C214  1  0.38780000  0.10240000  0.69500000  1.0 0.0270562498
C  C215  1  0.11220000  0.89760000  0.19500000  1.0 0.0270562498
C  C216  1  0.61220000  0.60240000  0.80500000  1.0 0.0270562498
C  C217  1  0.03110000  0.23490000  0.13950000  1.0 -0.1306841892
C  C218  1  0.46890000  0.76510000  0.63950000  1.0 -0.1306841892
C  C219  1  0.96890000  0.73490000  0.36050000  1.0 -0.1306841892
C  C220  1  0.53110000  0.26510000  0.86050000  1.0 -0.1306841892
C  C221  1  0.13950000  0.03110000  0.23490000  1.0 -0.1306841892
C  C222  1  0.63950000  0.46890000  0.76510000  1.0 -0.1306841892
C  C223  1  0.36050000  0.96890000  0.73490000  1.0 -0.1306841892
C  C224  1  0.86050000  0.53110000  0.26510000  1.0 -0.1306841892
C  C225  1  0.23490000  0.13950000  0.03110000  1.0 -0.1306841892
C  C226  1  0.76510000  0.63950000  0.46890000  1.0 -0.1306841892
C  C227  1  0.73490000  0.36050000  0.96890000  1.0 -0.1306841892
C  C228  1  0.26510000  0.86050000  0.53110000  1.0 -0.1306841892
C  C229  1  0.98490000  0.28110000  0.11050000  1.0 -0.1306841892
C  C230  1  0.51510000  0.71890000  0.61050000  1.0 -0.1306841892
C  C231  1  0.48490000  0.21890000  0.88950000  1.0 -0.1306841892
C  C232  1  0.01510000  0.78110000  0.38950000  1.0 -0.1306841892
C  C233  1  0.78110000  0.38950000  0.01510000  1.0 -0.1306841892
C  C234  1  0.21890000  0.88950000  0.48490000  1.0 -0.1306841892
C  C235  1  0.71890000  0.61050000  0.51510000  1.0 -0.1306841892
C  C236  1  0.28110000  0.11050000  0.98490000  1.0 -0.1306841892
C  C237  1  0.88950000  0.48490000  0.21890000  1.0 -0.1306841892
C  C238  1  0.38950000  0.01510000  0.78110000  1.0 -0.1306841892
C  C239  1  0.11050000  0.98490000  0.28110000  1.0 -0.1306841892
C  C240  1  0.61050000  0.51510000  0.71890000  1.0 -0.1306841892
C  C241  1  0.01190000  0.16990000  0.15250000  1.0 -0.1771453908
C  C242  1  0.48810000  0.83010000  0.65250000  1.0 -0.1771453908
C  C243  1  0.98810000  0.66990000  0.34750000  1.0 -0.1771453908
C  C244  1  0.51190000  0.33010000  0.84750000  1.0 -0.1771453908
C  C245  1  0.15250000  0.01190000  0.16990000  1.0 -0.1771453908
C  C246  1  0.65250000  0.48810000  0.83010000  1.0 -0.1771453908
C  C247  1  0.34750000  0.98810000  0.66990000  1.0 -0.1771453908
C  C248  1  0.84750000  0.51190000  0.33010000  1.0 -0.1771453908
C  C249  1  0.16990000  0.15250000  0.01190000  1.0 -0.1771453908
C  C250  1  0.83010000  0.65250000  0.48810000  1.0 -0.1771453908
C  C251  1  0.66990000  0.34750000  0.98810000  1.0 -0.1771453908
C  C252  1  0.33010000  0.84750000  0.51190000  1.0 -0.1771453908
C  C253  1  0.91990000  0.26190000  0.09750000  1.0 -0.1771453908
C  C254  1  0.58010000  0.73810000  0.59750000  1.0 -0.1771453908
C  C255  1  0.41990000  0.23810000  0.90250000  1.0 -0.1771453908
C  C256  1  0.08010000  0.76190000  0.40250000  1.0 -0.1771453908
C  C257  1  0.76190000  0.40250000  0.08010000  1.0 -0.1771453908
C  C258  1  0.23810000  0.90250000  0.41990000  1.0 -0.1771453908
C  C259  1  0.73810000  0.59750000  0.58010000  1.0 -0.1771453908
C  C260  1  0.26190000  0.09750000  0.91990000  1.0 -0.1771453908
C  C261  1  0.90250000  0.41990000  0.23810000  1.0 -0.1771453908
C  C262  1  0.40250000  0.08010000  0.76190000  1.0 -0.1771453908
C  C263  1  0.09750000  0.91990000  0.26190000  1.0 -0.1771453908
C  C264  1  0.59750000  0.58010000  0.73810000  1.0 -0.1771453908
N  N1  1  0.95670000  0.95970000  0.15360000  1.0 0.0913131227
N  N2  1  0.54330000  0.04030000  0.65360000  1.0 0.0913131227
N  N3  1  0.04330000  0.45970000  0.34640000  1.0 0.0913131227
N  N4  1  0.45670000  0.54030000  0.84640000  1.0 0.0913131227
N  N5  1  0.15360000  0.95670000  0.95970000  1.0 0.0913131227
N  N6  1  0.65360000  0.54330000  0.04030000  1.0 0.0913131227
N  N7  1  0.34640000  0.04330000  0.45970000  1.0 0.0913131227
N  N8  1  0.84640000  0.45670000  0.54030000  1.0 0.0913131227
N  N9  1  0.95970000  0.15360000  0.95670000  1.0 0.0913131227
N  N10  1  0.04030000  0.65360000  0.54330000  1.0 0.0913131227
N  N11  1  0.45970000  0.34640000  0.04330000  1.0 0.0913131227
N  N12  1  0.54030000  0.84640000  0.45670000  1.0 0.0913131227
N  N13  1  0.70970000  0.20670000  0.09640000  1.0 0.0913131227
N  N14  1  0.79030000  0.79330000  0.59640000  1.0 0.0913131227
N  N15  1  0.20970000  0.29330000  0.90360000  1.0 0.0913131227
N  N16  1  0.29030000  0.70670000  0.40360000  1.0 0.0913131227
N  N17  1  0.70670000  0.40360000  0.29030000  1.0 0.0913131227
N  N18  1  0.29330000  0.90360000  0.20970000  1.0 0.0913131227
N  N19  1  0.79330000  0.59640000  0.79030000  1.0 0.0913131227
N  N20  1  0.20670000  0.09640000  0.70970000  1.0 0.0913131227
N  N21  1  0.90360000  0.20970000  0.29330000  1.0 0.0913131227
N  N22  1  0.40360000  0.29030000  0.70670000  1.0 0.0913131227
N  N23  1  0.09640000  0.70970000  0.20670000  1.0 0.0913131227
N  N24  1  0.59640000  0.79030000  0.79330000  1.0 0.0913131227
N  N25  1  0.96690000  0.94020000  0.08950000  1.0 -0.2624293314
N  N26  1  0.53310000  0.05980000  0.58950000  1.0 -0.2624293314
N  N27  1  0.03310000  0.44020000  0.41050000  1.0 -0.2624293314
N  N28  1  0.46690000  0.55980000  0.91050000  1.0 -0.2624293314
N  N29  1  0.08950000  0.96690000  0.94020000  1.0 -0.2624293314
N  N30  1  0.58950000  0.53310000  0.05980000  1.0 -0.2624293314
N  N31  1  0.41050000  0.03310000  0.44020000  1.0 -0.2624293314
N  N32  1  0.91050000  0.46690000  0.55980000  1.0 -0.2624293314
N  N33  1  0.94020000  0.08950000  0.96690000  1.0 -0.2624293314
N  N34  1  0.05980000  0.58950000  0.53310000  1.0 -0.2624293314
N  N35  1  0.44020000  0.41050000  0.03310000  1.0 -0.2624293314
N  N36  1  0.55980000  0.91050000  0.46690000  1.0 -0.2624293314
N  N37  1  0.69020000  0.21690000  0.16050000  1.0 -0.2624293314
N  N38  1  0.80980000  0.78310000  0.66050000  1.0 -0.2624293314
N  N39  1  0.19020000  0.28310000  0.83950000  1.0 -0.2624293314
N  N40  1  0.30980000  0.71690000  0.33950000  1.0 -0.2624293314
N  N41  1  0.71690000  0.33950000  0.30980000  1.0 -0.2624293314
N  N42  1  0.28310000  0.83950000  0.19020000  1.0 -0.2624293314
N  N43  1  0.78310000  0.66050000  0.80980000  1.0 -0.2624293314
N  N44  1  0.21690000  0.16050000  0.69020000  1.0 -0.2624293314
N  N45  1  0.83950000  0.19020000  0.28310000  1.0 -0.2624293314
N  N46  1  0.33950000  0.30980000  0.71690000  1.0 -0.2624293314
N  N47  1  0.16050000  0.69020000  0.21690000  1.0 -0.2624293314
N  N48  1  0.66050000  0.80980000  0.78310000  1.0 -0.2624293314
