# DDEC6 charges by PACMAN v1.1 (https://github.com/mtap-research/PACMAN-charge/)
data_EMAZEA_FSR_pacman
_symmetry_space_group_name_H-M   'P 1'
_cell_length_a   33.34090000
_cell_length_b   33.34090000
_cell_length_c   33.34090000
_cell_angle_alpha   121.30000000
_cell_angle_beta   121.30000000
_cell_angle_gamma   87.76330000
_symmetry_Int_Tables_number   1
_chemical_formula_structural   CuH13C22N4O5
_chemical_formula_sum   'Cu24 H312 C528 N96 O120'
_cell_volume   25670.63842038
_cell_formula_units_Z   24
loop_
 _symmetry_equiv_pos_site_id
 _symmetry_equiv_pos_as_xyz
  1  'x, y, z'
loop_
 _atom_site_type_symbol
 _atom_site_label
 _atom_site_symmetry_multiplicity
 _atom_site_fract_x
 _atom_site_fract_y
 _atom_site_fract_z
 _atom_site_occupancy
 _atom_site_charge
Cu  Cu1  1  0.85385000  0.77746000  0.31643000  1.0 0.9277940548
Cu  Cu2  1  0.23419000  0.29207000  0.76328000  1.0 0.936797694
Cu  Cu3  1  0.46103000  0.53742000  0.68357000  1.0 0.9277940548
Cu  Cu4  1  0.52879000  0.47091000  0.23672000  1.0 0.936797694
Cu  Cu5  1  0.77746000  0.46103000  0.92361000  1.0 0.9277940548
Cu  Cu6  1  0.29207000  0.52879000  0.05788000  1.0 0.936797694
Cu  Cu7  1  0.53742000  0.85385000  0.07639000  1.0 0.9277940548
Cu  Cu8  1  0.47091000  0.23419000  0.94212000  1.0 0.936797694
Cu  Cu9  1  0.14615000  0.22254000  0.68357000  1.0 0.9277940548
Cu  Cu10  1  0.76581000  0.70793000  0.23672000  1.0 0.936797694
Cu  Cu11  1  0.53897000  0.46258000  0.31643000  1.0 0.9277940548
Cu  Cu12  1  0.47121000  0.52909000  0.76328000  1.0 0.936797694
Cu  Cu13  1  0.22254000  0.53897000  0.07639000  1.0 0.9277940548
Cu  Cu14  1  0.70793000  0.47121000  0.94212000  1.0 0.936797694
Cu  Cu15  1  0.46258000  0.14615000  0.92361000  1.0 0.9277940548
Cu  Cu16  1  0.52909000  0.76581000  0.05788000  1.0 0.936797694
Cu  Cu17  1  0.81685000  0.42840000  0.24525000  1.0 0.9277940548
Cu  Cu18  1  0.26237000  0.55339000  0.81576000  1.0 0.936797694
Cu  Cu19  1  0.18315000  0.57160000  0.75475000  1.0 0.9277940548
Cu  Cu20  1  0.73763000  0.44661000  0.18424000  1.0 0.936797694
Cu  Cu21  1  0.42840000  0.18315000  0.61155000  1.0 0.9277940548
Cu  Cu22  1  0.55339000  0.73763000  0.29102000  1.0 0.936797694
Cu  Cu23  1  0.57160000  0.81685000  0.38845000  1.0 0.9277940548
Cu  Cu24  1  0.44661000  0.26237000  0.70898000  1.0 0.936797694
H  H1  1  0.91720000  0.09370000  0.34610000  1.0 0.1190903753
H  H2  1  0.77960000  0.06500000  0.14060000  1.0 0.1190903753
H  H3  1  0.90900000  0.24950000  0.33010000  1.0 0.1190903753
H  H4  1  0.89830000  0.04390000  0.36640000  1.0 0.0805365974
H  H5  1  0.85090000  0.97080000  0.33510000  1.0 0.0934729109
H  H6  1  0.75940000  0.93790000  0.17430000  1.0 0.100587598
H  H7  1  0.80680000  0.01110000  0.20550000  1.0 0.0685857495
H  H8  1  0.81850000  0.88250000  0.27580000  1.0 0.1190903753
H  H9  1  0.68150000  0.78470000  0.17000000  1.0 0.1465371041
H  H10  1  0.69880000  0.91180000  0.18340000  1.0 0.1133103198
H  H11  1  0.69610000  0.09290000  0.11840000  1.0 0.0805365974
H  H12  1  0.65530000  0.13950000  0.08600000  1.0 0.0934729109
H  H13  1  0.78270000  0.21120000  0.13130000  1.0 0.100587598
H  H14  1  0.82360000  0.16470000  0.16370000  1.0 0.0805365974
H  H15  1  0.61740000  0.16680000  0.03260000  1.0 0.1190903753
H  H16  1  0.62850000  0.30180000  0.06290000  1.0 0.1465371041
H  H17  1  0.75070000  0.27410000  0.15380000  1.0 0.1190903753
H  H18  1  0.98790000  0.31090000  0.40860000  1.0 0.0805365974
H  H19  1  0.05370000  0.35730000  0.50700000  1.0 0.100587598
H  H20  1  0.99340000  0.27190000  0.52710000  1.0 0.100587598
H  H21  1  0.92760000  0.22560000  0.42880000  1.0 0.0805365974
H  H22  1  0.08670000  0.41770000  0.61220000  1.0 0.1190903753
H  H23  1  0.19190000  0.40450000  0.73700000  1.0 0.1465371041
H  H24  1  0.07250000  0.28560000  0.58870000  1.0 0.1190903753
H  H25  1  0.90540000  0.10670000  0.36770000  1.0 0.1190903753
H  H26  1  0.75860000  0.07280000  0.16540000  1.0 0.1133103198
H  H27  1  0.89050000  0.26120000  0.35030000  1.0 0.1337977344
H  H28  1  0.88690000  0.05050000  0.38440000  1.0 0.0805365974
H  H29  1  0.83870000  0.97230000  0.34100000  1.0 0.0805365974
H  H30  1  0.74760000  0.95970000  0.19170000  1.0 0.100587598
H  H31  1  0.79580000  0.03790000  0.23490000  1.0 0.0805365974
H  H32  1  0.67620000  0.10870000  0.14290000  1.0 0.0805365974
H  H33  1  0.64070000  0.15350000  0.10540000  1.0 0.100587598
H  H34  1  0.77250000  0.21250000  0.14860000  1.0 0.0934729109
H  H35  1  0.80810000  0.16760000  0.18610000  1.0 0.0805365974
H  H36  1  0.95900000  0.31930000  0.41870000  1.0 0.0685857495
H  H37  1  0.03340000  0.36400000  0.51160000  1.0 0.0934729109
H  H38  1  0.98820000  0.28720000  0.55100000  1.0 0.100587598
H  H39  1  0.91380000  0.24240000  0.45820000  1.0 0.0805365974
H  H40  1  0.74760000  0.57110000  0.65390000  1.0 0.1190903753
H  H41  1  0.92440000  0.63900000  0.85940000  1.0 0.1190903753
H  H42  1  0.91940000  0.57890000  0.66990000  1.0 0.1190903753
H  H43  1  0.67750000  0.53190000  0.63360000  1.0 0.0805365974
H  H44  1  0.63570000  0.51580000  0.66490000  1.0 0.100587598
H  H45  1  0.76360000  0.58510000  0.82570000  1.0 0.100587598
H  H46  1  0.80560000  0.60130000  0.79450000  1.0 0.0685857495
H  H47  1  0.60670000  0.54270000  0.72420000  1.0 0.1190903753
H  H48  1  0.61470000  0.51150000  0.83000000  1.0 0.1465371041
H  H49  1  0.72840000  0.51540000  0.81660000  1.0 0.1133103198
H  H50  1  0.97450000  0.57770000  0.88160000  1.0 0.0805365974
H  H51  1  0.05350000  0.56930000  0.91400000  1.0 0.0934729109
H  H52  1  0.07990000  0.65140000  0.86870000  1.0 0.100587598
H  H53  1  0.00100000  0.65990000  0.83630000  1.0 0.0805365974
H  H54  1  0.13420000  0.58480000  0.96740000  1.0 0.1190903753
H  H55  1  0.23890000  0.56560000  0.93710000  1.0 0.1465371041
H  H56  1  0.12030000  0.59690000  0.84620000  1.0 0.1190903753
H  H57  1  0.90230000  0.57930000  0.59140000  1.0 0.0805365974
H  H58  1  0.85030000  0.54670000  0.49300000  1.0 0.100587598
H  H59  1  0.74480000  0.46630000  0.47290000  1.0 0.100587598
H  H60  1  0.79680000  0.49880000  0.57120000  1.0 0.0805365974
H  H61  1  0.80550000  0.47450000  0.38780000  1.0 0.1190903753
H  H62  1  0.66750000  0.45490000  0.26300000  1.0 0.1465371041
H  H63  1  0.69690000  0.48380000  0.41130000  1.0 0.1190903753
H  H64  1  0.73900000  0.53770000  0.63230000  1.0 0.1190903753
H  H65  1  0.90740000  0.59320000  0.83460000  1.0 0.1133103198
H  H66  1  0.91090000  0.54020000  0.64970000  1.0 0.1337977344
H  H67  1  0.66610000  0.50250000  0.61560000  1.0 0.0805365974
H  H68  1  0.63130000  0.49770000  0.65900000  1.0 0.0805365974
H  H69  1  0.76800000  0.55590000  0.80830000  1.0 0.100587598
H  H70  1  0.80300000  0.56090000  0.76510000  1.0 0.0805365974
H  H71  1  0.96580000  0.53330000  0.85710000  1.0 0.0805365974
H  H72  1  0.04810000  0.53530000  0.89460000  1.0 0.100587598
H  H73  1  0.06390000  0.62390000  0.85140000  1.0 0.100587598
H  H74  1  0.98150000  0.62200000  0.81390000  1.0 0.0805365974
H  H75  1  0.90060000  0.54030000  0.58130000  1.0 0.0685857495
H  H76  1  0.85240000  0.52180000  0.48840000  1.0 0.0934729109
H  H77  1  0.73620000  0.43720000  0.44900000  1.0 0.100587598
H  H78  1  0.78420000  0.45560000  0.54180000  1.0 0.0805365974
H  H79  1  0.09370000  0.74760000  0.17650000  1.0 0.1190903753
H  H80  1  0.06500000  0.92440000  0.28540000  1.0 0.1190903753
H  H81  1  0.24950000  0.91940000  0.34050000  1.0 0.1190903753
H  H82  1  0.04390000  0.67750000  0.14560000  1.0 0.0805365974
H  H83  1  0.97080000  0.63570000  0.11990000  1.0 0.0934729109
H  H84  1  0.93790000  0.76360000  0.17850000  1.0 0.100587598
H  H85  1  0.01110000  0.80560000  0.20430000  1.0 0.0685857495
H  H86  1  0.88250000  0.60670000  0.06400000  1.0 0.1190903753
H  H87  1  0.78470000  0.61470000  0.10320000  1.0 0.1465371041
H  H88  1  0.91180000  0.72840000  0.21300000  1.0 0.1133103198
H  H89  1  0.09290000  0.97450000  0.39680000  1.0 0.0805365974
H  H90  1  0.13950000  0.05350000  0.48420000  1.0 0.0934729109
H  H91  1  0.21120000  0.07990000  0.42850000  1.0 0.100587598
H  H92  1  0.16470000  0.00100000  0.34110000  1.0 0.0805365974
H  H93  1  0.16680000  0.13420000  0.54940000  1.0 0.1190903753
H  H94  1  0.30180000  0.23890000  0.67330000  1.0 0.1465371041
H  H95  1  0.27410000  0.12030000  0.52340000  1.0 0.1190903753
H  H96  1  0.31090000  0.90230000  0.32300000  1.0 0.0805365974
H  H97  1  0.35730000  0.85030000  0.30360000  1.0 0.100587598
H  H98  1  0.27190000  0.74480000  0.27850000  1.0 0.100587598
H  H99  1  0.22560000  0.79680000  0.29800000  1.0 0.0805365974
H  H100  1  0.41770000  0.80550000  0.33100000  1.0 0.1190903753
H  H101  1  0.40450000  0.66750000  0.21260000  1.0 0.1465371041
H  H102  1  0.28560000  0.69690000  0.21310000  1.0 0.1190903753
H  H103  1  0.10670000  0.73900000  0.20130000  1.0 0.1190903753
H  H104  1  0.07280000  0.90740000  0.31420000  1.0 0.1133103198
H  H105  1  0.26120000  0.91090000  0.37070000  1.0 0.1337977344
H  H106  1  0.05050000  0.66610000  0.16360000  1.0 0.0805365974
H  H107  1  0.97230000  0.63130000  0.13360000  1.0 0.0805365974
H  H108  1  0.95970000  0.76800000  0.21210000  1.0 0.100587598
H  H109  1  0.03790000  0.80300000  0.24210000  1.0 0.0805365974
H  H110  1  0.10870000  0.96580000  0.43250000  1.0 0.0805365974
H  H111  1  0.15350000  0.04810000  0.51280000  1.0 0.100587598
H  H112  1  0.21250000  0.06390000  0.44000000  1.0 0.100587598
H  H113  1  0.16760000  0.98150000  0.35950000  1.0 0.0805365974
H  H114  1  0.31930000  0.90060000  0.36030000  1.0 0.0685857495
H  H115  1  0.36400000  0.85240000  0.33060000  1.0 0.0934729109
H  H116  1  0.28720000  0.73620000  0.29900000  1.0 0.100587598
H  H117  1  0.24240000  0.78420000  0.32860000  1.0 0.0805365974
H  H118  1  0.57110000  0.91720000  0.82350000  1.0 0.1190903753
H  H119  1  0.63900000  0.77960000  0.71460000  1.0 0.1190903753
H  H120  1  0.57890000  0.90900000  0.65950000  1.0 0.1190903753
H  H121  1  0.53190000  0.89830000  0.85440000  1.0 0.0805365974
H  H122  1  0.51580000  0.85090000  0.88010000  1.0 0.100587598
H  H123  1  0.58510000  0.75940000  0.82150000  1.0 0.100587598
H  H124  1  0.60130000  0.80680000  0.79570000  1.0 0.0685857495
H  H125  1  0.54270000  0.81850000  0.93600000  1.0 0.1190903753
H  H126  1  0.51150000  0.68150000  0.89680000  1.0 0.1465371041
H  H127  1  0.51540000  0.69880000  0.78700000  1.0 0.1133103198
H  H128  1  0.57770000  0.69610000  0.60320000  1.0 0.0805365974
H  H129  1  0.56930000  0.65530000  0.51580000  1.0 0.0934729109
H  H130  1  0.65140000  0.78270000  0.57150000  1.0 0.100587598
H  H131  1  0.65990000  0.82360000  0.65890000  1.0 0.0805365974
H  H132  1  0.58480000  0.61740000  0.45060000  1.0 0.1190903753
H  H133  1  0.56560000  0.62850000  0.32670000  1.0 0.1465371041
H  H134  1  0.59690000  0.75070000  0.47660000  1.0 0.1190903753
H  H135  1  0.57930000  0.98790000  0.67700000  1.0 0.0805365974
H  H136  1  0.54670000  0.05370000  0.69640000  1.0 0.100587598
H  H137  1  0.46630000  0.99340000  0.72150000  1.0 0.100587598
H  H138  1  0.49880000  0.92760000  0.70200000  1.0 0.0805365974
H  H139  1  0.47450000  0.08670000  0.66900000  1.0 0.1190903753
H  H140  1  0.45490000  0.19190000  0.78740000  1.0 0.1465371041
H  H141  1  0.48380000  0.07250000  0.78690000  1.0 0.1190903753
H  H142  1  0.53770000  0.90540000  0.79870000  1.0 0.1190903753
H  H143  1  0.59320000  0.75860000  0.68580000  1.0 0.1133103198
H  H144  1  0.54020000  0.89050000  0.62930000  1.0 0.1337977344
H  H145  1  0.50250000  0.88690000  0.83640000  1.0 0.0805365974
H  H146  1  0.49770000  0.83870000  0.86640000  1.0 0.0805365974
H  H147  1  0.55590000  0.74760000  0.78790000  1.0 0.100587598
H  H148  1  0.56090000  0.79580000  0.75790000  1.0 0.0805365974
H  H149  1  0.53330000  0.67620000  0.56750000  1.0 0.0805365974
H  H150  1  0.53530000  0.64070000  0.48720000  1.0 0.100587598
H  H151  1  0.62390000  0.77250000  0.56000000  1.0 0.100587598
H  H152  1  0.62200000  0.80810000  0.64050000  1.0 0.0805365974
H  H153  1  0.54030000  0.95900000  0.63970000  1.0 0.0685857495
H  H154  1  0.52180000  0.03340000  0.66940000  1.0 0.0934729109
H  H155  1  0.43720000  0.98820000  0.70100000  1.0 0.100587598
H  H156  1  0.45560000  0.91380000  0.67140000  1.0 0.0805365974
H  H157  1  0.08280000  0.90630000  0.65390000  1.0 0.1190903753
H  H158  1  0.22040000  0.93500000  0.85940000  1.0 0.1190903753
H  H159  1  0.09100000  0.75050000  0.66990000  1.0 0.1190903753
H  H160  1  0.10170000  0.95610000  0.63360000  1.0 0.0805365974
H  H161  1  0.14910000  0.02920000  0.66490000  1.0 0.100587598
H  H162  1  0.24060000  0.06210000  0.82570000  1.0 0.100587598
H  H163  1  0.19320000  0.98890000  0.79450000  1.0 0.0685857495
H  H164  1  0.18150000  0.11750000  0.72420000  1.0 0.1190903753
H  H165  1  0.31850000  0.21530000  0.83000000  1.0 0.1465371041
H  H166  1  0.30120000  0.08820000  0.81660000  1.0 0.1133103198
H  H167  1  0.30390000  0.90710000  0.88160000  1.0 0.0805365974
H  H168  1  0.34470000  0.86050000  0.91400000  1.0 0.0934729109
H  H169  1  0.21730000  0.78880000  0.86870000  1.0 0.100587598
H  H170  1  0.17640000  0.83530000  0.83630000  1.0 0.0805365974
H  H171  1  0.38260000  0.83320000  0.96740000  1.0 0.1190903753
H  H172  1  0.37150000  0.69820000  0.93710000  1.0 0.1465371041
H  H173  1  0.24930000  0.72590000  0.84620000  1.0 0.1190903753
H  H174  1  0.01210000  0.68910000  0.59140000  1.0 0.0805365974
H  H175  1  0.94630000  0.64270000  0.49300000  1.0 0.100587598
H  H176  1  0.00660000  0.72810000  0.47290000  1.0 0.100587598
H  H177  1  0.07240000  0.77440000  0.57120000  1.0 0.0805365974
H  H178  1  0.91330000  0.58230000  0.38780000  1.0 0.1190903753
H  H179  1  0.80810000  0.59550000  0.26300000  1.0 0.1465371041
H  H180  1  0.92750000  0.71440000  0.41130000  1.0 0.1190903753
H  H181  1  0.09460000  0.89330000  0.63230000  1.0 0.1190903753
H  H182  1  0.24140000  0.92720000  0.83460000  1.0 0.1133103198
H  H183  1  0.10950000  0.73880000  0.64970000  1.0 0.1337977344
H  H184  1  0.11310000  0.94950000  0.61560000  1.0 0.0805365974
H  H185  1  0.16130000  0.02770000  0.65900000  1.0 0.0805365974
H  H186  1  0.25240000  0.04030000  0.80830000  1.0 0.100587598
H  H187  1  0.20420000  0.96210000  0.76510000  1.0 0.0805365974
H  H188  1  0.32380000  0.89130000  0.85710000  1.0 0.0805365974
H  H189  1  0.35930000  0.84650000  0.89460000  1.0 0.100587598
H  H190  1  0.22750000  0.78750000  0.85140000  1.0 0.100587598
H  H191  1  0.19190000  0.83240000  0.81390000  1.0 0.0805365974
H  H192  1  0.04100000  0.68070000  0.58130000  1.0 0.0685857495
H  H193  1  0.96660000  0.63600000  0.48840000  1.0 0.0934729109
H  H194  1  0.01180000  0.71280000  0.44900000  1.0 0.100587598
H  H195  1  0.08620000  0.75760000  0.54180000  1.0 0.0805365974
H  H196  1  0.25240000  0.42890000  0.34610000  1.0 0.1190903753
H  H197  1  0.07560000  0.36100000  0.14060000  1.0 0.1190903753
H  H198  1  0.08060000  0.42110000  0.33010000  1.0 0.1190903753
H  H199  1  0.32250000  0.46810000  0.36640000  1.0 0.0805365974
H  H200  1  0.36430000  0.48420000  0.33510000  1.0 0.0934729109
H  H201  1  0.23640000  0.41490000  0.17430000  1.0 0.100587598
H  H202  1  0.19440000  0.39870000  0.20550000  1.0 0.0685857495
H  H203  1  0.39330000  0.45730000  0.27580000  1.0 0.1190903753
H  H204  1  0.38530000  0.48850000  0.17000000  1.0 0.1465371041
H  H205  1  0.27160000  0.48460000  0.18340000  1.0 0.1133103198
H  H206  1  0.02550000  0.42230000  0.11840000  1.0 0.0805365974
H  H207  1  0.94650000  0.43070000  0.08600000  1.0 0.0934729109
H  H208  1  0.92010000  0.34860000  0.13130000  1.0 0.100587598
H  H209  1  0.99900000  0.34010000  0.16370000  1.0 0.0805365974
H  H210  1  0.86580000  0.41520000  0.03260000  1.0 0.1190903753
H  H211  1  0.76110000  0.43440000  0.06290000  1.0 0.1465371041
H  H212  1  0.87970000  0.40310000  0.15380000  1.0 0.1190903753
H  H213  1  0.09770000  0.42070000  0.40860000  1.0 0.0805365974
H  H214  1  0.14970000  0.45330000  0.50700000  1.0 0.100587598
H  H215  1  0.25520000  0.53370000  0.52710000  1.0 0.100587598
H  H216  1  0.20320000  0.50120000  0.42880000  1.0 0.0805365974
H  H217  1  0.19450000  0.52550000  0.61220000  1.0 0.1190903753
H  H218  1  0.33250000  0.54510000  0.73700000  1.0 0.1465371041
H  H219  1  0.30310000  0.51620000  0.58870000  1.0 0.1190903753
H  H220  1  0.26100000  0.46230000  0.36770000  1.0 0.1190903753
H  H221  1  0.09260000  0.40680000  0.16540000  1.0 0.1133103198
H  H222  1  0.08910000  0.45980000  0.35030000  1.0 0.1337977344
H  H223  1  0.33390000  0.49750000  0.38440000  1.0 0.0805365974
H  H224  1  0.36870000  0.50230000  0.34100000  1.0 0.0805365974
H  H225  1  0.23200000  0.44410000  0.19170000  1.0 0.100587598
H  H226  1  0.19700000  0.43910000  0.23490000  1.0 0.0805365974
H  H227  1  0.03420000  0.46670000  0.14290000  1.0 0.0805365974
H  H228  1  0.95190000  0.46470000  0.10540000  1.0 0.100587598
H  H229  1  0.93610000  0.37610000  0.14860000  1.0 0.0934729109
H  H230  1  0.01850000  0.37800000  0.18610000  1.0 0.0805365974
H  H231  1  0.09940000  0.45970000  0.41870000  1.0 0.0685857495
H  H232  1  0.14760000  0.47820000  0.51160000  1.0 0.0934729109
H  H233  1  0.26380000  0.56280000  0.55100000  1.0 0.100587598
H  H234  1  0.21580000  0.54440000  0.45820000  1.0 0.0805365974
H  H235  1  0.90630000  0.25240000  0.82350000  1.0 0.1190903753
H  H236  1  0.93500000  0.07560000  0.71460000  1.0 0.1190903753
H  H237  1  0.75050000  0.08060000  0.65950000  1.0 0.1190903753
H  H238  1  0.95610000  0.32250000  0.85440000  1.0 0.0805365974
H  H239  1  0.02920000  0.36430000  0.88010000  1.0 0.0934729109
H  H240  1  0.06210000  0.23640000  0.82150000  1.0 0.100587598
H  H241  1  0.98890000  0.19440000  0.79570000  1.0 0.0685857495
H  H242  1  0.11750000  0.39330000  0.93600000  1.0 0.1190903753
H  H243  1  0.21530000  0.38530000  0.89680000  1.0 0.1465371041
H  H244  1  0.08820000  0.27160000  0.78700000  1.0 0.1133103198
H  H245  1  0.90710000  0.02550000  0.60320000  1.0 0.0805365974
H  H246  1  0.86050000  0.94650000  0.51580000  1.0 0.0934729109
H  H247  1  0.78880000  0.92010000  0.57150000  1.0 0.100587598
H  H248  1  0.83530000  0.99900000  0.65890000  1.0 0.0805365974
H  H249  1  0.83320000  0.86580000  0.45060000  1.0 0.1190903753
H  H250  1  0.69820000  0.76110000  0.32670000  1.0 0.1465371041
H  H251  1  0.72590000  0.87970000  0.47660000  1.0 0.1190903753
H  H252  1  0.68910000  0.09770000  0.67700000  1.0 0.0805365974
H  H253  1  0.64270000  0.14970000  0.69640000  1.0 0.100587598
H  H254  1  0.72810000  0.25520000  0.72150000  1.0 0.100587598
H  H255  1  0.77440000  0.20320000  0.70200000  1.0 0.0805365974
H  H256  1  0.58230000  0.19450000  0.66900000  1.0 0.1190903753
H  H257  1  0.59550000  0.33250000  0.78740000  1.0 0.1465371041
H  H258  1  0.71440000  0.30310000  0.78690000  1.0 0.1190903753
H  H259  1  0.89330000  0.26100000  0.79870000  1.0 0.1190903753
H  H260  1  0.92720000  0.09260000  0.68580000  1.0 0.1133103198
H  H261  1  0.73880000  0.08910000  0.62930000  1.0 0.1337977344
H  H262  1  0.94950000  0.33390000  0.83640000  1.0 0.0805365974
H  H263  1  0.02770000  0.36870000  0.86640000  1.0 0.0805365974
H  H264  1  0.04030000  0.23200000  0.78790000  1.0 0.100587598
H  H265  1  0.96210000  0.19700000  0.75790000  1.0 0.0805365974
H  H266  1  0.89130000  0.03420000  0.56750000  1.0 0.0805365974
H  H267  1  0.84650000  0.95190000  0.48720000  1.0 0.100587598
H  H268  1  0.78750000  0.93610000  0.56000000  1.0 0.100587598
H  H269  1  0.83240000  0.01850000  0.64050000  1.0 0.0805365974
H  H270  1  0.68070000  0.09940000  0.63970000  1.0 0.0685857495
H  H271  1  0.63600000  0.14760000  0.66940000  1.0 0.0934729109
H  H272  1  0.71280000  0.26380000  0.70100000  1.0 0.100587598
H  H273  1  0.75760000  0.21580000  0.67140000  1.0 0.0805365974
H  H274  1  0.42890000  0.08280000  0.17650000  1.0 0.1190903753
H  H275  1  0.36100000  0.22040000  0.28540000  1.0 0.1190903753
H  H276  1  0.42110000  0.09100000  0.34050000  1.0 0.1190903753
H  H277  1  0.46810000  0.10170000  0.14560000  1.0 0.0805365974
H  H278  1  0.48420000  0.14910000  0.11990000  1.0 0.0934729109
H  H279  1  0.41490000  0.24060000  0.17850000  1.0 0.100587598
H  H280  1  0.39870000  0.19320000  0.20430000  1.0 0.0685857495
H  H281  1  0.45730000  0.18150000  0.06400000  1.0 0.1190903753
H  H282  1  0.48850000  0.31850000  0.10320000  1.0 0.1465371041
H  H283  1  0.48460000  0.30120000  0.21300000  1.0 0.1133103198
H  H284  1  0.42230000  0.30390000  0.39680000  1.0 0.0805365974
H  H285  1  0.43070000  0.34470000  0.48420000  1.0 0.0934729109
H  H286  1  0.34860000  0.21730000  0.42850000  1.0 0.100587598
H  H287  1  0.34010000  0.17640000  0.34110000  1.0 0.0805365974
H  H288  1  0.41520000  0.38260000  0.54940000  1.0 0.1190903753
H  H289  1  0.43440000  0.37150000  0.67330000  1.0 0.1465371041
H  H290  1  0.40310000  0.24930000  0.52340000  1.0 0.1190903753
H  H291  1  0.42070000  0.01210000  0.32300000  1.0 0.0805365974
H  H292  1  0.45330000  0.94630000  0.30360000  1.0 0.100587598
H  H293  1  0.53370000  0.00660000  0.27850000  1.0 0.100587598
H  H294  1  0.50120000  0.07240000  0.29800000  1.0 0.0805365974
H  H295  1  0.52550000  0.91330000  0.33100000  1.0 0.1190903753
H  H296  1  0.54510000  0.80810000  0.21260000  1.0 0.1465371041
H  H297  1  0.51620000  0.92750000  0.21310000  1.0 0.1190903753
H  H298  1  0.46230000  0.09460000  0.20130000  1.0 0.1190903753
H  H299  1  0.40680000  0.24140000  0.31420000  1.0 0.1133103198
H  H300  1  0.45980000  0.10950000  0.37070000  1.0 0.1337977344
H  H301  1  0.49750000  0.11310000  0.16360000  1.0 0.0805365974
H  H302  1  0.50230000  0.16130000  0.13360000  1.0 0.0805365974
H  H303  1  0.44410000  0.25240000  0.21210000  1.0 0.100587598
H  H304  1  0.43910000  0.20420000  0.24210000  1.0 0.0805365974
H  H305  1  0.46670000  0.32380000  0.43250000  1.0 0.0805365974
H  H306  1  0.46470000  0.35930000  0.51280000  1.0 0.100587598
H  H307  1  0.37610000  0.22750000  0.44000000  1.0 0.100587598
H  H308  1  0.37800000  0.19190000  0.35950000  1.0 0.0805365974
H  H309  1  0.45970000  0.04100000  0.36030000  1.0 0.0685857495
H  H310  1  0.47820000  0.96660000  0.33060000  1.0 0.0934729109
H  H311  1  0.56280000  0.01180000  0.29900000  1.0 0.100587598
H  H312  1  0.54440000  0.08620000  0.32860000  1.0 0.0805365974
C  C1  1  0.87603000  0.10716000  0.29367000  1.0 0.2099854456
C  C2  1  0.82580000  0.11740000  0.21760000  1.0 0.1922190519
C  C3  1  0.89091000  0.18750000  0.31321000  1.0 0.1922190519
C  C4  1  0.85694000  0.03434000  0.28880000  1.0 0.0685857495
C  C5  1  0.87007000  0.02237000  0.32730000  1.0 -0.0814300915
C  C6  1  0.84197000  0.97897000  0.30880000  1.0 -0.0310160802
C  C7  1  0.80073000  0.94753000  0.25180000  1.0 0.0494868297
C  C8  1  0.78759000  0.95939000  0.21320000  1.0 -0.068043124
C  C9  1  0.81570000  0.00290000  0.23180000  1.0 -0.0895972948
C  C10  1  0.76347000  0.90417000  0.23332000  1.0 0.0613851714
C  C11  1  0.78378000  0.87325000  0.24899000  1.0 -0.2176539792
C  C12  1  0.75322000  0.82874000  0.22540000  1.0 -0.0089433507
C  C13  1  0.70235000  0.81514000  0.18613000  1.0 -0.0895972948
C  C14  1  0.68205000  0.84606000  0.17045000  1.0 -0.0089433507
C  C15  1  0.71261000  0.89058000  0.19405000  1.0 -0.2015304012
C  C16  1  0.77552000  0.79659000  0.24441000  1.0 0.5796080832
C  C17  1  0.62673000  0.83284000  0.13111000  1.0 0.5796080832
C  C18  1  0.76370000  0.12442000  0.14408000  1.0 0.0404740352
C  C19  1  0.71372000  0.11692000  0.12100000  1.0 -0.0814300915
C  C20  1  0.68945000  0.14462000  0.10183000  1.0 -0.0032188488
C  C21  1  0.71517000  0.17973000  0.10564000  1.0 0.013414242
C  C22  1  0.76513000  0.18723000  0.12870000  1.0 -0.1008261233
C  C23  1  0.78940000  0.15952000  0.14788000  1.0 -0.1200868875
C  C24  1  0.68756000  0.21536000  0.09514000  1.0 0.0805365974
C  C25  1  0.63697000  0.19962000  0.05315000  1.0 -0.1843833929
C  C26  1  0.61497000  0.23184000  0.04115000  1.0 -0.0209585544
C  C27  1  0.64355000  0.27979000  0.07114000  1.0 -0.0895972948
C  C28  1  0.69413000  0.29553000  0.11312000  1.0 -0.0032188488
C  C29  1  0.71614000  0.26332000  0.12512000  1.0 -0.1903752289
C  C30  1  0.56021000  0.21510000  0.99801000  1.0 0.5796080832
C  C31  1  0.72509000  0.34913000  0.14936000  1.0 0.5708711164
C  C32  1  0.95150000  0.26387000  0.40943000  1.0 0.0613851714
C  C33  1  0.98894000  0.30294000  0.43260000  1.0 -0.1008261233
C  C34  1  0.02803000  0.33053000  0.49110000  1.0 -0.068043124
C  C35  1  0.02971000  0.31890000  0.52621000  1.0 0.0218243195
C  C36  1  0.99219000  0.27979000  0.50300000  1.0 -0.044381313
C  C37  1  0.95310000  0.25230000  0.44460000  1.0 -0.1127382402
C  C38  1  0.07255000  0.34829000  0.59188000  1.0 0.0805365974
C  C39  1  0.09899000  0.39798000  0.62587000  1.0 -0.1843833929
C  C40  1  0.14347000  0.41893000  0.67996000  1.0 -0.0209585544
C  C41  1  0.16148000  0.39018000  0.70004000  1.0 -0.0895972948
C  C42  1  0.13504000  0.34049000  0.66605000  1.0 -0.0089433507
C  C43  1  0.09057000  0.31954000  0.61197000  1.0 -0.1903752289
C  C44  1  0.17100000  0.47260000  0.71834000  1.0 0.5796080832
C  C45  1  0.15563000  0.31003000  0.68902000  1.0 0.5796080832
C  C46  1  0.86680000  0.12050000  0.31750000  1.0 0.1995956669
C  C47  1  0.81100000  0.12800000  0.24040000  1.0 0.2099854456
C  C48  1  0.87400000  0.20050000  0.33510000  1.0 0.1739950007
C  C49  1  0.84590000  0.05160000  0.31370000  1.0 0.0404740352
C  C50  1  0.85870000  0.03210000  0.34520000  1.0 -0.0895972948
C  C51  1  0.83010000  0.98570000  0.31960000  1.0 -0.0089433507
C  C52  1  0.78860000  0.95860000  0.26220000  1.0 0.0494868297
C  C53  1  0.77580000  0.97810000  0.23070000  1.0 -0.0310160802
C  C54  1  0.80450000  0.02460000  0.25650000  1.0 -0.1008261233
C  C55  1  0.74550000  0.13400000  0.16810000  1.0 0.0036027424
C  C56  1  0.69580000  0.12980000  0.14420000  1.0 -0.1008261233
C  C57  1  0.67470000  0.15650000  0.12180000  1.0 -0.0814300915
C  C58  1  0.70330000  0.18720000  0.12350000  1.0 0.013414242
C  C59  1  0.75300000  0.19140000  0.14740000  1.0 -0.0089433507
C  C60  1  0.77420000  0.16480000  0.16980000  1.0 -0.0516266186
C  C61  1  0.92930000  0.27660000  0.42970000  1.0 -0.0209585544
C  C62  1  0.96490000  0.31270000  0.44560000  1.0 -0.0561810599
C  C63  1  0.00920000  0.33940000  0.50080000  1.0 -0.0209585544
C  C64  1  0.01780000  0.32980000  0.54000000  1.0 0.0404740352
C  C65  1  0.98230000  0.29370000  0.52420000  1.0 -0.0895972948
C  C66  1  0.93810000  0.26720000  0.46910000  1.0 -0.0814300915
C  C67  1  0.81349000  0.58236000  0.70633000  1.0 0.2153361695
C  C68  1  0.89980000  0.60820000  0.78240000  1.0 0.1922190519
C  C69  1  0.87429000  0.57770000  0.68679000  1.0 0.1922190519
C  C70  1  0.74554000  0.56814000  0.71120000  1.0 0.0685857495
C  C71  1  0.69507000  0.54277000  0.67270000  1.0 -0.0814300915
C  C72  1  0.67017000  0.53317000  0.69120000  1.0 -0.0310160802
C  C73  1  0.69573000  0.54893000  0.74820000  1.0 0.0494868297
C  C74  1  0.74619000  0.57439000  0.78680000  1.0 -0.068043124
C  C75  1  0.77110000  0.58390000  0.76820000  1.0 -0.0895972948
C  C76  1  0.67085000  0.53015000  0.76668000  1.0 0.0613851714
C  C77  1  0.62426000  0.53479000  0.75101000  1.0 -0.2176539792
C  C78  1  0.60334000  0.52782000  0.77460000  1.0 -0.0089433507
C  C79  1  0.62901000  0.51622000  0.81387000  1.0 -0.0895972948
C  C80  1  0.67561000  0.51160000  0.82955000  1.0 -0.0089433507
C  C81  1  0.69653000  0.51856000  0.80595000  1.0 -0.2015304012
C  C82  1  0.55218000  0.53111000  0.75559000  1.0 0.5796080832
C  C83  1  0.70173000  0.49562000  0.86889000  1.0 0.5796080832
C  C84  1  0.98034000  0.61962000  0.85592000  1.0 0.0404740352
C  C85  1  0.99592000  0.59272000  0.87900000  1.0 -0.0814300915
C  C86  1  0.04279000  0.58762000  0.89817000  1.0 -0.0089433507
C  C87  1  0.07409000  0.60953000  0.89436000  1.0 0.013414242
C  C88  1  0.05853000  0.63643000  0.87130000  1.0 -0.1008261233
C  C89  1  0.01164000  0.64152000  0.85212000  1.0 -0.1200868875
C  C90  1  0.12022000  0.59242000  0.90486000  1.0 0.0805365974
C  C91  1  0.14647000  0.58382000  0.94685000  1.0 -0.1843833929
C  C92  1  0.19069000  0.57382000  0.95885000  1.0 -0.0209585544
C  C93  1  0.20865000  0.57241000  0.92886000  1.0 -0.0895972948
C  C94  1  0.18241000  0.58101000  0.88688000  1.0 -0.0032188488
C  C95  1  0.13820000  0.59102000  0.87488000  1.0 -0.1903752289
C  C96  1  0.21709000  0.56220000  0.00199000  1.0 0.5708711164
C  C97  1  0.19977000  0.57573000  0.85064000  1.0 0.5708711164
C  C98  1  0.85444000  0.54207000  0.59057000  1.0 0.0613851714
C  C99  1  0.87034000  0.55634000  0.56740000  1.0 -0.1008261233
C  C100  1  0.83943000  0.53693000  0.50890000  1.0 -0.068043124
C  C101  1  0.79269000  0.50350000  0.47379000  1.0 0.0218243195
C  C102  1  0.77679000  0.48919000  0.49700000  1.0 -0.044381313
C  C103  1  0.80770000  0.50850000  0.55540000  1.0 -0.1127382402
C  C104  1  0.75641000  0.48067000  0.40812000  1.0 0.0805365974
C  C105  1  0.77211000  0.47312000  0.37413000  1.0 -0.1843833929
C  C106  1  0.73897000  0.46351000  0.32004000  1.0 -0.0209585544
C  C107  1  0.69014000  0.46144000  0.29996000  1.0 -0.0895972948
C  C108  1  0.67444000  0.46899000  0.33395000  1.0 -0.0089433507
C  C109  1  0.70757000  0.47860000  0.38803000  1.0 -0.1903752289
C  C110  1  0.75426000  0.45266000  0.28166000  1.0 0.5796080832
C  C111  1  0.62101000  0.46661000  0.31098000  1.0 0.5796080832
C  C112  1  0.80300000  0.54930000  0.68250000  1.0 0.1995956669
C  C113  1  0.88760000  0.57060000  0.75960000  1.0 0.2099854456
C  C114  1  0.86540000  0.53890000  0.66490000  1.0 0.1739950007
C  C115  1  0.73790000  0.53220000  0.68630000  1.0 0.0404740352
C  C116  1  0.68690000  0.51350000  0.65480000  1.0 -0.0895972948
C  C117  1  0.66610000  0.51050000  0.68040000  1.0 -0.0089433507
C  C118  1  0.69640000  0.52640000  0.73780000  1.0 0.0494868297
C  C119  1  0.74740000  0.54510000  0.76930000  1.0 -0.0310160802
C  C120  1  0.76810000  0.54800000  0.74350000  1.0 -0.1008261233
C  C121  1  0.96590000  0.57740000  0.83190000  1.0 0.0036027424
C  C122  1  0.98560000  0.55160000  0.85580000  1.0 -0.1008261233
C  C123  1  0.03470000  0.55290000  0.87820000  1.0 -0.0814300915
C  C124  1  0.06370000  0.57980000  0.87650000  1.0 0.013414242
C  C125  1  0.04400000  0.60560000  0.85260000  1.0 -0.0089433507
C  C126  1  0.99500000  0.60440000  0.83020000  1.0 -0.0516266186
C  C127  1  0.84690000  0.49960000  0.57030000  1.0 -0.0209585544
C  C128  1  0.86710000  0.51930000  0.55440000  1.0 -0.0561810599
C  C129  1  0.83860000  0.50840000  0.49920000  1.0 -0.0209585544
C  C130  1  0.78980000  0.47780000  0.46000000  1.0 0.0404740352
C  C131  1  0.76950000  0.45810000  0.47580000  1.0 -0.0895972948
C  C132  1  0.79810000  0.46900000  0.53090000  1.0 -0.0814300915
C  C133  1  0.10716000  0.81349000  0.23113000  1.0 0.2153361695
C  C134  1  0.11740000  0.89980000  0.29160000  1.0 0.1922190519
C  C135  1  0.18750000  0.87429000  0.29659000  1.0 0.1922190519
C  C136  1  0.03434000  0.74554000  0.17740000  1.0 0.0613851714
C  C137  1  0.02237000  0.69507000  0.15230000  1.0 -0.0814300915
C  C138  1  0.97897000  0.67017000  0.13700000  1.0 -0.0209585544
C  C139  1  0.94753000  0.69573000  0.14680000  1.0 0.0494868297
C  C140  1  0.95939000  0.74619000  0.17180000  1.0 -0.068043124
C  C141  1  0.00290000  0.77110000  0.18720000  1.0 -0.0814300915
C  C142  1  0.90417000  0.67085000  0.14070000  1.0 0.0613851714
C  C143  1  0.87325000  0.62426000  0.08947000  1.0 -0.2145629717
C  C144  1  0.82874000  0.60334000  0.07552000  1.0 -0.0089433507
C  C145  1  0.81514000  0.62901000  0.11279000  1.0 -0.0895972948
C  C146  1  0.84606000  0.67561000  0.16401000  1.0 -0.0089433507
C  C147  1  0.89058000  0.69653000  0.17797000  1.0 -0.2015304012
C  C148  1  0.79659000  0.55218000  0.02107000  1.0 0.5796080832
C  C149  1  0.83284000  0.70173000  0.20611000  1.0 0.5796080832
C  C150  1  0.12442000  0.98034000  0.36072000  1.0 0.0348340789
C  C151  1  0.11692000  0.99592000  0.40320000  1.0 -0.0814300915
C  C152  1  0.14462000  0.04279000  0.45517000  1.0 -0.0089433507
C  C153  1  0.17973000  0.07409000  0.46456000  1.0 0.013414242
C  C154  1  0.18723000  0.05853000  0.42210000  1.0 -0.1008261233
C  C155  1  0.15952000  0.01164000  0.37012000  1.0 -0.1200868875
C  C156  1  0.21536000  0.12022000  0.52780000  1.0 0.0805365974
C  C157  1  0.19962000  0.14647000  0.56265000  1.0 -0.1843833929
C  C158  1  0.23184000  0.19069000  0.61687000  1.0 -0.0209585544
C  C159  1  0.27979000  0.20865000  0.63624000  1.0 -0.0895972948
C  C160  1  0.29553000  0.18241000  0.60140000  1.0 -0.0032188488
C  C161  1  0.26332000  0.13820000  0.54718000  1.0 -0.1903752289
C  C162  1  0.21510000  0.21709000  0.65489000  1.0 0.5796080832
C  C163  1  0.34913000  0.19977000  0.62404000  1.0 0.5708711164
C  C164  1  0.26387000  0.85444000  0.31237000  1.0 0.0494868297
C  C165  1  0.30294000  0.87034000  0.31400000  1.0 -0.1008261233
C  C166  1  0.33053000  0.83943000  0.30250000  1.0 -0.068043124
C  C167  1  0.31890000  0.79269000  0.28919000  1.0 0.0218243195
C  C168  1  0.27979000  0.77679000  0.28760000  1.0 -0.0516266186
C  C169  1  0.25230000  0.80770000  0.29920000  1.0 -0.1127382402
C  C170  1  0.34829000  0.75641000  0.27574000  1.0 0.0805365974
C  C171  1  0.39798000  0.77211000  0.29899000  1.0 -0.1843833929
C  C172  1  0.41893000  0.73897000  0.27546000  1.0 -0.0209585544
C  C173  1  0.39018000  0.69014000  0.22870000  1.0 -0.0895972948
C  C174  1  0.34049000  0.67444000  0.20545000  1.0 -0.0089433507
C  C175  1  0.31954000  0.70757000  0.22897000  1.0 -0.1903752289
C  C176  1  0.47260000  0.75426000  0.30160000  1.0 0.5796080832
C  C177  1  0.31003000  0.62101000  0.15440000  1.0 0.5796080832
C  C178  1  0.12050000  0.80300000  0.25370000  1.0 0.1995956669
C  C179  1  0.12800000  0.88760000  0.31700000  1.0 0.2099854456
C  C180  1  0.20050000  0.86540000  0.32650000  1.0 0.1739950007
C  C181  1  0.05160000  0.73790000  0.20570000  1.0 0.0404740352
C  C182  1  0.03210000  0.68690000  0.17340000  1.0 -0.0895972948
C  C183  1  0.98570000  0.66610000  0.15560000  1.0 -0.0089433507
C  C184  1  0.95860000  0.69640000  0.17000000  1.0 0.0494868297
C  C185  1  0.97810000  0.74740000  0.20230000  1.0 -0.0310160802
C  C186  1  0.02460000  0.76810000  0.22010000  1.0 -0.1127382402
C  C187  1  0.13400000  0.96590000  0.38850000  1.0 0.0036027424
C  C188  1  0.12980000  0.98560000  0.43400000  1.0 -0.1008261233
C  C189  1  0.15650000  0.03470000  0.48180000  1.0 -0.0814300915
C  C190  1  0.18720000  0.06370000  0.48390000  1.0 0.013414242
C  C191  1  0.19140000  0.04400000  0.43840000  1.0 -0.0089433507
C  C192  1  0.16480000  0.99500000  0.39060000  1.0 -0.0516266186
C  C193  1  0.27660000  0.84690000  0.34730000  1.0 -0.0209585544
C  C194  1  0.31270000  0.86710000  0.34780000  1.0 -0.0561810599
C  C195  1  0.33940000  0.83860000  0.33020000  1.0 -0.0209585544
C  C196  1  0.32980000  0.78980000  0.31200000  1.0 0.0404740352
C  C197  1  0.29370000  0.76950000  0.31140000  1.0 -0.0895972948
C  C198  1  0.26720000  0.79810000  0.32910000  1.0 -0.0814300915
C  C199  1  0.58236000  0.87603000  0.76887000  1.0 0.2153361695
C  C200  1  0.60820000  0.82580000  0.70840000  1.0 0.1922190519
C  C201  1  0.57770000  0.89091000  0.70341000  1.0 0.1922190519
C  C202  1  0.56814000  0.85694000  0.82260000  1.0 0.0685857495
C  C203  1  0.54277000  0.87007000  0.84770000  1.0 -0.0814300915
C  C204  1  0.53317000  0.84197000  0.86300000  1.0 -0.0310160802
C  C205  1  0.54893000  0.80073000  0.85320000  1.0 0.0494868297
C  C206  1  0.57439000  0.78759000  0.82820000  1.0 -0.068043124
C  C207  1  0.58390000  0.81570000  0.81280000  1.0 -0.0895972948
C  C208  1  0.53015000  0.76347000  0.85930000  1.0 0.0613851714
C  C209  1  0.53479000  0.78378000  0.91053000  1.0 -0.2176539792
C  C210  1  0.52782000  0.75322000  0.92448000  1.0 -0.0089433507
C  C211  1  0.51622000  0.70235000  0.88721000  1.0 -0.0895972948
C  C212  1  0.51160000  0.68205000  0.83599000  1.0 -0.0089433507
C  C213  1  0.51856000  0.71261000  0.82203000  1.0 -0.2015304012
C  C214  1  0.53111000  0.77552000  0.97893000  1.0 0.5796080832
C  C215  1  0.49562000  0.62673000  0.79389000  1.0 0.5796080832
C  C216  1  0.61962000  0.76370000  0.63928000  1.0 0.0404740352
C  C217  1  0.59272000  0.71372000  0.59680000  1.0 -0.0814300915
C  C218  1  0.58762000  0.68945000  0.54483000  1.0 -0.0089433507
C  C219  1  0.60953000  0.71517000  0.53544000  1.0 0.0218243195
C  C220  1  0.63643000  0.76513000  0.57790000  1.0 -0.1008261233
C  C221  1  0.64152000  0.78940000  0.62988000  1.0 -0.1200868875
C  C222  1  0.59242000  0.68756000  0.47220000  1.0 0.0805365974
C  C223  1  0.58382000  0.63697000  0.43735000  1.0 -0.1843833929
C  C224  1  0.57382000  0.61497000  0.38313000  1.0 -0.0209585544
C  C225  1  0.57241000  0.64355000  0.36376000  1.0 -0.0895972948
C  C226  1  0.58101000  0.69413000  0.39860000  1.0 -0.0032188488
C  C227  1  0.59102000  0.71614000  0.45282000  1.0 -0.1903752289
C  C228  1  0.56220000  0.56021000  0.34511000  1.0 0.5796080832
C  C229  1  0.57573000  0.72509000  0.37596000  1.0 0.5708711164
C  C230  1  0.54207000  0.95150000  0.68763000  1.0 0.0613851714
C  C231  1  0.55634000  0.98894000  0.68600000  1.0 -0.1008261233
C  C232  1  0.53693000  0.02803000  0.69750000  1.0 -0.068043124
C  C233  1  0.50350000  0.02971000  0.71081000  1.0 0.0218243195
C  C234  1  0.48919000  0.99219000  0.71240000  1.0 -0.044381313
C  C235  1  0.50850000  0.95310000  0.70080000  1.0 -0.1127382402
C  C236  1  0.48067000  0.07255000  0.72426000  1.0 0.0805365974
C  C237  1  0.47312000  0.09899000  0.70101000  1.0 -0.1843833929
C  C238  1  0.46351000  0.14347000  0.72454000  1.0 -0.0209585544
C  C239  1  0.46144000  0.16148000  0.77130000  1.0 -0.0895972948
C  C240  1  0.46899000  0.13504000  0.79455000  1.0 -0.0089433507
C  C241  1  0.47860000  0.09057000  0.77103000  1.0 -0.1903752289
C  C242  1  0.45266000  0.17100000  0.69840000  1.0 0.5796080832
C  C243  1  0.46661000  0.15563000  0.84560000  1.0 0.5796080832
C  C244  1  0.54930000  0.86680000  0.74630000  1.0 0.1995956669
C  C245  1  0.57060000  0.81100000  0.68300000  1.0 0.2099854456
C  C246  1  0.53890000  0.87400000  0.67350000  1.0 0.1739950007
C  C247  1  0.53220000  0.84590000  0.79430000  1.0 0.0404740352
C  C248  1  0.51350000  0.85870000  0.82660000  1.0 -0.0895972948
C  C249  1  0.51050000  0.83010000  0.84440000  1.0 -0.0089433507
C  C250  1  0.52640000  0.78860000  0.83000000  1.0 0.0494868297
C  C251  1  0.54510000  0.77580000  0.79770000  1.0 -0.0310160802
C  C252  1  0.54800000  0.80450000  0.77990000  1.0 -0.1008261233
C  C253  1  0.57740000  0.74550000  0.61150000  1.0 0.0036027424
C  C254  1  0.55160000  0.69580000  0.56600000  1.0 -0.1008261233
C  C255  1  0.55290000  0.67470000  0.51820000  1.0 -0.0814300915
C  C256  1  0.57980000  0.70330000  0.51610000  1.0 0.013414242
C  C257  1  0.60560000  0.75300000  0.56160000  1.0 -0.0089433507
C  C258  1  0.60440000  0.77420000  0.60940000  1.0 -0.0516266186
C  C259  1  0.49960000  0.92930000  0.65270000  1.0 -0.0209585544
C  C260  1  0.51930000  0.96490000  0.65220000  1.0 -0.0561810599
C  C261  1  0.50840000  0.00920000  0.66980000  1.0 -0.0209585544
C  C262  1  0.47780000  0.01780000  0.68800000  1.0 0.0404740352
C  C263  1  0.45810000  0.98230000  0.68860000  1.0 -0.0895972948
C  C264  1  0.46900000  0.93810000  0.67090000  1.0 -0.0814300915
C  C265  1  0.12397000  0.89284000  0.70633000  1.0 0.2153361695
C  C266  1  0.17420000  0.88260000  0.78240000  1.0 0.1922190519
C  C267  1  0.10909000  0.81250000  0.68679000  1.0 0.1922190519
C  C268  1  0.14306000  0.96566000  0.71120000  1.0 0.0685857495
C  C269  1  0.12993000  0.97763000  0.67270000  1.0 -0.0814300915
C  C270  1  0.15803000  0.02103000  0.69120000  1.0 -0.0310160802
C  C271  1  0.19927000  0.05247000  0.74820000  1.0 0.0494868297
C  C272  1  0.21241000  0.04061000  0.78680000  1.0 -0.068043124
C  C273  1  0.18430000  0.99710000  0.76820000  1.0 -0.0895972948
C  C274  1  0.23653000  0.09583000  0.76668000  1.0 0.0613851714
C  C275  1  0.21622000  0.12675000  0.75101000  1.0 -0.2176539792
C  C276  1  0.24678000  0.17126000  0.77460000  1.0 -0.0089433507
C  C277  1  0.29765000  0.18486000  0.81387000  1.0 -0.0895972948
C  C278  1  0.31795000  0.15394000  0.82955000  1.0 -0.0089433507
C  C279  1  0.28739000  0.10942000  0.80595000  1.0 -0.2015304012
C  C280  1  0.22448000  0.20341000  0.75559000  1.0 0.5796080832
C  C281  1  0.37327000  0.16716000  0.86889000  1.0 0.5796080832
C  C282  1  0.23630000  0.87558000  0.85592000  1.0 0.0348340789
C  C283  1  0.28628000  0.88308000  0.87900000  1.0 -0.0814300915
C  C284  1  0.31055000  0.85538000  0.89817000  1.0 -0.0089433507
C  C285  1  0.28483000  0.82027000  0.89436000  1.0 0.013414242
C  C286  1  0.23487000  0.81277000  0.87130000  1.0 -0.1008261233
C  C287  1  0.21060000  0.84048000  0.85212000  1.0 -0.1200868875
C  C288  1  0.31244000  0.78464000  0.90486000  1.0 0.0805365974
C  C289  1  0.36303000  0.80038000  0.94685000  1.0 -0.1843833929
C  C290  1  0.38503000  0.76816000  0.95885000  1.0 -0.0209585544
C  C291  1  0.35645000  0.72021000  0.92886000  1.0 -0.0895972948
C  C292  1  0.30587000  0.70447000  0.88688000  1.0 -0.0032188488
C  C293  1  0.28386000  0.73668000  0.87488000  1.0 -0.1903752289
C  C294  1  0.43979000  0.78490000  0.00199000  1.0 0.5708711164
C  C295  1  0.27491000  0.65087000  0.85064000  1.0 0.5708711164
C  C296  1  0.04850000  0.73613000  0.59057000  1.0 0.0494868297
C  C297  1  0.01106000  0.69706000  0.56740000  1.0 -0.1008261233
C  C298  1  0.97197000  0.66947000  0.50890000  1.0 -0.068043124
C  C299  1  0.97029000  0.68110000  0.47379000  1.0 0.0218243195
C  C300  1  0.00781000  0.72021000  0.49700000  1.0 -0.0516266186
C  C301  1  0.04690000  0.74770000  0.55540000  1.0 -0.1127382402
C  C302  1  0.92745000  0.65171000  0.40812000  1.0 0.0805365974
C  C303  1  0.90101000  0.60202000  0.37413000  1.0 -0.1843833929
C  C304  1  0.85653000  0.58107000  0.32004000  1.0 -0.0209585544
C  C305  1  0.83852000  0.60982000  0.29996000  1.0 -0.0895972948
C  C306  1  0.86496000  0.65951000  0.33395000  1.0 -0.0089433507
C  C307  1  0.90943000  0.68046000  0.38803000  1.0 -0.1903752289
C  C308  1  0.82900000  0.52740000  0.28166000  1.0 0.5796080832
C  C309  1  0.84437000  0.68997000  0.31098000  1.0 0.5796080832
C  C310  1  0.13320000  0.87950000  0.68250000  1.0 0.1995956669
C  C311  1  0.18900000  0.87200000  0.75960000  1.0 0.2099854456
C  C312  1  0.12600000  0.79950000  0.66490000  1.0 0.1739950007
C  C313  1  0.15410000  0.94840000  0.68630000  1.0 0.0404740352
C  C314  1  0.14130000  0.96790000  0.65480000  1.0 -0.0895972948
C  C315  1  0.16990000  0.01430000  0.68040000  1.0 -0.0089433507
C  C316  1  0.21140000  0.04140000  0.73780000  1.0 0.0494868297
C  C317  1  0.22420000  0.02190000  0.76930000  1.0 -0.0310160802
C  C318  1  0.19550000  0.97540000  0.74350000  1.0 -0.1008261233
C  C319  1  0.25450000  0.86600000  0.83190000  1.0 0.0036027424
C  C320  1  0.30420000  0.87020000  0.85580000  1.0 -0.1008261233
C  C321  1  0.32530000  0.84350000  0.87820000  1.0 -0.0814300915
C  C322  1  0.29670000  0.81280000  0.87650000  1.0 0.013414242
C  C323  1  0.24700000  0.80860000  0.85260000  1.0 -0.0089433507
C  C324  1  0.22580000  0.83520000  0.83020000  1.0 -0.0561810599
C  C325  1  0.07070000  0.72340000  0.57030000  1.0 -0.0209585544
C  C326  1  0.03510000  0.68730000  0.55440000  1.0 -0.0561810599
C  C327  1  0.99080000  0.66060000  0.49920000  1.0 -0.0209585544
C  C328  1  0.98220000  0.67020000  0.46000000  1.0 0.0404740352
C  C329  1  0.01770000  0.70630000  0.47580000  1.0 -0.0895972948
C  C330  1  0.06190000  0.73280000  0.53090000  1.0 -0.0814300915
C  C331  1  0.18651000  0.41764000  0.29367000  1.0 0.2153361695
C  C332  1  0.10020000  0.39180000  0.21760000  1.0 0.1922190519
C  C333  1  0.12571000  0.42230000  0.31321000  1.0 0.1922190519
C  C334  1  0.25446000  0.43186000  0.28880000  1.0 0.0613851714
C  C335  1  0.30493000  0.45723000  0.32730000  1.0 -0.0814300915
C  C336  1  0.32983000  0.46683000  0.30880000  1.0 -0.0310160802
C  C337  1  0.30427000  0.45107000  0.25180000  1.0 0.0494868297
C  C338  1  0.25381000  0.42561000  0.21320000  1.0 -0.068043124
C  C339  1  0.22890000  0.41610000  0.23180000  1.0 -0.0895972948
C  C340  1  0.32915000  0.46985000  0.23332000  1.0 0.0613851714
C  C341  1  0.37574000  0.46521000  0.24899000  1.0 -0.2176539792
C  C342  1  0.39666000  0.47218000  0.22540000  1.0 -0.0089433507
C  C343  1  0.37099000  0.48378000  0.18613000  1.0 -0.0895972948
C  C344  1  0.32439000  0.48840000  0.17045000  1.0 -0.0089433507
C  C345  1  0.30347000  0.48144000  0.19405000  1.0 -0.2015304012
C  C346  1  0.44782000  0.46889000  0.24441000  1.0 0.5796080832
C  C347  1  0.29827000  0.50438000  0.13111000  1.0 0.5796080832
C  C348  1  0.01966000  0.38038000  0.14408000  1.0 0.0348340789
C  C349  1  0.00408000  0.40728000  0.12100000  1.0 -0.0814300915
C  C350  1  0.95721000  0.41238000  0.10183000  1.0 -0.0089433507
C  C351  1  0.92591000  0.39047000  0.10564000  1.0 0.013414242
C  C352  1  0.94147000  0.36357000  0.12870000  1.0 -0.1008261233
C  C353  1  0.98836000  0.35848000  0.14788000  1.0 -0.1200868875
C  C354  1  0.87978000  0.40758000  0.09514000  1.0 0.0805365974
C  C355  1  0.85353000  0.41618000  0.05315000  1.0 -0.1843833929
C  C356  1  0.80931000  0.42618000  0.04115000  1.0 -0.0209585544
C  C357  1  0.79135000  0.42759000  0.07114000  1.0 -0.0895972948
C  C358  1  0.81759000  0.41899000  0.11312000  1.0 -0.0032188488
C  C359  1  0.86180000  0.40898000  0.12512000  1.0 -0.1903752289
C  C360  1  0.78291000  0.43780000  0.99801000  1.0 0.5796080832
C  C361  1  0.80023000  0.42427000  0.14936000  1.0 0.5708711164
C  C362  1  0.14556000  0.45793000  0.40943000  1.0 0.0494868297
C  C363  1  0.12966000  0.44366000  0.43260000  1.0 -0.1008261233
C  C364  1  0.16057000  0.46307000  0.49110000  1.0 -0.068043124
C  C365  1  0.20731000  0.49650000  0.52621000  1.0 0.0218243195
C  C366  1  0.22321000  0.51081000  0.50300000  1.0 -0.044381313
C  C367  1  0.19230000  0.49150000  0.44460000  1.0 -0.1127382402
C  C368  1  0.24359000  0.51933000  0.59188000  1.0 0.0805365974
C  C369  1  0.22789000  0.52688000  0.62587000  1.0 -0.1843833929
C  C370  1  0.26103000  0.53649000  0.67996000  1.0 -0.0209585544
C  C371  1  0.30986000  0.53856000  0.70004000  1.0 -0.0895972948
C  C372  1  0.32556000  0.53101000  0.66605000  1.0 -0.0089433507
C  C373  1  0.29243000  0.52140000  0.61197000  1.0 -0.1903752289
C  C374  1  0.24574000  0.54734000  0.71834000  1.0 0.5796080832
C  C375  1  0.37899000  0.53339000  0.68902000  1.0 0.5796080832
C  C376  1  0.19700000  0.45070000  0.31750000  1.0 0.1995956669
C  C377  1  0.11240000  0.42940000  0.24040000  1.0 0.2099854456
C  C378  1  0.13460000  0.46110000  0.33510000  1.0 0.1739950007
C  C379  1  0.26210000  0.46780000  0.31370000  1.0 0.0404740352
C  C380  1  0.31310000  0.48650000  0.34520000  1.0 -0.0895972948
C  C381  1  0.33390000  0.48950000  0.31960000  1.0 -0.0089433507
C  C382  1  0.30360000  0.47360000  0.26220000  1.0 0.0494868297
C  C383  1  0.25260000  0.45490000  0.23070000  1.0 -0.0310160802
C  C384  1  0.23190000  0.45200000  0.25650000  1.0 -0.1008261233
C  C385  1  0.03410000  0.42260000  0.16810000  1.0 0.0036027424
C  C386  1  0.01440000  0.44840000  0.14420000  1.0 -0.1008261233
C  C387  1  0.96530000  0.44710000  0.12180000  1.0 -0.0814300915
C  C388  1  0.93630000  0.42020000  0.12350000  1.0 0.013414242
C  C389  1  0.95600000  0.39440000  0.14740000  1.0 -0.0089433507
C  C390  1  0.00500000  0.39560000  0.16980000  1.0 -0.0561810599
C  C391  1  0.15310000  0.50040000  0.42970000  1.0 -0.0209585544
C  C392  1  0.13290000  0.48070000  0.44560000  1.0 -0.0561810599
C  C393  1  0.16140000  0.49160000  0.50080000  1.0 -0.0209585544
C  C394  1  0.21020000  0.52220000  0.54000000  1.0 0.0404740352
C  C395  1  0.23050000  0.54190000  0.52420000  1.0 -0.0895972948
C  C396  1  0.20190000  0.53100000  0.46910000  1.0 -0.0814300915
C  C397  1  0.89284000  0.18651000  0.76887000  1.0 0.2153361695
C  C398  1  0.88260000  0.10020000  0.70840000  1.0 0.1922190519
C  C399  1  0.81250000  0.12571000  0.70341000  1.0 0.1922190519
C  C400  1  0.96566000  0.25446000  0.82260000  1.0 0.0685857495
C  C401  1  0.97763000  0.30493000  0.84770000  1.0 -0.0814300915
C  C402  1  0.02103000  0.32983000  0.86300000  1.0 -0.0310160802
C  C403  1  0.05247000  0.30427000  0.85320000  1.0 0.0494868297
C  C404  1  0.04061000  0.25381000  0.82820000  1.0 -0.068043124
C  C405  1  0.99710000  0.22890000  0.81280000  1.0 -0.0895972948
C  C406  1  0.09583000  0.32915000  0.85930000  1.0 0.0613851714
C  C407  1  0.12675000  0.37574000  0.91053000  1.0 -0.2176539792
C  C408  1  0.17126000  0.39666000  0.92448000  1.0 -0.0089433507
C  C409  1  0.18486000  0.37099000  0.88721000  1.0 -0.0895972948
C  C410  1  0.15394000  0.32439000  0.83599000  1.0 -0.0089433507
C  C411  1  0.10942000  0.30347000  0.82203000  1.0 -0.2015304012
C  C412  1  0.20341000  0.44782000  0.97893000  1.0 0.5796080832
C  C413  1  0.16716000  0.29827000  0.79389000  1.0 0.5796080832
C  C414  1  0.87558000  0.01966000  0.63928000  1.0 0.0404740352
C  C415  1  0.88308000  0.00408000  0.59680000  1.0 -0.0814300915
C  C416  1  0.85538000  0.95721000  0.54483000  1.0 -0.0089433507
C  C417  1  0.82027000  0.92591000  0.53544000  1.0 0.0218243195
C  C418  1  0.81277000  0.94147000  0.57790000  1.0 -0.1008261233
C  C419  1  0.84048000  0.98836000  0.62988000  1.0 -0.1200868875
C  C420  1  0.78464000  0.87978000  0.47220000  1.0 0.0805365974
C  C421  1  0.80038000  0.85353000  0.43735000  1.0 -0.1843833929
C  C422  1  0.76816000  0.80931000  0.38313000  1.0 -0.0209585544
C  C423  1  0.72021000  0.79135000  0.36376000  1.0 -0.0895972948
C  C424  1  0.70447000  0.81759000  0.39860000  1.0 -0.0032188488
C  C425  1  0.73668000  0.86180000  0.45282000  1.0 -0.1903752289
C  C426  1  0.78490000  0.78291000  0.34511000  1.0 0.5796080832
C  C427  1  0.65087000  0.80023000  0.37596000  1.0 0.5708711164
C  C428  1  0.73613000  0.14556000  0.68763000  1.0 0.0613851714
C  C429  1  0.69706000  0.12966000  0.68600000  1.0 -0.1008261233
C  C430  1  0.66947000  0.16057000  0.69750000  1.0 -0.068043124
C  C431  1  0.68110000  0.20731000  0.71081000  1.0 0.0218243195
C  C432  1  0.72021000  0.22321000  0.71240000  1.0 -0.044381313
C  C433  1  0.74770000  0.19230000  0.70080000  1.0 -0.1127382402
C  C434  1  0.65171000  0.24359000  0.72426000  1.0 0.0805365974
C  C435  1  0.60202000  0.22789000  0.70101000  1.0 -0.1843833929
C  C436  1  0.58107000  0.26103000  0.72454000  1.0 -0.0209585544
C  C437  1  0.60982000  0.30986000  0.77130000  1.0 -0.0895972948
C  C438  1  0.65951000  0.32556000  0.79455000  1.0 -0.0089433507
C  C439  1  0.68046000  0.29243000  0.77103000  1.0 -0.1903752289
C  C440  1  0.52740000  0.24574000  0.69840000  1.0 0.5796080832
C  C441  1  0.68997000  0.37899000  0.84560000  1.0 0.5796080832
C  C442  1  0.87950000  0.19700000  0.74630000  1.0 0.1995956669
C  C443  1  0.87200000  0.11240000  0.68300000  1.0 0.2099854456
C  C444  1  0.79950000  0.13460000  0.67350000  1.0 0.1739950007
C  C445  1  0.94840000  0.26210000  0.79430000  1.0 0.0404740352
C  C446  1  0.96790000  0.31310000  0.82660000  1.0 -0.0895972948
C  C447  1  0.01430000  0.33390000  0.84440000  1.0 -0.0089433507
C  C448  1  0.04140000  0.30360000  0.83000000  1.0 0.0494868297
C  C449  1  0.02190000  0.25260000  0.79770000  1.0 -0.0310160802
C  C450  1  0.97540000  0.23190000  0.77990000  1.0 -0.1008261233
C  C451  1  0.86600000  0.03410000  0.61150000  1.0 0.0036027424
C  C452  1  0.87020000  0.01440000  0.56600000  1.0 -0.1008261233
C  C453  1  0.84350000  0.96530000  0.51820000  1.0 -0.0814300915
C  C454  1  0.81280000  0.93630000  0.51610000  1.0 0.013414242
C  C455  1  0.80860000  0.95600000  0.56160000  1.0 -0.0089433507
C  C456  1  0.83520000  0.00500000  0.60940000  1.0 -0.0516266186
C  C457  1  0.72340000  0.15310000  0.65270000  1.0 -0.0209585544
C  C458  1  0.68730000  0.13290000  0.65220000  1.0 -0.0561810599
C  C459  1  0.66060000  0.16140000  0.66980000  1.0 -0.0209585544
C  C460  1  0.67020000  0.21020000  0.68800000  1.0 0.0404740352
C  C461  1  0.70630000  0.23050000  0.68860000  1.0 -0.0895972948
C  C462  1  0.73280000  0.20190000  0.67090000  1.0 -0.0814300915
C  C463  1  0.41764000  0.12397000  0.23113000  1.0 0.2099854456
C  C464  1  0.39180000  0.17420000  0.29160000  1.0 0.1922190519
C  C465  1  0.42230000  0.10909000  0.29659000  1.0 0.1922190519
C  C466  1  0.43186000  0.14306000  0.17740000  1.0 0.0613851714
C  C467  1  0.45723000  0.12993000  0.15230000  1.0 -0.0814300915
C  C468  1  0.46683000  0.15803000  0.13700000  1.0 -0.0310160802
C  C469  1  0.45107000  0.19927000  0.14680000  1.0 0.0494868297
C  C470  1  0.42561000  0.21241000  0.17180000  1.0 -0.068043124
C  C471  1  0.41610000  0.18430000  0.18720000  1.0 -0.0895972948
C  C472  1  0.46985000  0.23653000  0.14070000  1.0 0.0613851714
C  C473  1  0.46521000  0.21622000  0.08947000  1.0 -0.2176539792
C  C474  1  0.47218000  0.24678000  0.07552000  1.0 -0.0089433507
C  C475  1  0.48378000  0.29765000  0.11279000  1.0 -0.0895972948
C  C476  1  0.48840000  0.31795000  0.16401000  1.0 -0.0089433507
C  C477  1  0.48144000  0.28739000  0.17797000  1.0 -0.2015304012
C  C478  1  0.46889000  0.22448000  0.02107000  1.0 0.5796080832
C  C479  1  0.50438000  0.37327000  0.20611000  1.0 0.5796080832
C  C480  1  0.38038000  0.23630000  0.36072000  1.0 0.0404740352
C  C481  1  0.40728000  0.28628000  0.40320000  1.0 -0.0814300915
C  C482  1  0.41238000  0.31055000  0.45517000  1.0 -0.0089433507
C  C483  1  0.39047000  0.28483000  0.46456000  1.0 0.013414242
C  C484  1  0.36357000  0.23487000  0.42210000  1.0 -0.1008261233
C  C485  1  0.35848000  0.21060000  0.37012000  1.0 -0.1200868875
C  C486  1  0.40758000  0.31244000  0.52780000  1.0 0.0805365974
C  C487  1  0.41618000  0.36303000  0.56265000  1.0 -0.1843833929
C  C488  1  0.42618000  0.38503000  0.61687000  1.0 -0.0209585544
C  C489  1  0.42759000  0.35645000  0.63624000  1.0 -0.0895972948
C  C490  1  0.41899000  0.30587000  0.60140000  1.0 -0.0032188488
C  C491  1  0.40898000  0.28386000  0.54718000  1.0 -0.1903752289
C  C492  1  0.43780000  0.43979000  0.65489000  1.0 0.5796080832
C  C493  1  0.42427000  0.27491000  0.62404000  1.0 0.5708711164
C  C494  1  0.45793000  0.04850000  0.31237000  1.0 0.0613851714
C  C495  1  0.44366000  0.01106000  0.31400000  1.0 -0.1008261233
C  C496  1  0.46307000  0.97197000  0.30250000  1.0 -0.068043124
C  C497  1  0.49650000  0.97029000  0.28919000  1.0 0.0218243195
C  C498  1  0.51081000  0.00781000  0.28760000  1.0 -0.044381313
C  C499  1  0.49150000  0.04690000  0.29920000  1.0 -0.1127382402
C  C500  1  0.51933000  0.92745000  0.27574000  1.0 0.0805365974
C  C501  1  0.52688000  0.90101000  0.29899000  1.0 -0.1843833929
C  C502  1  0.53649000  0.85653000  0.27546000  1.0 -0.0209585544
C  C503  1  0.53856000  0.83852000  0.22870000  1.0 -0.0895972948
C  C504  1  0.53101000  0.86496000  0.20545000  1.0 -0.0089433507
C  C505  1  0.52140000  0.90943000  0.22897000  1.0 -0.1903752289
C  C506  1  0.54734000  0.82900000  0.30160000  1.0 0.5796080832
C  C507  1  0.53339000  0.84437000  0.15440000  1.0 0.5796080832
C  C508  1  0.45070000  0.13320000  0.25370000  1.0 0.1995956669
C  C509  1  0.42940000  0.18900000  0.31700000  1.0 0.2099854456
C  C510  1  0.46110000  0.12600000  0.32650000  1.0 0.1739950007
C  C511  1  0.46780000  0.15410000  0.20570000  1.0 0.0404740352
C  C512  1  0.48650000  0.14130000  0.17340000  1.0 -0.0895972948
C  C513  1  0.48950000  0.16990000  0.15560000  1.0 -0.0089433507
C  C514  1  0.47360000  0.21140000  0.17000000  1.0 0.0494868297
C  C515  1  0.45490000  0.22420000  0.20230000  1.0 -0.0310160802
C  C516  1  0.45200000  0.19550000  0.22010000  1.0 -0.1008261233
C  C517  1  0.42260000  0.25450000  0.38850000  1.0 0.0036027424
C  C518  1  0.44840000  0.30420000  0.43400000  1.0 -0.1008261233
C  C519  1  0.44710000  0.32530000  0.48180000  1.0 -0.0814300915
C  C520  1  0.42020000  0.29670000  0.48390000  1.0 0.013414242
C  C521  1  0.39440000  0.24700000  0.43840000  1.0 -0.0089433507
C  C522  1  0.39560000  0.22580000  0.39060000  1.0 -0.0516266186
C  C523  1  0.50040000  0.07070000  0.34730000  1.0 -0.0310160802
C  C524  1  0.48070000  0.03510000  0.34780000  1.0 -0.0561810599
C  C525  1  0.49160000  0.99080000  0.33020000  1.0 -0.0209585544
C  C526  1  0.52220000  0.98220000  0.31200000  1.0 0.0404740352
C  C527  1  0.54190000  0.01770000  0.31140000  1.0 -0.0895972948
C  C528  1  0.53100000  0.06190000  0.32910000  1.0 -0.0814300915
N  N1  1  0.90270000  0.15728000  0.33202000  1.0 -0.1391726477
N  N2  1  0.83758000  0.08727000  0.23651000  1.0 -0.1629789961
N  N3  1  0.85246000  0.16751000  0.25595000  1.0 -0.1200868875
N  N4  1  0.88753000  0.08143000  0.31370000  1.0 -0.1258328954
N  N5  1  0.78940000  0.09740000  0.16520000  1.0 -0.1008261233
N  N6  1  0.91500000  0.23420000  0.34660000  1.0 -0.1503214507
N  N7  1  0.89020000  0.17130000  0.35490000  1.0 -0.1391726477
N  N8  1  0.82720000  0.09880000  0.26020000  1.0 -0.1629789961
N  N9  1  0.83440000  0.17880000  0.27780000  1.0 -0.1503214507
N  N10  1  0.87550000  0.09520000  0.33570000  1.0 -0.1008261233
N  N11  1  0.77050000  0.10530000  0.18820000  1.0 -0.1391726477
N  N12  1  0.89600000  0.24640000  0.36740000  1.0 -0.0895972948
N  N13  1  0.82526000  0.57068000  0.66798000  1.0 -0.1391726477
N  N14  1  0.85076000  0.60107000  0.76349000  1.0 -0.1629789961
N  N15  1  0.91156000  0.59651000  0.74405000  1.0 -0.1200868875
N  N16  1  0.76773000  0.57383000  0.68630000  1.0 -0.1258328954
N  N17  1  0.93220000  0.62420000  0.83480000  1.0 -0.1008261233
N  N18  1  0.88760000  0.56840000  0.65340000  1.0 -0.1503214507
N  N19  1  0.81640000  0.53530000  0.64510000  1.0 -0.1391726477
N  N20  1  0.83860000  0.56700000  0.73980000  1.0 -0.1629789961
N  N21  1  0.90100000  0.55660000  0.72220000  1.0 -0.1503214507
N  N22  1  0.75950000  0.53980000  0.66430000  1.0 -0.1008261233
N  N23  1  0.91710000  0.58230000  0.81180000  1.0 -0.1391726477
N  N24  1  0.87900000  0.52860000  0.63260000  1.0 -0.0895972948
N  N25  1  0.15728000  0.82526000  0.25458000  1.0 -0.1391726477
N  N26  1  0.08727000  0.85076000  0.24969000  1.0 -0.1629789961
N  N27  1  0.16751000  0.91156000  0.31505000  1.0 -0.1200868875
N  N28  1  0.08143000  0.76773000  0.19390000  1.0 -0.1258328954
N  N29  1  0.09740000  0.93220000  0.30800000  1.0 -0.1008261233
N  N30  1  0.23420000  0.88760000  0.31920000  1.0 -0.1503214507
N  N31  1  0.17130000  0.81640000  0.28110000  1.0 -0.1391726477
N  N32  1  0.09880000  0.83860000  0.27160000  1.0 -0.1629789961
N  N33  1  0.17880000  0.90100000  0.34440000  1.0 -0.1503214507
N  N34  1  0.09520000  0.75950000  0.21970000  1.0 -0.1008261233
N  N35  1  0.10530000  0.91710000  0.33480000  1.0 -0.1391726477
N  N36  1  0.24640000  0.87900000  0.35040000  1.0 -0.0895972948
N  N37  1  0.57068000  0.90270000  0.74542000  1.0 -0.1391726477
N  N38  1  0.60107000  0.83758000  0.75031000  1.0 -0.1629789961
N  N39  1  0.59651000  0.85246000  0.68495000  1.0 -0.1200868875
N  N40  1  0.57383000  0.88753000  0.80610000  1.0 -0.1258328954
N  N41  1  0.62420000  0.78940000  0.69200000  1.0 -0.1008261233
N  N42  1  0.56840000  0.91500000  0.68080000  1.0 -0.1503214507
N  N43  1  0.53530000  0.89020000  0.71890000  1.0 -0.1391726477
N  N44  1  0.56700000  0.82720000  0.72840000  1.0 -0.1629789961
N  N45  1  0.55660000  0.83440000  0.65560000  1.0 -0.1503214507
N  N46  1  0.53980000  0.87550000  0.78030000  1.0 -0.1008261233
N  N47  1  0.58230000  0.77050000  0.66520000  1.0 -0.1391726477
N  N48  1  0.52860000  0.89600000  0.64960000  1.0 -0.0895972948
N  N49  1  0.09730000  0.84272000  0.66798000  1.0 -0.1391726477
N  N50  1  0.16242000  0.91273000  0.76349000  1.0 -0.1629789961
N  N51  1  0.14754000  0.83249000  0.74405000  1.0 -0.1200868875
N  N52  1  0.11247000  0.91857000  0.68630000  1.0 -0.1258328954
N  N53  1  0.21060000  0.90260000  0.83480000  1.0 -0.1008261233
N  N54  1  0.08500000  0.76580000  0.65340000  1.0 -0.1503214507
N  N55  1  0.10980000  0.82870000  0.64510000  1.0 -0.1391726477
N  N56  1  0.17280000  0.90120000  0.73980000  1.0 -0.1629789961
N  N57  1  0.16560000  0.82120000  0.72220000  1.0 -0.1503214507
N  N58  1  0.12450000  0.90480000  0.66430000  1.0 -0.1008261233
N  N59  1  0.22950000  0.89470000  0.81180000  1.0 -0.1391726477
N  N60  1  0.10400000  0.75360000  0.63260000  1.0 -0.0895972948
N  N61  1  0.17474000  0.42932000  0.33202000  1.0 -0.1391726477
N  N62  1  0.14924000  0.39893000  0.23651000  1.0 -0.1629789961
N  N63  1  0.08844000  0.40349000  0.25595000  1.0 -0.1200868875
N  N64  1  0.23227000  0.42617000  0.31370000  1.0 -0.1258328954
N  N65  1  0.06780000  0.37580000  0.16520000  1.0 -0.1008261233
N  N66  1  0.11240000  0.43160000  0.34660000  1.0 -0.1503214507
N  N67  1  0.18360000  0.46470000  0.35490000  1.0 -0.1391726477
N  N68  1  0.16140000  0.43300000  0.26020000  1.0 -0.1629789961
N  N69  1  0.09900000  0.44340000  0.27780000  1.0 -0.1503214507
N  N70  1  0.24050000  0.46020000  0.33570000  1.0 -0.1008261233
N  N71  1  0.08290000  0.41770000  0.18820000  1.0 -0.1391726477
N  N72  1  0.12100000  0.47140000  0.36740000  1.0 -0.0895972948
N  N73  1  0.84272000  0.17474000  0.74542000  1.0 -0.1391726477
N  N74  1  0.91273000  0.14924000  0.75031000  1.0 -0.1629789961
N  N75  1  0.83249000  0.08844000  0.68495000  1.0 -0.1200868875
N  N76  1  0.91857000  0.23227000  0.80610000  1.0 -0.1258328954
N  N77  1  0.90260000  0.06780000  0.69200000  1.0 -0.1008261233
N  N78  1  0.76580000  0.11240000  0.68080000  1.0 -0.1503214507
N  N79  1  0.82870000  0.18360000  0.71890000  1.0 -0.1391726477
N  N80  1  0.90120000  0.16140000  0.72840000  1.0 -0.1629789961
N  N81  1  0.82120000  0.09900000  0.65560000  1.0 -0.1503214507
N  N82  1  0.90480000  0.24050000  0.78030000  1.0 -0.1008261233
N  N83  1  0.89470000  0.08290000  0.66520000  1.0 -0.1391726477
N  N84  1  0.75360000  0.12100000  0.64960000  1.0 -0.0895972948
N  N85  1  0.42932000  0.09730000  0.25458000  1.0 -0.1391726477
N  N86  1  0.39893000  0.16242000  0.24969000  1.0 -0.1629789961
N  N87  1  0.40349000  0.14754000  0.31505000  1.0 -0.1200868875
N  N88  1  0.42617000  0.11247000  0.19390000  1.0 -0.1258328954
N  N89  1  0.37580000  0.21060000  0.30800000  1.0 -0.1008261233
N  N90  1  0.43160000  0.08500000  0.31920000  1.0 -0.1503214507
N  N91  1  0.46470000  0.10980000  0.28110000  1.0 -0.1391726477
N  N92  1  0.43300000  0.17280000  0.27160000  1.0 -0.1629789961
N  N93  1  0.44340000  0.16560000  0.34440000  1.0 -0.1503214507
N  N94  1  0.46020000  0.12450000  0.21970000  1.0 -0.1008261233
N  N95  1  0.41770000  0.22950000  0.33480000  1.0 -0.1391726477
N  N96  1  0.47140000  0.10400000  0.35040000  1.0 -0.0895972948
O  O1  1  0.92366000  0.83613000  0.38295000  1.0 -0.4702934814
O  O2  1  0.30434000  0.34930000  0.82852000  1.0 -0.2969503644
O  O3  1  0.82093000  0.81171000  0.28182000  1.0 -0.4971341459
O  O4  1  0.74491000  0.75581000  0.21914000  1.0 -0.5197597729
O  O5  1  0.60128000  0.78861000  0.10475000  1.0 -0.5271677269
O  O6  1  0.60937000  0.86584000  0.12637000  1.0 -0.5197597729
O  O7  1  0.53609000  0.17340000  0.97741000  1.0 -0.5089977402
O  O8  1  0.54203000  0.24500000  0.98679000  1.0 -0.5197597729
O  O9  1  0.76994000  0.36039000  0.18829000  1.0 -0.5197597729
O  O10  1  0.70283000  0.37652000  0.13669000  1.0 -0.5089977402
O  O11  1  0.14865000  0.50016000  0.70545000  1.0 -0.5089977402
O  O12  1  0.21585000  0.48616000  0.75989000  1.0 -0.5271677269
O  O13  1  0.19926000  0.32809000  0.73181000  1.0 -0.4971341459
O  O14  1  0.12597000  0.26655000  0.65968000  1.0 -0.5271677269
O  O15  1  0.45318000  0.54071000  0.61705000  1.0 -0.4702934814
O  O16  1  0.52078000  0.47582000  0.17148000  1.0 -0.291779731
O  O17  1  0.52989000  0.53911000  0.71818000  1.0 -0.4971341459
O  O18  1  0.53667000  0.52577000  0.78086000  1.0 -0.5197597729
O  O19  1  0.68386000  0.49653000  0.89525000  1.0 -0.5271677269
O  O20  1  0.73947000  0.48300000  0.87363000  1.0 -0.5197597729
O  O21  1  0.19599000  0.55868000  0.02259000  1.0 -0.5089977402
O  O22  1  0.25821000  0.55524000  0.01321000  1.0 -0.5197597729
O  O23  1  0.17210000  0.58165000  0.81171000  1.0 -0.5197597729
O  O24  1  0.23983000  0.56614000  0.86331000  1.0 -0.5089977402
O  O25  1  0.79471000  0.44320000  0.29455000  1.0 -0.5089977402
O  O26  1  0.72627000  0.45596000  0.24011000  1.0 -0.5271677269
O  O27  1  0.59628000  0.46745000  0.26819000  1.0 -0.4971341459
O  O28  1  0.60687000  0.46629000  0.34032000  1.0 -0.5271677269
O  O29  1  0.83613000  0.45318000  0.91247000  1.0 -0.4702934814
O  O30  1  0.34930000  0.52078000  0.04496000  1.0 -0.2969503644
O  O31  1  0.81171000  0.52989000  0.99078000  1.0 -0.4971341459
O  O32  1  0.75581000  0.53667000  0.01090000  1.0 -0.5197597729
O  O33  1  0.78861000  0.68386000  0.18733000  1.0 -0.5271677269
O  O34  1  0.86584000  0.73947000  0.25647000  1.0 -0.5197597729
O  O35  1  0.17340000  0.19599000  0.63731000  1.0 -0.5089977402
O  O36  1  0.24500000  0.25821000  0.70297000  1.0 -0.5197597729
O  O37  1  0.36039000  0.17210000  0.59045000  1.0 -0.5197597729
O  O38  1  0.37652000  0.23983000  0.67369000  1.0 -0.5089977402
O  O39  1  0.50016000  0.79471000  0.35151000  1.0 -0.5089977402
O  O40  1  0.48616000  0.72627000  0.27031000  1.0 -0.5271677269
O  O41  1  0.32809000  0.59628000  0.12883000  1.0 -0.4971341459
O  O42  1  0.26655000  0.60687000  0.14058000  1.0 -0.5271677269
O  O43  1  0.54071000  0.92366000  0.08753000  1.0 -0.4841430528
O  O44  1  0.47582000  0.30434000  0.95504000  1.0 -0.291779731
O  O45  1  0.53911000  0.82093000  0.00922000  1.0 -0.4971341459
O  O46  1  0.52577000  0.74491000  0.98910000  1.0 -0.5197597729
O  O47  1  0.49653000  0.60128000  0.81267000  1.0 -0.5271677269
O  O48  1  0.48300000  0.60937000  0.74353000  1.0 -0.5197597729
O  O49  1  0.55868000  0.53609000  0.36269000  1.0 -0.5089977402
O  O50  1  0.55524000  0.54203000  0.29703000  1.0 -0.5197597729
O  O51  1  0.58165000  0.76994000  0.40955000  1.0 -0.5197597729
O  O52  1  0.56614000  0.70283000  0.32631000  1.0 -0.5089977402
O  O53  1  0.44320000  0.14865000  0.64849000  1.0 -0.5089977402
O  O54  1  0.45596000  0.21585000  0.72969000  1.0 -0.5271677269
O  O55  1  0.46745000  0.19926000  0.87117000  1.0 -0.4971341459
O  O56  1  0.46629000  0.12597000  0.85942000  1.0 -0.5271677269
O  O57  1  0.07634000  0.16387000  0.61705000  1.0 -0.4702934814
O  O58  1  0.69566000  0.65070000  0.17148000  1.0 -0.291779731
O  O59  1  0.17907000  0.18829000  0.71818000  1.0 -0.4971341459
O  O60  1  0.25509000  0.24419000  0.78086000  1.0 -0.5197597729
O  O61  1  0.39872000  0.21139000  0.89525000  1.0 -0.5271677269
O  O62  1  0.39063000  0.13416000  0.87363000  1.0 -0.5197597729
O  O63  1  0.46391000  0.82660000  0.02259000  1.0 -0.5089977402
O  O64  1  0.45797000  0.75500000  0.01321000  1.0 -0.5197597729
O  O65  1  0.23006000  0.63961000  0.81171000  1.0 -0.5197597729
O  O66  1  0.29717000  0.62348000  0.86331000  1.0 -0.5089977402
O  O67  1  0.85135000  0.49984000  0.29455000  1.0 -0.5089977402
O  O68  1  0.78415000  0.51384000  0.24011000  1.0 -0.5271677269
O  O69  1  0.80074000  0.67191000  0.26819000  1.0 -0.4971341459
O  O70  1  0.87403000  0.73345000  0.34032000  1.0 -0.5271677269
O  O71  1  0.54682000  0.45929000  0.38295000  1.0 -0.4702934814
O  O72  1  0.47922000  0.52418000  0.82852000  1.0 -0.291779731
O  O73  1  0.47011000  0.46089000  0.28182000  1.0 -0.4971341459
O  O74  1  0.46333000  0.47423000  0.21914000  1.0 -0.5197597729
O  O75  1  0.31614000  0.50347000  0.10475000  1.0 -0.5271677269
O  O76  1  0.26053000  0.51700000  0.12637000  1.0 -0.5197597729
O  O77  1  0.80401000  0.44132000  0.97741000  1.0 -0.5089977402
O  O78  1  0.74179000  0.44476000  0.98679000  1.0 -0.5197597729
O  O79  1  0.82790000  0.41835000  0.18829000  1.0 -0.5197597729
O  O80  1  0.76017000  0.43386000  0.13669000  1.0 -0.5089977402
O  O81  1  0.20529000  0.55680000  0.70545000  1.0 -0.5089977402
O  O82  1  0.27373000  0.54404000  0.75989000  1.0 -0.5271677269
O  O83  1  0.40372000  0.53255000  0.73181000  1.0 -0.4971341459
O  O84  1  0.39313000  0.53371000  0.65968000  1.0 -0.5271677269
O  O85  1  0.16387000  0.54682000  0.08753000  1.0 -0.485436712
O  O86  1  0.65070000  0.47922000  0.95504000  1.0 -0.291779731
O  O87  1  0.18829000  0.47011000  0.00922000  1.0 -0.4971341459
O  O88  1  0.24419000  0.46333000  0.98910000  1.0 -0.5197597729
O  O89  1  0.21139000  0.31614000  0.81267000  1.0 -0.5271677269
O  O90  1  0.13416000  0.26053000  0.74353000  1.0 -0.5197597729
O  O91  1  0.82660000  0.80401000  0.36269000  1.0 -0.5089977402
O  O92  1  0.75500000  0.74179000  0.29703000  1.0 -0.5197597729
O  O93  1  0.63961000  0.82790000  0.40955000  1.0 -0.5197597729
O  O94  1  0.62348000  0.76017000  0.32631000  1.0 -0.5089977402
O  O95  1  0.49984000  0.20529000  0.64849000  1.0 -0.5089977402
O  O96  1  0.51384000  0.27373000  0.72969000  1.0 -0.5271677269
O  O97  1  0.67191000  0.40372000  0.87117000  1.0 -0.4971341459
O  O98  1  0.73345000  0.39313000  0.85942000  1.0 -0.5271677269
O  O99  1  0.45929000  0.07634000  0.91247000  1.0 -0.4702934814
O  O100  1  0.52418000  0.69566000  0.04496000  1.0 -0.291779731
O  O101  1  0.46089000  0.17907000  0.99078000  1.0 -0.4971341459
O  O102  1  0.47423000  0.25509000  0.01090000  1.0 -0.5197597729
O  O103  1  0.50347000  0.39872000  0.18733000  1.0 -0.5271677269
O  O104  1  0.51700000  0.39063000  0.25647000  1.0 -0.5197597729
O  O105  1  0.44132000  0.46391000  0.63731000  1.0 -0.5089977402
O  O106  1  0.44476000  0.45797000  0.70297000  1.0 -0.5197597729
O  O107  1  0.41835000  0.23006000  0.59045000  1.0 -0.5197597729
O  O108  1  0.43386000  0.29717000  0.67369000  1.0 -0.5089977402
O  O109  1  0.55680000  0.85135000  0.35151000  1.0 -0.5089977402
O  O110  1  0.54404000  0.78415000  0.27031000  1.0 -0.5271677269
O  O111  1  0.53255000  0.80074000  0.12883000  1.0 -0.4971341459
O  O112  1  0.53371000  0.87403000  0.14058000  1.0 -0.5271677269
O  O113  1  0.88036000  0.41040000  0.29076000  1.0 -0.4202355264
O  O114  1  0.32602000  0.53650000  0.86252000  1.0 -0.2817842904
O  O115  1  0.11964000  0.58960000  0.70924000  1.0 -0.4202355264
O  O116  1  0.67398000  0.46350000  0.13748000  1.0 -0.2969503644
O  O117  1  0.41040000  0.11964000  0.53004000  1.0 -0.4202355264
O  O118  1  0.53650000  0.67398000  0.21048000  1.0 -0.2817842904
O  O119  1  0.58960000  0.88036000  0.46996000  1.0 -0.4202355264
O  O120  1  0.46350000  0.32602000  0.78952000  1.0 -0.2817842904
