# DDEC6 charges by PACMAN v1.1 (https://github.com/mtap-research/PACMAN-charge/)
data_EMEJUD_FSR_pacman
_symmetry_space_group_name_H-M   'P 1'
_cell_length_a   23.88220000
_cell_length_b   23.88220000
_cell_length_c   46.85140000
_cell_angle_alpha   90.00000000
_cell_angle_beta   90.00000000
_cell_angle_gamma   90.00000000
_symmetry_Int_Tables_number   1
_chemical_formula_structural   CoH66C62S2(N4O)2
_chemical_formula_sum   'Co16 H1056 C992 S32 N128 O32'
_cell_volume   26722.13999322
_cell_formula_units_Z   16
loop_
 _symmetry_equiv_pos_site_id
 _symmetry_equiv_pos_as_xyz
  1  'x, y, z'
loop_
 _atom_site_type_symbol
 _atom_site_label
 _atom_site_symmetry_multiplicity
 _atom_site_fract_x
 _atom_site_fract_y
 _atom_site_fract_z
 _atom_site_occupancy
 _atom_site_charge
Co  Co1  1  0.13831000  0.86169000  0.75000000  1.0 0.6554953975
Co  Co2  1  0.63831000  0.63831000  0.00000000  1.0 0.6554953975
Co  Co3  1  0.86169000  0.13831000  0.25000000  1.0 0.6554953975
Co  Co4  1  0.36169000  0.36169000  0.50000000  1.0 0.6554953975
Co  Co5  1  0.38181000  0.87986000  0.49538000  1.0 0.6898610813
Co  Co6  1  0.62014000  0.88181000  0.74538000  1.0 0.6898610813
Co  Co7  1  0.61819000  0.12014000  0.99538000  1.0 0.6898610813
Co  Co8  1  0.37986000  0.11819000  0.24538000  1.0 0.6898610813
Co  Co9  1  0.88181000  0.62014000  0.25462000  1.0 0.6898610813
Co  Co10  1  0.11819000  0.37986000  0.75462000  1.0 0.6898610813
Co  Co11  1  0.87986000  0.38181000  0.50462000  1.0 0.6898610813
Co  Co12  1  0.12014000  0.61819000  0.00462000  1.0 0.6898610813
Co  Co13  1  0.38740000  0.61260000  0.25000000  1.0 0.6972019595
Co  Co14  1  0.88740000  0.88740000  0.50000000  1.0 0.6972019595
Co  Co15  1  0.61260000  0.38740000  0.75000000  1.0 0.6972019595
Co  Co16  1  0.11260000  0.11260000  0.00000000  1.0 0.6972019595
H  H1  1  0.17950000  0.74380000  0.73500000  1.0 0.0995197328
H  H2  1  0.75620000  0.67950000  0.98500000  1.0 0.0995197328
H  H3  1  0.82050000  0.25620000  0.23500000  1.0 0.0995197328
H  H4  1  0.24380000  0.32050000  0.48500000  1.0 0.0995197328
H  H5  1  0.67950000  0.75620000  0.01500000  1.0 0.0995197328
H  H6  1  0.32050000  0.24380000  0.51500000  1.0 0.0995197328
H  H7  1  0.74380000  0.17950000  0.26500000  1.0 0.0995197328
H  H8  1  0.25620000  0.82050000  0.76500000  1.0 0.0995197328
H  H9  1  0.19760000  0.88390000  0.69240000  1.0 0.0995197328
H  H10  1  0.61610000  0.69760000  0.94240000  1.0 0.0995197328
H  H11  1  0.80240000  0.11610000  0.19240000  1.0 0.0995197328
H  H12  1  0.38390000  0.30240000  0.44240000  1.0 0.0995197328
H  H13  1  0.69760000  0.61610000  0.05760000  1.0 0.0995197328
H  H14  1  0.30240000  0.38390000  0.55760000  1.0 0.0995197328
H  H15  1  0.88390000  0.19760000  0.30760000  1.0 0.0995197328
H  H16  1  0.11610000  0.80240000  0.80760000  1.0 0.0995197328
H  H17  1  0.22470000  0.69380000  0.69930000  1.0 0.1289328515
H  H18  1  0.80620000  0.72470000  0.94930000  1.0 0.1289328515
H  H19  1  0.77530000  0.30620000  0.19930000  1.0 0.1289328515
H  H20  1  0.19380000  0.27530000  0.44930000  1.0 0.1289328515
H  H21  1  0.72470000  0.80620000  0.05070000  1.0 0.1289328515
H  H22  1  0.27530000  0.19380000  0.55070000  1.0 0.1289328515
H  H23  1  0.69380000  0.22470000  0.30070000  1.0 0.1289328515
H  H24  1  0.30620000  0.77530000  0.80070000  1.0 0.1289328515
H  H25  1  0.24510000  0.84040000  0.65670000  1.0 0.1289328515
H  H26  1  0.65960000  0.74510000  0.90670000  1.0 0.1289328515
H  H27  1  0.75490000  0.15960000  0.15670000  1.0 0.1289328515
H  H28  1  0.34040000  0.25490000  0.40670000  1.0 0.1289328515
H  H29  1  0.74510000  0.65960000  0.09330000  1.0 0.1289328515
H  H30  1  0.25490000  0.34040000  0.59330000  1.0 0.1289328515
H  H31  1  0.84040000  0.24510000  0.34330000  1.0 0.1289328515
H  H32  1  0.15960000  0.75490000  0.84330000  1.0 0.1289328515
H  H33  1  0.26650000  0.65240000  0.66700000  1.0 0.1189261572
H  H34  1  0.84760000  0.76650000  0.91700000  1.0 0.1189261572
H  H35  1  0.73350000  0.34760000  0.16700000  1.0 0.1189261572
H  H36  1  0.15240000  0.23350000  0.41700000  1.0 0.1189261572
H  H37  1  0.76650000  0.84760000  0.08300000  1.0 0.1189261572
H  H38  1  0.23350000  0.15240000  0.58300000  1.0 0.1189261572
H  H39  1  0.65240000  0.26650000  0.33300000  1.0 0.1189261572
H  H40  1  0.34760000  0.73350000  0.83300000  1.0 0.1189261572
H  H41  1  0.32080000  0.66030000  0.58510000  1.0 0.1189261572
H  H42  1  0.83970000  0.82080000  0.83510000  1.0 0.1189261572
H  H43  1  0.67920000  0.33970000  0.08510000  1.0 0.1189261572
H  H44  1  0.16030000  0.17920000  0.33510000  1.0 0.1189261572
H  H45  1  0.82080000  0.83970000  0.16490000  1.0 0.1189261572
H  H46  1  0.17920000  0.16030000  0.66490000  1.0 0.1189261572
H  H47  1  0.66030000  0.32080000  0.41490000  1.0 0.1189261572
H  H48  1  0.33970000  0.67920000  0.91490000  1.0 0.1189261572
H  H49  1  0.29370000  0.84650000  0.59440000  1.0 0.1289328515
H  H50  1  0.65350000  0.79370000  0.84440000  1.0 0.1289328515
H  H51  1  0.70630000  0.15350000  0.09440000  1.0 0.1289328515
H  H52  1  0.34650000  0.20630000  0.34440000  1.0 0.1289328515
H  H53  1  0.79370000  0.65350000  0.15560000  1.0 0.1289328515
H  H54  1  0.20630000  0.34650000  0.65560000  1.0 0.1289328515
H  H55  1  0.84650000  0.29370000  0.40560000  1.0 0.1289328515
H  H56  1  0.15350000  0.70630000  0.90560000  1.0 0.1289328515
H  H57  1  0.32540000  0.70630000  0.54930000  1.0 0.1289328515
H  H58  1  0.79370000  0.82540000  0.79930000  1.0 0.1289328515
H  H59  1  0.67460000  0.29370000  0.04930000  1.0 0.1289328515
H  H60  1  0.20630000  0.17460000  0.29930000  1.0 0.1289328515
H  H61  1  0.82540000  0.79370000  0.20070000  1.0 0.1289328515
H  H62  1  0.17460000  0.20630000  0.70070000  1.0 0.1289328515
H  H63  1  0.70630000  0.32540000  0.45070000  1.0 0.1289328515
H  H64  1  0.29370000  0.67460000  0.95070000  1.0 0.1289328515
H  H65  1  0.28340000  0.57120000  0.58440000  1.0 0.1098966768
H  H66  1  0.92880000  0.78340000  0.83440000  1.0 0.1098966768
H  H67  1  0.71660000  0.42880000  0.08440000  1.0 0.1098966768
H  H68  1  0.07120000  0.21660000  0.33440000  1.0 0.1098966768
H  H69  1  0.78340000  0.92880000  0.16560000  1.0 0.1098966768
H  H70  1  0.21660000  0.07120000  0.66560000  1.0 0.1098966768
H  H71  1  0.57120000  0.28340000  0.41560000  1.0 0.1098966768
H  H72  1  0.42880000  0.71660000  0.91560000  1.0 0.1098966768
H  H73  1  0.33100000  0.57710000  0.66690000  1.0 0.1098966768
H  H74  1  0.92290000  0.83100000  0.91690000  1.0 0.1098966768
H  H75  1  0.66900000  0.42290000  0.16690000  1.0 0.1098966768
H  H76  1  0.07710000  0.16900000  0.41690000  1.0 0.1098966768
H  H77  1  0.83100000  0.92290000  0.08310000  1.0 0.1098966768
H  H78  1  0.16900000  0.07710000  0.58310000  1.0 0.1098966768
H  H79  1  0.57710000  0.33100000  0.33310000  1.0 0.1098966768
H  H80  1  0.42290000  0.66900000  0.83310000  1.0 0.1098966768
H  H81  1  0.32150000  0.89820000  0.55560000  1.0 0.1098966768
H  H82  1  0.60180000  0.82150000  0.80560000  1.0 0.1098966768
H  H83  1  0.67850000  0.10180000  0.05560000  1.0 0.1098966768
H  H84  1  0.39820000  0.17850000  0.30560000  1.0 0.1098966768
H  H85  1  0.82150000  0.60180000  0.19440000  1.0 0.1098966768
H  H86  1  0.17850000  0.39820000  0.69440000  1.0 0.1098966768
H  H87  1  0.89820000  0.32150000  0.44440000  1.0 0.1098966768
H  H88  1  0.10180000  0.67850000  0.94440000  1.0 0.1098966768
H  H89  1  0.35300000  0.76170000  0.51170000  1.0 0.0995197328
H  H90  1  0.73830000  0.85300000  0.76170000  1.0 0.0995197328
H  H91  1  0.64700000  0.23830000  0.01170000  1.0 0.0995197328
H  H92  1  0.26170000  0.14700000  0.26170000  1.0 0.0995197328
H  H93  1  0.85300000  0.73830000  0.23830000  1.0 0.0995197328
H  H94  1  0.14700000  0.26170000  0.73830000  1.0 0.0995197328
H  H95  1  0.76170000  0.35300000  0.48830000  1.0 0.0995197328
H  H96  1  0.23830000  0.64700000  0.98830000  1.0 0.0995197328
H  H97  1  0.30040000  0.47570000  0.58320000  1.0 0.1189261572
H  H98  1  0.02430000  0.80040000  0.83320000  1.0 0.1289328515
H  H99  1  0.69960000  0.52430000  0.08320000  1.0 0.1189261572
H  H100  1  0.97570000  0.19960000  0.33320000  1.0 0.1189261572
H  H101  1  0.80040000  0.02430000  0.16680000  1.0 0.1189261572
H  H102  1  0.19960000  0.97570000  0.66680000  1.0 0.1289328515
H  H103  1  0.47570000  0.30040000  0.41680000  1.0 0.1189261572
H  H104  1  0.52430000  0.69960000  0.91680000  1.0 0.1189261572
H  H105  1  0.35090000  0.48080000  0.66620000  1.0 0.1189261572
H  H106  1  0.01920000  0.85090000  0.91620000  1.0 0.1189261572
H  H107  1  0.64910000  0.51920000  0.16620000  1.0 0.1189261572
H  H108  1  0.98080000  0.14910000  0.41620000  1.0 0.1189261572
H  H109  1  0.85090000  0.01920000  0.08380000  1.0 0.1189261572
H  H110  1  0.14910000  0.98080000  0.58380000  1.0 0.1189261572
H  H111  1  0.48080000  0.35090000  0.33380000  1.0 0.1189261572
H  H112  1  0.51920000  0.64910000  0.83380000  1.0 0.1189261572
H  H113  1  0.33730000  0.38420000  0.66160000  1.0 0.0995197328
H  H114  1  0.11580000  0.83730000  0.91160000  1.0 0.0995197328
H  H115  1  0.66270000  0.61580000  0.16160000  1.0 0.0995197328
H  H116  1  0.88420000  0.16270000  0.41160000  1.0 0.0995197328
H  H117  1  0.83730000  0.11580000  0.08840000  1.0 0.0995197328
H  H118  1  0.16270000  0.88420000  0.58840000  1.0 0.0995197328
H  H119  1  0.38420000  0.33730000  0.33840000  1.0 0.0995197328
H  H120  1  0.61580000  0.66270000  0.83840000  1.0 0.0995197328
H  H121  1  0.39750000  0.40480000  0.65050000  1.0 0.0919165916
H  H122  1  0.09520000  0.89750000  0.90050000  1.0 0.0919165916
H  H123  1  0.60250000  0.59520000  0.15050000  1.0 0.0919165916
H  H124  1  0.90480000  0.10250000  0.40050000  1.0 0.0919165916
H  H125  1  0.89750000  0.09520000  0.09950000  1.0 0.0919165916
H  H126  1  0.10250000  0.90480000  0.59950000  1.0 0.0919165916
H  H127  1  0.40480000  0.39750000  0.34950000  1.0 0.0919165916
H  H128  1  0.59520000  0.60250000  0.84950000  1.0 0.0919165916
H  H129  1  0.26290000  0.83740000  0.48370000  1.0 0.0995197328
H  H130  1  0.66260000  0.76290000  0.73370000  1.0 0.0995197328
H  H131  1  0.73710000  0.16260000  0.98370000  1.0 0.0995197328
H  H132  1  0.33740000  0.23710000  0.23370000  1.0 0.0995197328
H  H133  1  0.76290000  0.66260000  0.26630000  1.0 0.0995197328
H  H134  1  0.23710000  0.33740000  0.76630000  1.0 0.0995197328
H  H135  1  0.83740000  0.26290000  0.51630000  1.0 0.0995197328
H  H136  1  0.16260000  0.73710000  0.01630000  1.0 0.0995197328
H  H137  1  0.40000000  0.81080000  0.43980000  1.0 0.0995197328
H  H138  1  0.68920000  0.90000000  0.68980000  1.0 0.0995197328
H  H139  1  0.60000000  0.18920000  0.93980000  1.0 0.0995197328
H  H140  1  0.31080000  0.10000000  0.18980000  1.0 0.0995197328
H  H141  1  0.90000000  0.68920000  0.31020000  1.0 0.0995197328
H  H142  1  0.10000000  0.31080000  0.81020000  1.0 0.0995197328
H  H143  1  0.81080000  0.40000000  0.56020000  1.0 0.0995197328
H  H144  1  0.18920000  0.60000000  0.06020000  1.0 0.0995197328
H  H145  1  0.45460000  0.86390000  0.54890000  1.0 0.0995197328
H  H146  1  0.63610000  0.95460000  0.79890000  1.0 0.0995197328
H  H147  1  0.54540000  0.13610000  0.04890000  1.0 0.0995197328
H  H148  1  0.36390000  0.04540000  0.29890000  1.0 0.0995197328
H  H149  1  0.95460000  0.63610000  0.20110000  1.0 0.0995197328
H  H150  1  0.04540000  0.36390000  0.70110000  1.0 0.0995197328
H  H151  1  0.86390000  0.45460000  0.45110000  1.0 0.0995197328
H  H152  1  0.13610000  0.54540000  0.95110000  1.0 0.0995197328
H  H153  1  0.41250000  0.00270000  0.50870000  1.0 0.1098966768
H  H154  1  0.49730000  0.91250000  0.75870000  1.0 0.1098966768
H  H155  1  0.58750000  0.99730000  0.00870000  1.0 0.1098966768
H  H156  1  0.50270000  0.08750000  0.25870000  1.0 0.1098966768
H  H157  1  0.91250000  0.49730000  0.24130000  1.0 0.1098966768
H  H158  1  0.08750000  0.50270000  0.74130000  1.0 0.1098966768
H  H159  1  0.00270000  0.41250000  0.49130000  1.0 0.1098966768
H  H160  1  0.99730000  0.58750000  0.99130000  1.0 0.1098966768
H  H161  1  0.34150000  0.30350000  0.63570000  1.0 0.1098966768
H  H162  1  0.19650000  0.84150000  0.88570000  1.0 0.1098966768
H  H163  1  0.65850000  0.69650000  0.13570000  1.0 0.1098966768
H  H164  1  0.80350000  0.15850000  0.38570000  1.0 0.1098966768
H  H165  1  0.84150000  0.19650000  0.11430000  1.0 0.1098966768
H  H166  1  0.15850000  0.80350000  0.61430000  1.0 0.1098966768
H  H167  1  0.30350000  0.34150000  0.36430000  1.0 0.1098966768
H  H168  1  0.69650000  0.65850000  0.86430000  1.0 0.1098966768
H  H169  1  0.39050000  0.32680000  0.61580000  1.0 0.1098966768
H  H170  1  0.17320000  0.89050000  0.86580000  1.0 0.1098966768
H  H171  1  0.60950000  0.67320000  0.11580000  1.0 0.1098966768
H  H172  1  0.82680000  0.10950000  0.36580000  1.0 0.1098966768
H  H173  1  0.89050000  0.17320000  0.13420000  1.0 0.1098966768
H  H174  1  0.10950000  0.82680000  0.63420000  1.0 0.1098966768
H  H175  1  0.32680000  0.39050000  0.38420000  1.0 0.1098966768
H  H176  1  0.67320000  0.60950000  0.88420000  1.0 0.1098966768
H  H177  1  0.21030000  0.78490000  0.45180000  1.0 0.1289328515
H  H178  1  0.71510000  0.71030000  0.70180000  1.0 0.1289328515
H  H179  1  0.78970000  0.21510000  0.95180000  1.0 0.1289328515
H  H180  1  0.28490000  0.28970000  0.20180000  1.0 0.1289328515
H  H181  1  0.71030000  0.71510000  0.29820000  1.0 0.1289328515
H  H182  1  0.28970000  0.28490000  0.79820000  1.0 0.1289328515
H  H183  1  0.78490000  0.21030000  0.54820000  1.0 0.1289328515
H  H184  1  0.21510000  0.78970000  0.04820000  1.0 0.1289328515
H  H185  1  0.35060000  0.76330000  0.40440000  1.0 0.1289328515
H  H186  1  0.73670000  0.85060000  0.65440000  1.0 0.1289328515
H  H187  1  0.64940000  0.23670000  0.90440000  1.0 0.1289328515
H  H188  1  0.26330000  0.14940000  0.15440000  1.0 0.1289328515
H  H189  1  0.85060000  0.73670000  0.34560000  1.0 0.1289328515
H  H190  1  0.14940000  0.26330000  0.84560000  1.0 0.1289328515
H  H191  1  0.76330000  0.35060000  0.59560000  1.0 0.1289328515
H  H192  1  0.23670000  0.64940000  0.09560000  1.0 0.1289328515
H  H193  1  0.50070000  0.91480000  0.58410000  1.0 0.1289328515
H  H194  1  0.58520000  0.00070000  0.83410000  1.0 0.1289328515
H  H195  1  0.49930000  0.08520000  0.08410000  1.0 0.1289328515
H  H196  1  0.41480000  0.99930000  0.33410000  1.0 0.1289328515
H  H197  1  0.00070000  0.58520000  0.16590000  1.0 0.1289328515
H  H198  1  0.99930000  0.41480000  0.66590000  1.0 0.1289328515
H  H199  1  0.91480000  0.50070000  0.41590000  1.0 0.1289328515
H  H200  1  0.08520000  0.49930000  0.91590000  1.0 0.1289328515
H  H201  1  0.45720000  0.05750000  0.54250000  1.0 0.13553635
H  H202  1  0.44250000  0.95720000  0.79250000  1.0 0.13553635
H  H203  1  0.54280000  0.94250000  0.04250000  1.0 0.13553635
H  H204  1  0.55750000  0.04280000  0.29250000  1.0 0.13553635
H  H205  1  0.95720000  0.44250000  0.20750000  1.0 0.13553635
H  H206  1  0.04280000  0.55750000  0.70750000  1.0 0.13553635
H  H207  1  0.05750000  0.45720000  0.45750000  1.0 0.13553635
H  H208  1  0.94250000  0.54280000  0.95750000  1.0 0.13553635
H  H209  1  0.42670000  0.25990000  0.64590000  1.0 0.0995197328
H  H210  1  0.24010000  0.92670000  0.89590000  1.0 0.0995197328
H  H211  1  0.57330000  0.74010000  0.14590000  1.0 0.0995197328
H  H212  1  0.75990000  0.07330000  0.39590000  1.0 0.0995197328
H  H213  1  0.92670000  0.24010000  0.10410000  1.0 0.0995197328
H  H214  1  0.07330000  0.75990000  0.60410000  1.0 0.0995197328
H  H215  1  0.25990000  0.42670000  0.35410000  1.0 0.0995197328
H  H216  1  0.74010000  0.57330000  0.85410000  1.0 0.0995197328
H  H217  1  0.45420000  0.31890000  0.65320000  1.0 0.0919165916
H  H218  1  0.18110000  0.95420000  0.90320000  1.0 0.0919165916
H  H219  1  0.54580000  0.68110000  0.15320000  1.0 0.0919165916
H  H220  1  0.81890000  0.04580000  0.40320000  1.0 0.0919165916
H  H221  1  0.95420000  0.18110000  0.09680000  1.0 0.0919165916
H  H222  1  0.04580000  0.81890000  0.59680000  1.0 0.0919165916
H  H223  1  0.31890000  0.45420000  0.34680000  1.0 0.0919165916
H  H224  1  0.68110000  0.54580000  0.84680000  1.0 0.0919165916
H  H225  1  0.39230000  0.32550000  0.69320000  1.0 0.0995197328
H  H226  1  0.17450000  0.89230000  0.94320000  1.0 0.0995197328
H  H227  1  0.60770000  0.67450000  0.19320000  1.0 0.0995197328
H  H228  1  0.82550000  0.10770000  0.44320000  1.0 0.0995197328
H  H229  1  0.89230000  0.17450000  0.05680000  1.0 0.0995197328
H  H230  1  0.10770000  0.82550000  0.55680000  1.0 0.0995197328
H  H231  1  0.32550000  0.39230000  0.30680000  1.0 0.0995197328
H  H232  1  0.67450000  0.60770000  0.80680000  1.0 0.0995197328
H  H233  1  0.43700000  0.27540000  0.69550000  1.0 0.0995197328
H  H234  1  0.22460000  0.93700000  0.94550000  1.0 0.0995197328
H  H235  1  0.56300000  0.72460000  0.19550000  1.0 0.0995197328
H  H236  1  0.77540000  0.06300000  0.44550000  1.0 0.0995197328
H  H237  1  0.93700000  0.22460000  0.05450000  1.0 0.0995197328
H  H238  1  0.06300000  0.77540000  0.55450000  1.0 0.0995197328
H  H239  1  0.27540000  0.43700000  0.30450000  1.0 0.0995197328
H  H240  1  0.72460000  0.56300000  0.80450000  1.0 0.0995197328
H  H241  1  0.32200000  0.26560000  0.67950000  1.0 0.0919165916
H  H242  1  0.23440000  0.82200000  0.92950000  1.0 0.0919165916
H  H243  1  0.67800000  0.73440000  0.17950000  1.0 0.0919165916
H  H244  1  0.76560000  0.17800000  0.42950000  1.0 0.0919165916
H  H245  1  0.82200000  0.23440000  0.07050000  1.0 0.0919165916
H  H246  1  0.17800000  0.76560000  0.57050000  1.0 0.0919165916
H  H247  1  0.26560000  0.32200000  0.32050000  1.0 0.0919165916
H  H248  1  0.73440000  0.67800000  0.82050000  1.0 0.0919165916
H  H249  1  0.36570000  0.21620000  0.67240000  1.0 0.0995197328
H  H250  1  0.28380000  0.86570000  0.92240000  1.0 0.0995197328
H  H251  1  0.63430000  0.78380000  0.17240000  1.0 0.0995197328
H  H252  1  0.71620000  0.13430000  0.42240000  1.0 0.0995197328
H  H253  1  0.86570000  0.28380000  0.07760000  1.0 0.0995197328
H  H254  1  0.13430000  0.71620000  0.57760000  1.0 0.0995197328
H  H255  1  0.21620000  0.36570000  0.32760000  1.0 0.0995197328
H  H256  1  0.78380000  0.63430000  0.82760000  1.0 0.0995197328
H  H257  1  0.16510000  0.74190000  0.42070000  1.0 0.1289328515
H  H258  1  0.75810000  0.66510000  0.67070000  1.0 0.1289328515
H  H259  1  0.83490000  0.25810000  0.92070000  1.0 0.1289328515
H  H260  1  0.24190000  0.33490000  0.17070000  1.0 0.1289328515
H  H261  1  0.66510000  0.75810000  0.32930000  1.0 0.1289328515
H  H262  1  0.33490000  0.24190000  0.82930000  1.0 0.1289328515
H  H263  1  0.74190000  0.16510000  0.57930000  1.0 0.1289328515
H  H264  1  0.25810000  0.83490000  0.07930000  1.0 0.1289328515
H  H265  1  0.51590000  0.10040000  0.56990000  1.0 0.1289328515
H  H266  1  0.39960000  0.01590000  0.81990000  1.0 0.1289328515
H  H267  1  0.48410000  0.89960000  0.06990000  1.0 0.1289328515
H  H268  1  0.60040000  0.98410000  0.31990000  1.0 0.1289328515
H  H269  1  0.01590000  0.39960000  0.18010000  1.0 0.1289328515
H  H270  1  0.98410000  0.60040000  0.68010000  1.0 0.1289328515
H  H271  1  0.10040000  0.51590000  0.43010000  1.0 0.1289328515
H  H272  1  0.89960000  0.48410000  0.93010000  1.0 0.1289328515
H  H273  1  0.34200000  0.25980000  0.72760000  1.0 0.0919165916
H  H274  1  0.24020000  0.84200000  0.97760000  1.0 0.0919165916
H  H275  1  0.65800000  0.74020000  0.22760000  1.0 0.0919165916
H  H276  1  0.75980000  0.15800000  0.47760000  1.0 0.0919165916
H  H277  1  0.84200000  0.24020000  0.02240000  1.0 0.0919165916
H  H278  1  0.15800000  0.75980000  0.52240000  1.0 0.0919165916
H  H279  1  0.25980000  0.34200000  0.27240000  1.0 0.0919165916
H  H280  1  0.74020000  0.65800000  0.77240000  1.0 0.0919165916
H  H281  1  0.39200000  0.21660000  0.72180000  1.0 0.0919165916
H  H282  1  0.28340000  0.89200000  0.97180000  1.0 0.0919165916
H  H283  1  0.60800000  0.78340000  0.22180000  1.0 0.0995197328
H  H284  1  0.71660000  0.10800000  0.47180000  1.0 0.0919165916
H  H285  1  0.89200000  0.28340000  0.02820000  1.0 0.0995197328
H  H286  1  0.10800000  0.71660000  0.52820000  1.0 0.0919165916
H  H287  1  0.21660000  0.39200000  0.27820000  1.0 0.0919165916
H  H288  1  0.78340000  0.60800000  0.77820000  1.0 0.0919165916
H  H289  1  0.32690000  0.14620000  0.70850000  1.0 0.0995197328
H  H290  1  0.35380000  0.82690000  0.95850000  1.0 0.0995197328
H  H291  1  0.67310000  0.85380000  0.20850000  1.0 0.0995197328
H  H292  1  0.64620000  0.17310000  0.45850000  1.0 0.0995197328
H  H293  1  0.82690000  0.35380000  0.04150000  1.0 0.0995197328
H  H294  1  0.17310000  0.64620000  0.54150000  1.0 0.0995197328
H  H295  1  0.14620000  0.32690000  0.29150000  1.0 0.0995197328
H  H296  1  0.85380000  0.67310000  0.79150000  1.0 0.0995197328
H  H297  1  0.27580000  0.18960000  0.71210000  1.0 0.0809356504
H  H298  1  0.31040000  0.77580000  0.96210000  1.0 0.0809356504
H  H299  1  0.72420000  0.81040000  0.21210000  1.0 0.0809356504
H  H300  1  0.68960000  0.22420000  0.46210000  1.0 0.0809356504
H  H301  1  0.77580000  0.31040000  0.03790000  1.0 0.0809356504
H  H302  1  0.22420000  0.68960000  0.53790000  1.0 0.0809356504
H  H303  1  0.18960000  0.27580000  0.28790000  1.0 0.0809356504
H  H304  1  0.81040000  0.72420000  0.78790000  1.0 0.0809356504
H  H305  1  0.16570000  0.68380000  0.33950000  1.0 0.1189261572
H  H306  1  0.81620000  0.66570000  0.58950000  1.0 0.1189261572
H  H307  1  0.83430000  0.31620000  0.83950000  1.0 0.1189261572
H  H308  1  0.18380000  0.33430000  0.08950000  1.0 0.1189261572
H  H309  1  0.66570000  0.81620000  0.41050000  1.0 0.1189261572
H  H310  1  0.33430000  0.18380000  0.91050000  1.0 0.1189261572
H  H311  1  0.68380000  0.16570000  0.66050000  1.0 0.1189261572
H  H312  1  0.31620000  0.83430000  0.16050000  1.0 0.1189261572
H  H313  1  0.56940000  0.10040000  0.65190000  1.0 0.1098966768
H  H314  1  0.39960000  0.06940000  0.90190000  1.0 0.1189261572
H  H315  1  0.43060000  0.89960000  0.15190000  1.0 0.1098966768
H  H316  1  0.60040000  0.93060000  0.40190000  1.0 0.1098966768
H  H317  1  0.06940000  0.39960000  0.09810000  1.0 0.1098966768
H  H318  1  0.93060000  0.60040000  0.59810000  1.0 0.1098966768
H  H319  1  0.10040000  0.56940000  0.34810000  1.0 0.1098966768
H  H320  1  0.89960000  0.43060000  0.84810000  1.0 0.1098966768
H  H321  1  0.32420000  0.20080000  0.76250000  1.0 0.0809356504
H  H322  1  0.29920000  0.82420000  0.01250000  1.0 0.0809356504
H  H323  1  0.67580000  0.79920000  0.26250000  1.0 0.0809356504
H  H324  1  0.70080000  0.17580000  0.51250000  1.0 0.0809356504
H  H325  1  0.82420000  0.29920000  0.98750000  1.0 0.0809356504
H  H326  1  0.17580000  0.70080000  0.48750000  1.0 0.0809356504
H  H327  1  0.20080000  0.32420000  0.23750000  1.0 0.0809356504
H  H328  1  0.79920000  0.67580000  0.73750000  1.0 0.0809356504
H  H329  1  0.33630000  0.13520000  0.75640000  1.0 0.0919165916
H  H330  1  0.36480000  0.83630000  0.00640000  1.0 0.0919165916
H  H331  1  0.66370000  0.86480000  0.25640000  1.0 0.0919165916
H  H332  1  0.63520000  0.16370000  0.50640000  1.0 0.0919165916
H  H333  1  0.83630000  0.36480000  0.99360000  1.0 0.0919165916
H  H334  1  0.16370000  0.63520000  0.49360000  1.0 0.0919165916
H  H335  1  0.13520000  0.33630000  0.24360000  1.0 0.0919165916
H  H336  1  0.86480000  0.66370000  0.74360000  1.0 0.0919165916
H  H337  1  0.35090000  0.71420000  0.34490000  1.0 0.1289328515
H  H338  1  0.78580000  0.85090000  0.59490000  1.0 0.1289328515
H  H339  1  0.64910000  0.28580000  0.84490000  1.0 0.1289328515
H  H340  1  0.21420000  0.14910000  0.09490000  1.0 0.1289328515
H  H341  1  0.85090000  0.78580000  0.40510000  1.0 0.1289328515
H  H342  1  0.14910000  0.21420000  0.90510000  1.0 0.1289328515
H  H343  1  0.71420000  0.35090000  0.65510000  1.0 0.1289328515
H  H344  1  0.28580000  0.64910000  0.15510000  1.0 0.1289328515
H  H345  1  0.21120000  0.66700000  0.30370000  1.0 0.1289328515
H  H346  1  0.83300000  0.71120000  0.55370000  1.0 0.1289328515
H  H347  1  0.78880000  0.33300000  0.80370000  1.0 0.1289328515
H  H348  1  0.16700000  0.28880000  0.05370000  1.0 0.1289328515
H  H349  1  0.71120000  0.83300000  0.44630000  1.0 0.1289328515
H  H350  1  0.28880000  0.16700000  0.94630000  1.0 0.1289328515
H  H351  1  0.66700000  0.21120000  0.69630000  1.0 0.1289328515
H  H352  1  0.33300000  0.78880000  0.19630000  1.0 0.1289328515
H  H353  1  0.07550000  0.71330000  0.34070000  1.0 0.1098966768
H  H354  1  0.78670000  0.57550000  0.59070000  1.0 0.1098966768
H  H355  1  0.92450000  0.28670000  0.84070000  1.0 0.1098966768
H  H356  1  0.21330000  0.42450000  0.09070000  1.0 0.1098966768
H  H357  1  0.57550000  0.78670000  0.40930000  1.0 0.1098966768
H  H358  1  0.42450000  0.21330000  0.90930000  1.0 0.1098966768
H  H359  1  0.71330000  0.07550000  0.65930000  1.0 0.1098966768
H  H360  1  0.28670000  0.92450000  0.15930000  1.0 0.1098966768
H  H361  1  0.09170000  0.67860000  0.42420000  1.0 0.1098966768
H  H362  1  0.82140000  0.59170000  0.67420000  1.0 0.1098966768
H  H363  1  0.90830000  0.32140000  0.92420000  1.0 0.1098966768
H  H364  1  0.17860000  0.40830000  0.17420000  1.0 0.1098966768
H  H365  1  0.59170000  0.82140000  0.32580000  1.0 0.1098966768
H  H366  1  0.40830000  0.17860000  0.82580000  1.0 0.1098966768
H  H367  1  0.67860000  0.09170000  0.57580000  1.0 0.1098966768
H  H368  1  0.32140000  0.90830000  0.07580000  1.0 0.1098966768
H  H369  1  0.57120000  0.05610000  0.69030000  1.0 0.1289328515
H  H370  1  0.44390000  0.07120000  0.94030000  1.0 0.1289328515
H  H371  1  0.42880000  0.94390000  0.19030000  1.0 0.1289328515
H  H372  1  0.55610000  0.92880000  0.44030000  1.0 0.1289328515
H  H373  1  0.07120000  0.44390000  0.05970000  1.0 0.1289328515
H  H374  1  0.92880000  0.55610000  0.55970000  1.0 0.1289328515
H  H375  1  0.05610000  0.57120000  0.30970000  1.0 0.1289328515
H  H376  1  0.94390000  0.42880000  0.80970000  1.0 0.1289328515
H  H377  1  0.53810000  0.91380000  0.64580000  1.0 0.1289328515
H  H378  1  0.58620000  0.03810000  0.89580000  1.0 0.1289328515
H  H379  1  0.46190000  0.08620000  0.14580000  1.0 0.1289328515
H  H380  1  0.41380000  0.96190000  0.39580000  1.0 0.1289328515
H  H381  1  0.03810000  0.58620000  0.10420000  1.0 0.1289328515
H  H382  1  0.96190000  0.41380000  0.60420000  1.0 0.1289328515
H  H383  1  0.91380000  0.53810000  0.35420000  1.0 0.1289328515
H  H384  1  0.08620000  0.46190000  0.85420000  1.0 0.1289328515
H  H385  1  0.57980000  0.17710000  0.56750000  1.0 0.1189261572
H  H386  1  0.32290000  0.07980000  0.81750000  1.0 0.1189261572
H  H387  1  0.42020000  0.82290000  0.06750000  1.0 0.1189261572
H  H388  1  0.67710000  0.92020000  0.31750000  1.0 0.1189261572
H  H389  1  0.07980000  0.32290000  0.18250000  1.0 0.1189261572
H  H390  1  0.92020000  0.67710000  0.68250000  1.0 0.1189261572
H  H391  1  0.17710000  0.57980000  0.43250000  1.0 0.1189261572
H  H392  1  0.82290000  0.42020000  0.93250000  1.0 0.1189261572
H  H393  1  0.53880000  0.18840000  0.65130000  1.0 0.1098966768
H  H394  1  0.31160000  0.03880000  0.90130000  1.0 0.1098966768
H  H395  1  0.46120000  0.81160000  0.15130000  1.0 0.1098966768
H  H396  1  0.68840000  0.96120000  0.40130000  1.0 0.1098966768
H  H397  1  0.03880000  0.31160000  0.09870000  1.0 0.1098966768
H  H398  1  0.96120000  0.68840000  0.59870000  1.0 0.1098966768
H  H399  1  0.18840000  0.53880000  0.34870000  1.0 0.1098966768
H  H400  1  0.81160000  0.46120000  0.84870000  1.0 0.1098966768
H  H401  1  0.24050000  0.14590000  0.77490000  1.0 0.1098966768
H  H402  1  0.35410000  0.74050000  0.02490000  1.0 0.1098966768
H  H403  1  0.75950000  0.85410000  0.27490000  1.0 0.1098966768
H  H404  1  0.64590000  0.25950000  0.52490000  1.0 0.1098966768
H  H405  1  0.74050000  0.35410000  0.97510000  1.0 0.1098966768
H  H406  1  0.25950000  0.64590000  0.47510000  1.0 0.1098966768
H  H407  1  0.14590000  0.24050000  0.22510000  1.0 0.1098966768
H  H408  1  0.85410000  0.75950000  0.72510000  1.0 0.1098966768
H  H409  1  0.22640000  0.18720000  0.74900000  1.0 0.0995197328
H  H410  1  0.31280000  0.72640000  0.99900000  1.0 0.0995197328
H  H411  1  0.77360000  0.81280000  0.24900000  1.0 0.0995197328
H  H412  1  0.68720000  0.27360000  0.49900000  1.0 0.0995197328
H  H413  1  0.72640000  0.31280000  0.00100000  1.0 0.0995197328
H  H414  1  0.27360000  0.68720000  0.50100000  1.0 0.0995197328
H  H415  1  0.18720000  0.22640000  0.25100000  1.0 0.0995197328
H  H416  1  0.81280000  0.77360000  0.75100000  1.0 0.0995197328
H  H417  1  0.23830000  0.12240000  0.74300000  1.0 0.1189261572
H  H418  1  0.37760000  0.73830000  0.99300000  1.0 0.1189261572
H  H419  1  0.76170000  0.87760000  0.24300000  1.0 0.1189261572
H  H420  1  0.62240000  0.26170000  0.49300000  1.0 0.1189261572
H  H421  1  0.73830000  0.37760000  0.00700000  1.0 0.1189261572
H  H422  1  0.26170000  0.62240000  0.50700000  1.0 0.1189261572
H  H423  1  0.12240000  0.23830000  0.25700000  1.0 0.1189261572
H  H424  1  0.87760000  0.76170000  0.75700000  1.0 0.1189261572
H  H425  1  0.40400000  0.68350000  0.30630000  1.0 0.0995197328
H  H426  1  0.81650000  0.90400000  0.55630000  1.0 0.0995197328
H  H427  1  0.59600000  0.31650000  0.80630000  1.0 0.0995197328
H  H428  1  0.18350000  0.09600000  0.05630000  1.0 0.0995197328
H  H429  1  0.90400000  0.81650000  0.44370000  1.0 0.0995197328
H  H430  1  0.09600000  0.18350000  0.94370000  1.0 0.0995197328
H  H431  1  0.68350000  0.40400000  0.69370000  1.0 0.0995197328
H  H432  1  0.31650000  0.59600000  0.19370000  1.0 0.0995197328
H  H433  1  0.26650000  0.63730000  0.26660000  1.0 0.1098966768
H  H434  1  0.86270000  0.76650000  0.51660000  1.0 0.1098966768
H  H435  1  0.73350000  0.36270000  0.76660000  1.0 0.1098966768
H  H436  1  0.13730000  0.23350000  0.01660000  1.0 0.1098966768
H  H437  1  0.76650000  0.86270000  0.48340000  1.0 0.1098966768
H  H438  1  0.23350000  0.13730000  0.98340000  1.0 0.1098966768
H  H439  1  0.63730000  0.26650000  0.73340000  1.0 0.1098966768
H  H440  1  0.36270000  0.73350000  0.23340000  1.0 0.1098966768
H  H441  1  0.98100000  0.69370000  0.34330000  1.0 0.1289328515
H  H442  1  0.80630000  0.48100000  0.59330000  1.0 0.1289328515
H  H443  1  0.01900000  0.30630000  0.84330000  1.0 0.1289328515
H  H444  1  0.19370000  0.51900000  0.09330000  1.0 0.1289328515
H  H445  1  0.48100000  0.80630000  0.40670000  1.0 0.1289328515
H  H446  1  0.51900000  0.19370000  0.90670000  1.0 0.1289328515
H  H447  1  0.69370000  0.98100000  0.65670000  1.0 0.1289328515
H  H448  1  0.30630000  0.01900000  0.15670000  1.0 0.1289328515
H  H449  1  0.99690000  0.65790000  0.42730000  1.0 0.1189261572
H  H450  1  0.84210000  0.49690000  0.67730000  1.0 0.1189261572
H  H451  1  0.00310000  0.34210000  0.92730000  1.0 0.1189261572
H  H452  1  0.15790000  0.50310000  0.17730000  1.0 0.1189261572
H  H453  1  0.49690000  0.84210000  0.32270000  1.0 0.1189261572
H  H454  1  0.50310000  0.15790000  0.82270000  1.0 0.1189261572
H  H455  1  0.65790000  0.99690000  0.57270000  1.0 0.1189261572
H  H456  1  0.34210000  0.00310000  0.07270000  1.0 0.1189261572
H  H457  1  0.59390000  0.00100000  0.72870000  1.0 0.1098966768
H  H458  1  0.49900000  0.09390000  0.97870000  1.0 0.1098966768
H  H459  1  0.40610000  0.99900000  0.22870000  1.0 0.1098966768
H  H460  1  0.50100000  0.90610000  0.47870000  1.0 0.1098966768
H  H461  1  0.09390000  0.49900000  0.02130000  1.0 0.1098966768
H  H462  1  0.90610000  0.50100000  0.52130000  1.0 0.1098966768
H  H463  1  0.00100000  0.59390000  0.27130000  1.0 0.1098966768
H  H464  1  0.99900000  0.40610000  0.77130000  1.0 0.1098966768
H  H465  1  0.55780000  0.86390000  0.68660000  1.0 0.0995197328
H  H466  1  0.63610000  0.05780000  0.93660000  1.0 0.0995197328
H  H467  1  0.44220000  0.13610000  0.18660000  1.0 0.0995197328
H  H468  1  0.36390000  0.94220000  0.43660000  1.0 0.0995197328
H  H469  1  0.05780000  0.63610000  0.06340000  1.0 0.0995197328
H  H470  1  0.94220000  0.36390000  0.56340000  1.0 0.0995197328
H  H471  1  0.86390000  0.55780000  0.31340000  1.0 0.0995197328
H  H472  1  0.13610000  0.44220000  0.81340000  1.0 0.0995197328
H  H473  1  0.59810000  0.27430000  0.56680000  1.0 0.1189261572
H  H474  1  0.22570000  0.09810000  0.81680000  1.0 0.1189261572
H  H475  1  0.40190000  0.72570000  0.06680000  1.0 0.1189261572
H  H476  1  0.77430000  0.90190000  0.31680000  1.0 0.1189261572
H  H477  1  0.09810000  0.22570000  0.18320000  1.0 0.1189261572
H  H478  1  0.90190000  0.77430000  0.68320000  1.0 0.1189261572
H  H479  1  0.27430000  0.59810000  0.43320000  1.0 0.1189261572
H  H480  1  0.72570000  0.40190000  0.93320000  1.0 0.1189261572
H  H481  1  0.55780000  0.28410000  0.65060000  1.0 0.1289328515
H  H482  1  0.21590000  0.05780000  0.90060000  1.0 0.1289328515
H  H483  1  0.44220000  0.71590000  0.15060000  1.0 0.1289328515
H  H484  1  0.78410000  0.94220000  0.40060000  1.0 0.1289328515
H  H485  1  0.05780000  0.21590000  0.09940000  1.0 0.1289328515
H  H486  1  0.94220000  0.78410000  0.59940000  1.0 0.1289328515
H  H487  1  0.28410000  0.55780000  0.34940000  1.0 0.1289328515
H  H488  1  0.71590000  0.44220000  0.84940000  1.0 0.1289328515
H  H489  1  0.90240000  0.67800000  0.42550000  1.0 0.0995197328
H  H490  1  0.82200000  0.40240000  0.67550000  1.0 0.0995197328
H  H491  1  0.09760000  0.32200000  0.92550000  1.0 0.0995197328
H  H492  1  0.17800000  0.59760000  0.17550000  1.0 0.0995197328
H  H493  1  0.40240000  0.82200000  0.32450000  1.0 0.0995197328
H  H494  1  0.59760000  0.17800000  0.82450000  1.0 0.0995197328
H  H495  1  0.67800000  0.90240000  0.57450000  1.0 0.0995197328
H  H496  1  0.32200000  0.09760000  0.07450000  1.0 0.0995197328
H  H497  1  0.91480000  0.61370000  0.41810000  1.0 0.0919165916
H  H498  1  0.88630000  0.41480000  0.66810000  1.0 0.0919165916
H  H499  1  0.08520000  0.38630000  0.91810000  1.0 0.0919165916
H  H500  1  0.11370000  0.58520000  0.16810000  1.0 0.0919165916
H  H501  1  0.41480000  0.88630000  0.33190000  1.0 0.0919165916
H  H502  1  0.58520000  0.11370000  0.83190000  1.0 0.0919165916
H  H503  1  0.61370000  0.91480000  0.58190000  1.0 0.0919165916
H  H504  1  0.38630000  0.08520000  0.08190000  1.0 0.0919165916
H  H505  1  0.57400000  0.36770000  0.57030000  1.0 0.0919165916
H  H506  1  0.13230000  0.07400000  0.82030000  1.0 0.0995197328
H  H507  1  0.42600000  0.63230000  0.07030000  1.0 0.0995197328
H  H508  1  0.86770000  0.92600000  0.32030000  1.0 0.0919165916
H  H509  1  0.07400000  0.13230000  0.17970000  1.0 0.0995197328
H  H510  1  0.92600000  0.86770000  0.67970000  1.0 0.0919165916
H  H511  1  0.36770000  0.57400000  0.42970000  1.0 0.0919165916
H  H512  1  0.63230000  0.42600000  0.92970000  1.0 0.0919165916
H  H513  1  0.63880000  0.35690000  0.57810000  1.0 0.0919165916
H  H514  1  0.14310000  0.13880000  0.82810000  1.0 0.0919165916
H  H515  1  0.36120000  0.64310000  0.07810000  1.0 0.0919165916
H  H516  1  0.85690000  0.86120000  0.32810000  1.0 0.0919165916
H  H517  1  0.13880000  0.14310000  0.17190000  1.0 0.0919165916
H  H518  1  0.86120000  0.85690000  0.67190000  1.0 0.0919165916
H  H519  1  0.35690000  0.63880000  0.42190000  1.0 0.0919165916
H  H520  1  0.64310000  0.36120000  0.92190000  1.0 0.0919165916
H  H521  1  0.36390000  0.54620000  0.30580000  1.0 0.0995197328
H  H522  1  0.95380000  0.86390000  0.55580000  1.0 0.0995197328
H  H523  1  0.63610000  0.45380000  0.80580000  1.0 0.0995197328
H  H524  1  0.04620000  0.13610000  0.05580000  1.0 0.0995197328
H  H525  1  0.86390000  0.95380000  0.44420000  1.0 0.0995197328
H  H526  1  0.13610000  0.04620000  0.94420000  1.0 0.0995197328
H  H527  1  0.54620000  0.36390000  0.69420000  1.0 0.0995197328
H  H528  1  0.45380000  0.63610000  0.19420000  1.0 0.0995197328
H  H529  1  0.50560000  0.57430000  0.26610000  1.0 0.1098966768
H  H530  1  0.92570000  0.00560000  0.51610000  1.0 0.1098966768
H  H531  1  0.49440000  0.42570000  0.76610000  1.0 0.1098966768
H  H532  1  0.07430000  0.99440000  0.01610000  1.0 0.1098966768
H  H533  1  0.00560000  0.92570000  0.48390000  1.0 0.1098966768
H  H534  1  0.99440000  0.07430000  0.98390000  1.0 0.1098966768
H  H535  1  0.57430000  0.50560000  0.73390000  1.0 0.1098966768
H  H536  1  0.42570000  0.49440000  0.23390000  1.0 0.1098966768
H  H537  1  0.83030000  0.61020000  0.39110000  1.0 0.1098966768
H  H538  1  0.88980000  0.33030000  0.64110000  1.0 0.1098966768
H  H539  1  0.16970000  0.38980000  0.89110000  1.0 0.1098966768
H  H540  1  0.11020000  0.66970000  0.14110000  1.0 0.1098966768
H  H541  1  0.33030000  0.88980000  0.35890000  1.0 0.1098966768
H  H542  1  0.66970000  0.11020000  0.85890000  1.0 0.1098966768
H  H543  1  0.61020000  0.83030000  0.60890000  1.0 0.1098966768
H  H544  1  0.38980000  0.16970000  0.10890000  1.0 0.1098966768
H  H545  1  0.81770000  0.67380000  0.39950000  1.0 0.1098966768
H  H546  1  0.82620000  0.31770000  0.64950000  1.0 0.1098966768
H  H547  1  0.18230000  0.32620000  0.89950000  1.0 0.1098966768
H  H548  1  0.17380000  0.68230000  0.14950000  1.0 0.1098966768
H  H549  1  0.31770000  0.82620000  0.35050000  1.0 0.1098966768
H  H550  1  0.68230000  0.17380000  0.85050000  1.0 0.1098966768
H  H551  1  0.67380000  0.81770000  0.60050000  1.0 0.1098966768
H  H552  1  0.32620000  0.18230000  0.10050000  1.0 0.1098966768
H  H553  1  0.57740000  0.44540000  0.60630000  1.0 0.0995197328
H  H554  1  0.05460000  0.07740000  0.85630000  1.0 0.0995197328
H  H555  1  0.42260000  0.55460000  0.10630000  1.0 0.0995197328
H  H556  1  0.94540000  0.92260000  0.35630000  1.0 0.0995197328
H  H557  1  0.07740000  0.05460000  0.14370000  1.0 0.0995197328
H  H558  1  0.92260000  0.94540000  0.64370000  1.0 0.0995197328
H  H559  1  0.44540000  0.57740000  0.39370000  1.0 0.0995197328
H  H560  1  0.55460000  0.42260000  0.89370000  1.0 0.0995197328
H  H561  1  0.60860000  0.45810000  0.57670000  1.0 0.0995197328
H  H562  1  0.04190000  0.10860000  0.82670000  1.0 0.0995197328
H  H563  1  0.39140000  0.54190000  0.07670000  1.0 0.0995197328
H  H564  1  0.95810000  0.89140000  0.32670000  1.0 0.0995197328
H  H565  1  0.10860000  0.04190000  0.17330000  1.0 0.0995197328
H  H566  1  0.89140000  0.95810000  0.67330000  1.0 0.0995197328
H  H567  1  0.45810000  0.60860000  0.42330000  1.0 0.0995197328
H  H568  1  0.54190000  0.39140000  0.92330000  1.0 0.0995197328
H  H569  1  0.40910000  0.50600000  0.34400000  1.0 0.1289328515
H  H570  1  0.99400000  0.90910000  0.59400000  1.0 0.1289328515
H  H571  1  0.59090000  0.49400000  0.84400000  1.0 0.1289328515
H  H572  1  0.00600000  0.09090000  0.09400000  1.0 0.1289328515
H  H573  1  0.90910000  0.99400000  0.40600000  1.0 0.1289328515
H  H574  1  0.09090000  0.00600000  0.90600000  1.0 0.1289328515
H  H575  1  0.50600000  0.40910000  0.65600000  1.0 0.1289328515
H  H576  1  0.49400000  0.59090000  0.15600000  1.0 0.1289328515
H  H577  1  0.55570000  0.52970000  0.30160000  1.0 0.1289328515
H  H578  1  0.97030000  0.05570000  0.55160000  1.0 0.1289328515
H  H579  1  0.44430000  0.47030000  0.80160000  1.0 0.1289328515
H  H580  1  0.02970000  0.94430000  0.05160000  1.0 0.1289328515
H  H581  1  0.05570000  0.97030000  0.44840000  1.0 0.1289328515
H  H582  1  0.94430000  0.02970000  0.94840000  1.0 0.1289328515
H  H583  1  0.52970000  0.55570000  0.69840000  1.0 0.1289328515
H  H584  1  0.47030000  0.44430000  0.19840000  1.0 0.1289328515
H  H585  1  0.81940000  0.58310000  0.43990000  1.0 0.0995197328
H  H586  1  0.91690000  0.31940000  0.68990000  1.0 0.0995197328
H  H587  1  0.18060000  0.41690000  0.93990000  1.0 0.0995197328
H  H588  1  0.08310000  0.68060000  0.18990000  1.0 0.0995197328
H  H589  1  0.31940000  0.91690000  0.31010000  1.0 0.0995197328
H  H590  1  0.68060000  0.08310000  0.81010000  1.0 0.0995197328
H  H591  1  0.58310000  0.81940000  0.56010000  1.0 0.0995197328
H  H592  1  0.41690000  0.18060000  0.06010000  1.0 0.0995197328
H  H593  1  0.80650000  0.64700000  0.44820000  1.0 0.0995197328
H  H594  1  0.85300000  0.30650000  0.69820000  1.0 0.0919165916
H  H595  1  0.19350000  0.35300000  0.94820000  1.0 0.0919165916
H  H596  1  0.14700000  0.69350000  0.19820000  1.0 0.0919165916
H  H597  1  0.30650000  0.85300000  0.30180000  1.0 0.0995197328
H  H598  1  0.69350000  0.14700000  0.80180000  1.0 0.0919165916
H  H599  1  0.64700000  0.80650000  0.55180000  1.0 0.0995197328
H  H600  1  0.35300000  0.19350000  0.05180000  1.0 0.0995197328
H  H601  1  0.69410000  0.45730000  0.59680000  1.0 0.0995197328
H  H602  1  0.04270000  0.19410000  0.84680000  1.0 0.0995197328
H  H603  1  0.30590000  0.54270000  0.09680000  1.0 0.0995197328
H  H604  1  0.95730000  0.80590000  0.34680000  1.0 0.0995197328
H  H605  1  0.19410000  0.04270000  0.15320000  1.0 0.0995197328
H  H606  1  0.80590000  0.95730000  0.65320000  1.0 0.0995197328
H  H607  1  0.45730000  0.69410000  0.40320000  1.0 0.0995197328
H  H608  1  0.54270000  0.30590000  0.90320000  1.0 0.0995197328
H  H609  1  0.67810000  0.40850000  0.61880000  1.0 0.0809356504
H  H610  1  0.09150000  0.17810000  0.86880000  1.0 0.0809356504
H  H611  1  0.32190000  0.59150000  0.11880000  1.0 0.0809356504
H  H612  1  0.90850000  0.82190000  0.36880000  1.0 0.0809356504
H  H613  1  0.17810000  0.09150000  0.13120000  1.0 0.0809356504
H  H614  1  0.82190000  0.90850000  0.63120000  1.0 0.0809356504
H  H615  1  0.40850000  0.67810000  0.38120000  1.0 0.0809356504
H  H616  1  0.59150000  0.32190000  0.88120000  1.0 0.0809356504
H  H617  1  0.73840000  0.57550000  0.41390000  1.0 0.0995197328
H  H618  1  0.92450000  0.23840000  0.66390000  1.0 0.0995197328
H  H619  1  0.26160000  0.42450000  0.91390000  1.0 0.0919165916
H  H620  1  0.07550000  0.76160000  0.16390000  1.0 0.0919165916
H  H621  1  0.23840000  0.92450000  0.33610000  1.0 0.0995197328
H  H622  1  0.76160000  0.07550000  0.83610000  1.0 0.0995197328
H  H623  1  0.57550000  0.73840000  0.58610000  1.0 0.0995197328
H  H624  1  0.42450000  0.26160000  0.08610000  1.0 0.0995197328
H  H625  1  0.72950000  0.64220000  0.41320000  1.0 0.0919165916
H  H626  1  0.85780000  0.22950000  0.66320000  1.0 0.0919165916
H  H627  1  0.27050000  0.35780000  0.91320000  1.0 0.0919165916
H  H628  1  0.14220000  0.77050000  0.16320000  1.0 0.0919165916
H  H629  1  0.22950000  0.85780000  0.33680000  1.0 0.0919165916
H  H630  1  0.77050000  0.14220000  0.83680000  1.0 0.0919165916
H  H631  1  0.64220000  0.72950000  0.58680000  1.0 0.0919165916
H  H632  1  0.35780000  0.27050000  0.08680000  1.0 0.0919165916
H  H633  1  0.62980000  0.47590000  0.64870000  1.0 0.0919165916
H  H634  1  0.02410000  0.12980000  0.89870000  1.0 0.0919165916
H  H635  1  0.37020000  0.52410000  0.14870000  1.0 0.0919165916
H  H636  1  0.97590000  0.87020000  0.39870000  1.0 0.0919165916
H  H637  1  0.12980000  0.02410000  0.10130000  1.0 0.0919165916
H  H638  1  0.87020000  0.97590000  0.60130000  1.0 0.0919165916
H  H639  1  0.47590000  0.62980000  0.35130000  1.0 0.0919165916
H  H640  1  0.52410000  0.37020000  0.85130000  1.0 0.0919165916
H  H641  1  0.69440000  0.49220000  0.64550000  1.0 0.0919165916
H  H642  1  0.00780000  0.19440000  0.89550000  1.0 0.0919165916
H  H643  1  0.30560000  0.50780000  0.14550000  1.0 0.0919165916
H  H644  1  0.99220000  0.80560000  0.39550000  1.0 0.0919165916
H  H645  1  0.19440000  0.00780000  0.10450000  1.0 0.0919165916
H  H646  1  0.80560000  0.99220000  0.60450000  1.0 0.0919165916
H  H647  1  0.49220000  0.69440000  0.35450000  1.0 0.0919165916
H  H648  1  0.50780000  0.30560000  0.85450000  1.0 0.0919165916
H  H649  1  0.72780000  0.63110000  0.46740000  1.0 0.0919165916
H  H650  1  0.86890000  0.22780000  0.71740000  1.0 0.0919165916
H  H651  1  0.27220000  0.36890000  0.96740000  1.0 0.0919165916
H  H652  1  0.13110000  0.77220000  0.21740000  1.0 0.0919165916
H  H653  1  0.22780000  0.86890000  0.28260000  1.0 0.0919165916
H  H654  1  0.77220000  0.13110000  0.78260000  1.0 0.0919165916
H  H655  1  0.63110000  0.72780000  0.53260000  1.0 0.0919165916
H  H656  1  0.36890000  0.27220000  0.03260000  1.0 0.0919165916
H  H657  1  0.71110000  0.56810000  0.46010000  1.0 0.0919165916
H  H658  1  0.93190000  0.21110000  0.71010000  1.0 0.0919165916
H  H659  1  0.28890000  0.43190000  0.96010000  1.0 0.0919165916
H  H660  1  0.06810000  0.78890000  0.21010000  1.0 0.0919165916
H  H661  1  0.21110000  0.93190000  0.28990000  1.0 0.0919165916
H  H662  1  0.78890000  0.06810000  0.78990000  1.0 0.0919165916
H  H663  1  0.56810000  0.71110000  0.53990000  1.0 0.0919165916
H  H664  1  0.43190000  0.28890000  0.03990000  1.0 0.0919165916
H  H665  1  0.67070000  0.56020000  0.61060000  1.0 0.0995197328
H  H666  1  0.93980000  0.17070000  0.86060000  1.0 0.0995197328
H  H667  1  0.32930000  0.43980000  0.11060000  1.0 0.0995197328
H  H668  1  0.06020000  0.82930000  0.36060000  1.0 0.0995197328
H  H669  1  0.17070000  0.93980000  0.13940000  1.0 0.0995197328
H  H670  1  0.82930000  0.06020000  0.63940000  1.0 0.0995197328
H  H671  1  0.56020000  0.67070000  0.38940000  1.0 0.0995197328
H  H672  1  0.43980000  0.32930000  0.88940000  1.0 0.0995197328
H  H673  1  0.60610000  0.54380000  0.61360000  1.0 0.0995197328
H  H674  1  0.95620000  0.10610000  0.86360000  1.0 0.0995197328
H  H675  1  0.39390000  0.45620000  0.11360000  1.0 0.0995197328
H  H676  1  0.04380000  0.89390000  0.36360000  1.0 0.0995197328
H  H677  1  0.10610000  0.95620000  0.13640000  1.0 0.0995197328
H  H678  1  0.89390000  0.04380000  0.63640000  1.0 0.0995197328
H  H679  1  0.54380000  0.60610000  0.38640000  1.0 0.0995197328
H  H680  1  0.45620000  0.39390000  0.88640000  1.0 0.0995197328
H  H681  1  0.59730000  0.48820000  0.33460000  1.0 0.1189261572
H  H682  1  0.01180000  0.09730000  0.58460000  1.0 0.1189261572
H  H683  1  0.40270000  0.51180000  0.83460000  1.0 0.1189261572
H  H684  1  0.98820000  0.90270000  0.08460000  1.0 0.1189261572
H  H685  1  0.09730000  0.01180000  0.41540000  1.0 0.1189261572
H  H686  1  0.90270000  0.98820000  0.91540000  1.0 0.1189261572
H  H687  1  0.48820000  0.59730000  0.66540000  1.0 0.1189261572
H  H688  1  0.51180000  0.40270000  0.16540000  1.0 0.1189261572
H  H689  1  0.64100000  0.65520000  0.46570000  1.0 0.0995197328
H  H690  1  0.84480000  0.14100000  0.71570000  1.0 0.0995197328
H  H691  1  0.35900000  0.34480000  0.96570000  1.0 0.0995197328
H  H692  1  0.15520000  0.85900000  0.21570000  1.0 0.0995197328
H  H693  1  0.14100000  0.84480000  0.28430000  1.0 0.0995197328
H  H694  1  0.85900000  0.15520000  0.78430000  1.0 0.0995197328
H  H695  1  0.65520000  0.64100000  0.53430000  1.0 0.0995197328
H  H696  1  0.34480000  0.35900000  0.03430000  1.0 0.0995197328
H  H697  1  0.63970000  0.64110000  0.43270000  1.0 0.0995197328
H  H698  1  0.85890000  0.13970000  0.68270000  1.0 0.0995197328
H  H699  1  0.36030000  0.35890000  0.93270000  1.0 0.0995197328
H  H700  1  0.14110000  0.86030000  0.18270000  1.0 0.0995197328
H  H701  1  0.13970000  0.85890000  0.31730000  1.0 0.0995197328
H  H702  1  0.86030000  0.14110000  0.81730000  1.0 0.0995197328
H  H703  1  0.64110000  0.63970000  0.56730000  1.0 0.0995197328
H  H704  1  0.35890000  0.36030000  0.06730000  1.0 0.0995197328
H  H705  1  0.60790000  0.57450000  0.66130000  1.0 0.0919165916
H  H706  1  0.92550000  0.10790000  0.91130000  1.0 0.0919165916
H  H707  1  0.39210000  0.42550000  0.16130000  1.0 0.0919165916
H  H708  1  0.07450000  0.89210000  0.41130000  1.0 0.0919165916
H  H709  1  0.10790000  0.92550000  0.08870000  1.0 0.0919165916
H  H710  1  0.89210000  0.07450000  0.58870000  1.0 0.0919165916
H  H711  1  0.57450000  0.60790000  0.33870000  1.0 0.0919165916
H  H712  1  0.42550000  0.39210000  0.83870000  1.0 0.0919165916
H  H713  1  0.67170000  0.59280000  0.65730000  1.0 0.0995197328
H  H714  1  0.90720000  0.17170000  0.90730000  1.0 0.0995197328
H  H715  1  0.32830000  0.40720000  0.15730000  1.0 0.0995197328
H  H716  1  0.09280000  0.82830000  0.40730000  1.0 0.0995197328
H  H717  1  0.17170000  0.90720000  0.09270000  1.0 0.0995197328
H  H718  1  0.82830000  0.09280000  0.59270000  1.0 0.0995197328
H  H719  1  0.59280000  0.67170000  0.34270000  1.0 0.0995197328
H  H720  1  0.40720000  0.32830000  0.84270000  1.0 0.0995197328
H  H721  1  0.60250000  0.58060000  0.47750000  1.0 0.0995197328
H  H722  1  0.91940000  0.10250000  0.72750000  1.0 0.0995197328
H  H723  1  0.39750000  0.41940000  0.97750000  1.0 0.0995197328
H  H724  1  0.08060000  0.89750000  0.22750000  1.0 0.0995197328
H  H725  1  0.10250000  0.91940000  0.27250000  1.0 0.0995197328
H  H726  1  0.89750000  0.08060000  0.77250000  1.0 0.0995197328
H  H727  1  0.58060000  0.60250000  0.52250000  1.0 0.0995197328
H  H728  1  0.41940000  0.39750000  0.02250000  1.0 0.0995197328
H  H729  1  0.61500000  0.55130000  0.44870000  1.0 0.0919165916
H  H730  1  0.94870000  0.11500000  0.69870000  1.0 0.0919165916
H  H731  1  0.38500000  0.44870000  0.94870000  1.0 0.0919165916
H  H732  1  0.05130000  0.88500000  0.19870000  1.0 0.0919165916
H  H733  1  0.11500000  0.94870000  0.30130000  1.0 0.0919165916
H  H734  1  0.88500000  0.05130000  0.80130000  1.0 0.0919165916
H  H735  1  0.55130000  0.61500000  0.55130000  1.0 0.0919165916
H  H736  1  0.44870000  0.38500000  0.05130000  1.0 0.0919165916
H  H737  1  0.58630000  0.64130000  0.62420000  1.0 0.0995197328
H  H738  1  0.85870000  0.08630000  0.87420000  1.0 0.0995197328
H  H739  1  0.41370000  0.35870000  0.12420000  1.0 0.0995197328
H  H740  1  0.14130000  0.91370000  0.37420000  1.0 0.0995197328
H  H741  1  0.08630000  0.85870000  0.12580000  1.0 0.0995197328
H  H742  1  0.91370000  0.14130000  0.62580000  1.0 0.0995197328
H  H743  1  0.64130000  0.58630000  0.37580000  1.0 0.0995197328
H  H744  1  0.35870000  0.41370000  0.87580000  1.0 0.0995197328
H  H745  1  0.64860000  0.66450000  0.62870000  1.0 0.0995197328
H  H746  1  0.83550000  0.14860000  0.87870000  1.0 0.0995197328
H  H747  1  0.35140000  0.33550000  0.12870000  1.0 0.0995197328
H  H748  1  0.16450000  0.85140000  0.37870000  1.0 0.0995197328
H  H749  1  0.14860000  0.83550000  0.12130000  1.0 0.0995197328
H  H750  1  0.85140000  0.16450000  0.62130000  1.0 0.0995197328
H  H751  1  0.66450000  0.64860000  0.37130000  1.0 0.0995197328
H  H752  1  0.33550000  0.35140000  0.87130000  1.0 0.0995197328
H  H753  1  0.58870000  0.43420000  0.41620000  1.0 0.1189261572
H  H754  1  0.06580000  0.08870000  0.66620000  1.0 0.1189261572
H  H755  1  0.41130000  0.56580000  0.91620000  1.0 0.1189261572
H  H756  1  0.93420000  0.91130000  0.16620000  1.0 0.1189261572
H  H757  1  0.08870000  0.06580000  0.33380000  1.0 0.1189261572
H  H758  1  0.91130000  0.93420000  0.83380000  1.0 0.1189261572
H  H759  1  0.43420000  0.58870000  0.58380000  1.0 0.1189261572
H  H760  1  0.56580000  0.41130000  0.08380000  1.0 0.1189261572
H  H761  1  0.52260000  0.55500000  0.43870000  1.0 0.0809356504
H  H762  1  0.94500000  0.02260000  0.68870000  1.0 0.0809356504
H  H763  1  0.47740000  0.44500000  0.93870000  1.0 0.0809356504
H  H764  1  0.05500000  0.97740000  0.18870000  1.0 0.0809356504
H  H765  1  0.02260000  0.94500000  0.31130000  1.0 0.0809356504
H  H766  1  0.97740000  0.05500000  0.81130000  1.0 0.0809356504
H  H767  1  0.55500000  0.52260000  0.56130000  1.0 0.0809356504
H  H768  1  0.44500000  0.47740000  0.06130000  1.0 0.0809356504
H  H769  1  0.54780000  0.51290000  0.46100000  1.0 0.0612852674
H  H770  1  0.98710000  0.04780000  0.71100000  1.0 0.0612852674
H  H771  1  0.45220000  0.48710000  0.96100000  1.0 0.0612852674
H  H772  1  0.01290000  0.95220000  0.21100000  1.0 0.0612852674
H  H773  1  0.04780000  0.98710000  0.28900000  1.0 0.0612852674
H  H774  1  0.95220000  0.01290000  0.78900000  1.0 0.0612852674
H  H775  1  0.51290000  0.54780000  0.53900000  1.0 0.0612852674
H  H776  1  0.48710000  0.45220000  0.03900000  1.0 0.0612852674
H  H777  1  0.62610000  0.68290000  0.67890000  1.0 0.0809356504
H  H778  1  0.81710000  0.12610000  0.92890000  1.0 0.0809356504
H  H779  1  0.37390000  0.31710000  0.17890000  1.0 0.0809356504
H  H780  1  0.18290000  0.87390000  0.42890000  1.0 0.0809356504
H  H781  1  0.12610000  0.81710000  0.07110000  1.0 0.0809356504
H  H782  1  0.87390000  0.18290000  0.57110000  1.0 0.0809356504
H  H783  1  0.68290000  0.62610000  0.32110000  1.0 0.0809356504
H  H784  1  0.31710000  0.37390000  0.82110000  1.0 0.0809356504
H  H785  1  0.56310000  0.66330000  0.67290000  1.0 0.0809356504
H  H786  1  0.83670000  0.06310000  0.92290000  1.0 0.0809356504
H  H787  1  0.43690000  0.33670000  0.17290000  1.0 0.0809356504
H  H788  1  0.16330000  0.93690000  0.42290000  1.0 0.0809356504
H  H789  1  0.06310000  0.83670000  0.07710000  1.0 0.0809356504
H  H790  1  0.93690000  0.16330000  0.57710000  1.0 0.0809356504
H  H791  1  0.66330000  0.56310000  0.32710000  1.0 0.0809356504
H  H792  1  0.33670000  0.43690000  0.82710000  1.0 0.0809356504
H  H793  1  0.54020000  0.42020000  0.45090000  1.0 0.1289328515
H  H794  1  0.07980000  0.04020000  0.70090000  1.0 0.1289328515
H  H795  1  0.45980000  0.57980000  0.95090000  1.0 0.1289328515
H  H796  1  0.92020000  0.95980000  0.20090000  1.0 0.1289328515
H  H797  1  0.04020000  0.07980000  0.29910000  1.0 0.1289328515
H  H798  1  0.95980000  0.92020000  0.79910000  1.0 0.1289328515
H  H799  1  0.42020000  0.54020000  0.54910000  1.0 0.1289328515
H  H800  1  0.57980000  0.45980000  0.04910000  1.0 0.1289328515
H  H801  1  0.40340000  0.46490000  0.40570000  1.0 0.1289328515
H  H802  1  0.03510000  0.90340000  0.65570000  1.0 0.1289328515
H  H803  1  0.59660000  0.53510000  0.90570000  1.0 0.1289328515
H  H804  1  0.96490000  0.09660000  0.15570000  1.0 0.1289328515
H  H805  1  0.90340000  0.03510000  0.34430000  1.0 0.1289328515
H  H806  1  0.09660000  0.96490000  0.84430000  1.0 0.1289328515
H  H807  1  0.46490000  0.40340000  0.59430000  1.0 0.1289328515
H  H808  1  0.53510000  0.59660000  0.09430000  1.0 0.1289328515
H  H809  1  0.67290000  0.42750000  0.33420000  1.0 0.1098966768
H  H810  1  0.07250000  0.17290000  0.58420000  1.0 0.1098966768
H  H811  1  0.32710000  0.57250000  0.83420000  1.0 0.1098966768
H  H812  1  0.92750000  0.82710000  0.08420000  1.0 0.1098966768
H  H813  1  0.17290000  0.07250000  0.41580000  1.0 0.1098966768
H  H814  1  0.82710000  0.92750000  0.91580000  1.0 0.1098966768
H  H815  1  0.42750000  0.67290000  0.66580000  1.0 0.1098966768
H  H816  1  0.57250000  0.32710000  0.16580000  1.0 0.1098966768
H  H817  1  0.67920000  0.46950000  0.41740000  1.0 0.1098966768
H  H818  1  0.03050000  0.17920000  0.66740000  1.0 0.1098966768
H  H819  1  0.32080000  0.53050000  0.91740000  1.0 0.1098966768
H  H820  1  0.96950000  0.82080000  0.16740000  1.0 0.1098966768
H  H821  1  0.17920000  0.03050000  0.33260000  1.0 0.1098966768
H  H822  1  0.82080000  0.96950000  0.83260000  1.0 0.1098966768
H  H823  1  0.46950000  0.67920000  0.58260000  1.0 0.1098966768
H  H824  1  0.53050000  0.32080000  0.08260000  1.0 0.1098966768
H  H825  1  0.45510000  0.52780000  0.47030000  1.0 0.0995197328
H  H826  1  0.97220000  0.95510000  0.72030000  1.0 0.0995197328
H  H827  1  0.54490000  0.47220000  0.97030000  1.0 0.0995197328
H  H828  1  0.02780000  0.04490000  0.22030000  1.0 0.0995197328
H  H829  1  0.95510000  0.97220000  0.27970000  1.0 0.0995197328
H  H830  1  0.04490000  0.02780000  0.77970000  1.0 0.0995197328
H  H831  1  0.52780000  0.45510000  0.52970000  1.0 0.0995197328
H  H832  1  0.47220000  0.54490000  0.02970000  1.0 0.0995197328
H  H833  1  0.49040000  0.55090000  0.49690000  1.0 0.1098966768
H  H834  1  0.94910000  0.99040000  0.74690000  1.0 0.1098966768
H  H835  1  0.50960000  0.44910000  0.99690000  1.0 0.1098966768
H  H836  1  0.05090000  0.00960000  0.24690000  1.0 0.1098966768
H  H837  1  0.99040000  0.94910000  0.25310000  1.0 0.1098966768
H  H838  1  0.00960000  0.05090000  0.75310000  1.0 0.1098966768
H  H839  1  0.55090000  0.49040000  0.50310000  1.0 0.1098966768
H  H840  1  0.44910000  0.50960000  0.00310000  1.0 0.1098966768
H  H841  1  0.46480000  0.59370000  0.47410000  1.0 0.1289328515
H  H842  1  0.90630000  0.96480000  0.72410000  1.0 0.1289328515
H  H843  1  0.53520000  0.40630000  0.97410000  1.0 0.1289328515
H  H844  1  0.09370000  0.03520000  0.22410000  1.0 0.1289328515
H  H845  1  0.96480000  0.90630000  0.27590000  1.0 0.1289328515
H  H846  1  0.03520000  0.09370000  0.77590000  1.0 0.1289328515
H  H847  1  0.59370000  0.46480000  0.52590000  1.0 0.1289328515
H  H848  1  0.40630000  0.53520000  0.02590000  1.0 0.1289328515
H  H849  1  0.59610000  0.75060000  0.63610000  1.0 0.1098966768
H  H850  1  0.74940000  0.09610000  0.88610000  1.0 0.1098966768
H  H851  1  0.40390000  0.24940000  0.13610000  1.0 0.1098966768
H  H852  1  0.25060000  0.90390000  0.38610000  1.0 0.1098966768
H  H853  1  0.09610000  0.74940000  0.11390000  1.0 0.1098966768
H  H854  1  0.90390000  0.25060000  0.61390000  1.0 0.1098966768
H  H855  1  0.75060000  0.59610000  0.36390000  1.0 0.1098966768
H  H856  1  0.24940000  0.40390000  0.86390000  1.0 0.1098966768
H  H857  1  0.59600000  0.76960000  0.66880000  1.0 0.1098966768
H  H858  1  0.73040000  0.09600000  0.91880000  1.0 0.1098966768
H  H859  1  0.40400000  0.23040000  0.16880000  1.0 0.1098966768
H  H860  1  0.26960000  0.90400000  0.41880000  1.0 0.1098966768
H  H861  1  0.09600000  0.73040000  0.08120000  1.0 0.1098966768
H  H862  1  0.90400000  0.26960000  0.58120000  1.0 0.1098966768
H  H863  1  0.76960000  0.59600000  0.33120000  1.0 0.1098966768
H  H864  1  0.23040000  0.40400000  0.83120000  1.0 0.1098966768
H  H865  1  0.53970000  0.74680000  0.65440000  1.0 0.1098966768
H  H866  1  0.75320000  0.03970000  0.90440000  1.0 0.1098966768
H  H867  1  0.46030000  0.25320000  0.15440000  1.0 0.1098966768
H  H868  1  0.24680000  0.96030000  0.40440000  1.0 0.1098966768
H  H869  1  0.03970000  0.75320000  0.09560000  1.0 0.1098966768
H  H870  1  0.96030000  0.24680000  0.59560000  1.0 0.1098966768
H  H871  1  0.74680000  0.53970000  0.34560000  1.0 0.1098966768
H  H872  1  0.25320000  0.46030000  0.84560000  1.0 0.1098966768
H  H873  1  0.48130000  0.39230000  0.48750000  1.0 0.0995197328
H  H874  1  0.10770000  0.98130000  0.73750000  1.0 0.0995197328
H  H875  1  0.51870000  0.60770000  0.98750000  1.0 0.0995197328
H  H876  1  0.89230000  0.01870000  0.23750000  1.0 0.0995197328
H  H877  1  0.98130000  0.10770000  0.26250000  1.0 0.0995197328
H  H878  1  0.01870000  0.89230000  0.76250000  1.0 0.0995197328
H  H879  1  0.39230000  0.48130000  0.51250000  1.0 0.0995197328
H  H880  1  0.60770000  0.51870000  0.01250000  1.0 0.0995197328
H  H881  1  0.34920000  0.43340000  0.44400000  1.0 0.0995197328
H  H882  1  0.06660000  0.84920000  0.69400000  1.0 0.0995197328
H  H883  1  0.65080000  0.56660000  0.94400000  1.0 0.0995197328
H  H884  1  0.93340000  0.15080000  0.19400000  1.0 0.0995197328
H  H885  1  0.84920000  0.06660000  0.30600000  1.0 0.0995197328
H  H886  1  0.15080000  0.93340000  0.80600000  1.0 0.0995197328
H  H887  1  0.43340000  0.34920000  0.55600000  1.0 0.0995197328
H  H888  1  0.56660000  0.65080000  0.05600000  1.0 0.0995197328
H  H889  1  0.76950000  0.40920000  0.33420000  1.0 0.1189261572
H  H890  1  0.09080000  0.26950000  0.58420000  1.0 0.1189261572
H  H891  1  0.23050000  0.59080000  0.83420000  1.0 0.1189261572
H  H892  1  0.90920000  0.73050000  0.08420000  1.0 0.1189261572
H  H893  1  0.26950000  0.09080000  0.41580000  1.0 0.1189261572
H  H894  1  0.73050000  0.90920000  0.91580000  1.0 0.1189261572
H  H895  1  0.40920000  0.76950000  0.66580000  1.0 0.1189261572
H  H896  1  0.59080000  0.23050000  0.16580000  1.0 0.1189261572
H  H897  1  0.77540000  0.45370000  0.41790000  1.0 0.1289328515
H  H898  1  0.04630000  0.27540000  0.66790000  1.0 0.1289328515
H  H899  1  0.22460000  0.54630000  0.91790000  1.0 0.1289328515
H  H900  1  0.95370000  0.72460000  0.16790000  1.0 0.1289328515
H  H901  1  0.27540000  0.04630000  0.33210000  1.0 0.1289328515
H  H902  1  0.72460000  0.95370000  0.83210000  1.0 0.1289328515
H  H903  1  0.45370000  0.77540000  0.58210000  1.0 0.1289328515
H  H904  1  0.54630000  0.22460000  0.08210000  1.0 0.1289328515
H  H905  1  0.86640000  0.43080000  0.34020000  1.0 0.0995197328
H  H906  1  0.06920000  0.36640000  0.59020000  1.0 0.0995197328
H  H907  1  0.13360000  0.56920000  0.84020000  1.0 0.0995197328
H  H908  1  0.93080000  0.63360000  0.09020000  1.0 0.0995197328
H  H909  1  0.36640000  0.06920000  0.40980000  1.0 0.0995197328
H  H910  1  0.63360000  0.93080000  0.90980000  1.0 0.0995197328
H  H911  1  0.43080000  0.86640000  0.65980000  1.0 0.0995197328
H  H912  1  0.56920000  0.13360000  0.15980000  1.0 0.0995197328
H  H913  1  0.84810000  0.36790000  0.34800000  1.0 0.0919165916
H  H914  1  0.13210000  0.34810000  0.59800000  1.0 0.0919165916
H  H915  1  0.15190000  0.63210000  0.84800000  1.0 0.0919165916
H  H916  1  0.86790000  0.65190000  0.09800000  1.0 0.0919165916
H  H917  1  0.34810000  0.13210000  0.40200000  1.0 0.0919165916
H  H918  1  0.65190000  0.86790000  0.90200000  1.0 0.0919165916
H  H919  1  0.36790000  0.84810000  0.65200000  1.0 0.0919165916
H  H920  1  0.63210000  0.15190000  0.15200000  1.0 0.0919165916
H  H921  1  0.94370000  0.42190000  0.37360000  1.0 0.1098966768
H  H922  1  0.07810000  0.44370000  0.62360000  1.0 0.1098966768
H  H923  1  0.05630000  0.57810000  0.87360000  1.0 0.1098966768
H  H924  1  0.92190000  0.55630000  0.12360000  1.0 0.1098966768
H  H925  1  0.44370000  0.07810000  0.37640000  1.0 0.1098966768
H  H926  1  0.55630000  0.92190000  0.87640000  1.0 0.1098966768
H  H927  1  0.42190000  0.94370000  0.62640000  1.0 0.1098966768
H  H928  1  0.57810000  0.05630000  0.12640000  1.0 0.1098966768
H  H929  1  0.92690000  0.35760000  0.37830000  1.0 0.1098966768
H  H930  1  0.14240000  0.42690000  0.62830000  1.0 0.1098966768
H  H931  1  0.07310000  0.64240000  0.87830000  1.0 0.1098966768
H  H932  1  0.85760000  0.57310000  0.12830000  1.0 0.1098966768
H  H933  1  0.42690000  0.14240000  0.37170000  1.0 0.1098966768
H  H934  1  0.57310000  0.85760000  0.87170000  1.0 0.1098966768
H  H935  1  0.35760000  0.92690000  0.62170000  1.0 0.1098966768
H  H936  1  0.64240000  0.07310000  0.12170000  1.0 0.1098966768
H  H937  1  0.94180000  0.34280000  0.32790000  1.0 0.0995197328
H  H938  1  0.15720000  0.44180000  0.57790000  1.0 0.0995197328
H  H939  1  0.05820000  0.65720000  0.82790000  1.0 0.0995197328
H  H940  1  0.84280000  0.55820000  0.07790000  1.0 0.0995197328
H  H941  1  0.44180000  0.15720000  0.42210000  1.0 0.0995197328
H  H942  1  0.55820000  0.84280000  0.92210000  1.0 0.0995197328
H  H943  1  0.34280000  0.94180000  0.67210000  1.0 0.0995197328
H  H944  1  0.65720000  0.05820000  0.17210000  1.0 0.0995197328
H  H945  1  0.96480000  0.40530000  0.32570000  1.0 0.0995197328
H  H946  1  0.09470000  0.46480000  0.57570000  1.0 0.0995197328
H  H947  1  0.03520000  0.59470000  0.82570000  1.0 0.0995197328
H  H948  1  0.90530000  0.53520000  0.07570000  1.0 0.0995197328
H  H949  1  0.46480000  0.09470000  0.42430000  1.0 0.0995197328
H  H950  1  0.53520000  0.90530000  0.92430000  1.0 0.0995197328
H  H951  1  0.40530000  0.96480000  0.67430000  1.0 0.0995197328
H  H952  1  0.59470000  0.03520000  0.17430000  1.0 0.0995197328
H  H953  1  0.03640000  0.34660000  0.32490000  1.0 0.0995197328
H  H954  1  0.15340000  0.53640000  0.57490000  1.0 0.0995197328
H  H955  1  0.96360000  0.65340000  0.82490000  1.0 0.0995197328
H  H956  1  0.84660000  0.46360000  0.07490000  1.0 0.0995197328
H  H957  1  0.53640000  0.15340000  0.42510000  1.0 0.0995197328
H  H958  1  0.46360000  0.84660000  0.92510000  1.0 0.0995197328
H  H959  1  0.34660000  0.03640000  0.67510000  1.0 0.0995197328
H  H960  1  0.65340000  0.96360000  0.17510000  1.0 0.0995197328
H  H961  1  0.01500000  0.31480000  0.35260000  1.0 0.0995197328
H  H962  1  0.18520000  0.51500000  0.60260000  1.0 0.0995197328
H  H963  1  0.98500000  0.68520000  0.85260000  1.0 0.0995197328
H  H964  1  0.81480000  0.48500000  0.10260000  1.0 0.0995197328
H  H965  1  0.51500000  0.18520000  0.39740000  1.0 0.0995197328
H  H966  1  0.48500000  0.81480000  0.89740000  1.0 0.0995197328
H  H967  1  0.31480000  0.01500000  0.64740000  1.0 0.0995197328
H  H968  1  0.68520000  0.98500000  0.14740000  1.0 0.0995197328
H  H969  1  0.06830000  0.42060000  0.35200000  1.0 0.0995197328
H  H970  1  0.07940000  0.56830000  0.60200000  1.0 0.0995197328
H  H971  1  0.93170000  0.57940000  0.85200000  1.0 0.0995197328
H  H972  1  0.92060000  0.43170000  0.10200000  1.0 0.0995197328
H  H973  1  0.56830000  0.07940000  0.39800000  1.0 0.0995197328
H  H974  1  0.43170000  0.92060000  0.89800000  1.0 0.0995197328
H  H975  1  0.42060000  0.06830000  0.64800000  1.0 0.0995197328
H  H976  1  0.57940000  0.93170000  0.14800000  1.0 0.0995197328
H  H977  1  0.04170000  0.39420000  0.38020000  1.0 0.0995197328
H  H978  1  0.10580000  0.54170000  0.63020000  1.0 0.0995197328
H  H979  1  0.95830000  0.60580000  0.88020000  1.0 0.0995197328
H  H980  1  0.89420000  0.45830000  0.13020000  1.0 0.0995197328
H  H981  1  0.54170000  0.10580000  0.36980000  1.0 0.0995197328
H  H982  1  0.45830000  0.89420000  0.86980000  1.0 0.0995197328
H  H983  1  0.39420000  0.04170000  0.61980000  1.0 0.0995197328
H  H984  1  0.60580000  0.95830000  0.11980000  1.0 0.0995197328
H  H985  1  0.12340000  0.34040000  0.34920000  1.0 0.0995197328
H  H986  1  0.15960000  0.62340000  0.59920000  1.0 0.0995197328
H  H987  1  0.87660000  0.65960000  0.84920000  1.0 0.0995197328
H  H988  1  0.84040000  0.37660000  0.09920000  1.0 0.0995197328
H  H989  1  0.62340000  0.15960000  0.40080000  1.0 0.0995197328
H  H990  1  0.37660000  0.84040000  0.90080000  1.0 0.0995197328
H  H991  1  0.34040000  0.12340000  0.65080000  1.0 0.0995197328
H  H992  1  0.65960000  0.87660000  0.15080000  1.0 0.0995197328
H  H993  1  0.10160000  0.32520000  0.38020000  1.0 0.0995197328
H  H994  1  0.17480000  0.60160000  0.63020000  1.0 0.0995197328
H  H995  1  0.89840000  0.67480000  0.88020000  1.0 0.0995197328
H  H996  1  0.82520000  0.39840000  0.13020000  1.0 0.0995197328
H  H997  1  0.60160000  0.17480000  0.36980000  1.0 0.0995197328
H  H998  1  0.39840000  0.82520000  0.86980000  1.0 0.0995197328
H  H999  1  0.32520000  0.10160000  0.61980000  1.0 0.0995197328
H  H1000  1  0.67480000  0.89840000  0.11980000  1.0 0.0995197328
H  H1001  1  0.19540000  0.36020000  0.37690000  1.0 0.0919165916
H  H1002  1  0.13980000  0.69540000  0.62690000  1.0 0.0919165916
H  H1003  1  0.80460000  0.63980000  0.87690000  1.0 0.0995197328
H  H1004  1  0.86020000  0.30460000  0.12690000  1.0 0.0919165916
H  H1005  1  0.69540000  0.13980000  0.37310000  1.0 0.0919165916
H  H1006  1  0.30460000  0.86020000  0.87310000  1.0 0.0995197328
H  H1007  1  0.36020000  0.19540000  0.62310000  1.0 0.0919165916
H  H1008  1  0.63980000  0.80460000  0.12310000  1.0 0.0995197328
H  H1009  1  0.16910000  0.42060000  0.37070000  1.0 0.0995197328
H  H1010  1  0.07940000  0.66910000  0.62070000  1.0 0.0995197328
H  H1011  1  0.83090000  0.57940000  0.87070000  1.0 0.0995197328
H  H1012  1  0.92060000  0.33090000  0.12070000  1.0 0.0995197328
H  H1013  1  0.66910000  0.07940000  0.37930000  1.0 0.0995197328
H  H1014  1  0.33090000  0.92060000  0.87930000  1.0 0.0995197328
H  H1015  1  0.42060000  0.16910000  0.62930000  1.0 0.0995197328
H  H1016  1  0.57940000  0.83090000  0.12930000  1.0 0.0995197328
H  H1017  1  0.15020000  0.35970000  0.42250000  1.0 0.0809356504
H  H1018  1  0.14030000  0.65020000  0.67250000  1.0 0.0809356504
H  H1019  1  0.84980000  0.64030000  0.92250000  1.0 0.0809356504
H  H1020  1  0.85970000  0.34980000  0.17250000  1.0 0.0809356504
H  H1021  1  0.65020000  0.14030000  0.32750000  1.0 0.0809356504
H  H1022  1  0.34980000  0.85970000  0.82750000  1.0 0.0809356504
H  H1023  1  0.35970000  0.15020000  0.57750000  1.0 0.0809356504
H  H1024  1  0.64030000  0.84980000  0.07750000  1.0 0.0809356504
H  H1025  1  0.12770000  0.42210000  0.41620000  1.0 0.0809356504
H  H1026  1  0.07790000  0.62770000  0.66620000  1.0 0.0809356504
H  H1027  1  0.87230000  0.57790000  0.91620000  1.0 0.0809356504
H  H1028  1  0.92210000  0.37230000  0.16620000  1.0 0.0809356504
H  H1029  1  0.62770000  0.07790000  0.33380000  1.0 0.0809356504
H  H1030  1  0.37230000  0.92210000  0.83380000  1.0 0.0809356504
H  H1031  1  0.42210000  0.12770000  0.58380000  1.0 0.0809356504
H  H1032  1  0.57790000  0.87230000  0.08380000  1.0 0.0809356504
H  H1033  1  0.24370000  0.38900000  0.42050000  1.0 0.1098966768
H  H1034  1  0.11100000  0.74370000  0.67050000  1.0 0.1098966768
H  H1035  1  0.75630000  0.61100000  0.92050000  1.0 0.1098966768
H  H1036  1  0.88900000  0.25630000  0.17050000  1.0 0.1098966768
H  H1037  1  0.74370000  0.11100000  0.32950000  1.0 0.1098966768
H  H1038  1  0.25630000  0.88900000  0.82950000  1.0 0.1098966768
H  H1039  1  0.38900000  0.24370000  0.57950000  1.0 0.1098966768
H  H1040  1  0.61100000  0.75630000  0.07950000  1.0 0.1098966768
H  H1041  1  0.21350000  0.43560000  0.43960000  1.0 0.1189261572
H  H1042  1  0.06440000  0.71350000  0.68960000  1.0 0.1189261572
H  H1043  1  0.78650000  0.56440000  0.93960000  1.0 0.1189261572
H  H1044  1  0.93560000  0.28650000  0.18960000  1.0 0.1189261572
H  H1045  1  0.71350000  0.06440000  0.31040000  1.0 0.1189261572
H  H1046  1  0.28650000  0.93560000  0.81040000  1.0 0.1189261572
H  H1047  1  0.43560000  0.21350000  0.56040000  1.0 0.1189261572
H  H1048  1  0.56440000  0.78650000  0.06040000  1.0 0.1189261572
H  H1049  1  0.22680000  0.44790000  0.40670000  1.0 0.1098966768
H  H1050  1  0.05210000  0.72680000  0.65670000  1.0 0.1098966768
H  H1051  1  0.77320000  0.55210000  0.90670000  1.0 0.1098966768
H  H1052  1  0.94790000  0.27320000  0.15670000  1.0 0.1098966768
H  H1053  1  0.72680000  0.05210000  0.34330000  1.0 0.1098966768
H  H1054  1  0.27320000  0.94790000  0.84330000  1.0 0.1098966768
H  H1055  1  0.44790000  0.22680000  0.59330000  1.0 0.1098966768
H  H1056  1  0.55210000  0.77320000  0.09330000  1.0 0.1098966768
C  C1  1  0.19270000  0.76340000  0.71865000  1.0 0.0809356504
C  C2  1  0.73660000  0.69270000  0.96865000  1.0 0.0809356504
C  C3  1  0.80730000  0.23660000  0.21865000  1.0 0.0809356504
C  C4  1  0.26340000  0.30730000  0.46865000  1.0 0.0809356504
C  C5  1  0.69270000  0.73660000  0.03135000  1.0 0.0809356504
C  C6  1  0.30730000  0.26340000  0.53135000  1.0 0.0809356504
C  C7  1  0.76340000  0.19270000  0.28135000  1.0 0.0809356504
C  C8  1  0.23660000  0.80730000  0.78135000  1.0 0.0809356504
C  C9  1  0.20370000  0.84470000  0.69387000  1.0 0.0699466689
C  C10  1  0.65530000  0.70370000  0.94387000  1.0 0.0699466689
C  C11  1  0.79630000  0.15530000  0.19387000  1.0 0.0699466689
C  C12  1  0.34470000  0.29630000  0.44387000  1.0 0.0699466689
C  C13  1  0.70370000  0.65530000  0.05613000  1.0 0.0699466689
C  C14  1  0.29630000  0.34470000  0.55613000  1.0 0.0699466689
C  C15  1  0.84470000  0.20370000  0.30613000  1.0 0.0699466689
C  C16  1  0.15530000  0.79630000  0.80613000  1.0 0.0612852674
C  C17  1  0.04100000  0.77920000  0.75440000  1.0 0.2787985091
C  C18  1  0.72080000  0.54100000  0.00440000  1.0 0.2787985091
C  C19  1  0.95900000  0.22080000  0.25440000  1.0 0.2787985091
C  C20  1  0.27920000  0.45900000  0.50440000  1.0 0.2787985091
C  C21  1  0.54100000  0.72080000  0.99560000  1.0 0.2787985091
C  C22  1  0.45900000  0.27920000  0.49560000  1.0 0.2787985091
C  C23  1  0.77920000  0.04100000  0.24560000  1.0 0.2787985091
C  C24  1  0.22080000  0.95900000  0.74560000  1.0 0.2787985091
C  C25  1  0.21970000  0.73310000  0.69729000  1.0 -0.189514137
C  C26  1  0.76690000  0.71970000  0.94729000  1.0 -0.189514137
C  C27  1  0.78030000  0.26690000  0.19729000  1.0 -0.189514137
C  C28  1  0.23310000  0.28030000  0.44729000  1.0 -0.189514137
C  C29  1  0.71970000  0.76690000  0.05271000  1.0 -0.189514137
C  C30  1  0.28030000  0.23310000  0.55271000  1.0 -0.189514137
C  C31  1  0.73310000  0.21970000  0.30271000  1.0 -0.189514137
C  C32  1  0.26690000  0.78030000  0.80271000  1.0 -0.189514137
C  C33  1  0.23130000  0.81920000  0.67229000  1.0 -0.1790478467
C  C34  1  0.68080000  0.73130000  0.92229000  1.0 -0.1790478467
C  C35  1  0.76870000  0.18080000  0.17229000  1.0 -0.1790478467
C  C36  1  0.31920000  0.26870000  0.42229000  1.0 -0.1790478467
C  C37  1  0.73130000  0.68080000  0.07771000  1.0 -0.1790478467
C  C38  1  0.26870000  0.31920000  0.57771000  1.0 -0.1790478467
C  C39  1  0.81920000  0.23130000  0.32771000  1.0 -0.1790478467
C  C40  1  0.18080000  0.76870000  0.82771000  1.0 -0.1790478467
C  C41  1  0.23930000  0.76020000  0.67320000  1.0 0.0919165916
C  C42  1  0.73980000  0.73930000  0.92320000  1.0 0.0919165916
C  C43  1  0.76070000  0.23980000  0.17320000  1.0 0.0919165916
C  C44  1  0.26020000  0.26070000  0.42320000  1.0 0.0919165916
C  C45  1  0.73930000  0.73980000  0.07680000  1.0 0.0919165916
C  C46  1  0.26070000  0.26020000  0.57680000  1.0 0.0919165916
C  C47  1  0.76020000  0.23930000  0.32680000  1.0 0.0919165916
C  C48  1  0.23980000  0.76070000  0.82680000  1.0 0.0919165916
C  C49  1  0.26430000  0.72970000  0.64866000  1.0 0.1996893701
C  C50  1  0.77030000  0.76430000  0.89866000  1.0 0.1996893701
C  C51  1  0.73570000  0.27030000  0.14866000  1.0 0.1996893701
C  C52  1  0.22970000  0.23570000  0.39866000  1.0 0.1996893701
C  C53  1  0.76430000  0.77030000  0.10134000  1.0 0.1996893701
C  C54  1  0.23570000  0.22970000  0.60134000  1.0 0.1996893701
C  C55  1  0.72970000  0.26430000  0.35134000  1.0 0.1996893701
C  C56  1  0.27030000  0.73570000  0.85134000  1.0 0.1996893701
C  C57  1  0.27430000  0.67260000  0.65002000  1.0 -0.2553428191
C  C58  1  0.82740000  0.77430000  0.90002000  1.0 -0.2553428191
C  C59  1  0.72570000  0.32740000  0.15002000  1.0 -0.2553428191
C  C60  1  0.17260000  0.22570000  0.40002000  1.0 -0.2488401406
C  C61  1  0.77430000  0.82740000  0.09998000  1.0 -0.2488401406
C  C62  1  0.22570000  0.17260000  0.59998000  1.0 -0.2553428191
C  C63  1  0.67260000  0.27430000  0.34998000  1.0 -0.2488401406
C  C64  1  0.32740000  0.72570000  0.84998000  1.0 -0.2553428191
C  C65  1  0.29600000  0.73430000  0.60214000  1.0 0.1996893701
C  C66  1  0.76570000  0.79600000  0.85214000  1.0 0.1996893701
C  C67  1  0.70400000  0.26570000  0.10214000  1.0 0.1996893701
C  C68  1  0.23430000  0.20400000  0.35214000  1.0 0.1996893701
C  C69  1  0.79600000  0.76570000  0.14786000  1.0 0.1996893701
C  C70  1  0.20400000  0.23430000  0.64786000  1.0 0.1996893701
C  C71  1  0.73430000  0.29600000  0.39786000  1.0 0.1996893701
C  C72  1  0.26570000  0.70400000  0.89786000  1.0 0.1996893701
C  C73  1  0.29600000  0.64510000  0.62608000  1.0 0.1189261572
C  C74  1  0.85490000  0.79600000  0.87608000  1.0 0.1289328515
C  C75  1  0.70400000  0.35490000  0.12608000  1.0 0.1189261572
C  C76  1  0.14510000  0.20400000  0.37608000  1.0 0.1189261572
C  C77  1  0.79600000  0.85490000  0.12392000  1.0 0.1289328515
C  C78  1  0.20400000  0.14510000  0.62392000  1.0 0.1189261572
C  C79  1  0.64510000  0.29600000  0.37392000  1.0 0.1189261572
C  C80  1  0.35490000  0.70400000  0.87392000  1.0 0.1189261572
C  C81  1  0.30650000  0.67750000  0.60184000  1.0 -0.2398693808
C  C82  1  0.82250000  0.80650000  0.85184000  1.0 -0.2398693808
C  C83  1  0.69350000  0.32250000  0.10184000  1.0 -0.2398693808
C  C84  1  0.17750000  0.19350000  0.35184000  1.0 -0.2398693808
C  C85  1  0.80650000  0.82250000  0.14816000  1.0 -0.2398693808
C  C86  1  0.19350000  0.17750000  0.64816000  1.0 -0.2398693808
C  C87  1  0.67750000  0.30650000  0.39816000  1.0 -0.2398693808
C  C88  1  0.32250000  0.69350000  0.89816000  1.0 -0.2398693808
C  C89  1  0.30870000  0.76970000  0.57667000  1.0 0.0919165916
C  C90  1  0.73030000  0.80870000  0.82667000  1.0 0.0919165916
C  C91  1  0.69130000  0.23030000  0.07667000  1.0 0.0919165916
C  C92  1  0.26970000  0.19130000  0.32667000  1.0 0.0919165916
C  C93  1  0.80870000  0.73030000  0.17333000  1.0 0.0919165916
C  C94  1  0.19130000  0.26970000  0.67333000  1.0 0.0919165916
C  C95  1  0.76970000  0.30870000  0.42333000  1.0 0.0919165916
C  C96  1  0.23030000  0.69130000  0.92333000  1.0 0.0919165916
C  C97  1  0.30640000  0.58410000  0.62589000  1.0 0.0307407246
C  C98  1  0.91590000  0.80640000  0.87589000  1.0 0.0307407246
C  C99  1  0.69360000  0.41590000  0.12589000  1.0 0.0307407246
C  C100  1  0.08410000  0.19360000  0.37589000  1.0 0.0307407246
C  C101  1  0.80640000  0.91590000  0.12411000  1.0 0.0307407246
C  C102  1  0.19360000  0.08410000  0.62411000  1.0 0.0307407246
C  C103  1  0.58410000  0.30640000  0.37411000  1.0 0.0307407246
C  C104  1  0.41590000  0.69360000  0.87411000  1.0 0.0307407246
C  C105  1  0.30650000  0.82800000  0.57765000  1.0 -0.1790478467
C  C106  1  0.67200000  0.80650000  0.82765000  1.0 -0.1790478467
C  C107  1  0.69350000  0.17200000  0.07765000  1.0 -0.1790478467
C  C108  1  0.32800000  0.19350000  0.32765000  1.0 -0.1790478467
C  C109  1  0.80650000  0.67200000  0.17235000  1.0 -0.1790478467
C  C110  1  0.19350000  0.32800000  0.67235000  1.0 -0.1790478467
C  C111  1  0.82800000  0.30650000  0.42235000  1.0 -0.1790478467
C  C112  1  0.17200000  0.69350000  0.92235000  1.0 -0.1790478467
C  C113  1  0.32510000  0.74590000  0.55129000  1.0 -0.1980436667
C  C114  1  0.75410000  0.82510000  0.80129000  1.0 -0.1980436667
C  C115  1  0.67490000  0.25410000  0.05129000  1.0 -0.1980436667
C  C116  1  0.24590000  0.17490000  0.30129000  1.0 -0.1980436667
C  C117  1  0.82510000  0.75410000  0.19871000  1.0 -0.1980436667
C  C118  1  0.17490000  0.24590000  0.69871000  1.0 -0.1980436667
C  C119  1  0.74590000  0.32510000  0.44871000  1.0 -0.1980436667
C  C120  1  0.25410000  0.67490000  0.94871000  1.0 -0.1980436667
C  C121  1  0.29700000  0.55280000  0.60102000  1.0 -0.1184869176
C  C122  1  0.94720000  0.79700000  0.85102000  1.0 -0.1184869176
C  C123  1  0.70300000  0.44720000  0.10102000  1.0 -0.1184869176
C  C124  1  0.05280000  0.20300000  0.35102000  1.0 -0.1184869176
C  C125  1  0.79700000  0.94720000  0.14898000  1.0 -0.1184869176
C  C126  1  0.20300000  0.05280000  0.64898000  1.0 -0.1184869176
C  C127  1  0.55280000  0.29700000  0.39898000  1.0 -0.1184869176
C  C128  1  0.44720000  0.70300000  0.89898000  1.0 -0.1184869176
C  C129  1  0.32540000  0.55650000  0.64978000  1.0 -0.1184869176
C  C130  1  0.94350000  0.82540000  0.89978000  1.0 -0.1184869176
C  C131  1  0.67460000  0.44350000  0.14978000  1.0 -0.1184869176
C  C132  1  0.05650000  0.17460000  0.39978000  1.0 -0.1184869176
C  C133  1  0.82540000  0.94350000  0.10022000  1.0 -0.1184869176
C  C134  1  0.17460000  0.05650000  0.60022000  1.0 -0.1184869176
C  C135  1  0.55650000  0.32540000  0.35022000  1.0 -0.1184869176
C  C136  1  0.44350000  0.67460000  0.85022000  1.0 -0.1184869176
C  C137  1  0.32290000  0.85850000  0.55435000  1.0 0.0699466689
C  C138  1  0.64150000  0.82290000  0.80435000  1.0 0.0699466689
C  C139  1  0.67710000  0.14150000  0.05435000  1.0 0.0699466689
C  C140  1  0.35850000  0.17710000  0.30435000  1.0 0.0699466689
C  C141  1  0.82290000  0.64150000  0.19565000  1.0 0.0699466689
C  C142  1  0.17710000  0.35850000  0.69565000  1.0 0.0699466689
C  C143  1  0.85850000  0.32290000  0.44565000  1.0 0.0699466689
C  C144  1  0.14150000  0.67710000  0.94565000  1.0 0.0699466689
C  C145  1  0.34110000  0.77930000  0.52879000  1.0 0.0699466689
C  C146  1  0.72070000  0.84110000  0.77879000  1.0 0.0699466689
C  C147  1  0.65890000  0.22070000  0.02879000  1.0 0.0699466689
C  C148  1  0.27930000  0.15890000  0.27879000  1.0 0.0699466689
C  C149  1  0.84110000  0.72070000  0.22121000  1.0 0.0699466689
C  C150  1  0.15890000  0.27930000  0.72121000  1.0 0.0699466689
C  C151  1  0.77930000  0.34110000  0.47121000  1.0 0.0699466689
C  C152  1  0.22070000  0.65890000  0.97121000  1.0 0.0699466689
C  C153  1  0.30700000  0.49610000  0.60023000  1.0 -0.2228507384
C  C154  1  0.00390000  0.80700000  0.85023000  1.0 -0.2228507384
C  C155  1  0.69300000  0.50390000  0.10023000  1.0 -0.2228507384
C  C156  1  0.99610000  0.19300000  0.35023000  1.0 -0.2228507384
C  C157  1  0.80700000  0.00390000  0.14977000  1.0 -0.2228507384
C  C158  1  0.19300000  0.99610000  0.64977000  1.0 -0.2228507384
C  C159  1  0.49610000  0.30700000  0.39977000  1.0 -0.2228507384
C  C160  1  0.50390000  0.69300000  0.89977000  1.0 -0.2228507384
C  C161  1  0.33680000  0.49890000  0.64961000  1.0 -0.2398693808
C  C162  1  0.00110000  0.83680000  0.89961000  1.0 -0.2398693808
C  C163  1  0.66320000  0.50110000  0.14961000  1.0 -0.2398693808
C  C164  1  0.99890000  0.16320000  0.39961000  1.0 -0.2398693808
C  C165  1  0.83680000  0.00110000  0.10039000  1.0 -0.2398693808
C  C166  1  0.16320000  0.99890000  0.60039000  1.0 -0.2398693808
C  C167  1  0.49890000  0.33680000  0.35039000  1.0 -0.2398693808
C  C168  1  0.50110000  0.66320000  0.85039000  1.0 -0.2398693808
C  C169  1  0.32690000  0.46860000  0.62453000  1.0 0.2605541578
C  C170  1  0.03140000  0.82690000  0.87453000  1.0 0.2605541578
C  C171  1  0.67310000  0.53140000  0.12453000  1.0 0.2605541578
C  C172  1  0.96860000  0.17310000  0.37453000  1.0 0.2605541578
C  C173  1  0.82690000  0.03140000  0.12547000  1.0 0.2605541578
C  C174  1  0.17310000  0.96860000  0.62547000  1.0 0.2605541578
C  C175  1  0.46860000  0.32690000  0.37547000  1.0 0.2605541578
C  C176  1  0.53140000  0.67310000  0.87547000  1.0 0.2605541578
C  C177  1  0.36280000  0.38490000  0.64492000  1.0 -0.0264330826
C  C178  1  0.11510000  0.86280000  0.89492000  1.0 -0.0264330826
C  C179  1  0.63720000  0.61510000  0.14492000  1.0 -0.0215969945
C  C180  1  0.88490000  0.13720000  0.39492000  1.0 -0.0215969945
C  C181  1  0.86280000  0.11510000  0.10508000  1.0 -0.0215969945
C  C182  1  0.13720000  0.88490000  0.60508000  1.0 -0.0264330826
C  C183  1  0.38490000  0.36280000  0.35508000  1.0 -0.0264330826
C  C184  1  0.61510000  0.63720000  0.85508000  1.0 -0.0264330826
C  C185  1  0.28110000  0.82120000  0.46766000  1.0 0.0809356504
C  C186  1  0.67880000  0.78110000  0.71766000  1.0 0.0809356504
C  C187  1  0.71890000  0.17880000  0.96766000  1.0 0.0809356504
C  C188  1  0.32120000  0.21890000  0.21766000  1.0 0.0809356504
C  C189  1  0.78110000  0.67880000  0.28234000  1.0 0.0809356504
C  C190  1  0.21890000  0.32120000  0.78234000  1.0 0.0809356504
C  C191  1  0.82120000  0.28110000  0.53234000  1.0 0.0809356504
C  C192  1  0.17880000  0.71890000  0.03234000  1.0 0.0809356504
C  C193  1  0.36070000  0.80650000  0.44185000  1.0 0.0699466689
C  C194  1  0.69350000  0.86070000  0.69185000  1.0 0.0699466689
C  C195  1  0.63930000  0.19350000  0.94185000  1.0 0.0699466689
C  C196  1  0.30650000  0.13930000  0.19185000  1.0 0.0699466689
C  C197  1  0.86070000  0.69350000  0.30815000  1.0 0.0699466689
C  C198  1  0.13930000  0.30650000  0.80815000  1.0 0.0699466689
C  C199  1  0.80650000  0.36070000  0.55815000  1.0 0.0699466689
C  C200  1  0.19350000  0.63930000  0.05815000  1.0 0.0699466689
C  C201  1  0.47280000  0.78430000  0.48520000  1.0 0.2605541578
C  C202  1  0.71570000  0.97280000  0.73520000  1.0 0.2605541578
C  C203  1  0.52720000  0.21570000  0.98520000  1.0 0.2605541578
C  C204  1  0.28430000  0.02720000  0.23520000  1.0 0.2605541578
C  C205  1  0.97280000  0.71570000  0.26480000  1.0 0.2605541578
C  C206  1  0.02720000  0.28430000  0.76480000  1.0 0.2605541578
C  C207  1  0.78430000  0.47280000  0.51480000  1.0 0.2605541578
C  C208  1  0.21570000  0.52720000  0.01480000  1.0 0.2605541578
C  C209  1  0.45500000  0.90360000  0.54788000  1.0 0.0699466689
C  C210  1  0.59640000  0.95500000  0.79788000  1.0 0.0699466689
C  C211  1  0.54500000  0.09640000  0.04788000  1.0 0.0699466689
C  C212  1  0.40360000  0.04500000  0.29788000  1.0 0.0699466689
C  C213  1  0.95500000  0.59640000  0.20212000  1.0 0.0699466689
C  C214  1  0.04500000  0.40360000  0.70212000  1.0 0.0699466689
C  C215  1  0.90360000  0.45500000  0.45212000  1.0 0.0699466689
C  C216  1  0.09640000  0.54500000  0.95212000  1.0 0.0699466689
C  C217  1  0.43030000  0.98490000  0.52435000  1.0 0.0809356504
C  C218  1  0.51510000  0.93030000  0.77435000  1.0 0.0919165916
C  C219  1  0.56970000  0.01510000  0.02435000  1.0 0.0809356504
C  C220  1  0.48490000  0.06970000  0.27435000  1.0 0.0809356504
C  C221  1  0.93030000  0.51510000  0.22565000  1.0 0.0919165916
C  C222  1  0.06970000  0.48490000  0.72565000  1.0 0.0809356504
C  C223  1  0.98490000  0.43030000  0.47565000  1.0 0.0919165916
C  C224  1  0.01510000  0.56970000  0.97565000  1.0 0.0809356504
C  C225  1  0.28700000  0.97250000  0.48527000  1.0 0.2605541578
C  C226  1  0.52750000  0.78700000  0.73527000  1.0 0.2605541578
C  C227  1  0.71300000  0.02750000  0.98527000  1.0 0.2605541578
C  C228  1  0.47250000  0.21300000  0.23527000  1.0 0.2605541578
C  C229  1  0.78700000  0.52750000  0.26473000  1.0 0.2605541578
C  C230  1  0.21300000  0.47250000  0.76473000  1.0 0.2605541578
C  C231  1  0.97250000  0.28700000  0.51473000  1.0 0.2605541578
C  C232  1  0.02750000  0.71300000  0.01473000  1.0 0.2605541578
C  C233  1  0.37640000  0.32590000  0.63570000  1.0 -0.2228507384
C  C234  1  0.17410000  0.87640000  0.88570000  1.0 -0.2228507384
C  C235  1  0.62360000  0.67410000  0.13570000  1.0 -0.2228507384
C  C236  1  0.82590000  0.12360000  0.38570000  1.0 -0.2228507384
C  C237  1  0.87640000  0.17410000  0.11430000  1.0 -0.2228507384
C  C238  1  0.12360000  0.82590000  0.61430000  1.0 -0.2228507384
C  C239  1  0.32590000  0.37640000  0.36430000  1.0 -0.2228507384
C  C240  1  0.67410000  0.62360000  0.86430000  1.0 -0.2228507384
C  C241  1  0.24900000  0.79090000  0.44830000  1.0 -0.189514137
C  C242  1  0.70910000  0.74900000  0.69830000  1.0 -0.189514137
C  C243  1  0.75100000  0.20910000  0.94830000  1.0 -0.189514137
C  C244  1  0.29090000  0.25100000  0.19830000  1.0 -0.189514137
C  C245  1  0.74900000  0.70910000  0.30170000  1.0 -0.189514137
C  C246  1  0.25100000  0.29090000  0.80170000  1.0 -0.189514137
C  C247  1  0.79090000  0.24900000  0.55170000  1.0 -0.189514137
C  C248  1  0.20910000  0.75100000  0.05170000  1.0 -0.189514137
C  C249  1  0.33160000  0.77740000  0.42067000  1.0 -0.1790478467
C  C250  1  0.72260000  0.83160000  0.67067000  1.0 -0.1790478467
C  C251  1  0.66840000  0.22260000  0.92067000  1.0 -0.1790478467
C  C252  1  0.27740000  0.16840000  0.17067000  1.0 -0.1790478467
C  C253  1  0.83160000  0.72260000  0.32933000  1.0 -0.1790478467
C  C254  1  0.16840000  0.27740000  0.82933000  1.0 -0.1790478467
C  C255  1  0.77740000  0.33160000  0.57933000  1.0 -0.1790478467
C  C256  1  0.22260000  0.66840000  0.07933000  1.0 -0.1790478467
C  C257  1  0.48270000  0.93370000  0.56883000  1.0 -0.1790478467
C  C258  1  0.56630000  0.98270000  0.81883000  1.0 -0.1790478467
C  C259  1  0.51730000  0.06630000  0.06883000  1.0 -0.1790478467
C  C260  1  0.43370000  0.01730000  0.31883000  1.0 -0.1790478467
C  C261  1  0.98270000  0.56630000  0.18117000  1.0 -0.1790478467
C  C262  1  0.01730000  0.43370000  0.68117000  1.0 -0.1790478467
C  C263  1  0.93370000  0.48270000  0.43117000  1.0 -0.1790478467
C  C264  1  0.06630000  0.51730000  0.93117000  1.0 -0.1790478467
C  C265  1  0.45710000  0.01790000  0.54439000  1.0 -0.1980436667
C  C266  1  0.48210000  0.95710000  0.79439000  1.0 -0.1980436667
C  C267  1  0.54290000  0.98210000  0.04439000  1.0 -0.1980436667
C  C268  1  0.51790000  0.04290000  0.29439000  1.0 -0.1980436667
C  C269  1  0.95710000  0.48210000  0.20561000  1.0 -0.1980436667
C  C270  1  0.04290000  0.51790000  0.70561000  1.0 -0.1980436667
C  C271  1  0.01790000  0.45710000  0.45561000  1.0 -0.1980436667
C  C272  1  0.98210000  0.54290000  0.95561000  1.0 -0.1980436667
C  C273  1  0.41900000  0.29720000  0.65420000  1.0 -0.1590820973
C  C274  1  0.20280000  0.91900000  0.90420000  1.0 -0.1590820973
C  C275  1  0.58100000  0.70280000  0.15420000  1.0 -0.1590820973
C  C276  1  0.79720000  0.08100000  0.40420000  1.0 -0.1590820973
C  C277  1  0.91900000  0.20280000  0.09580000  1.0 -0.1590820973
C  C278  1  0.08100000  0.79720000  0.59580000  1.0 -0.1590820973
C  C279  1  0.29720000  0.41900000  0.34580000  1.0 -0.1590820973
C  C280  1  0.70280000  0.58100000  0.84580000  1.0 -0.1590820973
C  C281  1  0.27410000  0.76950000  0.42384000  1.0 0.0919165916
C  C282  1  0.73050000  0.77410000  0.67384000  1.0 0.0919165916
C  C283  1  0.72590000  0.23050000  0.92384000  1.0 0.0919165916
C  C284  1  0.26950000  0.22590000  0.17384000  1.0 0.0919165916
C  C285  1  0.77410000  0.73050000  0.32616000  1.0 0.0919165916
C  C286  1  0.22590000  0.26950000  0.82616000  1.0 0.0919165916
C  C287  1  0.76950000  0.27410000  0.57616000  1.0 0.0919165916
C  C288  1  0.23050000  0.72590000  0.07616000  1.0 0.0919165916
C  C289  1  0.48410000  0.99230000  0.56738000  1.0 0.0919165916
C  C290  1  0.50770000  0.98410000  0.81738000  1.0 0.0919165916
C  C291  1  0.51590000  0.00770000  0.06738000  1.0 0.0919165916
C  C292  1  0.49230000  0.01590000  0.31738000  1.0 0.0919165916
C  C293  1  0.98410000  0.50770000  0.18262000  1.0 0.0919165916
C  C294  1  0.01590000  0.49230000  0.68262000  1.0 0.0919165916
C  C295  1  0.99230000  0.48410000  0.43262000  1.0 0.0919165916
C  C296  1  0.00770000  0.51590000  0.93262000  1.0 0.0919165916
C  C297  1  0.40440000  0.28950000  0.68470000  1.0 -0.1590820973
C  C298  1  0.21050000  0.90440000  0.93470000  1.0 -0.1590820973
C  C299  1  0.59560000  0.71050000  0.18470000  1.0 -0.1590820973
C  C300  1  0.78950000  0.09560000  0.43470000  1.0 -0.1590820973
C  C301  1  0.90440000  0.21050000  0.06530000  1.0 -0.1590820973
C  C302  1  0.09560000  0.78950000  0.56530000  1.0 -0.1590820973
C  C303  1  0.28950000  0.40440000  0.31530000  1.0 -0.1590820973
C  C304  1  0.71050000  0.59560000  0.81530000  1.0 -0.1590820973
C  C305  1  0.24130000  0.74270000  0.40037000  1.0 0.2106061295
C  C306  1  0.75730000  0.74130000  0.65037000  1.0 0.2106061295
C  C307  1  0.75870000  0.25730000  0.90037000  1.0 0.2106061295
C  C308  1  0.24270000  0.25870000  0.15037000  1.0 0.2106061295
C  C309  1  0.74130000  0.75730000  0.34963000  1.0 0.2106061295
C  C310  1  0.25870000  0.24270000  0.84963000  1.0 0.2106061295
C  C311  1  0.74270000  0.24130000  0.59963000  1.0 0.2106061295
C  C312  1  0.25730000  0.75870000  0.09963000  1.0 0.2106061295
C  C313  1  0.51160000  0.02540000  0.59045000  1.0 0.1996893701
C  C314  1  0.47460000  0.01160000  0.84045000  1.0 0.1996893701
C  C315  1  0.48840000  0.97460000  0.09045000  1.0 0.1996893701
C  C316  1  0.52540000  0.98840000  0.34045000  1.0 0.1996893701
C  C317  1  0.01160000  0.47460000  0.15955000  1.0 0.1996893701
C  C318  1  0.98840000  0.52540000  0.65955000  1.0 0.1996893701
C  C319  1  0.02540000  0.51160000  0.40955000  1.0 0.1996893701
C  C320  1  0.97460000  0.48840000  0.90955000  1.0 0.1996893701
C  C321  1  0.35770000  0.24790000  0.68540000  1.0 -0.1697285406
C  C322  1  0.25210000  0.85770000  0.93540000  1.0 -0.1697285406
C  C323  1  0.64230000  0.75210000  0.18540000  1.0 -0.1697285406
C  C324  1  0.74790000  0.14230000  0.43540000  1.0 -0.1590820973
C  C325  1  0.85770000  0.25210000  0.06460000  1.0 -0.1697285406
C  C326  1  0.14230000  0.74790000  0.56460000  1.0 -0.1697285406
C  C327  1  0.24790000  0.35770000  0.31460000  1.0 -0.1697285406
C  C328  1  0.75210000  0.64230000  0.81460000  1.0 -0.1697285406
C  C329  1  0.18380000  0.73280000  0.40345000  1.0 -0.2488401406
C  C330  1  0.76720000  0.68380000  0.65345000  1.0 -0.2488401406
C  C331  1  0.81620000  0.26720000  0.90345000  1.0 -0.2488401406
C  C332  1  0.23280000  0.31620000  0.15345000  1.0 -0.2488401406
C  C333  1  0.68380000  0.76720000  0.34655000  1.0 -0.2488401406
C  C334  1  0.31620000  0.23280000  0.84655000  1.0 -0.2488401406
C  C335  1  0.73280000  0.18380000  0.59655000  1.0 -0.2488401406
C  C336  1  0.26720000  0.81620000  0.09655000  1.0 -0.2488401406
C  C337  1  0.52300000  0.08180000  0.58748000  1.0 -0.2488401406
C  C338  1  0.41820000  0.02300000  0.83748000  1.0 -0.2488401406
C  C339  1  0.47700000  0.91820000  0.08748000  1.0 -0.2488401406
C  C340  1  0.58180000  0.97700000  0.33748000  1.0 -0.2488401406
C  C341  1  0.02300000  0.41820000  0.16252000  1.0 -0.2488401406
C  C342  1  0.97700000  0.58180000  0.66252000  1.0 -0.2488401406
C  C343  1  0.08180000  0.52300000  0.41252000  1.0 -0.2488401406
C  C344  1  0.91820000  0.47700000  0.91252000  1.0 -0.2488401406
C  C345  1  0.35420000  0.22830000  0.71540000  1.0 -0.1590820973
C  C346  1  0.27170000  0.85420000  0.96540000  1.0 -0.1590820973
C  C347  1  0.64580000  0.77170000  0.21540000  1.0 -0.1590820973
C  C348  1  0.72830000  0.14580000  0.46540000  1.0 -0.1590820973
C  C349  1  0.85420000  0.27170000  0.03460000  1.0 -0.1590820973
C  C350  1  0.14580000  0.72830000  0.53460000  1.0 -0.1590820973
C  C351  1  0.22830000  0.35420000  0.28460000  1.0 -0.1590820973
C  C352  1  0.77170000  0.64580000  0.78460000  1.0 -0.1590820973
C  C353  1  0.24170000  0.70730000  0.35490000  1.0 0.2106061295
C  C354  1  0.79270000  0.74170000  0.60490000  1.0 0.2106061295
C  C355  1  0.75830000  0.29270000  0.85490000  1.0 0.2106061295
C  C356  1  0.20730000  0.25830000  0.10490000  1.0 0.2106061295
C  C357  1  0.74170000  0.79270000  0.39510000  1.0 0.2106061295
C  C358  1  0.25830000  0.20730000  0.89510000  1.0 0.2106061295
C  C359  1  0.70730000  0.24170000  0.64510000  1.0 0.2106061295
C  C360  1  0.29270000  0.75830000  0.14510000  1.0 0.2106061295
C  C361  1  0.15470000  0.70920000  0.38055000  1.0 0.1289328515
C  C362  1  0.79080000  0.65470000  0.63055000  1.0 0.1289328515
C  C363  1  0.84530000  0.29080000  0.88055000  1.0 0.1289328515
C  C364  1  0.20920000  0.34530000  0.13055000  1.0 0.1289328515
C  C365  1  0.65470000  0.79080000  0.36945000  1.0 0.1289328515
C  C366  1  0.34530000  0.20920000  0.86945000  1.0 0.1289328515
C  C367  1  0.70920000  0.15470000  0.61945000  1.0 0.1289328515
C  C368  1  0.29080000  0.84530000  0.11945000  1.0 0.1289328515
C  C369  1  0.54260000  0.02520000  0.63686000  1.0 0.1996893701
C  C370  1  0.47480000  0.04260000  0.88686000  1.0 0.1996893701
C  C371  1  0.45740000  0.97480000  0.13686000  1.0 0.1996893701
C  C372  1  0.52520000  0.95740000  0.38686000  1.0 0.1996893701
C  C373  1  0.04260000  0.47480000  0.11314000  1.0 0.1996893701
C  C374  1  0.95740000  0.52520000  0.61314000  1.0 0.1996893701
C  C375  1  0.02520000  0.54260000  0.36314000  1.0 0.1996893701
C  C376  1  0.97480000  0.45740000  0.86314000  1.0 0.1996893701
C  C377  1  0.54510000  0.11130000  0.61079000  1.0 0.1189261572
C  C378  1  0.38870000  0.04510000  0.86079000  1.0 0.1189261572
C  C379  1  0.45490000  0.88870000  0.11079000  1.0 0.1189261572
C  C380  1  0.61130000  0.95490000  0.36079000  1.0 0.1189261572
C  C381  1  0.04510000  0.38870000  0.13921000  1.0 0.1189261572
C  C382  1  0.95490000  0.61130000  0.63921000  1.0 0.1189261572
C  C383  1  0.11130000  0.54510000  0.38921000  1.0 0.1189261572
C  C384  1  0.88870000  0.45490000  0.88921000  1.0 0.1189261572
C  C385  1  0.31360000  0.17940000  0.71910000  1.0 -0.1697285406
C  C386  1  0.32060000  0.81360000  0.96910000  1.0 -0.1697285406
C  C387  1  0.68640000  0.82060000  0.21910000  1.0 -0.1697285406
C  C388  1  0.67940000  0.18640000  0.46910000  1.0 -0.1697285406
C  C389  1  0.81360000  0.32060000  0.03090000  1.0 -0.1697285406
C  C390  1  0.18640000  0.67940000  0.53090000  1.0 -0.1697285406
C  C391  1  0.17940000  0.31360000  0.28090000  1.0 -0.1697285406
C  C392  1  0.82060000  0.68640000  0.78090000  1.0 -0.1697285406
C  C393  1  0.18450000  0.69790000  0.35588000  1.0 -0.2398693808
C  C394  1  0.80210000  0.68450000  0.60588000  1.0 -0.2398693808
C  C395  1  0.81550000  0.30210000  0.85588000  1.0 -0.2398693808
C  C396  1  0.19790000  0.31550000  0.10588000  1.0 -0.2398693808
C  C397  1  0.68450000  0.80210000  0.39412000  1.0 -0.2398693808
C  C398  1  0.31550000  0.19790000  0.89412000  1.0 -0.2398693808
C  C399  1  0.69790000  0.18450000  0.64412000  1.0 -0.2398693808
C  C400  1  0.30210000  0.81550000  0.14412000  1.0 -0.2398693808
C  C401  1  0.27630000  0.69200000  0.32922000  1.0 0.0809356504
C  C402  1  0.80800000  0.77630000  0.57922000  1.0 0.0809356504
C  C403  1  0.72370000  0.30800000  0.82922000  1.0 0.0809356504
C  C404  1  0.19200000  0.22370000  0.07922000  1.0 0.0809356504
C  C405  1  0.77630000  0.80800000  0.42078000  1.0 0.0809356504
C  C406  1  0.22370000  0.19200000  0.92078000  1.0 0.0809356504
C  C407  1  0.69200000  0.27630000  0.67078000  1.0 0.0809356504
C  C408  1  0.30800000  0.72370000  0.17078000  1.0 0.0809356504
C  C409  1  0.09360000  0.69720000  0.38215000  1.0 0.0307407246
C  C410  1  0.80280000  0.59360000  0.63215000  1.0 0.0307407246
C  C411  1  0.90640000  0.30280000  0.88215000  1.0 0.0307407246
C  C412  1  0.19720000  0.40640000  0.13215000  1.0 0.0307407246
C  C413  1  0.59360000  0.80280000  0.36785000  1.0 0.0307407246
C  C414  1  0.40640000  0.19720000  0.86785000  1.0 0.0307407246
C  C415  1  0.69720000  0.09360000  0.61785000  1.0 0.0307407246
C  C416  1  0.30280000  0.90640000  0.11785000  1.0 0.0307407246
C  C417  1  0.55460000  0.08180000  0.63564000  1.0 -0.2398693808
C  C418  1  0.41820000  0.05460000  0.88564000  1.0 -0.2398693808
C  C419  1  0.44540000  0.91820000  0.13564000  1.0 -0.2398693808
C  C420  1  0.58180000  0.94540000  0.38564000  1.0 -0.2398693808
C  C421  1  0.05460000  0.41820000  0.11436000  1.0 -0.2398693808
C  C422  1  0.94540000  0.58180000  0.61436000  1.0 -0.2398693808
C  C423  1  0.08180000  0.55460000  0.36436000  1.0 -0.2398693808
C  C424  1  0.91820000  0.44540000  0.86436000  1.0 -0.2398693808
C  C425  1  0.55270000  0.99240000  0.66292000  1.0 0.0919165916
C  C426  1  0.50760000  0.05270000  0.91292000  1.0 0.0919165916
C  C427  1  0.44730000  0.00760000  0.16292000  1.0 0.0919165916
C  C428  1  0.49240000  0.94730000  0.41292000  1.0 0.0919165916
C  C429  1  0.05270000  0.50760000  0.08708000  1.0 0.0919165916
C  C430  1  0.94730000  0.49240000  0.58708000  1.0 0.0919165916
C  C431  1  0.99240000  0.55270000  0.33708000  1.0 0.0919165916
C  C432  1  0.00760000  0.44730000  0.83708000  1.0 0.0919165916
C  C433  1  0.55720000  0.17210000  0.60966000  1.0 0.0394722034
C  C434  1  0.32790000  0.05720000  0.85966000  1.0 0.0394722034
C  C435  1  0.44280000  0.82790000  0.10966000  1.0 0.0394722034
C  C436  1  0.67210000  0.94280000  0.35966000  1.0 0.0394722034
C  C437  1  0.05720000  0.32790000  0.14034000  1.0 0.0394722034
C  C438  1  0.94280000  0.67210000  0.64034000  1.0 0.0394722034
C  C439  1  0.17210000  0.55720000  0.39034000  1.0 0.0394722034
C  C440  1  0.82790000  0.44280000  0.89034000  1.0 0.0394722034
C  C441  1  0.31260000  0.16770000  0.75120000  1.0 -0.1100794937
C  C442  1  0.33230000  0.81260000  0.00120000  1.0 -0.1100794937
C  C443  1  0.68740000  0.83230000  0.25120000  1.0 -0.1100794937
C  C444  1  0.66770000  0.18740000  0.50120000  1.0 -0.1100794937
C  C445  1  0.81260000  0.33230000  0.99880000  1.0 -0.1100794937
C  C446  1  0.18740000  0.66770000  0.49880000  1.0 -0.1100794937
C  C447  1  0.16770000  0.31260000  0.24880000  1.0 -0.1100794937
C  C448  1  0.83230000  0.68740000  0.74880000  1.0 -0.1100794937
C  C449  1  0.33260000  0.69760000  0.32895000  1.0 -0.1697285406
C  C450  1  0.80240000  0.83260000  0.57895000  1.0 -0.1697285406
C  C451  1  0.66740000  0.30240000  0.82895000  1.0 -0.1697285406
C  C452  1  0.19760000  0.16740000  0.07895000  1.0 -0.1697285406
C  C453  1  0.83260000  0.80240000  0.42105000  1.0 -0.1697285406
C  C454  1  0.16740000  0.19760000  0.92105000  1.0 -0.1697285406
C  C455  1  0.69760000  0.33260000  0.67105000  1.0 -0.1697285406
C  C456  1  0.30240000  0.66740000  0.17105000  1.0 -0.1697285406
C  C457  1  0.25080000  0.67000000  0.30490000  1.0 -0.1980436667
C  C458  1  0.83000000  0.75080000  0.55490000  1.0 -0.1980436667
C  C459  1  0.74920000  0.33000000  0.80490000  1.0 -0.1980436667
C  C460  1  0.17000000  0.24920000  0.05490000  1.0 -0.1980436667
C  C461  1  0.75080000  0.83000000  0.44510000  1.0 -0.1980436667
C  C462  1  0.24920000  0.17000000  0.94510000  1.0 -0.1980436667
C  C463  1  0.67000000  0.25080000  0.69510000  1.0 -0.1980436667
C  C464  1  0.33000000  0.74920000  0.19510000  1.0 -0.1980436667
C  C465  1  0.05970000  0.70200000  0.35843000  1.0 -0.1310159493
C  C466  1  0.79800000  0.55970000  0.60843000  1.0 -0.1310159493
C  C467  1  0.94030000  0.29800000  0.85843000  1.0 -0.1310159493
C  C468  1  0.20200000  0.44030000  0.10843000  1.0 -0.1310159493
C  C469  1  0.55970000  0.79800000  0.39157000  1.0 -0.1310159493
C  C470  1  0.44030000  0.20200000  0.89157000  1.0 -0.1310159493
C  C471  1  0.70200000  0.05970000  0.64157000  1.0 -0.1310159493
C  C472  1  0.29800000  0.94030000  0.14157000  1.0 -0.1310159493
C  C473  1  0.06900000  0.68130000  0.40755000  1.0 -0.1184869176
C  C474  1  0.81870000  0.56900000  0.65755000  1.0 -0.1184869176
C  C475  1  0.93100000  0.31870000  0.90755000  1.0 -0.1184869176
C  C476  1  0.18130000  0.43100000  0.15755000  1.0 -0.1184869176
C  C477  1  0.56900000  0.81870000  0.34245000  1.0 -0.1184869176
C  C478  1  0.43100000  0.18130000  0.84245000  1.0 -0.1184869176
C  C479  1  0.68130000  0.06900000  0.59245000  1.0 -0.1184869176
C  C480  1  0.31870000  0.93100000  0.09245000  1.0 -0.1184869176
C  C481  1  0.56910000  0.01650000  0.68864000  1.0 -0.189514137
C  C482  1  0.48350000  0.06910000  0.93864000  1.0 -0.189514137
C  C483  1  0.43090000  0.98350000  0.18864000  1.0 -0.189514137
C  C484  1  0.51650000  0.93090000  0.43864000  1.0 -0.189514137
C  C485  1  0.06910000  0.48350000  0.06136000  1.0 -0.189514137
C  C486  1  0.93090000  0.51650000  0.56136000  1.0 -0.189514137
C  C487  1  0.01650000  0.56910000  0.31136000  1.0 -0.189514137
C  C488  1  0.98350000  0.43090000  0.81136000  1.0 -0.189514137
C  C489  1  0.54920000  0.93290000  0.66262000  1.0 -0.189514137
C  C490  1  0.56710000  0.04920000  0.91262000  1.0 -0.189514137
C  C491  1  0.45080000  0.06710000  0.16262000  1.0 -0.189514137
C  C492  1  0.43290000  0.95080000  0.41262000  1.0 -0.189514137
C  C493  1  0.04920000  0.56710000  0.08738000  1.0 -0.189514137
C  C494  1  0.95080000  0.43290000  0.58738000  1.0 -0.189514137
C  C495  1  0.93290000  0.54920000  0.33738000  1.0 -0.189514137
C  C496  1  0.06710000  0.45080000  0.83738000  1.0 -0.189514137
C  C497  1  0.57500000  0.19860000  0.58443000  1.0 -0.1184869176
C  C498  1  0.30140000  0.07500000  0.83443000  1.0 -0.1184869176
C  C499  1  0.42500000  0.80140000  0.08443000  1.0 -0.1184869176
C  C500  1  0.69860000  0.92500000  0.33443000  1.0 -0.1184869176
C  C501  1  0.07500000  0.30140000  0.16557000  1.0 -0.1184869176
C  C502  1  0.92500000  0.69860000  0.66557000  1.0 -0.1184869176
C  C503  1  0.19860000  0.57500000  0.41557000  1.0 -0.1184869176
C  C504  1  0.80140000  0.42500000  0.91557000  1.0 -0.1184869176
C  C505  1  0.55090000  0.20540000  0.63403000  1.0 -0.1310159493
C  C506  1  0.29460000  0.05090000  0.88403000  1.0 -0.1310159493
C  C507  1  0.44910000  0.79460000  0.13403000  1.0 -0.1310159493
C  C508  1  0.70540000  0.94910000  0.38403000  1.0 -0.1310159493
C  C509  1  0.05090000  0.29460000  0.11597000  1.0 -0.1310159493
C  C510  1  0.94910000  0.70540000  0.61597000  1.0 -0.1310159493
C  C511  1  0.20540000  0.55090000  0.36597000  1.0 -0.1310159493
C  C512  1  0.79460000  0.44910000  0.86597000  1.0 -0.1310159493
C  C513  1  0.24840000  0.15500000  0.75490000  1.0 -0.3654328811
C  C514  1  0.34500000  0.74840000  0.00490000  1.0 -0.3654328811
C  C515  1  0.75160000  0.84500000  0.25490000  1.0 -0.3654328811
C  C516  1  0.65500000  0.25160000  0.50490000  1.0 -0.3654328811
C  C517  1  0.74840000  0.34500000  0.99510000  1.0 -0.3654328811
C  C518  1  0.25160000  0.65500000  0.49510000  1.0 -0.3654328811
C  C519  1  0.15500000  0.24840000  0.24510000  1.0 -0.3654328811
C  C520  1  0.84500000  0.75160000  0.74510000  1.0 -0.3654328811
C  C521  1  0.36440000  0.67950000  0.30569000  1.0 0.0809356504
C  C522  1  0.82050000  0.86440000  0.55569000  1.0 0.0809356504
C  C523  1  0.63560000  0.32050000  0.80569000  1.0 0.0809356504
C  C524  1  0.17950000  0.13560000  0.05569000  1.0 0.0809356504
C  C525  1  0.86440000  0.82050000  0.44431000  1.0 0.0809356504
C  C526  1  0.13560000  0.17950000  0.94431000  1.0 0.0809356504
C  C527  1  0.67950000  0.36440000  0.69431000  1.0 0.0809356504
C  C528  1  0.32050000  0.63560000  0.19431000  1.0 0.0809356504
C  C529  1  0.28430000  0.65290000  0.28292000  1.0 0.0612852674
C  C530  1  0.84710000  0.78430000  0.53292000  1.0 0.0612852674
C  C531  1  0.71570000  0.34710000  0.78292000  1.0 0.0612852674
C  C532  1  0.15290000  0.21570000  0.03292000  1.0 0.0612852674
C  C533  1  0.78430000  0.84710000  0.46708000  1.0 0.0612852674
C  C534  1  0.21570000  0.15290000  0.96708000  1.0 0.0612852674
C  C535  1  0.65290000  0.28430000  0.71708000  1.0 0.0612852674
C  C536  1  0.34710000  0.71570000  0.21708000  1.0 0.0612852674
C  C537  1  0.00340000  0.69050000  0.35996000  1.0 -0.2124672113
C  C538  1  0.80950000  0.50340000  0.60996000  1.0 -0.2124672113
C  C539  1  0.99660000  0.30950000  0.85996000  1.0 -0.2124672113
C  C540  1  0.19050000  0.49660000  0.10996000  1.0 -0.2124672113
C  C541  1  0.50340000  0.80950000  0.39004000  1.0 -0.2124672113
C  C542  1  0.49660000  0.19050000  0.89004000  1.0 -0.2124672113
C  C543  1  0.69050000  0.00340000  0.64004000  1.0 -0.2124672113
C  C544  1  0.30950000  0.99660000  0.14004000  1.0 -0.2124672113
C  C545  1  0.01270000  0.66940000  0.40967000  1.0 -0.2228507384
C  C546  1  0.83060000  0.51270000  0.65967000  1.0 -0.2228507384
C  C547  1  0.98730000  0.33060000  0.90967000  1.0 -0.2228507384
C  C548  1  0.16940000  0.48730000  0.15967000  1.0 -0.2228507384
C  C549  1  0.51270000  0.83060000  0.34033000  1.0 -0.2228507384
C  C550  1  0.48730000  0.16940000  0.84033000  1.0 -0.2228507384
C  C551  1  0.66940000  0.01270000  0.59033000  1.0 -0.2228507384
C  C552  1  0.33060000  0.98730000  0.09033000  1.0 -0.2228507384
C  C553  1  0.58230000  0.98330000  0.71152000  1.0 0.0809356504
C  C554  1  0.51670000  0.08230000  0.96152000  1.0 0.0809356504
C  C555  1  0.41770000  0.01670000  0.21152000  1.0 0.0809356504
C  C556  1  0.48330000  0.91770000  0.46152000  1.0 0.0809356504
C  C557  1  0.08230000  0.51670000  0.03848000  1.0 0.0809356504
C  C558  1  0.91770000  0.48330000  0.53848000  1.0 0.0809356504
C  C559  1  0.98330000  0.58230000  0.28848000  1.0 0.0809356504
C  C560  1  0.01670000  0.41770000  0.78848000  1.0 0.0809356504
C  C561  1  0.56190000  0.90340000  0.68697000  1.0 0.0809356504
C  C562  1  0.59660000  0.06190000  0.93697000  1.0 0.0809356504
C  C563  1  0.43810000  0.09660000  0.18697000  1.0 0.0809356504
C  C564  1  0.40340000  0.93810000  0.43697000  1.0 0.0699466689
C  C565  1  0.06190000  0.59660000  0.06303000  1.0 0.0699466689
C  C566  1  0.93810000  0.40340000  0.56303000  1.0 0.0809356504
C  C567  1  0.90340000  0.56190000  0.31303000  1.0 0.0809356504
C  C568  1  0.09660000  0.43810000  0.81303000  1.0 0.0699466689
C  C569  1  0.58580000  0.25670000  0.58390000  1.0 -0.2398693808
C  C570  1  0.24330000  0.08580000  0.83390000  1.0 -0.2398693808
C  C571  1  0.41420000  0.74330000  0.08390000  1.0 -0.2398693808
C  C572  1  0.75670000  0.91420000  0.33390000  1.0 -0.2398693808
C  C573  1  0.08580000  0.24330000  0.16610000  1.0 -0.2398693808
C  C574  1  0.91420000  0.75670000  0.66610000  1.0 -0.2398693808
C  C575  1  0.25670000  0.58580000  0.41610000  1.0 -0.2398693808
C  C576  1  0.74330000  0.41420000  0.91610000  1.0 -0.2398693808
C  C577  1  0.56170000  0.26250000  0.63370000  1.0 -0.2228507384
C  C578  1  0.23750000  0.06170000  0.88370000  1.0 -0.2228507384
C  C579  1  0.43830000  0.73750000  0.13370000  1.0 -0.2228507384
C  C580  1  0.76250000  0.93830000  0.38370000  1.0 -0.2228507384
C  C581  1  0.06170000  0.23750000  0.11630000  1.0 -0.2228507384
C  C582  1  0.93830000  0.76250000  0.61630000  1.0 -0.2228507384
C  C583  1  0.26250000  0.56170000  0.36630000  1.0 -0.2228507384
C  C584  1  0.73750000  0.43830000  0.86630000  1.0 -0.2228507384
C  C585  1  0.97930000  0.67460000  0.38526000  1.0 0.2403292113
C  C586  1  0.82540000  0.47930000  0.63526000  1.0 0.2403292113
C  C587  1  0.02070000  0.32540000  0.88526000  1.0 0.2403292113
C  C588  1  0.17460000  0.52070000  0.13526000  1.0 0.2403292113
C  C589  1  0.47930000  0.82540000  0.36474000  1.0 0.2403292113
C  C590  1  0.52070000  0.17460000  0.86474000  1.0 0.2403292113
C  C591  1  0.67460000  0.97930000  0.61474000  1.0 0.2403292113
C  C592  1  0.32540000  0.02070000  0.11474000  1.0 0.2403292113
C  C593  1  0.57830000  0.28760000  0.60840000  1.0 0.2403292113
C  C594  1  0.21240000  0.07830000  0.85840000  1.0 0.2403292113
C  C595  1  0.42170000  0.71240000  0.10840000  1.0 0.2403292113
C  C596  1  0.78760000  0.92170000  0.35840000  1.0 0.2403292113
C  C597  1  0.07830000  0.21240000  0.14160000  1.0 0.2403292113
C  C598  1  0.92170000  0.78760000  0.64160000  1.0 0.2403292113
C  C599  1  0.28760000  0.57830000  0.39160000  1.0 0.2403292113
C  C600  1  0.71240000  0.42170000  0.89160000  1.0 0.2403292113
C  C601  1  0.89710000  0.64840000  0.41100000  1.0 -0.0264330826
C  C602  1  0.85160000  0.39710000  0.66100000  1.0 -0.0264330826
C  C603  1  0.10290000  0.35160000  0.91100000  1.0 -0.0264330826
C  C604  1  0.14840000  0.60290000  0.16100000  1.0 -0.0264330826
C  C605  1  0.39710000  0.85160000  0.33900000  1.0 -0.0264330826
C  C606  1  0.60290000  0.14840000  0.83900000  1.0 -0.0264330826
C  C607  1  0.64840000  0.89710000  0.58900000  1.0 -0.0264330826
C  C608  1  0.35160000  0.10290000  0.08900000  1.0 -0.0264330826
C  C609  1  0.60290000  0.37190000  0.58530000  1.0 -0.0264330826
C  C610  1  0.12810000  0.10290000  0.83530000  1.0 -0.0264330826
C  C611  1  0.39710000  0.62810000  0.08530000  1.0 -0.0264330826
C  C612  1  0.87190000  0.89710000  0.33530000  1.0 -0.0264330826
C  C613  1  0.10290000  0.12810000  0.16470000  1.0 -0.0264330826
C  C614  1  0.89710000  0.87190000  0.66470000  1.0 -0.0264330826
C  C615  1  0.37190000  0.60290000  0.41470000  1.0 -0.0264330826
C  C616  1  0.62810000  0.39710000  0.91470000  1.0 -0.0264330826
C  C617  1  0.40360000  0.54400000  0.30536000  1.0 0.0809356504
C  C618  1  0.95600000  0.90360000  0.55536000  1.0 0.0809356504
C  C619  1  0.59640000  0.45600000  0.80536000  1.0 0.0809356504
C  C620  1  0.04400000  0.09640000  0.05536000  1.0 0.0809356504
C  C621  1  0.90360000  0.95600000  0.44464000  1.0 0.0809356504
C  C622  1  0.09640000  0.04400000  0.94464000  1.0 0.0809356504
C  C623  1  0.54400000  0.40360000  0.69464000  1.0 0.0809356504
C  C624  1  0.45600000  0.59640000  0.19464000  1.0 0.0809356504
C  C625  1  0.48600000  0.55960000  0.28207000  1.0 0.0612852674
C  C626  1  0.94040000  0.98600000  0.53207000  1.0 0.0612852674
C  C627  1  0.51400000  0.44040000  0.78207000  1.0 0.0612852674
C  C628  1  0.05960000  0.01400000  0.03207000  1.0 0.0612852674
C  C629  1  0.98600000  0.94040000  0.46793000  1.0 0.0612852674
C  C630  1  0.01400000  0.05960000  0.96793000  1.0 0.0612852674
C  C631  1  0.55960000  0.48600000  0.71793000  1.0 0.0612852674
C  C632  1  0.44040000  0.51400000  0.21793000  1.0 0.0612852674
C  C633  1  0.48300000  0.70280000  0.26286000  1.0 0.2605541578
C  C634  1  0.79720000  0.98300000  0.51286000  1.0 0.2605541578
C  C635  1  0.51700000  0.29720000  0.76286000  1.0 0.2605541578
C  C636  1  0.20280000  0.01700000  0.01286000  1.0 0.2605541578
C  C637  1  0.98300000  0.79720000  0.48714000  1.0 0.2605541578
C  C638  1  0.01700000  0.20280000  0.98714000  1.0 0.2605541578
C  C639  1  0.70280000  0.48300000  0.73714000  1.0 0.2605541578
C  C640  1  0.29720000  0.51700000  0.23714000  1.0 0.2605541578
C  C641  1  0.83490000  0.63850000  0.40630000  1.0 -0.2124672113
C  C642  1  0.86150000  0.33490000  0.65630000  1.0 -0.2124672113
C  C643  1  0.16510000  0.36150000  0.90630000  1.0 -0.2124672113
C  C644  1  0.13850000  0.66510000  0.15630000  1.0 -0.2124672113
C  C645  1  0.33490000  0.86150000  0.34370000  1.0 -0.2124672113
C  C646  1  0.66510000  0.13850000  0.84370000  1.0 -0.2124672113
C  C647  1  0.63850000  0.83490000  0.59370000  1.0 -0.2124672113
C  C648  1  0.36150000  0.16510000  0.09370000  1.0 -0.2124672113
C  C649  1  0.60940000  0.43440000  0.59410000  1.0 -0.1980436667
C  C650  1  0.06560000  0.10940000  0.84410000  1.0 -0.1980436667
C  C651  1  0.39060000  0.56560000  0.09410000  1.0 -0.1980436667
C  C652  1  0.93440000  0.89060000  0.34410000  1.0 -0.1980436667
C  C653  1  0.10940000  0.06560000  0.15590000  1.0 -0.1980436667
C  C654  1  0.89060000  0.93440000  0.65590000  1.0 -0.1980436667
C  C655  1  0.43440000  0.60940000  0.40590000  1.0 -0.1980436667
C  C656  1  0.56560000  0.39060000  0.90590000  1.0 -0.1980436667
C  C657  1  0.43010000  0.51910000  0.32813000  1.0 -0.1980436667
C  C658  1  0.98090000  0.93010000  0.57813000  1.0 -0.1980436667
C  C659  1  0.56990000  0.48090000  0.82813000  1.0 -0.1980436667
C  C660  1  0.01910000  0.06990000  0.07813000  1.0 -0.1980436667
C  C661  1  0.93010000  0.98090000  0.42187000  1.0 -0.1980436667
C  C662  1  0.06990000  0.01910000  0.92187000  1.0 -0.1980436667
C  C663  1  0.51910000  0.43010000  0.67187000  1.0 -0.1980436667
C  C664  1  0.48090000  0.56990000  0.17187000  1.0 -0.1980436667
C  C665  1  0.51620000  0.53370000  0.30339000  1.0 -0.189514137
C  C666  1  0.96630000  0.01620000  0.55339000  1.0 -0.189514137
C  C667  1  0.48380000  0.46630000  0.80339000  1.0 -0.189514137
C  C668  1  0.03370000  0.98380000  0.05339000  1.0 -0.189514137
C  C669  1  0.01620000  0.96630000  0.44661000  1.0 -0.189514137
C  C670  1  0.98380000  0.03370000  0.94661000  1.0 -0.189514137
C  C671  1  0.53370000  0.51620000  0.69661000  1.0 -0.189514137
C  C672  1  0.46630000  0.48380000  0.19661000  1.0 -0.189514137
C  C673  1  0.80330000  0.61870000  0.43290000  1.0 -0.1590820973
C  C674  1  0.88130000  0.30330000  0.68290000  1.0 -0.1590820973
C  C675  1  0.19670000  0.38130000  0.93290000  1.0 -0.1590820973
C  C676  1  0.11870000  0.69670000  0.18290000  1.0 -0.1590820973
C  C677  1  0.30330000  0.88130000  0.31710000  1.0 -0.1590820973
C  C678  1  0.69670000  0.11870000  0.81710000  1.0 -0.1590820973
C  C679  1  0.61870000  0.80330000  0.56710000  1.0 -0.1590820973
C  C680  1  0.38130000  0.19670000  0.06710000  1.0 -0.1590820973
C  C681  1  0.66520000  0.44440000  0.61040000  1.0 -0.1590820973
C  C682  1  0.05560000  0.16520000  0.86040000  1.0 -0.1590820973
C  C683  1  0.33480000  0.55560000  0.11040000  1.0 -0.1590820973
C  C684  1  0.94440000  0.83480000  0.36040000  1.0 -0.1590820973
C  C685  1  0.16520000  0.05560000  0.13960000  1.0 -0.1590820973
C  C686  1  0.83480000  0.94440000  0.63960000  1.0 -0.1590820973
C  C687  1  0.44440000  0.66520000  0.38960000  1.0 -0.1590820973
C  C688  1  0.55560000  0.33480000  0.88960000  1.0 -0.1590820973
C  C689  1  0.48880000  0.51340000  0.32774000  1.0 0.0919165916
C  C690  1  0.98660000  0.98880000  0.57774000  1.0 0.0919165916
C  C691  1  0.51120000  0.48660000  0.82774000  1.0 0.0919165916
C  C692  1  0.01340000  0.01120000  0.07774000  1.0 0.0919165916
C  C693  1  0.98880000  0.98660000  0.42226000  1.0 0.0919165916
C  C694  1  0.01120000  0.01340000  0.92226000  1.0 0.0919165916
C  C695  1  0.51340000  0.48880000  0.67226000  1.0 0.0919165916
C  C696  1  0.48660000  0.51120000  0.17226000  1.0 0.0919165916
C  C697  1  0.74290000  0.61050000  0.42500000  1.0 -0.1697285406
C  C698  1  0.88950000  0.24290000  0.67500000  1.0 -0.1697285406
C  C699  1  0.25710000  0.38950000  0.92500000  1.0 -0.1697285406
C  C700  1  0.11050000  0.75710000  0.17500000  1.0 -0.1697285406
C  C701  1  0.24290000  0.88950000  0.32500000  1.0 -0.1697285406
C  C702  1  0.75710000  0.11050000  0.82500000  1.0 -0.1697285406
C  C703  1  0.61050000  0.74290000  0.57500000  1.0 -0.1697285406
C  C704  1  0.38950000  0.25710000  0.07500000  1.0 -0.1697285406
C  C705  1  0.65850000  0.48920000  0.63500000  1.0 -0.1590820973
C  C706  1  0.01080000  0.15850000  0.88500000  1.0 -0.1590820973
C  C707  1  0.34150000  0.51080000  0.13500000  1.0 -0.1590820973
C  C708  1  0.98920000  0.84150000  0.38500000  1.0 -0.1590820973
C  C709  1  0.15850000  0.01080000  0.11500000  1.0 -0.1590820973
C  C710  1  0.84150000  0.98920000  0.61500000  1.0 -0.1590820973
C  C711  1  0.48920000  0.65850000  0.36500000  1.0 -0.1590820973
C  C712  1  0.51080000  0.34150000  0.86500000  1.0 -0.1590820973
C  C713  1  0.51940000  0.48930000  0.35256000  1.0 0.1996893701
C  C714  1  0.01070000  0.01940000  0.60256000  1.0 0.1996893701
C  C715  1  0.48060000  0.51070000  0.85256000  1.0 0.1996893701
C  C716  1  0.98930000  0.98060000  0.10256000  1.0 0.1996893701
C  C717  1  0.01940000  0.01070000  0.39744000  1.0 0.1996893701
C  C718  1  0.98060000  0.98930000  0.89744000  1.0 0.1996893701
C  C719  1  0.48930000  0.51940000  0.64744000  1.0 0.1996893701
C  C720  1  0.51070000  0.48060000  0.14744000  1.0 0.1996893701
C  C721  1  0.70900000  0.60710000  0.45310000  1.0 -0.1590820973
C  C722  1  0.89290000  0.20900000  0.70310000  1.0 -0.1590820973
C  C723  1  0.29100000  0.39290000  0.95310000  1.0 -0.1590820973
C  C724  1  0.10710000  0.79100000  0.20310000  1.0 -0.1590820973
C  C725  1  0.20900000  0.89290000  0.29690000  1.0 -0.1590820973
C  C726  1  0.79100000  0.10710000  0.79690000  1.0 -0.1590820973
C  C727  1  0.60710000  0.70900000  0.54690000  1.0 -0.1590820973
C  C728  1  0.39290000  0.29100000  0.04690000  1.0 -0.1590820973
C  C729  1  0.64190000  0.54690000  0.62420000  1.0 -0.1697285406
C  C730  1  0.95310000  0.14190000  0.87420000  1.0 -0.1697285406
C  C731  1  0.35810000  0.45310000  0.12420000  1.0 -0.1697285406
C  C732  1  0.04690000  0.85810000  0.37420000  1.0 -0.1697285406
C  C733  1  0.14190000  0.95310000  0.12580000  1.0 -0.1697285406
C  C734  1  0.85810000  0.04690000  0.62580000  1.0 -0.1697285406
C  C735  1  0.54690000  0.64190000  0.37580000  1.0 -0.1697285406
C  C736  1  0.45310000  0.35810000  0.87580000  1.0 -0.1697285406
C  C737  1  0.57710000  0.48050000  0.35158000  1.0 -0.2398693808
C  C738  1  0.01950000  0.07710000  0.60158000  1.0 -0.2398693808
C  C739  1  0.42290000  0.51950000  0.85158000  1.0 -0.2398693808
C  C740  1  0.98050000  0.92290000  0.10158000  1.0 -0.2398693808
C  C741  1  0.07710000  0.01950000  0.39842000  1.0 -0.2398693808
C  C742  1  0.92290000  0.98050000  0.89842000  1.0 -0.2398693808
C  C743  1  0.48050000  0.57710000  0.64842000  1.0 -0.2398693808
C  C744  1  0.51950000  0.42290000  0.14842000  1.0 -0.2398693808
C  C745  1  0.64560000  0.62440000  0.45180000  1.0 -0.1590820973
C  C746  1  0.87560000  0.14560000  0.70180000  1.0 -0.1590820973
C  C747  1  0.35440000  0.37560000  0.95180000  1.0 -0.1697285406
C  C748  1  0.12440000  0.85440000  0.20180000  1.0 -0.1697285406
C  C749  1  0.14560000  0.87560000  0.29820000  1.0 -0.1697285406
C  C750  1  0.85440000  0.12440000  0.79820000  1.0 -0.1697285406
C  C751  1  0.62440000  0.64560000  0.54820000  1.0 -0.1590820973
C  C752  1  0.37560000  0.35440000  0.04820000  1.0 -0.1697285406
C  C753  1  0.63540000  0.58900000  0.64730000  1.0 -0.1697285406
C  C754  1  0.91100000  0.13540000  0.89730000  1.0 -0.1697285406
C  C755  1  0.36460000  0.41100000  0.14730000  1.0 -0.1697285406
C  C756  1  0.08900000  0.86460000  0.39730000  1.0 -0.1697285406
C  C757  1  0.13540000  0.91100000  0.10270000  1.0 -0.1697285406
C  C758  1  0.86460000  0.08900000  0.60270000  1.0 -0.1697285406
C  C759  1  0.58900000  0.63540000  0.35270000  1.0 -0.1697285406
C  C760  1  0.41100000  0.36460000  0.85270000  1.0 -0.1697285406
C  C761  1  0.51500000  0.45710000  0.39859000  1.0 0.1934505922
C  C762  1  0.04290000  0.01500000  0.64859000  1.0 0.1934505922
C  C763  1  0.48500000  0.54290000  0.89859000  1.0 0.1934505922
C  C764  1  0.95710000  0.98500000  0.14859000  1.0 0.1934505922
C  C765  1  0.01500000  0.04290000  0.35141000  1.0 0.1934505922
C  C766  1  0.98500000  0.95710000  0.85141000  1.0 0.1934505922
C  C767  1  0.45710000  0.51500000  0.60141000  1.0 0.1934505922
C  C768  1  0.54290000  0.48500000  0.10141000  1.0 0.1934505922
C  C769  1  0.60500000  0.46060000  0.37550000  1.0 0.1289328515
C  C770  1  0.03940000  0.10500000  0.62550000  1.0 0.1289328515
C  C771  1  0.39500000  0.53940000  0.87550000  1.0 0.1289328515
C  C772  1  0.96060000  0.89500000  0.12550000  1.0 0.1289328515
C  C773  1  0.10500000  0.03940000  0.37450000  1.0 0.1289328515
C  C774  1  0.89500000  0.96060000  0.87450000  1.0 0.1289328515
C  C775  1  0.46060000  0.60500000  0.62450000  1.0 0.1289328515
C  C776  1  0.53940000  0.39500000  0.12450000  1.0 0.1289328515
C  C777  1  0.59530000  0.58410000  0.45680000  1.0 -0.1464638303
C  C778  1  0.91590000  0.09530000  0.70680000  1.0 -0.1464638303
C  C779  1  0.40470000  0.41590000  0.95680000  1.0 -0.1464638303
C  C780  1  0.08410000  0.90470000  0.20680000  1.0 -0.1464638303
C  C781  1  0.09530000  0.91590000  0.29320000  1.0 -0.1464638303
C  C782  1  0.90470000  0.08410000  0.79320000  1.0 -0.1464638303
C  C783  1  0.58410000  0.59530000  0.54320000  1.0 -0.1464638303
C  C784  1  0.41590000  0.40470000  0.04320000  1.0 -0.1464638303
C  C785  1  0.61710000  0.64510000  0.63820000  1.0 -0.1790478467
C  C786  1  0.85490000  0.11710000  0.88820000  1.0 -0.1790478467
C  C787  1  0.38290000  0.35490000  0.13820000  1.0 -0.1790478467
C  C788  1  0.14510000  0.88290000  0.38820000  1.0 -0.1790478467
C  C789  1  0.11710000  0.85490000  0.11180000  1.0 -0.1790478467
C  C790  1  0.88290000  0.14510000  0.61180000  1.0 -0.1790478467
C  C791  1  0.64510000  0.61710000  0.36180000  1.0 -0.1790478467
C  C792  1  0.35490000  0.38290000  0.86180000  1.0 -0.1790478467
C  C793  1  0.57180000  0.44850000  0.39933000  1.0 -0.2488401406
C  C794  1  0.05150000  0.07180000  0.64933000  1.0 -0.2488401406
C  C795  1  0.42820000  0.55150000  0.89933000  1.0 -0.2488401406
C  C796  1  0.94850000  0.92820000  0.14933000  1.0 -0.2488401406
C  C797  1  0.07180000  0.05150000  0.35067000  1.0 -0.2488401406
C  C798  1  0.92820000  0.94850000  0.85067000  1.0 -0.2488401406
C  C799  1  0.44850000  0.57180000  0.60067000  1.0 -0.2488401406
C  C800  1  0.55150000  0.42820000  0.10067000  1.0 -0.2488401406
C  C801  1  0.47820000  0.44330000  0.42318000  1.0 0.0919165916
C  C802  1  0.05670000  0.97820000  0.67318000  1.0 0.0919165916
C  C803  1  0.52180000  0.55670000  0.92318000  1.0 0.0919165916
C  C804  1  0.94330000  0.02180000  0.17318000  1.0 0.0919165916
C  C805  1  0.97820000  0.05670000  0.32682000  1.0 0.0919165916
C  C806  1  0.02180000  0.94330000  0.82682000  1.0 0.0919165916
C  C807  1  0.44330000  0.47820000  0.57682000  1.0 0.0919165916
C  C808  1  0.55670000  0.52180000  0.07682000  1.0 0.0919165916
C  C809  1  0.66580000  0.44950000  0.37547000  1.0 0.0307407246
C  C810  1  0.05050000  0.16580000  0.62547000  1.0 0.0307407246
C  C811  1  0.33420000  0.55050000  0.87547000  1.0 0.0307407246
C  C812  1  0.94950000  0.83420000  0.12547000  1.0 0.0307407246
C  C813  1  0.16580000  0.05050000  0.37453000  1.0 0.0307407246
C  C814  1  0.83420000  0.94950000  0.87453000  1.0 0.0307407246
C  C815  1  0.44950000  0.66580000  0.62453000  1.0 0.0307407246
C  C816  1  0.55050000  0.33420000  0.12453000  1.0 0.0307407246
C  C817  1  0.53660000  0.55250000  0.45850000  1.0 -0.1009509995
C  C818  1  0.94750000  0.03660000  0.70850000  1.0 -0.1009509995
C  C819  1  0.46340000  0.44750000  0.95850000  1.0 -0.1009509995
C  C820  1  0.05250000  0.96340000  0.20850000  1.0 -0.1009509995
C  C821  1  0.03660000  0.94750000  0.29150000  1.0 -0.1009509995
C  C822  1  0.96340000  0.05250000  0.79150000  1.0 -0.1009509995
C  C823  1  0.55250000  0.53660000  0.54150000  1.0 -0.1009509995
C  C824  1  0.44750000  0.46340000  0.04150000  1.0 -0.1009509995
C  C825  1  0.59620000  0.68140000  0.66430000  1.0 -0.1009509995
C  C826  1  0.81860000  0.09620000  0.91430000  1.0 -0.1009509995
C  C827  1  0.40380000  0.31860000  0.16430000  1.0 -0.1009509995
C  C828  1  0.18140000  0.90380000  0.41430000  1.0 -0.1009509995
C  C829  1  0.09620000  0.81860000  0.08570000  1.0 -0.1009509995
C  C830  1  0.90380000  0.18140000  0.58570000  1.0 -0.1009509995
C  C831  1  0.68140000  0.59620000  0.33570000  1.0 -0.1009509995
C  C832  1  0.31860000  0.40380000  0.83570000  1.0 -0.1009509995
C  C833  1  0.50080000  0.42250000  0.44848000  1.0 -0.189514137
C  C834  1  0.07750000  0.00080000  0.69848000  1.0 -0.189514137
C  C835  1  0.49920000  0.57750000  0.94848000  1.0 -0.1980436667
C  C836  1  0.92250000  0.99920000  0.19848000  1.0 -0.189514137
C  C837  1  0.00080000  0.07750000  0.30152000  1.0 -0.1980436667
C  C838  1  0.99920000  0.92250000  0.80152000  1.0 -0.189514137
C  C839  1  0.42250000  0.50080000  0.55152000  1.0 -0.189514137
C  C840  1  0.57750000  0.49920000  0.05152000  1.0 -0.189514137
C  C841  1  0.42080000  0.44850000  0.42184000  1.0 -0.1790478467
C  C842  1  0.05150000  0.92080000  0.67184000  1.0 -0.1790478467
C  C843  1  0.57920000  0.55150000  0.92184000  1.0 -0.1790478467
C  C844  1  0.94850000  0.07920000  0.17184000  1.0 -0.1697285406
C  C845  1  0.92080000  0.05150000  0.32816000  1.0 -0.1790478467
C  C846  1  0.07920000  0.94850000  0.82816000  1.0 -0.1790478467
C  C847  1  0.44850000  0.42080000  0.57816000  1.0 -0.1790478467
C  C848  1  0.55150000  0.57920000  0.07816000  1.0 -0.1790478467
C  C849  1  0.69350000  0.43240000  0.35138000  1.0 -0.1184869176
C  C850  1  0.06760000  0.19350000  0.60138000  1.0 -0.1184869176
C  C851  1  0.30650000  0.56760000  0.85138000  1.0 -0.1184869176
C  C852  1  0.93240000  0.80650000  0.10138000  1.0 -0.1184869176
C  C853  1  0.19350000  0.06760000  0.39862000  1.0 -0.1184869176
C  C854  1  0.80650000  0.93240000  0.89862000  1.0 -0.1184869176
C  C855  1  0.43240000  0.69350000  0.64862000  1.0 -0.1184869176
C  C856  1  0.56760000  0.30650000  0.14862000  1.0 -0.1184869176
C  C857  1  0.69740000  0.45750000  0.40043000  1.0 -0.1184869176
C  C858  1  0.04250000  0.19740000  0.65043000  1.0 -0.1184869176
C  C859  1  0.30260000  0.54250000  0.90043000  1.0 -0.1184869176
C  C860  1  0.95750000  0.80260000  0.15043000  1.0 -0.1184869176
C  C861  1  0.19740000  0.04250000  0.34957000  1.0 -0.1184869176
C  C862  1  0.80260000  0.95750000  0.84957000  1.0 -0.1184869176
C  C863  1  0.45750000  0.69740000  0.59957000  1.0 -0.1184869176
C  C864  1  0.54250000  0.30260000  0.09957000  1.0 -0.1184869176
C  C865  1  0.48160000  0.55660000  0.47670000  1.0 -0.390314557
C  C866  1  0.94340000  0.98160000  0.72670000  1.0 -0.390314557
C  C867  1  0.51840000  0.44340000  0.97670000  1.0 -0.390314557
C  C868  1  0.05660000  0.01840000  0.22670000  1.0 -0.390314557
C  C869  1  0.98160000  0.94340000  0.27330000  1.0 -0.390314557
C  C870  1  0.01840000  0.05660000  0.77330000  1.0 -0.390314557
C  C871  1  0.55660000  0.48160000  0.52330000  1.0 -0.390314557
C  C872  1  0.44340000  0.51840000  0.02330000  1.0 -0.390314557
C  C873  1  0.58050000  0.74290000  0.65500000  1.0 -0.390314557
C  C874  1  0.75710000  0.08050000  0.90500000  1.0 -0.390314557
C  C875  1  0.41950000  0.25710000  0.15500000  1.0 -0.390314557
C  C876  1  0.24290000  0.91950000  0.40500000  1.0 -0.390314557
C  C877  1  0.08050000  0.75710000  0.09500000  1.0 -0.390314557
C  C878  1  0.91950000  0.24290000  0.59500000  1.0 -0.390314557
C  C879  1  0.74290000  0.58050000  0.34500000  1.0 -0.390314557
C  C880  1  0.25710000  0.41950000  0.84500000  1.0 -0.390314557
C  C881  1  0.46510000  0.40500000  0.47009000  1.0 0.0919165916
C  C882  1  0.09500000  0.96510000  0.72009000  1.0 0.0919165916
C  C883  1  0.53490000  0.59500000  0.97009000  1.0 0.0919165916
C  C884  1  0.90500000  0.03490000  0.22009000  1.0 0.0919165916
C  C885  1  0.96510000  0.09500000  0.27991000  1.0 0.0919165916
C  C886  1  0.03490000  0.90500000  0.77991000  1.0 0.0919165916
C  C887  1  0.40500000  0.46510000  0.52991000  1.0 0.0919165916
C  C888  1  0.59500000  0.53490000  0.02991000  1.0 0.0919165916
C  C889  1  0.38870000  0.42910000  0.44486000  1.0 0.0612852674
C  C890  1  0.07090000  0.88870000  0.69486000  1.0 0.0612852674
C  C891  1  0.61130000  0.57090000  0.94486000  1.0 0.0612852674
C  C892  1  0.92910000  0.11130000  0.19486000  1.0 0.0612852674
C  C893  1  0.88870000  0.07090000  0.30514000  1.0 0.0612852674
C  C894  1  0.11130000  0.92910000  0.80514000  1.0 0.0612852674
C  C895  1  0.42910000  0.38870000  0.55514000  1.0 0.0612852674
C  C896  1  0.57090000  0.61130000  0.05514000  1.0 0.0612852674
C  C897  1  0.75160000  0.42190000  0.35111000  1.0 -0.2398693808
C  C898  1  0.07810000  0.25160000  0.60111000  1.0 -0.2398693808
C  C899  1  0.24840000  0.57810000  0.85111000  1.0 -0.2398693808
C  C900  1  0.92190000  0.74840000  0.10111000  1.0 -0.2398693808
C  C901  1  0.25160000  0.07810000  0.39889000  1.0 -0.2398693808
C  C902  1  0.74840000  0.92190000  0.89889000  1.0 -0.2398693808
C  C903  1  0.42190000  0.75160000  0.64889000  1.0 -0.2398693808
C  C904  1  0.57810000  0.24840000  0.14889000  1.0 -0.2398693808
C  C905  1  0.75490000  0.44810000  0.40082000  1.0 -0.2228507384
C  C906  1  0.05190000  0.25490000  0.65082000  1.0 -0.2228507384
C  C907  1  0.24510000  0.55190000  0.90082000  1.0 -0.2228507384
C  C908  1  0.94810000  0.74510000  0.15082000  1.0 -0.2228507384
C  C909  1  0.25490000  0.05190000  0.34918000  1.0 -0.2228507384
C  C910  1  0.74510000  0.94810000  0.84918000  1.0 -0.2228507384
C  C911  1  0.44810000  0.75490000  0.59918000  1.0 -0.2228507384
C  C912  1  0.55190000  0.24510000  0.09918000  1.0 -0.2228507384
C  C913  1  0.78230000  0.43040000  0.37623000  1.0 0.2503069562
C  C914  1  0.06960000  0.28230000  0.62623000  1.0 0.2503069562
C  C915  1  0.21770000  0.56960000  0.87623000  1.0 0.2503069562
C  C916  1  0.93040000  0.71770000  0.12623000  1.0 0.2503069562
C  C917  1  0.28230000  0.06960000  0.37377000  1.0 0.2503069562
C  C918  1  0.71770000  0.93040000  0.87377000  1.0 0.2503069562
C  C919  1  0.43040000  0.78230000  0.62377000  1.0 0.2503069562
C  C920  1  0.56960000  0.21770000  0.12377000  1.0 0.2503069562
C  C921  1  0.86650000  0.40210000  0.35540000  1.0 -0.0215969945
C  C922  1  0.09790000  0.36650000  0.60540000  1.0 -0.0215969945
C  C923  1  0.13350000  0.59790000  0.85540000  1.0 -0.0215969945
C  C924  1  0.90210000  0.63350000  0.10540000  1.0 -0.0215969945
C  C925  1  0.36650000  0.09790000  0.39460000  1.0 -0.0215969945
C  C926  1  0.63350000  0.90210000  0.89460000  1.0 -0.0215969945
C  C927  1  0.40210000  0.86650000  0.64460000  1.0 -0.0215969945
C  C928  1  0.59790000  0.13350000  0.14460000  1.0 -0.0215969945
C  C929  1  0.92700000  0.38870000  0.36430000  1.0 -0.2124672113
C  C930  1  0.11130000  0.42700000  0.61430000  1.0 -0.2124672113
C  C931  1  0.07300000  0.61130000  0.86430000  1.0 -0.2124672113
C  C932  1  0.88870000  0.57300000  0.11430000  1.0 -0.2124672113
C  C933  1  0.42700000  0.11130000  0.38570000  1.0 -0.2124672113
C  C934  1  0.57300000  0.88870000  0.88570000  1.0 -0.2124672113
C  C935  1  0.38870000  0.92700000  0.63570000  1.0 -0.2124672113
C  C936  1  0.61130000  0.07300000  0.13570000  1.0 -0.2124672113
C  C937  1  0.96220000  0.37230000  0.33840000  1.0 -0.1590820973
C  C938  1  0.12770000  0.46220000  0.58840000  1.0 -0.1590820973
C  C939  1  0.03780000  0.62770000  0.83840000  1.0 -0.1590820973
C  C940  1  0.87230000  0.53780000  0.08840000  1.0 -0.1590820973
C  C941  1  0.46220000  0.12770000  0.41160000  1.0 -0.1590820973
C  C942  1  0.53780000  0.87230000  0.91160000  1.0 -0.1590820973
C  C943  1  0.37230000  0.96220000  0.66160000  1.0 -0.1590820973
C  C944  1  0.62770000  0.03780000  0.16160000  1.0 -0.1590820973
C  C945  1  0.01870000  0.35230000  0.34380000  1.0 -0.1697285406
C  C946  1  0.14770000  0.51870000  0.59380000  1.0 -0.1697285406
C  C947  1  0.98130000  0.64770000  0.84380000  1.0 -0.1697285406
C  C948  1  0.85230000  0.48130000  0.09380000  1.0 -0.1697285406
C  C949  1  0.51870000  0.14770000  0.40620000  1.0 -0.1697285406
C  C950  1  0.48130000  0.85230000  0.90620000  1.0 -0.1697285406
C  C951  1  0.35230000  0.01870000  0.65620000  1.0 -0.1697285406
C  C952  1  0.64770000  0.98130000  0.15620000  1.0 -0.1697285406
C  C953  1  0.05990000  0.38490000  0.36180000  1.0 -0.1697285406
C  C954  1  0.11510000  0.55990000  0.61180000  1.0 -0.1697285406
C  C955  1  0.94010000  0.61510000  0.86180000  1.0 -0.1697285406
C  C956  1  0.88490000  0.44010000  0.11180000  1.0 -0.1697285406
C  C957  1  0.55990000  0.11510000  0.38820000  1.0 -0.1697285406
C  C958  1  0.44010000  0.88490000  0.88820000  1.0 -0.1697285406
C  C959  1  0.38490000  0.05990000  0.63820000  1.0 -0.1697285406
C  C960  1  0.61510000  0.94010000  0.13820000  1.0 -0.1697285406
C  C961  1  0.11110000  0.35690000  0.36760000  1.0 -0.1790478467
C  C962  1  0.14310000  0.61110000  0.61760000  1.0 -0.1790478467
C  C963  1  0.88890000  0.64310000  0.86760000  1.0 -0.1790478467
C  C964  1  0.85690000  0.38890000  0.11760000  1.0 -0.1790478467
C  C965  1  0.61110000  0.14310000  0.38240000  1.0 -0.1790478467
C  C966  1  0.38890000  0.85690000  0.88240000  1.0 -0.1790478467
C  C967  1  0.35690000  0.11110000  0.63240000  1.0 -0.1790478467
C  C968  1  0.64310000  0.88890000  0.13240000  1.0 -0.1790478467
C  C969  1  0.16250000  0.38440000  0.38050000  1.0 -0.1790478467
C  C970  1  0.11560000  0.66250000  0.63050000  1.0 -0.1790478467
C  C971  1  0.83750000  0.61560000  0.88050000  1.0 -0.1790478467
C  C972  1  0.88440000  0.33750000  0.13050000  1.0 -0.1790478467
C  C973  1  0.66250000  0.11560000  0.36950000  1.0 -0.1790478467
C  C974  1  0.33750000  0.88440000  0.86950000  1.0 -0.1790478467
C  C975  1  0.38440000  0.16250000  0.61950000  1.0 -0.1790478467
C  C976  1  0.61560000  0.83750000  0.11950000  1.0 -0.1790478467
C  C977  1  0.15790000  0.39490000  0.41210000  1.0 -0.1100794937
C  C978  1  0.10510000  0.65790000  0.66210000  1.0 -0.1100794937
C  C979  1  0.84210000  0.60510000  0.91210000  1.0 -0.1100794937
C  C980  1  0.89490000  0.34210000  0.16210000  1.0 -0.1100794937
C  C981  1  0.65790000  0.10510000  0.33790000  1.0 -0.1100794937
C  C982  1  0.34210000  0.89490000  0.83790000  1.0 -0.1100794937
C  C983  1  0.39490000  0.15790000  0.58790000  1.0 -0.1100794937
C  C984  1  0.60510000  0.84210000  0.08790000  1.0 -0.1100794937
C  C985  1  0.21580000  0.41910000  0.42050000  1.0 -0.390314557
C  C986  1  0.08090000  0.71580000  0.67050000  1.0 -0.390314557
C  C987  1  0.78420000  0.58090000  0.92050000  1.0 -0.390314557
C  C988  1  0.91910000  0.28420000  0.17050000  1.0 -0.390314557
C  C989  1  0.71580000  0.08090000  0.32950000  1.0 -0.390314557
C  C990  1  0.28420000  0.91910000  0.82950000  1.0 -0.390314557
C  C991  1  0.41910000  0.21580000  0.57950000  1.0 -0.390314557
C  C992  1  0.58090000  0.78420000  0.07950000  1.0 -0.390314557
S  S1  1  0.98290000  0.74870000  0.76440000  1.0 -0.4160215237
S  S2  1  0.75130000  0.48290000  0.01440000  1.0 -0.4160215237
S  S3  1  0.01710000  0.25130000  0.26440000  1.0 -0.4160215237
S  S4  1  0.24870000  0.51710000  0.51440000  1.0 -0.4160215237
S  S5  1  0.48290000  0.75130000  0.98560000  1.0 -0.4160215237
S  S6  1  0.51710000  0.24870000  0.48560000  1.0 -0.4160215237
S  S7  1  0.74870000  0.98290000  0.23560000  1.0 -0.4160215237
S  S8  1  0.25130000  0.01710000  0.73560000  1.0 -0.4160215237
S  S9  1  0.51630000  0.74100000  0.47013000  1.0 -0.4508253898
S  S10  1  0.75900000  0.01630000  0.72013000  1.0 -0.4508253898
S  S11  1  0.48370000  0.25900000  0.97013000  1.0 -0.4508253898
S  S12  1  0.24100000  0.98370000  0.22013000  1.0 -0.4508253898
S  S13  1  0.01630000  0.75900000  0.27987000  1.0 -0.4508253898
S  S14  1  0.98370000  0.24100000  0.77987000  1.0 -0.4508253898
S  S15  1  0.74100000  0.51630000  0.52987000  1.0 -0.4508253898
S  S16  1  0.25900000  0.48370000  0.02987000  1.0 -0.4508253898
S  S17  1  0.23797000  0.01601000  0.47515000  1.0 -0.408603429
S  S18  1  0.48399000  0.73797000  0.72515000  1.0 -0.408603429
S  S19  1  0.76203000  0.98399000  0.97515000  1.0 -0.4160215237
S  S20  1  0.51601000  0.26203000  0.22515000  1.0 -0.408603429
S  S21  1  0.73797000  0.48399000  0.27485000  1.0 -0.408603429
S  S22  1  0.26203000  0.51601000  0.77485000  1.0 -0.408603429
S  S23  1  0.01601000  0.23797000  0.52485000  1.0 -0.408603429
S  S24  1  0.98399000  0.76203000  0.02485000  1.0 -0.408603429
S  S25  1  0.52852000  0.74290000  0.27943000  1.0 -0.438674778
S  S26  1  0.75710000  0.02852000  0.52943000  1.0 -0.438674778
S  S27  1  0.47148000  0.25710000  0.77943000  1.0 -0.438674778
S  S28  1  0.24290000  0.97148000  0.02943000  1.0 -0.438674778
S  S29  1  0.02852000  0.75710000  0.47057000  1.0 -0.438674778
S  S30  1  0.97148000  0.24290000  0.97057000  1.0 -0.438674778
S  S31  1  0.74290000  0.52852000  0.72057000  1.0 -0.438674778
S  S32  1  0.25710000  0.47148000  0.22057000  1.0 -0.438674778
N  N1  1  0.18450000  0.81840000  0.71729000  1.0 -0.2321090461
N  N2  1  0.68160000  0.68450000  0.96729000  1.0 -0.2321090461
N  N3  1  0.81550000  0.18160000  0.21729000  1.0 -0.2321090461
N  N4  1  0.31840000  0.31550000  0.46729000  1.0 -0.2321090461
N  N5  1  0.68450000  0.68160000  0.03271000  1.0 -0.2321090461
N  N6  1  0.31550000  0.31840000  0.53271000  1.0 -0.2321090461
N  N7  1  0.81840000  0.18450000  0.28271000  1.0 -0.2321090461
N  N8  1  0.18160000  0.81550000  0.78271000  1.0 -0.2321090461
N  N9  1  0.07700000  0.80000000  0.74844000  1.0 -0.4641290757
N  N10  1  0.70000000  0.57700000  0.99844000  1.0 -0.4641290757
N  N11  1  0.92300000  0.20000000  0.24844000  1.0 -0.4641290757
N  N12  1  0.30000000  0.42300000  0.49844000  1.0 -0.4641290757
N  N13  1  0.57700000  0.70000000  0.00156000  1.0 -0.4641290757
N  N14  1  0.42300000  0.30000000  0.50156000  1.0 -0.4641290757
N  N15  1  0.80000000  0.07700000  0.25156000  1.0 -0.4641290757
N  N16  1  0.20000000  0.92300000  0.75156000  1.0 -0.4641290757
N  N17  1  0.09500000  0.91100000  0.71789000  1.0 -0.2321090461
N  N18  1  0.58900000  0.59500000  0.96789000  1.0 -0.2321090461
N  N19  1  0.90500000  0.08900000  0.21789000  1.0 -0.2321090461
N  N20  1  0.41100000  0.40500000  0.46789000  1.0 -0.2321090461
N  N21  1  0.59500000  0.58900000  0.03211000  1.0 -0.2321090461
N  N22  1  0.40500000  0.41100000  0.53211000  1.0 -0.2321090461
N  N23  1  0.91100000  0.09500000  0.28211000  1.0 -0.2321090461
N  N24  1  0.08900000  0.90500000  0.78211000  1.0 -0.2321090461
N  N25  1  0.27520000  0.76080000  0.62513000  1.0 -0.3481793332
N  N26  1  0.73920000  0.77520000  0.87513000  1.0 -0.3481793332
N  N27  1  0.72480000  0.23920000  0.12513000  1.0 -0.3481793332
N  N28  1  0.26080000  0.22480000  0.37513000  1.0 -0.3481793332
N  N29  1  0.77520000  0.73920000  0.12487000  1.0 -0.3481793332
N  N30  1  0.22480000  0.26080000  0.62487000  1.0 -0.3481793332
N  N31  1  0.76080000  0.27520000  0.37487000  1.0 -0.3481793332
N  N32  1  0.23920000  0.72480000  0.87487000  1.0 -0.3481793332
N  N33  1  0.34090000  0.83550000  0.52978000  1.0 -0.2398693808
N  N34  1  0.66450000  0.84090000  0.77978000  1.0 -0.2398693808
N  N35  1  0.65910000  0.16450000  0.02978000  1.0 -0.2321090461
N  N36  1  0.33550000  0.15910000  0.27978000  1.0 -0.2321090461
N  N37  1  0.84090000  0.66450000  0.22022000  1.0 -0.2321090461
N  N38  1  0.15910000  0.33550000  0.72022000  1.0 -0.2321090461
N  N39  1  0.83550000  0.34090000  0.47022000  1.0 -0.2321090461
N  N40  1  0.16450000  0.65910000  0.97022000  1.0 -0.2398693808
N  N41  1  0.33581000  0.82876000  0.46492000  1.0 -0.2398693808
N  N42  1  0.67124000  0.83581000  0.71492000  1.0 -0.2398693808
N  N43  1  0.66419000  0.17124000  0.96492000  1.0 -0.2398693808
N  N44  1  0.32876000  0.16419000  0.21492000  1.0 -0.2398693808
N  N45  1  0.83581000  0.67124000  0.28508000  1.0 -0.2398693808
N  N46  1  0.16419000  0.32876000  0.78508000  1.0 -0.2398693808
N  N47  1  0.82876000  0.33581000  0.53508000  1.0 -0.2398693808
N  N48  1  0.17124000  0.66419000  0.03508000  1.0 -0.2398693808
N  N49  1  0.44430000  0.81770000  0.49592000  1.0 -0.5014963339
N  N50  1  0.68230000  0.94430000  0.74592000  1.0 -0.5014963339
N  N51  1  0.55570000  0.18230000  0.99592000  1.0 -0.5014963339
N  N52  1  0.31770000  0.05570000  0.24592000  1.0 -0.5014963339
N  N53  1  0.94430000  0.68230000  0.25408000  1.0 -0.5014963339
N  N54  1  0.05570000  0.31770000  0.75408000  1.0 -0.5014963339
N  N55  1  0.81770000  0.44430000  0.50408000  1.0 -0.5014963339
N  N56  1  0.18230000  0.55570000  0.00408000  1.0 -0.5014963339
N  N57  1  0.42850000  0.92940000  0.52607000  1.0 -0.2321090461
N  N58  1  0.57060000  0.92850000  0.77607000  1.0 -0.2321090461
N  N59  1  0.57150000  0.07060000  0.02607000  1.0 -0.2321090461
N  N60  1  0.42940000  0.07150000  0.27607000  1.0 -0.2321090461
N  N61  1  0.92850000  0.57060000  0.22393000  1.0 -0.2321090461
N  N62  1  0.07150000  0.42940000  0.72393000  1.0 -0.2321090461
N  N63  1  0.92940000  0.42850000  0.47393000  1.0 -0.2321090461
N  N64  1  0.07060000  0.57150000  0.97393000  1.0 -0.2321090461
N  N65  1  0.32090000  0.94090000  0.49248000  1.0 -0.5014963339
N  N66  1  0.55910000  0.82090000  0.74248000  1.0 -0.5014963339
N  N67  1  0.67910000  0.05910000  0.99248000  1.0 -0.5014963339
N  N68  1  0.44090000  0.17910000  0.24248000  1.0 -0.5014963339
N  N69  1  0.82090000  0.55910000  0.25752000  1.0 -0.5014963339
N  N70  1  0.17910000  0.44090000  0.75752000  1.0 -0.5014963339
N  N71  1  0.94090000  0.32090000  0.50752000  1.0 -0.5014963339
N  N72  1  0.05910000  0.67910000  0.00752000  1.0 -0.5014963339
N  N73  1  0.42740000  0.92020000  0.46100000  1.0 -0.2321090461
N  N74  1  0.57980000  0.92740000  0.71100000  1.0 -0.2321090461
N  N75  1  0.57260000  0.07980000  0.96100000  1.0 -0.2321090461
N  N76  1  0.42020000  0.07260000  0.21100000  1.0 -0.2321090461
N  N77  1  0.92740000  0.57980000  0.28900000  1.0 -0.2321090461
N  N78  1  0.07260000  0.42020000  0.78900000  1.0 -0.2321090461
N  N79  1  0.92020000  0.42740000  0.53900000  1.0 -0.2321090461
N  N80  1  0.07980000  0.57260000  0.03900000  1.0 -0.2321090461
N  N81  1  0.26970000  0.72960000  0.37660000  1.0 -0.3304352652
N  N82  1  0.77040000  0.76970000  0.62660000  1.0 -0.3304352652
N  N83  1  0.73030000  0.27040000  0.87660000  1.0 -0.3304352652
N  N84  1  0.22960000  0.23030000  0.12660000  1.0 -0.3304352652
N  N85  1  0.76970000  0.77040000  0.37340000  1.0 -0.3304352652
N  N86  1  0.23030000  0.22960000  0.87340000  1.0 -0.3304352652
N  N87  1  0.72960000  0.26970000  0.62340000  1.0 -0.3304352652
N  N88  1  0.27040000  0.73030000  0.12340000  1.0 -0.3304352652
N  N89  1  0.52085000  0.99690000  0.61473000  1.0 -0.3304352652
N  N90  1  0.50310000  0.02085000  0.86473000  1.0 -0.3304352652
N  N91  1  0.47915000  0.00310000  0.11473000  1.0 -0.3304352652
N  N92  1  0.49690000  0.97915000  0.36473000  1.0 -0.3304352652
N  N93  1  0.02085000  0.50310000  0.13527000  1.0 -0.3304352652
N  N94  1  0.97915000  0.49690000  0.63527000  1.0 -0.3304352652
N  N95  1  0.99690000  0.52085000  0.38527000  1.0 -0.3304352652
N  N96  1  0.00310000  0.47915000  0.88527000  1.0 -0.3304352652
N  N97  1  0.34060000  0.65650000  0.28248000  1.0 -0.2321090461
N  N98  1  0.84350000  0.84060000  0.53248000  1.0 -0.2321090461
N  N99  1  0.65940000  0.34350000  0.78248000  1.0 -0.2321090461
N  N100  1  0.15650000  0.15940000  0.03248000  1.0 -0.2321090461
N  N101  1  0.84060000  0.84350000  0.46752000  1.0 -0.2321090461
N  N102  1  0.15940000  0.15650000  0.96752000  1.0 -0.2321090461
N  N103  1  0.65650000  0.34060000  0.71752000  1.0 -0.2321090461
N  N104  1  0.34350000  0.65940000  0.21752000  1.0 -0.2321090461
N  N105  1  0.42960000  0.56500000  0.28290000  1.0 -0.2321090461
N  N106  1  0.93500000  0.92960000  0.53290000  1.0 -0.2321090461
N  N107  1  0.57040000  0.43500000  0.78290000  1.0 -0.2321090461
N  N108  1  0.06500000  0.07040000  0.03290000  1.0 -0.2321090461
N  N109  1  0.92960000  0.93500000  0.46710000  1.0 -0.2321090461
N  N110  1  0.07040000  0.06500000  0.96710000  1.0 -0.2321090461
N  N111  1  0.56500000  0.42960000  0.71710000  1.0 -0.2321090461
N  N112  1  0.43500000  0.57040000  0.21710000  1.0 -0.2321090461
N  N113  1  0.45030000  0.67340000  0.25257000  1.0 -0.5014963339
N  N114  1  0.82660000  0.95030000  0.50257000  1.0 -0.5014963339
N  N115  1  0.54970000  0.32660000  0.75257000  1.0 -0.5014963339
N  N116  1  0.17340000  0.04970000  0.00257000  1.0 -0.5014963339
N  N117  1  0.95030000  0.82660000  0.49743000  1.0 -0.5014963339
N  N118  1  0.04970000  0.17340000  0.99743000  1.0 -0.5014963339
N  N119  1  0.67340000  0.45030000  0.74743000  1.0 -0.5014963339
N  N120  1  0.32660000  0.54970000  0.24743000  1.0 -0.5014963339
N  N121  1  0.48870000  0.47780000  0.37548000  1.0 -0.3304352652
N  N122  1  0.02220000  0.98870000  0.62548000  1.0 -0.3304352652
N  N123  1  0.51130000  0.52220000  0.87548000  1.0 -0.3304352652
N  N124  1  0.97780000  0.01130000  0.12548000  1.0 -0.3304352652
N  N125  1  0.98870000  0.02220000  0.37452000  1.0 -0.3304352652
N  N126  1  0.01130000  0.97780000  0.87452000  1.0 -0.3304352652
N  N127  1  0.47780000  0.48870000  0.62452000  1.0 -0.3304352652
N  N128  1  0.52220000  0.51130000  0.12452000  1.0 -0.3304352652
O  O1  1  0.33680000  0.41273000  0.62167000  1.0 -0.189514137
O  O2  1  0.08727000  0.83680000  0.87167000  1.0 -0.189514137
O  O3  1  0.66320000  0.58727000  0.12167000  1.0 -0.189514137
O  O4  1  0.91273000  0.16320000  0.37167000  1.0 -0.189514137
O  O5  1  0.83680000  0.08727000  0.12833000  1.0 -0.189514137
O  O6  1  0.16320000  0.91273000  0.62833000  1.0 -0.189514137
O  O7  1  0.41273000  0.33680000  0.37833000  1.0 -0.189514137
O  O8  1  0.58727000  0.66320000  0.87833000  1.0 -0.189514137
O  O9  1  0.92300000  0.66490000  0.38511000  1.0 -0.1790478467
O  O10  1  0.83510000  0.42300000  0.63511000  1.0 -0.1790478467
O  O11  1  0.07700000  0.33510000  0.88511000  1.0 -0.1790478467
O  O12  1  0.16490000  0.57700000  0.13511000  1.0 -0.1790478467
O  O13  1  0.42300000  0.83510000  0.36489000  1.0 -0.1790478467
O  O14  1  0.57700000  0.16490000  0.86489000  1.0 -0.1790478467
O  O15  1  0.66490000  0.92300000  0.61489000  1.0 -0.1790478467
O  O16  1  0.33510000  0.07700000  0.11489000  1.0 -0.1790478467
O  O17  1  0.58670000  0.34390000  0.61037000  1.0 -0.1790478467
O  O18  1  0.15610000  0.08670000  0.86037000  1.0 -0.1790478467
O  O19  1  0.41330000  0.65610000  0.11037000  1.0 -0.1790478467
O  O20  1  0.84390000  0.91330000  0.36037000  1.0 -0.1790478467
O  O21  1  0.08670000  0.15610000  0.13963000  1.0 -0.1790478467
O  O22  1  0.91330000  0.84390000  0.63963000  1.0 -0.1790478467
O  O23  1  0.34390000  0.58670000  0.38963000  1.0 -0.1790478467
O  O24  1  0.65610000  0.41330000  0.88963000  1.0 -0.1790478467
O  O25  1  0.83810000  0.42180000  0.37917000  1.0 -0.1697285406
O  O26  1  0.07820000  0.33810000  0.62917000  1.0 -0.1697285406
O  O27  1  0.16190000  0.57820000  0.87917000  1.0 -0.1697285406
O  O28  1  0.92180000  0.66190000  0.12917000  1.0 -0.1697285406
O  O29  1  0.33810000  0.07820000  0.37083000  1.0 -0.1697285406
O  O30  1  0.66190000  0.92180000  0.87083000  1.0 -0.1697285406
O  O31  1  0.42180000  0.83810000  0.62083000  1.0 -0.1697285406
O  O32  1  0.57820000  0.16190000  0.12083000  1.0 -0.1697285406
