# DDEC6 charges by PACMAN v1.1 (https://github.com/mtap-research/PACMAN-charge/)
data_EMIGAJ_ASR_pacman
_symmetry_space_group_name_H-M   'P 1'
_cell_length_a   42.31400000
_cell_length_b   42.31400000
_cell_length_c   25.59070000
_cell_angle_alpha   89.31540000
_cell_angle_beta   90.68460000
_cell_angle_gamma   72.41470000
_symmetry_Int_Tables_number   1
_chemical_formula_structural   In20H17C15(S4N)8
_chemical_formula_sum   'In160 H136 C120 S256 N64'
_cell_volume   43669.33529200
_cell_formula_units_Z   8
loop_
 _symmetry_equiv_pos_site_id
 _symmetry_equiv_pos_as_xyz
  1  'x, y, z'
loop_
 _atom_site_type_symbol
 _atom_site_label
 _atom_site_symmetry_multiplicity
 _atom_site_fract_x
 _atom_site_fract_y
 _atom_site_fract_z
 _atom_site_occupancy
 _atom_site_charge
In  In1  1  0.90894000  0.86054000  0.54518000  1.0 0.8896767268
In  In2  1  0.13946000  0.09106000  0.04518000  1.0 0.8817561933
In  In3  1  0.98630000  0.78832000  0.55024000  1.0 0.9310687154
In  In4  1  0.21168000  0.01370000  0.05024000  1.0 0.9310687154
In  In5  1  0.89724000  0.78288000  0.60316000  1.0 0.9588858213
In  In6  1  0.21712000  0.10276000  0.10316000  1.0 0.9498121099
In  In7  1  0.90967000  0.79515000  0.44707000  1.0 0.9588858213
In  In8  1  0.20485000  0.09033000  0.94707000  1.0 0.9498121099
In  In9  1  0.05678000  0.70964000  0.55147000  1.0 0.8388465658
In  In10  1  0.29036000  0.94322000  0.05147000  1.0 0.8388465658
In  In11  1  0.97828000  0.70024000  0.60695000  1.0 0.9310687154
In  In12  1  0.29976000  0.02172000  0.10695000  1.0 0.9206605159
In  In13  1  0.89386000  0.69924000  0.64881000  1.0 0.8128428627
In  In14  1  0.30076000  0.10614000  0.14881000  1.0 0.8128428627
In  In15  1  0.99082000  0.71220000  0.45100000  1.0 0.9310687154
In  In16  1  0.28780000  0.00918000  0.95100000  1.0 0.9206605159
In  In17  1  0.90101000  0.70733000  0.50406000  1.0 0.9498121099
In  In18  1  0.29267000  0.09899000  0.00406000  1.0 0.9310687154
In  In19  1  0.91703000  0.72179000  0.36260000  1.0 0.8014324823
In  In20  1  0.27821000  0.08297000  0.86260000  1.0 0.8014324823
In  In21  1  0.70586000  0.65766000  0.05046000  1.0 0.8309997905
In  In22  1  0.34234000  0.29414000  0.55046000  1.0 0.8309997905
In  In23  1  0.78400000  0.66936000  0.10514000  1.0 0.9498121099
In  In24  1  0.33064000  0.21600000  0.60514000  1.0 0.9206605159
In  In25  1  0.77787000  0.58039000  0.05356000  1.0 0.9108388344
In  In26  1  0.41961000  0.22213000  0.55356000  1.0 0.9108388344
In  In27  1  0.76976000  0.65770000  0.94971000  1.0 0.9390456704
In  In28  1  0.34230000  0.23024000  0.44971000  1.0 0.9310687154
In  In29  1  0.86810000  0.67178000  0.14822000  1.0 0.8224881042
In  In30  1  0.32822000  0.13190000  0.64822000  1.0 0.8224881042
In  In31  1  0.86609000  0.58751000  0.10695000  1.0 0.9390456704
In  In32  1  0.41249000  0.13391000  0.60695000  1.0 0.9310687154
In  In33  1  0.85567000  0.50933000  0.05022000  1.0 0.8502709338
In  In34  1  0.49067000  0.14433000  0.55022000  1.0 0.8388465658
In  In35  1  0.85871000  0.66481000  0.00379000  1.0 0.9390456704
In  In36  1  0.33519000  0.14129000  0.50379000  1.0 0.9310687154
In  In37  1  0.85197000  0.57633000  0.95020000  1.0 0.9390456704
In  In38  1  0.42367000  0.14803000  0.45020000  1.0 0.9390456704
In  In39  1  0.84198000  0.65058000  0.86232000  1.0 0.8128428627
In  In40  1  0.34942000  0.15802000  0.36232000  1.0 0.8128428627
In  In41  1  0.31338000  0.45142000  0.58004000  1.0 0.8309997905
In  In42  1  0.54858000  0.68662000  0.08004000  1.0 0.8388465658
In  In43  1  0.25818000  0.53814000  0.58276000  1.0 0.9310687154
In  In44  1  0.46186000  0.74182000  0.08276000  1.0 0.9310687154
In  In45  1  0.34453000  0.50475000  0.66969000  1.0 0.9390456704
In  In46  1  0.49525000  0.65547000  0.16969000  1.0 0.9390456704
In  In47  1  0.34846000  0.51212000  0.51027000  1.0 0.9390456704
In  In48  1  0.48788000  0.65154000  0.01027000  1.0 0.9390456704
In  In49  1  0.21166000  0.62862000  0.58722000  1.0 0.8224881042
In  In50  1  0.37138000  0.78834000  0.08722000  1.0 0.8309997905
In  In51  1  0.28691000  0.60205000  0.67422000  1.0 0.9310687154
In  In52  1  0.39795000  0.71309000  0.17422000  1.0 0.9310687154
In  In53  1  0.36946000  0.56886000  0.74548000  1.0 0.8224881042
In  In54  1  0.43114000  0.63054000  0.24548000  1.0 0.8224881042
In  In55  1  0.29132000  0.60868000  0.51360000  1.0 0.9390456704
In  In56  1  0.39132000  0.70868000  0.01360000  1.0 0.9390456704
In  In57  1  0.37727000  0.57721000  0.60297000  1.0 0.9310687154
In  In58  1  0.42279000  0.62273000  0.10297000  1.0 0.9498121099
In  In59  1  0.37571000  0.58249000  0.45567000  1.0 0.8388465658
In  In60  1  0.41751000  0.62429000  0.95567000  1.0 0.8309997905
In  In61  1  0.82695000  0.23157000  0.21035000  1.0 0.8309997905
In  In62  1  0.76843000  0.17305000  0.71035000  1.0 0.8309997905
In  In63  1  0.85449000  0.29487000  0.13597000  1.0 0.9108388344
In  In64  1  0.70513000  0.14551000  0.63597000  1.0 0.9108388344
In  In65  1  0.90829000  0.19663000  0.14249000  1.0 0.9498121099
In  In66  1  0.80337000  0.09171000  0.64249000  1.0 0.9498121099
In  In67  1  0.81909000  0.22683000  0.06467000  1.0 0.9390456704
In  In68  1  0.77317000  0.18091000  0.56467000  1.0 0.9108388344
In  In69  1  0.88604000  0.35088000  0.05059000  1.0 0.8224881042
In  In70  1  0.64912000  0.11396000  0.55059000  1.0 0.8224881042
In  In71  1  0.94042000  0.26316000  0.05573000  1.0 0.9588858213
In  In72  1  0.73684000  0.05958000  0.55573000  1.0 0.9588858213
In  In73  1  0.85054000  0.29304000  0.97716000  1.0 0.9000766147
In  In74  1  0.70696000  0.14946000  0.47716000  1.0 0.9000766147
In  In75  1  0.90548000  0.19472000  0.98297000  1.0 0.9498121099
In  In76  1  0.80528000  0.09452000  0.48297000  1.0 0.9498121099
In  In77  1  0.98459000  0.17143000  0.06240000  1.0 0.8817561933
In  In78  1  0.82857000  0.01541000  0.56240000  1.0 0.8817561933
In  In79  1  0.82122000  0.22558000  0.91845000  1.0 0.7524944612
In  In80  1  0.77442000  0.17878000  0.41845000  1.0 0.7561269472
In  In81  1  0.86054000  0.90894000  0.95482000  1.0 0.8896767268
In  In82  1  0.09106000  0.13946000  0.45482000  1.0 0.8817561933
In  In83  1  0.78832000  0.98630000  0.94976000  1.0 0.9390456704
In  In84  1  0.01370000  0.21168000  0.44976000  1.0 0.9310687154
In  In85  1  0.78288000  0.89724000  0.89684000  1.0 0.9588858213
In  In86  1  0.10276000  0.21712000  0.39684000  1.0 0.9498121099
In  In87  1  0.79515000  0.90967000  0.05293000  1.0 0.9588858213
In  In88  1  0.09033000  0.20485000  0.55293000  1.0 0.9498121099
In  In89  1  0.70964000  0.05678000  0.94853000  1.0 0.8388465658
In  In90  1  0.94322000  0.29036000  0.44853000  1.0 0.8388465658
In  In91  1  0.70024000  0.97828000  0.89305000  1.0 0.9206605159
In  In92  1  0.02172000  0.29976000  0.39305000  1.0 0.9206605159
In  In93  1  0.69924000  0.89386000  0.85119000  1.0 0.8128428627
In  In94  1  0.10614000  0.30076000  0.35119000  1.0 0.8128428627
In  In95  1  0.71220000  0.99082000  0.04900000  1.0 0.9498121099
In  In96  1  0.00918000  0.28780000  0.54900000  1.0 0.9310687154
In  In97  1  0.70733000  0.90101000  0.99594000  1.0 0.9390456704
In  In98  1  0.09899000  0.29267000  0.49594000  1.0 0.9206605159
In  In99  1  0.72179000  0.91703000  0.13740000  1.0 0.8014324823
In  In100  1  0.08297000  0.27821000  0.63740000  1.0 0.8014324823
In  In101  1  0.65766000  0.70586000  0.44954000  1.0 0.8309997905
In  In102  1  0.29414000  0.34234000  0.94954000  1.0 0.8388465658
In  In103  1  0.66936000  0.78400000  0.39486000  1.0 0.9498121099
In  In104  1  0.21600000  0.33064000  0.89486000  1.0 0.9206605159
In  In105  1  0.58039000  0.77787000  0.44644000  1.0 0.9108388344
In  In106  1  0.22213000  0.41961000  0.94644000  1.0 0.9108388344
In  In107  1  0.65770000  0.76976000  0.55029000  1.0 0.9310687154
In  In108  1  0.23024000  0.34230000  0.05029000  1.0 0.9310687154
In  In109  1  0.67178000  0.86810000  0.35178000  1.0 0.8309997905
In  In110  1  0.13190000  0.32822000  0.85178000  1.0 0.8224881042
In  In111  1  0.58751000  0.86609000  0.39305000  1.0 0.9390456704
In  In112  1  0.13391000  0.41249000  0.89305000  1.0 0.9310687154
In  In113  1  0.50933000  0.85567000  0.44978000  1.0 0.8388465658
In  In114  1  0.14433000  0.49067000  0.94978000  1.0 0.8388465658
In  In115  1  0.66481000  0.85871000  0.49621000  1.0 0.9390456704
In  In116  1  0.14129000  0.33519000  0.99621000  1.0 0.9390456704
In  In117  1  0.57633000  0.85197000  0.54980000  1.0 0.9390456704
In  In118  1  0.14803000  0.42367000  0.04980000  1.0 0.9390456704
In  In119  1  0.65058000  0.84198000  0.63768000  1.0 0.8224881042
In  In120  1  0.15802000  0.34942000  0.13768000  1.0 0.8224881042
In  In121  1  0.45142000  0.31338000  0.91996000  1.0 0.8388465658
In  In122  1  0.68662000  0.54858000  0.41996000  1.0 0.8309997905
In  In123  1  0.53814000  0.25818000  0.91724000  1.0 0.9310687154
In  In124  1  0.74182000  0.46186000  0.41724000  1.0 0.9390456704
In  In125  1  0.50475000  0.34453000  0.83031000  1.0 0.9390456704
In  In126  1  0.65547000  0.49525000  0.33031000  1.0 0.9498121099
In  In127  1  0.51212000  0.34846000  0.98973000  1.0 0.9390456704
In  In128  1  0.65154000  0.48788000  0.48973000  1.0 0.9390456704
In  In129  1  0.62862000  0.21166000  0.91278000  1.0 0.8224881042
In  In130  1  0.78834000  0.37138000  0.41278000  1.0 0.8309997905
In  In131  1  0.60205000  0.28691000  0.82578000  1.0 0.9310687154
In  In132  1  0.71309000  0.39795000  0.32578000  1.0 0.9310687154
In  In133  1  0.56886000  0.36946000  0.75452000  1.0 0.8224881042
In  In134  1  0.63054000  0.43114000  0.25452000  1.0 0.8309997905
In  In135  1  0.60868000  0.29132000  0.98640000  1.0 0.9390456704
In  In136  1  0.70868000  0.39132000  0.48640000  1.0 0.9390456704
In  In137  1  0.57721000  0.37727000  0.89703000  1.0 0.9310687154
In  In138  1  0.62273000  0.42279000  0.39703000  1.0 0.9310687154
In  In139  1  0.58249000  0.37571000  0.04433000  1.0 0.8309997905
In  In140  1  0.62429000  0.41751000  0.54433000  1.0 0.8309997905
In  In141  1  0.23157000  0.82695000  0.28965000  1.0 0.8309997905
In  In142  1  0.17305000  0.76843000  0.78965000  1.0 0.8224881042
In  In143  1  0.29487000  0.85449000  0.36403000  1.0 0.9108388344
In  In144  1  0.14551000  0.70513000  0.86403000  1.0 0.9310687154
In  In145  1  0.19663000  0.90829000  0.35751000  1.0 0.9390456704
In  In146  1  0.09171000  0.80337000  0.85751000  1.0 0.9498121099
In  In147  1  0.22683000  0.81909000  0.43533000  1.0 0.9206605159
In  In148  1  0.18091000  0.77317000  0.93533000  1.0 0.9390456704
In  In149  1  0.35088000  0.88604000  0.44941000  1.0 0.8224881042
In  In150  1  0.11396000  0.64912000  0.94941000  1.0 0.8224881042
In  In151  1  0.26316000  0.94042000  0.44427000  1.0 0.9588858213
In  In152  1  0.05958000  0.73684000  0.94427000  1.0 0.9498121099
In  In153  1  0.29304000  0.85054000  0.52284000  1.0 0.9206605159
In  In154  1  0.14946000  0.70696000  0.02284000  1.0 0.9000766147
In  In155  1  0.19472000  0.90548000  0.51703000  1.0 0.9390456704
In  In156  1  0.09452000  0.80528000  0.01703000  1.0 0.9390456704
In  In157  1  0.17143000  0.98459000  0.43760000  1.0 0.8817561933
In  In158  1  0.01541000  0.82857000  0.93760000  1.0 0.8817561933
In  In159  1  0.22558000  0.82122000  0.58155000  1.0 0.7524944612
In  In160  1  0.17878000  0.77442000  0.08155000  1.0 0.7561269472
H  H1  1  0.44750000  0.59870000  0.43830000  1.0 0.1297157779
H  H2  1  0.40130000  0.55250000  0.93830000  1.0 0.1297157779
H  H3  1  0.38440000  0.53160000  0.86210000  1.0 0.1297157779
H  H4  1  0.46840000  0.61560000  0.36210000  1.0 0.1297157779
H  H5  1  0.35210000  0.61010000  0.33350000  1.0 0.1899183517
H  H6  1  0.38990000  0.64790000  0.83350000  1.0 0.1899183517
H  H7  1  0.37400000  0.57700000  0.30610000  1.0 0.2076771552
H  H8  1  0.42300000  0.62600000  0.80610000  1.0 0.2076771552
H  H9  1  0.37070000  0.61250000  0.28030000  1.0 0.1822572341
H  H10  1  0.38750000  0.62930000  0.78030000  1.0 0.1899183517
H  H11  1  0.11600000  0.73500000  0.59840000  1.0 0.1659651169
H  H12  1  0.26500000  0.88400000  0.09840000  1.0 0.1659651169
H  H13  1  0.17370000  0.70210000  0.62270000  1.0 0.1483383806
H  H14  1  0.29790000  0.82630000  0.12270000  1.0 0.1483383806
H  H15  1  0.12460000  0.64380000  0.49770000  1.0 0.1899183517
H  H16  1  0.35620000  0.87540000  0.99770000  1.0 0.1899183517
H  H17  1  0.15140000  0.61960000  0.53640000  1.0 0.1822572341
H  H18  1  0.38040000  0.84860000  0.03640000  1.0 0.1822572341
H  H19  1  0.11280000  0.62980000  0.54990000  1.0 0.1899183517
H  H20  1  0.37020000  0.88720000  0.04990000  1.0 0.1899183517
H  H21  1  0.91510000  0.71550000  0.16310000  1.0 0.1094806538
H  H22  1  0.28450000  0.08490000  0.66310000  1.0 0.1200756224
H  H23  1  0.93740000  0.73500000  0.24520000  1.0 0.1094806538
H  H24  1  0.26500000  0.06260000  0.74520000  1.0 0.1094806538
H  H25  1  0.86330000  0.68750000  0.32180000  1.0 0.1899183517
H  H26  1  0.31250000  0.13670000  0.82180000  1.0 0.1963708991
H  H27  1  0.84590000  0.68390000  0.26710000  1.0 0.1899183517
H  H28  1  0.31610000  0.15410000  0.76710000  1.0 0.1899183517
H  H29  1  0.87770000  0.65490000  0.28770000  1.0 0.1899183517
H  H30  1  0.34510000  0.12230000  0.78770000  1.0 0.1899183517
H  H31  1  0.81760000  0.64720000  0.74840000  1.0 0.1591949737
H  H32  1  0.35280000  0.18240000  0.24840000  1.0 0.1591949737
H  H33  1  0.83870000  0.65830000  0.66650000  1.0 0.1421288135
H  H34  1  0.34170000  0.16130000  0.16650000  1.0 0.1421288135
H  H35  1  0.89600000  0.70660000  0.77270000  1.0 0.1822572341
H  H36  1  0.29340000  0.10400000  0.27270000  1.0 0.1822572341
H  H37  1  0.88970000  0.68670000  0.82320000  1.0 0.1899183517
H  H38  1  0.31330000  0.11030000  0.32320000  1.0 0.1822572341
H  H39  1  0.91710000  0.66850000  0.78190000  1.0 0.1899183517
H  H40  1  0.33150000  0.08290000  0.28190000  1.0 0.1822572341
H  H41  1  0.92310000  0.45330000  0.09590000  1.0 0.1094806538
H  H42  1  0.54670000  0.07690000  0.59590000  1.0 0.1094806538
H  H43  1  0.93680000  0.39300000  0.08460000  1.0 0.0913452085
H  H44  1  0.60700000  0.06320000  0.58460000  1.0 0.0913452085
H  H45  1  0.83410000  0.44310000  0.98320000  1.0 0.1822572341
H  H46  1  0.55690000  0.16590000  0.48320000  1.0 0.1822572341
H  H47  1  0.82940000  0.41440000  0.02080000  1.0 0.1822572341
H  H48  1  0.58560000  0.17060000  0.52080000  1.0 0.1822572341
H  H49  1  0.81710000  0.45210000  0.03890000  1.0 0.1899183517
H  H50  1  0.54790000  0.18290000  0.53890000  1.0 0.1899183517
H  H51  1  0.25970000  0.40750000  0.58230000  1.0 0.0995383328
H  H52  1  0.59250000  0.74030000  0.08230000  1.0 0.0995383328
H  H53  1  0.65120000  0.72720000  0.06820000  1.0 0.1200756224
H  H54  1  0.27280000  0.34880000  0.56820000  1.0 0.1200756224
H  H55  1  0.38100000  0.34900000  0.57760000  1.0 0.1899183517
H  H56  1  0.65100000  0.61900000  0.07760000  1.0 0.1899183517
H  H57  1  0.37310000  0.38850000  0.57630000  1.0 0.1822572341
H  H58  1  0.61150000  0.62690000  0.07630000  1.0 0.1822572341
H  H59  1  0.37450000  0.36890000  0.52290000  1.0 0.1899183517
H  H60  1  0.63110000  0.62550000  0.02290000  1.0 0.1899183517
H  H61  1  0.02160000  0.10840000  0.11700000  1.0 0.0823119304
H  H62  1  0.89160000  0.97840000  0.61700000  1.0 0.0995383328
H  H63  1  0.93330000  0.91870000  0.60350000  1.0 0.0995383328
H  H64  1  0.08130000  0.06670000  0.10350000  1.0 0.0995383328
H  H65  1  0.80480000  0.26940000  0.32910000  1.0 0.1822572341
H  H66  1  0.73060000  0.19520000  0.82910000  1.0 0.1899183517
H  H67  1  0.77440000  0.21520000  0.38910000  1.0 -0.1090030353
H  H68  1  0.78480000  0.22560000  0.88910000  1.0 -0.1090030353
H  H69  1  0.59870000  0.44750000  0.06170000  1.0 0.1297157779
H  H70  1  0.55250000  0.40130000  0.56170000  1.0 0.1297157779
H  H71  1  0.53160000  0.38440000  0.63790000  1.0 0.1297157779
H  H72  1  0.61560000  0.46840000  0.13790000  1.0 0.1297157779
H  H73  1  0.61010000  0.35210000  0.16650000  1.0 0.1899183517
H  H74  1  0.64790000  0.38990000  0.66650000  1.0 0.1899183517
H  H75  1  0.57700000  0.37400000  0.19390000  1.0 0.2076771552
H  H76  1  0.62600000  0.42300000  0.69390000  1.0 0.2076771552
H  H77  1  0.61250000  0.37070000  0.21970000  1.0 0.1899183517
H  H78  1  0.62930000  0.38750000  0.71970000  1.0 0.1899183517
H  H79  1  0.73500000  0.11600000  0.90160000  1.0 0.1659651169
H  H80  1  0.88400000  0.26500000  0.40160000  1.0 0.1659651169
H  H81  1  0.70210000  0.17370000  0.87730000  1.0 0.1483383806
H  H82  1  0.82630000  0.29790000  0.37730000  1.0 0.1483383806
H  H83  1  0.64380000  0.12460000  0.00230000  1.0 0.1899183517
H  H84  1  0.87540000  0.35620000  0.50230000  1.0 0.1963708991
H  H85  1  0.61960000  0.15140000  0.96360000  1.0 0.1822572341
H  H86  1  0.84860000  0.38040000  0.46360000  1.0 0.1899183517
H  H87  1  0.62980000  0.11280000  0.95010000  1.0 0.1899183517
H  H88  1  0.88720000  0.37020000  0.45010000  1.0 0.1899183517
H  H89  1  0.71550000  0.91510000  0.33690000  1.0 0.1200756224
H  H90  1  0.08490000  0.28450000  0.83690000  1.0 0.1200756224
H  H91  1  0.73500000  0.93740000  0.25480000  1.0 0.1094806538
H  H92  1  0.06260000  0.26500000  0.75480000  1.0 0.1094806538
H  H93  1  0.68750000  0.86330000  0.17820000  1.0 0.1899183517
H  H94  1  0.13670000  0.31250000  0.67820000  1.0 0.1963708991
H  H95  1  0.68390000  0.84590000  0.23290000  1.0 0.1899183517
H  H96  1  0.15410000  0.31610000  0.73290000  1.0 0.1899183517
H  H97  1  0.65490000  0.87770000  0.21230000  1.0 0.1899183517
H  H98  1  0.12230000  0.34510000  0.71230000  1.0 0.1899183517
H  H99  1  0.64720000  0.81760000  0.75160000  1.0 0.1591949737
H  H100  1  0.18240000  0.35280000  0.25160000  1.0 0.1591949737
H  H101  1  0.65830000  0.83870000  0.83350000  1.0 0.1483383806
H  H102  1  0.16130000  0.34170000  0.33350000  1.0 0.1483383806
H  H103  1  0.70660000  0.89600000  0.72730000  1.0 0.1822572341
H  H104  1  0.10400000  0.29340000  0.22730000  1.0 0.1822572341
H  H105  1  0.68670000  0.88970000  0.67680000  1.0 0.1899183517
H  H106  1  0.11030000  0.31330000  0.17680000  1.0 0.1822572341
H  H107  1  0.66850000  0.91710000  0.71810000  1.0 0.1822572341
H  H108  1  0.08290000  0.33150000  0.21810000  1.0 0.1899183517
H  H109  1  0.45330000  0.92310000  0.40410000  1.0 0.1094806538
H  H110  1  0.07690000  0.54670000  0.90410000  1.0 0.0995383328
H  H111  1  0.39300000  0.93680000  0.41540000  1.0 0.0913452085
H  H112  1  0.06320000  0.60700000  0.91540000  1.0 0.0913452085
H  H113  1  0.44310000  0.83410000  0.51680000  1.0 0.1822572341
H  H114  1  0.16590000  0.55690000  0.01680000  1.0 0.1822572341
H  H115  1  0.41440000  0.82940000  0.47920000  1.0 0.1822572341
H  H116  1  0.17060000  0.58560000  0.97920000  1.0 0.1822572341
H  H117  1  0.45210000  0.81710000  0.46110000  1.0 0.1899183517
H  H118  1  0.18290000  0.54790000  0.96110000  1.0 0.1899183517
H  H119  1  0.40750000  0.25970000  0.91770000  1.0 0.1094806538
H  H120  1  0.74030000  0.59250000  0.41770000  1.0 0.0995383328
H  H121  1  0.72720000  0.65120000  0.43180000  1.0 0.1200756224
H  H122  1  0.34880000  0.27280000  0.93180000  1.0 0.1200756224
H  H123  1  0.34900000  0.38100000  0.92240000  1.0 0.1963708991
H  H124  1  0.61900000  0.65100000  0.42240000  1.0 0.1899183517
H  H125  1  0.38850000  0.37310000  0.92370000  1.0 0.1899183517
H  H126  1  0.62690000  0.61150000  0.42370000  1.0 0.1822572341
H  H127  1  0.36890000  0.37450000  0.97710000  1.0 0.1899183517
H  H128  1  0.62550000  0.63110000  0.47710000  1.0 0.1899183517
H  H129  1  0.10840000  0.02160000  0.38300000  1.0 0.0823119304
H  H130  1  0.97840000  0.89160000  0.88300000  1.0 0.0823119304
H  H131  1  0.91870000  0.93330000  0.89650000  1.0 0.1094806538
H  H132  1  0.06670000  0.08130000  0.39650000  1.0 0.1094806538
H  H133  1  0.26940000  0.80480000  0.17090000  1.0 0.1899183517
H  H134  1  0.19520000  0.73060000  0.67090000  1.0 0.1822572341
H  H135  1  0.21520000  0.77440000  0.11090000  1.0 -0.1150632432
H  H136  1  0.22560000  0.78480000  0.61090000  1.0 -0.1090030353
C  C1  1  0.40210000  0.60170000  0.34420000  1.0 0.4097394744
C  C2  1  0.39830000  0.59790000  0.84420000  1.0 0.4097394744
C  C3  1  0.43690000  0.60130000  0.40490000  1.0 0.0995383328
C  C4  1  0.39870000  0.56310000  0.90490000  1.0 0.0995383328
C  C5  1  0.38990000  0.55170000  0.86460000  1.0 0.0995383328
C  C6  1  0.44830000  0.61010000  0.36460000  1.0 0.0995383328
C  C7  1  0.37210000  0.60010000  0.31340000  1.0 -0.4083202413
C  C8  1  0.39990000  0.62790000  0.81340000  1.0 -0.4083202413
C  C9  1  0.13340000  0.66580000  0.56250000  1.0 0.4097394744
C  C10  1  0.33420000  0.86660000  0.06250000  1.0 0.4097394744
C  C11  1  0.12570000  0.71210000  0.59140000  1.0 0.0704899816
C  C12  1  0.28790000  0.87430000  0.09140000  1.0 0.0704899816
C  C13  1  0.15800000  0.69440000  0.60400000  1.0 0.0913452085
C  C14  1  0.30560000  0.84200000  0.10400000  1.0 0.0913452085
C  C15  1  0.13030000  0.63750000  0.53430000  1.0 -0.4175792193
C  C16  1  0.36250000  0.86970000  0.03430000  1.0 -0.4175792193
C  C17  1  0.88890000  0.69490000  0.25920000  1.0 0.3909154454
C  C18  1  0.30510000  0.11110000  0.75920000  1.0 0.3909154454
C  C19  1  0.90960000  0.71120000  0.19770000  1.0 0.1200756224
C  C20  1  0.28880000  0.09040000  0.69770000  1.0 0.1200756224
C  C21  1  0.92200000  0.72280000  0.24250000  1.0 0.1297157779
C  C22  1  0.27720000  0.07800000  0.74250000  1.0 0.1297157779
C  C23  1  0.86720000  0.67900000  0.28620000  1.0 -0.390975543
C  C24  1  0.32100000  0.13280000  0.78620000  1.0 -0.4014766923
C  C25  1  0.87100000  0.67500000  0.75770000  1.0 0.4464125702
C  C26  1  0.32500000  0.12900000  0.25770000  1.0 0.4446958968
C  C27  1  0.83550000  0.65630000  0.74470000  1.0 0.0823119304
C  C28  1  0.34370000  0.16450000  0.24470000  1.0 0.0823119304
C  C29  1  0.84620000  0.66280000  0.69980000  1.0 0.1094806538
C  C30  1  0.33720000  0.15380000  0.19980000  1.0 0.1094806538
C  C31  1  0.89530000  0.68490000  0.78610000  1.0 -0.3497369966
C  C32  1  0.31510000  0.10470000  0.28610000  1.0 -0.3566851964
C  C33  1  0.86720000  0.43160000  0.04400000  1.0 0.43117959
C  C34  1  0.56840000  0.13280000  0.54400000  1.0 0.43117959
C  C35  1  0.90940000  0.44180000  0.08070000  1.0 0.1094806538
C  C36  1  0.55820000  0.09060000  0.58070000  1.0 0.0995383328
C  C37  1  0.91620000  0.40900000  0.07550000  1.0 0.1094806538
C  C38  1  0.59100000  0.08380000  0.57550000  1.0 0.1094806538
C  C39  1  0.83420000  0.43560000  0.01970000  1.0 -0.4014766923
C  C40  1  0.56440000  0.16580000  0.51970000  1.0 -0.4014766923
C  C41  1  0.33210000  0.37350000  0.56350000  1.0 0.4214316526
C  C42  1  0.62650000  0.66790000  0.06350000  1.0 0.4214316526
C  C43  1  0.28110000  0.39290000  0.57560000  1.0 0.0995383328
C  C44  1  0.60710000  0.71890000  0.07560000  1.0 0.1094806538
C  C45  1  0.63910000  0.71150000  0.06800000  1.0 0.0995383328
C  C46  1  0.28850000  0.36090000  0.56800000  1.0 0.0995383328
C  C47  1  0.36830000  0.36970000  0.55980000  1.0 -0.390975543
C  C48  1  0.63030000  0.63170000  0.05980000  1.0 -0.390975543
C  C49  1  0.86010000  0.93550000  0.53700000  1.0 0.375915117
C  C50  1  0.06450000  0.13990000  0.03700000  1.0 0.3705814649
C  C51  1  0.03820000  0.11120000  0.09400000  1.0 0.2286260018
C  C52  1  0.88880000  0.96180000  0.59400000  1.0 0.2493026772
C  C53  1  0.91160000  0.92800000  0.58900000  1.0 0.2286260018
C  C54  1  0.07200000  0.08840000  0.08900000  1.0 0.2286260018
C  C55  1  0.79010000  0.17750000  0.28100000  1.0 0.1591949737
C  C56  1  0.82250000  0.20990000  0.78100000  1.0 0.1591949737
C  C57  1  0.80040000  0.24900000  0.32300000  1.0 0.1200756224
C  C58  1  0.75100000  0.19960000  0.82300000  1.0 0.1094806538
C  C59  1  0.78180000  0.21540000  0.85740000  1.0 0.0472544289
C  C60  1  0.78460000  0.21820000  0.35740000  1.0 0.0472544289
C  C61  1  0.60170000  0.40210000  0.15580000  1.0 0.4097394744
C  C62  1  0.59790000  0.39830000  0.65580000  1.0 0.4097394744
C  C63  1  0.60130000  0.43690000  0.09510000  1.0 0.0995383328
C  C64  1  0.56310000  0.39870000  0.59510000  1.0 0.0995383328
C  C65  1  0.55170000  0.38990000  0.63540000  1.0 0.0995383328
C  C66  1  0.61010000  0.44830000  0.13540000  1.0 0.0995383328
C  C67  1  0.60010000  0.37210000  0.18660000  1.0 -0.4014766923
C  C68  1  0.62790000  0.39990000  0.68660000  1.0 -0.4083202413
C  C69  1  0.66580000  0.13340000  0.93750000  1.0 0.4097394744
C  C70  1  0.86660000  0.33420000  0.43750000  1.0 0.4097394744
C  C71  1  0.71210000  0.12570000  0.90860000  1.0 0.0704899816
C  C72  1  0.87430000  0.28790000  0.40860000  1.0 0.0704899816
C  C73  1  0.69440000  0.15800000  0.89600000  1.0 0.0913452085
C  C74  1  0.84200000  0.30560000  0.39600000  1.0 0.0995383328
C  C75  1  0.63750000  0.13030000  0.96570000  1.0 -0.4175792193
C  C76  1  0.86970000  0.36250000  0.46570000  1.0 -0.4175792193
C  C77  1  0.69490000  0.88890000  0.24080000  1.0 0.3909154454
C  C78  1  0.11110000  0.30510000  0.74080000  1.0 0.3909154454
C  C79  1  0.71120000  0.90960000  0.30230000  1.0 0.1297157779
C  C80  1  0.09040000  0.28880000  0.80230000  1.0 0.1200756224
C  C81  1  0.72280000  0.92200000  0.25750000  1.0 0.1297157779
C  C82  1  0.07800000  0.27720000  0.75750000  1.0 0.1297157779
C  C83  1  0.67900000  0.86720000  0.21380000  1.0 -0.390975543
C  C84  1  0.13280000  0.32100000  0.71380000  1.0 -0.4014766923
C  C85  1  0.67500000  0.87100000  0.74230000  1.0 0.4464125702
C  C86  1  0.12900000  0.32500000  0.24230000  1.0 0.4446958968
C  C87  1  0.65630000  0.83550000  0.75530000  1.0 0.0823119304
C  C88  1  0.16450000  0.34370000  0.25530000  1.0 0.0823119304
C  C89  1  0.66280000  0.84620000  0.80020000  1.0 0.1200756224
C  C90  1  0.15380000  0.33720000  0.30020000  1.0 0.1094806538
C  C91  1  0.68490000  0.89530000  0.71390000  1.0 -0.3566851964
C  C92  1  0.10470000  0.31510000  0.21390000  1.0 -0.3566851964
C  C93  1  0.43160000  0.86720000  0.45600000  1.0 0.43117959
C  C94  1  0.13280000  0.56840000  0.95600000  1.0 0.43117959
C  C95  1  0.44180000  0.90940000  0.41930000  1.0 0.0995383328
C  C96  1  0.09060000  0.55820000  0.91930000  1.0 0.0995383328
C  C97  1  0.40900000  0.91620000  0.42450000  1.0 0.1094806538
C  C98  1  0.08380000  0.59100000  0.92450000  1.0 0.1094806538
C  C99  1  0.43560000  0.83420000  0.48030000  1.0 -0.4083202413
C  C100  1  0.16580000  0.56440000  0.98030000  1.0 -0.4083202413
C  C101  1  0.37350000  0.33210000  0.93650000  1.0 0.4097394744
C  C102  1  0.66790000  0.62650000  0.43650000  1.0 0.4097394744
C  C103  1  0.39290000  0.28110000  0.92440000  1.0 0.0995383328
C  C104  1  0.71890000  0.60710000  0.42440000  1.0 0.1094806538
C  C105  1  0.71150000  0.63910000  0.43200000  1.0 0.0995383328
C  C106  1  0.36090000  0.28850000  0.93200000  1.0 0.0995383328
C  C107  1  0.36970000  0.36830000  0.94020000  1.0 -0.390975543
C  C108  1  0.63170000  0.63030000  0.44020000  1.0 -0.390975543
C  C109  1  0.93550000  0.86010000  0.96300000  1.0 0.3705814649
C  C110  1  0.13990000  0.06450000  0.46300000  1.0 0.3705814649
C  C111  1  0.11120000  0.03820000  0.40600000  1.0 0.2493026772
C  C112  1  0.96180000  0.88880000  0.90600000  1.0 0.2286260018
C  C113  1  0.92800000  0.91160000  0.91100000  1.0 0.2286260018
C  C114  1  0.08840000  0.07200000  0.41100000  1.0 0.2385602513
C  C115  1  0.17750000  0.79010000  0.21900000  1.0 0.1591949737
C  C116  1  0.20990000  0.82250000  0.71900000  1.0 0.1591949737
C  C117  1  0.24900000  0.80040000  0.17700000  1.0 0.1200756224
C  C118  1  0.19960000  0.75100000  0.67700000  1.0 0.1094806538
C  C119  1  0.21540000  0.78180000  0.64260000  1.0 0.042841216
C  C120  1  0.21820000  0.78460000  0.14260000  1.0 0.0472544289
S  S1  1  0.96807000  0.84761000  0.56070000  1.0 -0.5801318869
S  S2  1  0.15239000  0.03193000  0.06070000  1.0 -0.5801318869
S  S3  1  0.87818000  0.84212000  0.61280000  1.0 -0.5898245607
S  S4  1  0.15788000  0.12182000  0.11280000  1.0 -0.5898245607
S  S5  1  0.04561000  0.76879000  0.56200000  1.0 -0.5898245607
S  S6  1  0.23121000  0.95439000  0.06200000  1.0 -0.5898245607
S  S7  1  0.95876000  0.76190000  0.61660000  1.0 -0.7092249216
S  S8  1  0.23810000  0.04124000  0.11660000  1.0 -0.7092249216
S  S9  1  0.97131000  0.77365000  0.46090000  1.0 -0.7092249216
S  S10  1  0.22635000  0.02869000  0.96090000  1.0 -0.7092249216
S  S11  1  0.88209000  0.76869000  0.51330000  1.0 -0.6999333858
S  S12  1  0.23131000  0.11791000  0.01330000  1.0 -0.6999333858
S  S13  1  0.03725000  0.67983000  0.61920000  1.0 -0.5898245607
S  S14  1  0.32017000  0.96275000  0.11920000  1.0 -0.5898245607
S  S15  1  0.95200000  0.67448000  0.67070000  1.0 -0.6074814231
S  S16  1  0.32552000  0.04800000  0.17070000  1.0 -0.5898245607
S  S17  1  0.05013000  0.69195000  0.46340000  1.0 -0.5898245607
S  S18  1  0.30805000  0.94987000  0.96340000  1.0 -0.5898245607
S  S19  1  0.96270000  0.68622000  0.51700000  1.0 -0.722351178
S  S20  1  0.31378000  0.03730000  0.01700000  1.0 -0.722351178
S  S21  1  0.97644000  0.69834000  0.36440000  1.0 -0.5898245607
S  S22  1  0.30166000  0.02356000  0.86440000  1.0 -0.5898245607
S  S23  1  0.72514000  0.68728000  0.11820000  1.0 -0.5898245607
S  S24  1  0.31272000  0.27486000  0.61820000  1.0 -0.5898245607
S  S25  1  0.71858000  0.59878000  0.06710000  1.0 -0.5801318869
S  S26  1  0.40122000  0.28142000  0.56710000  1.0 -0.5801318869
S  S27  1  0.71042000  0.67604000  0.96140000  1.0 -0.5801318869
S  S28  1  0.32396000  0.28958000  0.46140000  1.0 -0.5801318869
S  S29  1  0.80463000  0.60767000  0.11890000  1.0 -0.722351178
S  S30  1  0.39233000  0.19537000  0.61890000  1.0 -0.722351178
S  S31  1  0.79679000  0.52083000  0.06470000  1.0 -0.5898245607
S  S32  1  0.47917000  0.20321000  0.56470000  1.0 -0.5898245607
S  S33  1  0.79742000  0.68446000  0.01520000  1.0 -0.7479079893
S  S34  1  0.31554000  0.20258000  0.51520000  1.0 -0.7479079893
S  S35  1  0.79065000  0.59601000  0.96380000  1.0 -0.7309132475
S  S36  1  0.40399000  0.20935000  0.46380000  1.0 -0.740797036
S  S37  1  0.78179000  0.67147000  0.86230000  1.0 -0.5898245607
S  S38  1  0.32853000  0.21821000  0.36230000  1.0 -0.5898245607
S  S39  1  0.89177000  0.61349000  0.17080000  1.0 -0.5801318869
S  S40  1  0.38651000  0.10823000  0.67080000  1.0 -0.5898245607
S  S41  1  0.88573000  0.52815000  0.11820000  1.0 -0.5898245607
S  S42  1  0.47185000  0.11427000  0.61820000  1.0 -0.5898245607
S  S43  1  0.88603000  0.68997000  0.06740000  1.0 -0.5898245607
S  S44  1  0.31003000  0.11397000  0.56740000  1.0 -0.5980302292
S  S45  1  0.87904000  0.60312000  0.01640000  1.0 -0.7479079893
S  S46  1  0.39688000  0.12096000  0.51640000  1.0 -0.740797036
S  S47  1  0.87103000  0.67947000  0.91710000  1.0 -0.5801318869
S  S48  1  0.32053000  0.12897000  0.41710000  1.0 -0.5801318869
S  S49  1  0.86461000  0.59073000  0.86310000  1.0 -0.5801318869
S  S50  1  0.40927000  0.13539000  0.36310000  1.0 -0.5801318869
S  S51  1  0.25490000  0.48230000  0.57830000  1.0 -0.5898245607
S  S52  1  0.51770000  0.74510000  0.07830000  1.0 -0.5898245607
S  S53  1  0.34073000  0.44925000  0.66480000  1.0 -0.5801318869
S  S54  1  0.55075000  0.65927000  0.16480000  1.0 -0.5801318869
S  S55  1  0.34512000  0.45644000  0.50450000  1.0 -0.5801318869
S  S56  1  0.54356000  0.65488000  0.00450000  1.0 -0.5801318869
S  S57  1  0.20239000  0.57521000  0.58180000  1.0 -0.5801318869
S  S58  1  0.42479000  0.79761000  0.08180000  1.0 -0.5801318869
S  S59  1  0.28640000  0.54334000  0.66720000  1.0 -0.740797036
S  S60  1  0.45666000  0.71360000  0.16720000  1.0 -0.740797036
S  S61  1  0.37464000  0.51026000  0.74710000  1.0 -0.6074814231
S  S62  1  0.48974000  0.62536000  0.24710000  1.0 -0.5801318869
S  S63  1  0.29005000  0.55023000  0.50760000  1.0 -0.7309132475
S  S64  1  0.44977000  0.70995000  0.00760000  1.0 -0.7309132475
S  S65  1  0.37626000  0.51838000  0.59471000  1.0 -0.722351178
S  S66  1  0.48162000  0.62374000  0.09471000  1.0 -0.7309132475
S  S67  1  0.37920000  0.52520000  0.43900000  1.0 -0.5898245607
S  S68  1  0.47480000  0.62080000  0.93900000  1.0 -0.5801318869
S  S69  1  0.23178000  0.64068000  0.67160000  1.0 -0.5613654133
S  S70  1  0.35932000  0.76822000  0.17160000  1.0 -0.5696307992
S  S71  1  0.31467000  0.60783000  0.75420000  1.0 -0.5801318869
S  S72  1  0.39217000  0.68533000  0.25420000  1.0 -0.5613654133
S  S73  1  0.31901000  0.61419000  0.59890000  1.0 -0.722351178
S  S74  1  0.38581000  0.68099000  0.09890000  1.0 -0.7309132475
S  S75  1  0.40431000  0.58519000  0.68290000  1.0 -0.5801318869
S  S76  1  0.41481000  0.59569000  0.18290000  1.0 -0.5696307992
S  S77  1  0.32131000  0.62197000  0.44180000  1.0 -0.5801318869
S  S78  1  0.37803000  0.67869000  0.94180000  1.0 -0.5801318869
S  S79  1  0.40656000  0.59178000  0.53140000  1.0 -0.5696307992
S  S80  1  0.40822000  0.59344000  0.03140000  1.0 -0.5696307992
S  S81  1  0.85890000  0.34994000  0.13280000  1.0 -0.5696307992
S  S82  1  0.65006000  0.14110000  0.63280000  1.0 -0.5696307992
S  S83  1  0.91169000  0.25467000  0.13690000  1.0 -0.7092249216
S  S84  1  0.74533000  0.08831000  0.63690000  1.0 -0.722351178
S  S85  1  0.82169000  0.28515000  0.05940000  1.0 -0.7092249216
S  S86  1  0.71485000  0.17831000  0.55940000  1.0 -0.7309132475
S  S87  1  0.90809000  0.25279000  0.97870000  1.0 -0.6812718641
S  S88  1  0.74721000  0.09191000  0.47870000  1.0 -0.6898075869
S  S89  1  0.88666000  0.69408000  0.41720000  1.0 -0.5696307992
S  S90  1  0.30592000  0.11334000  0.91720000  1.0 -0.5801318869
S  S91  1  0.89577000  0.78153000  0.36050000  1.0 -0.5613654133
S  S92  1  0.21847000  0.10423000  0.86050000  1.0 -0.5696307992
S  S93  1  0.89157000  0.85443000  0.45640000  1.0 -0.6585454872
S  S94  1  0.14557000  0.10843000  0.95640000  1.0 -0.6314609578
S  S95  1  0.87474000  0.68182000  0.56780000  1.0 -0.5898245607
S  S96  1  0.31818000  0.12526000  0.06780000  1.0 -0.5898245607
S  S97  1  0.87141000  0.75747000  0.66770000  1.0 -0.5801318869
S  S98  1  0.24253000  0.12859000  0.16770000  1.0 -0.5898245607
S  S99  1  0.23601000  0.64615000  0.51210000  1.0 -0.5696307992
S  S100  1  0.35385000  0.76399000  0.01210000  1.0 -0.5613654133
S  S101  1  0.80975000  0.69627000  0.16690000  1.0 -0.5801318869
S  S102  1  0.30373000  0.19025000  0.66690000  1.0 -0.5801318869
S  S103  1  0.87115000  0.51677000  0.96100000  1.0 -0.5801318869
S  S104  1  0.48323000  0.12885000  0.46100000  1.0 -0.5696307992
S  S105  1  0.88057000  0.19025000  0.22170000  1.0 -0.6202150753
S  S106  1  0.80975000  0.11943000  0.72170000  1.0 -0.6202150753
S  S107  1  0.79173000  0.21929000  0.14390000  1.0 -0.6375900736
S  S108  1  0.78071000  0.20827000  0.64390000  1.0 -0.6314609578
S  S109  1  0.82642000  0.28880000  0.21540000  1.0 -0.5520572395
S  S110  1  0.71120000  0.17358000  0.71540000  1.0 -0.5613654133
S  S111  1  0.96317000  0.15773000  0.14350000  1.0 -0.5801318869
S  S112  1  0.84227000  0.03683000  0.64350000  1.0 -0.5980302292
S  S113  1  0.87667000  0.18685000  0.06440000  1.0 -0.6999333858
S  S114  1  0.81315000  0.12333000  0.56440000  1.0 -0.6898075869
S  S115  1  0.78946000  0.21488000  0.99110000  1.0 -0.5064669183
S  S116  1  0.78512000  0.21054000  0.49110000  1.0 -0.5039913586
S  S117  1  0.99555000  0.22443000  0.05880000  1.0 -0.6202150753
S  S118  1  0.77557000  0.00445000  0.55880000  1.0 -0.6202150753
S  S119  1  0.96045000  0.15647000  0.98360000  1.0 -0.6074814231
S  S120  1  0.84353000  0.03955000  0.48360000  1.0 -0.5980302292
S  S121  1  0.87513000  0.18529000  0.90680000  1.0 -0.5613654133
S  S122  1  0.81471000  0.12487000  0.40680000  1.0 -0.5696307992
S  S123  1  0.94411000  0.31873000  0.04970000  1.0 -0.5898245607
S  S124  1  0.68127000  0.05589000  0.54970000  1.0 -0.5980302292
S  S125  1  0.81952000  0.28272000  0.90240000  1.0 -0.5696307992
S  S126  1  0.71728000  0.18048000  0.40240000  1.0 -0.5696307992
S  S127  1  0.85409000  0.34851000  0.97280000  1.0 -0.5801318869
S  S128  1  0.65149000  0.14591000  0.47280000  1.0 -0.5801318869
S  S129  1  0.84761000  0.96807000  0.93930000  1.0 -0.5801318869
S  S130  1  0.03193000  0.15239000  0.43930000  1.0 -0.5898245607
S  S131  1  0.84212000  0.87818000  0.88720000  1.0 -0.6202150753
S  S132  1  0.12182000  0.15788000  0.38720000  1.0 -0.5898245607
S  S133  1  0.76879000  0.04561000  0.93800000  1.0 -0.5898245607
S  S134  1  0.95439000  0.23121000  0.43800000  1.0 -0.5898245607
S  S135  1  0.76190000  0.95876000  0.88340000  1.0 -0.7092249216
S  S136  1  0.04124000  0.23810000  0.38340000  1.0 -0.7092249216
S  S137  1  0.77365000  0.97131000  0.03910000  1.0 -0.7092249216
S  S138  1  0.02869000  0.22635000  0.53910000  1.0 -0.722351178
S  S139  1  0.76869000  0.88209000  0.98670000  1.0 -0.6999333858
S  S140  1  0.11791000  0.23131000  0.48670000  1.0 -0.6999333858
S  S141  1  0.67983000  0.03725000  0.88080000  1.0 -0.5898245607
S  S142  1  0.96275000  0.32017000  0.38080000  1.0 -0.5898245607
S  S143  1  0.67448000  0.95200000  0.82930000  1.0 -0.5898245607
S  S144  1  0.04800000  0.32552000  0.32930000  1.0 -0.5898245607
S  S145  1  0.69195000  0.05013000  0.03660000  1.0 -0.5898245607
S  S146  1  0.94987000  0.30805000  0.53660000  1.0 -0.5898245607
S  S147  1  0.68622000  0.96270000  0.98300000  1.0 -0.722351178
S  S148  1  0.03730000  0.31378000  0.48300000  1.0 -0.722351178
S  S149  1  0.69834000  0.97644000  0.13560000  1.0 -0.5898245607
S  S150  1  0.02356000  0.30166000  0.63560000  1.0 -0.5980302292
S  S151  1  0.68728000  0.72514000  0.38180000  1.0 -0.5801318869
S  S152  1  0.27486000  0.31272000  0.88180000  1.0 -0.5898245607
S  S153  1  0.59878000  0.71858000  0.43290000  1.0 -0.5801318869
S  S154  1  0.28142000  0.40122000  0.93290000  1.0 -0.5898245607
S  S155  1  0.67604000  0.71042000  0.53860000  1.0 -0.5696307992
S  S156  1  0.28958000  0.32396000  0.03860000  1.0 -0.5801318869
S  S157  1  0.60767000  0.80463000  0.38110000  1.0 -0.722351178
S  S158  1  0.19537000  0.39233000  0.88110000  1.0 -0.722351178
S  S159  1  0.52083000  0.79679000  0.43530000  1.0 -0.5898245607
S  S160  1  0.20321000  0.47917000  0.93530000  1.0 -0.5898245607
S  S161  1  0.68446000  0.79742000  0.48480000  1.0 -0.740797036
S  S162  1  0.20258000  0.31554000  0.98480000  1.0 -0.740797036
S  S163  1  0.59601000  0.79065000  0.53620000  1.0 -0.7309132475
S  S164  1  0.20935000  0.40399000  0.03620000  1.0 -0.7309132475
S  S165  1  0.67147000  0.78179000  0.63770000  1.0 -0.5898245607
S  S166  1  0.21821000  0.32853000  0.13770000  1.0 -0.5898245607
S  S167  1  0.61349000  0.89177000  0.32920000  1.0 -0.5898245607
S  S168  1  0.10823000  0.38651000  0.82920000  1.0 -0.5898245607
S  S169  1  0.52815000  0.88573000  0.38180000  1.0 -0.6074814231
S  S170  1  0.11427000  0.47185000  0.88180000  1.0 -0.5898245607
S  S171  1  0.68997000  0.88603000  0.43260000  1.0 -0.5980302292
S  S172  1  0.11397000  0.31003000  0.93260000  1.0 -0.5980302292
S  S173  1  0.60312000  0.87904000  0.48360000  1.0 -0.740797036
S  S174  1  0.12096000  0.39688000  0.98360000  1.0 -0.7309132475
S  S175  1  0.67947000  0.87103000  0.58290000  1.0 -0.5801318869
S  S176  1  0.12897000  0.32053000  0.08290000  1.0 -0.5898245607
S  S177  1  0.59073000  0.86461000  0.63690000  1.0 -0.5980302292
S  S178  1  0.13539000  0.40927000  0.13690000  1.0 -0.5801318869
S  S179  1  0.48230000  0.25490000  0.92170000  1.0 -0.5980302292
S  S180  1  0.74510000  0.51770000  0.42170000  1.0 -0.5898245607
S  S181  1  0.44925000  0.34073000  0.83520000  1.0 -0.5801318869
S  S182  1  0.65927000  0.55075000  0.33520000  1.0 -0.5801318869
S  S183  1  0.45644000  0.34512000  0.99550000  1.0 -0.5898245607
S  S184  1  0.65488000  0.54356000  0.49550000  1.0 -0.5801318869
S  S185  1  0.57521000  0.20239000  0.91820000  1.0 -0.5801318869
S  S186  1  0.79761000  0.42479000  0.41820000  1.0 -0.5898245607
S  S187  1  0.54334000  0.28640000  0.83280000  1.0 -0.7585014036
S  S188  1  0.71360000  0.45666000  0.33280000  1.0 -0.740797036
S  S189  1  0.51026000  0.37464000  0.75290000  1.0 -0.5898245607
S  S190  1  0.62536000  0.48974000  0.25290000  1.0 -0.6202150753
S  S191  1  0.55023000  0.29005000  0.99240000  1.0 -0.7309132475
S  S192  1  0.70995000  0.44977000  0.49240000  1.0 -0.740797036
S  S193  1  0.51838000  0.37626000  0.90529000  1.0 -0.722351178
S  S194  1  0.62374000  0.48162000  0.40529000  1.0 -0.740797036
S  S195  1  0.52520000  0.37920000  0.06100000  1.0 -0.5801318869
S  S196  1  0.62080000  0.47480000  0.56100000  1.0 -0.5801318869
S  S197  1  0.64068000  0.23178000  0.82840000  1.0 -0.5613654133
S  S198  1  0.76822000  0.35932000  0.32840000  1.0 -0.5696307992
S  S199  1  0.60783000  0.31467000  0.74580000  1.0 -0.5696307992
S  S200  1  0.68533000  0.39217000  0.24580000  1.0 -0.5696307992
S  S201  1  0.61419000  0.31901000  0.90110000  1.0 -0.7309132475
S  S202  1  0.68099000  0.38581000  0.40110000  1.0 -0.722351178
S  S203  1  0.58519000  0.40431000  0.81710000  1.0 -0.5801318869
S  S204  1  0.59569000  0.41481000  0.31710000  1.0 -0.5801318869
S  S205  1  0.62197000  0.32131000  0.05820000  1.0 -0.5801318869
S  S206  1  0.67869000  0.37803000  0.55820000  1.0 -0.5801318869
S  S207  1  0.59178000  0.40656000  0.96860000  1.0 -0.5696307992
S  S208  1  0.59344000  0.40822000  0.46860000  1.0 -0.5696307992
S  S209  1  0.34994000  0.85890000  0.36720000  1.0 -0.5696307992
S  S210  1  0.14110000  0.65006000  0.86720000  1.0 -0.5696307992
S  S211  1  0.25467000  0.91169000  0.36310000  1.0 -0.6999333858
S  S212  1  0.08831000  0.74533000  0.86310000  1.0 -0.6999333858
S  S213  1  0.28515000  0.82169000  0.44060000  1.0 -0.7092249216
S  S214  1  0.17831000  0.71485000  0.94060000  1.0 -0.7092249216
S  S215  1  0.25279000  0.90809000  0.52130000  1.0 -0.6812718641
S  S216  1  0.09191000  0.74721000  0.02130000  1.0 -0.6812718641
S  S217  1  0.69408000  0.88666000  0.08280000  1.0 -0.5801318869
S  S218  1  0.11334000  0.30592000  0.58280000  1.0 -0.5696307992
S  S219  1  0.78153000  0.89577000  0.13950000  1.0 -0.5613654133
S  S220  1  0.10423000  0.21847000  0.63950000  1.0 -0.5696307992
S  S221  1  0.85443000  0.89157000  0.04360000  1.0 -0.6314609578
S  S222  1  0.10843000  0.14557000  0.54360000  1.0 -0.6314609578
S  S223  1  0.68182000  0.87474000  0.93220000  1.0 -0.5898245607
S  S224  1  0.12526000  0.31818000  0.43220000  1.0 -0.5898245607
S  S225  1  0.75747000  0.87141000  0.83230000  1.0 -0.5898245607
S  S226  1  0.12859000  0.24253000  0.33230000  1.0 -0.5898245607
S  S227  1  0.64615000  0.23601000  0.98790000  1.0 -0.5696307992
S  S228  1  0.76399000  0.35385000  0.48790000  1.0 -0.5613654133
S  S229  1  0.69627000  0.80975000  0.33310000  1.0 -0.5801318869
S  S230  1  0.19025000  0.30373000  0.83310000  1.0 -0.5801318869
S  S231  1  0.51677000  0.87115000  0.53900000  1.0 -0.5696307992
S  S232  1  0.12885000  0.48323000  0.03900000  1.0 -0.5696307992
S  S233  1  0.19025000  0.88057000  0.27830000  1.0 -0.6202150753
S  S234  1  0.11943000  0.80975000  0.77830000  1.0 -0.6202150753
S  S235  1  0.21929000  0.79173000  0.35610000  1.0 -0.6585454872
S  S236  1  0.20827000  0.78071000  0.85610000  1.0 -0.6375900736
S  S237  1  0.28880000  0.82642000  0.28460000  1.0 -0.5520572395
S  S238  1  0.17358000  0.71120000  0.78460000  1.0 -0.5520572395
S  S239  1  0.15773000  0.96317000  0.35650000  1.0 -0.5801318869
S  S240  1  0.03683000  0.84227000  0.85650000  1.0 -0.5801318869
S  S241  1  0.18685000  0.87667000  0.43560000  1.0 -0.6898075869
S  S242  1  0.12333000  0.81315000  0.93560000  1.0 -0.6898075869
S  S243  1  0.21488000  0.78946000  0.50890000  1.0 -0.5064669183
S  S244  1  0.21054000  0.78512000  0.00890000  1.0 -0.5173549583
S  S245  1  0.22443000  0.99555000  0.44120000  1.0 -0.6202150753
S  S246  1  0.00445000  0.77557000  0.94120000  1.0 -0.6202150753
S  S247  1  0.15647000  0.96045000  0.51640000  1.0 -0.6074814231
S  S248  1  0.03955000  0.84353000  0.01640000  1.0 -0.6314609578
S  S249  1  0.18529000  0.87513000  0.59320000  1.0 -0.5613654133
S  S250  1  0.12487000  0.81471000  0.09320000  1.0 -0.5613654133
S  S251  1  0.31873000  0.94411000  0.45030000  1.0 -0.6074814231
S  S252  1  0.05589000  0.68127000  0.95030000  1.0 -0.5898245607
S  S253  1  0.28272000  0.81952000  0.59760000  1.0 -0.5801318869
S  S254  1  0.18048000  0.71728000  0.09760000  1.0 -0.5696307992
S  S255  1  0.34851000  0.85409000  0.52720000  1.0 -0.5801318869
S  S256  1  0.14591000  0.65149000  0.02720000  1.0 -0.5801318869
N  N1  1  0.40710000  0.59590000  0.39510000  1.0 -0.3192104182
N  N2  1  0.40410000  0.59290000  0.89510000  1.0 -0.3192104182
N  N3  1  0.38950000  0.57330000  0.82460000  1.0 -0.3069216987
N  N4  1  0.42670000  0.61050000  0.32460000  1.0 -0.3069216987
N  N5  1  0.16240000  0.66540000  0.58530000  1.0 -0.2891288977
N  N6  1  0.33460000  0.83760000  0.08530000  1.0 -0.2891288977
N  N7  1  0.11000000  0.69340000  0.56820000  1.0 -0.3192104182
N  N8  1  0.30660000  0.89000000  0.06820000  1.0 -0.3192104182
N  N9  1  0.90620000  0.71220000  0.27930000  1.0 -0.2981940042
N  N10  1  0.28780000  0.09380000  0.77930000  1.0 -0.2981940042
N  N11  1  0.89090000  0.69470000  0.20800000  1.0 -0.2821240058
N  N12  1  0.30530000  0.10910000  0.70800000  1.0 -0.2821240058
N  N13  1  0.86890000  0.67670000  0.70870000  1.0 -0.2696039832
N  N14  1  0.32330000  0.13110000  0.20870000  1.0 -0.2696039832
N  N15  1  0.85060000  0.66280000  0.78120000  1.0 -0.2317660859
N  N16  1  0.33720000  0.14940000  0.28120000  1.0 -0.2317660859
N  N17  1  0.87740000  0.45560000  0.05900000  1.0 -0.3497369966
N  N18  1  0.54440000  0.12260000  0.55900000  1.0 -0.3497369966
N  N19  1  0.88900000  0.40200000  0.05480000  1.0 -0.3497369966
N  N20  1  0.59800000  0.11100000  0.55480000  1.0 -0.3566851964
N  N21  1  0.65230000  0.67890000  0.06140000  1.0 -0.3309405556
N  N22  1  0.32110000  0.34770000  0.56140000  1.0 -0.3309405556
N  N23  1  0.30890000  0.40170000  0.57200000  1.0 -0.3384147441
N  N24  1  0.59830000  0.69110000  0.07200000  1.0 -0.3384147441
N  N25  1  0.89360000  0.91440000  0.55930000  1.0 -0.1899506753
N  N26  1  0.08560000  0.10640000  0.05930000  1.0 -0.1899506753
N  N27  1  0.03500000  0.13540000  0.06290000  1.0 -0.2089376381
N  N28  1  0.86460000  0.96500000  0.56290000  1.0 -0.2007031595
N  N29  1  0.80200000  0.22740000  0.28440000  1.0 -0.0703731434
N  N30  1  0.77260000  0.19800000  0.78440000  1.0 -0.0703731434
N  N31  1  0.79410000  0.20470000  0.31900000  1.0 0.341143384
N  N32  1  0.79530000  0.20590000  0.81900000  1.0 0.341143384
N  N33  1  0.59590000  0.40710000  0.10490000  1.0 -0.3192104182
N  N34  1  0.59290000  0.40410000  0.60490000  1.0 -0.3192104182
N  N35  1  0.57330000  0.38950000  0.67540000  1.0 -0.3069216987
N  N36  1  0.61050000  0.42670000  0.17540000  1.0 -0.3069216987
N  N37  1  0.66540000  0.16240000  0.91470000  1.0 -0.2891288977
N  N38  1  0.83760000  0.33460000  0.41470000  1.0 -0.2891288977
N  N39  1  0.69340000  0.11000000  0.93180000  1.0 -0.3192104182
N  N40  1  0.89000000  0.30660000  0.43180000  1.0 -0.3192104182
N  N41  1  0.71220000  0.90620000  0.22070000  1.0 -0.2891288977
N  N42  1  0.09380000  0.28780000  0.72070000  1.0 -0.2981940042
N  N43  1  0.69470000  0.89090000  0.29200000  1.0 -0.2821240058
N  N44  1  0.10910000  0.30530000  0.79200000  1.0 -0.2891288977
N  N45  1  0.67670000  0.86890000  0.79130000  1.0 -0.2696039832
N  N46  1  0.13110000  0.32330000  0.29130000  1.0 -0.2696039832
N  N47  1  0.66280000  0.85060000  0.71880000  1.0 -0.2317660859
N  N48  1  0.14940000  0.33720000  0.21880000  1.0 -0.2317660859
N  N49  1  0.45560000  0.87740000  0.44100000  1.0 -0.3384147441
N  N50  1  0.12260000  0.54440000  0.94100000  1.0 -0.3497369966
N  N51  1  0.40200000  0.88900000  0.44520000  1.0 -0.3497369966
N  N52  1  0.11100000  0.59800000  0.94520000  1.0 -0.3566851964
N  N53  1  0.67890000  0.65230000  0.43860000  1.0 -0.3309405556
N  N54  1  0.34770000  0.32110000  0.93860000  1.0 -0.3309405556
N  N55  1  0.40170000  0.30890000  0.92800000  1.0 -0.3384147441
N  N56  1  0.69110000  0.59830000  0.42800000  1.0 -0.3309405556
N  N57  1  0.91440000  0.89360000  0.94070000  1.0 -0.1669875911
N  N58  1  0.10640000  0.08560000  0.44070000  1.0 -0.2089376381
N  N59  1  0.13540000  0.03500000  0.43710000  1.0 -0.2317660859
N  N60  1  0.96500000  0.86460000  0.93710000  1.0 -0.2007031595
N  N61  1  0.22740000  0.80200000  0.21560000  1.0 -0.0622944614
N  N62  1  0.19800000  0.77260000  0.71560000  1.0 -0.0703731434
N  N63  1  0.20470000  0.79410000  0.18100000  1.0 0.341143384
N  N64  1  0.20590000  0.79530000  0.68100000  1.0 0.341143384
