# DDEC6 charges by PACMAN v1.1 (https://github.com/mtap-research/PACMAN-charge/)
data_EMIGUD_ASR_pacman
_symmetry_space_group_name_H-M   'P 1'
_cell_length_a   22.41650000
_cell_length_b   22.43880000
_cell_length_c   33.99400000
_cell_angle_alpha   90.00000000
_cell_angle_beta   90.00000000
_cell_angle_gamma   90.00000000
_symmetry_Int_Tables_number   1
_chemical_formula_structural   In5H7C8(S4N)2
_chemical_formula_sum   'In80 H112 C128 S128 N32'
_cell_volume   17098.96025064
_cell_formula_units_Z   16
loop_
 _symmetry_equiv_pos_site_id
 _symmetry_equiv_pos_as_xyz
  1  'x, y, z'
loop_
 _atom_site_type_symbol
 _atom_site_label
 _atom_site_symmetry_multiplicity
 _atom_site_fract_x
 _atom_site_fract_y
 _atom_site_fract_z
 _atom_site_occupancy
 _atom_site_charge
In  In1  1  0.70364000  0.91695000  0.76132000  1.0 0.8790114933
In  In2  1  0.29636000  0.58305000  0.26132000  1.0 0.8790114933
In  In3  1  0.20364000  0.08305000  0.73868000  1.0 0.8893280748
In  In4  1  0.79636000  0.41695000  0.23868000  1.0 0.8790114933
In  In5  1  0.77770000  0.83832000  0.84364000  1.0 0.9194047833
In  In6  1  0.22230000  0.66168000  0.34364000  1.0 0.9132466528
In  In7  1  0.27770000  0.16168000  0.65636000  1.0 0.9194047833
In  In8  1  0.72230000  0.33832000  0.15636000  1.0 0.9194047833
In  In9  1  0.68853000  0.99727000  0.85795000  1.0 0.8601503212
In  In10  1  0.31147000  0.50273000  0.35795000  1.0 0.8601503212
In  In11  1  0.18853000  0.00273000  0.64205000  1.0 0.8601503212
In  In12  1  0.81147000  0.49727000  0.14205000  1.0 0.8601503212
In  In13  1  0.84289000  0.99186000  0.79387000  1.0 0.9810898317
In  In14  1  0.15711000  0.50814000  0.29387000  1.0 0.9810898317
In  In15  1  0.34289000  0.00814000  0.70613000  1.0 0.9810898317
In  In16  1  0.65711000  0.49186000  0.20613000  1.0 0.9810898317
In  In17  1  0.85917000  0.78145000  0.93225000  1.0 0.8893280748
In  In18  1  0.14083000  0.71855000  0.43225000  1.0 0.8893280748
In  In19  1  0.35917000  0.21855000  0.56775000  1.0 0.8893280748
In  In20  1  0.64083000  0.28145000  0.06775000  1.0 0.8893280748
In  In21  1  0.77370000  0.92126000  0.95051000  1.0 0.8790114933
In  In22  1  0.22630000  0.57874000  0.45051000  1.0 0.8790114933
In  In23  1  0.27370000  0.07874000  0.54949000  1.0 0.8790114933
In  In24  1  0.72630000  0.42126000  0.04949000  1.0 0.8790114933
In  In25  1  0.92871000  0.91419000  0.88665000  1.0 0.985658786
In  In26  1  0.07129000  0.58581000  0.38665000  1.0 0.9810898317
In  In27  1  0.42871000  0.08581000  0.61335000  1.0 0.9810898317
In  In28  1  0.57129000  0.41419000  0.11335000  1.0 0.9810898317
In  In29  1  0.69551000  0.06768000  0.95562000  1.0 0.9716690246
In  In30  1  0.30449000  0.43232000  0.45562000  1.0 0.9716690246
In  In31  1  0.19551000  0.93232000  0.54438000  1.0 0.9716690246
In  In32  1  0.80449000  0.56768000  0.04438000  1.0 0.9716690246
In  In33  1  0.84027000  0.07371000  0.90189000  1.0 0.9250579688
In  In34  1  0.15973000  0.42629000  0.40189000  1.0 0.9194047833
In  In35  1  0.34027000  0.92629000  0.59811000  1.0 0.9194047833
In  In36  1  0.65973000  0.57371000  0.09811000  1.0 0.9194047833
In  In37  1  0.97789000  0.05863000  0.84175000  1.0 0.8893280748
In  In38  1  0.02211000  0.44137000  0.34175000  1.0 0.8893280748
In  In39  1  0.47789000  0.94137000  0.65825000  1.0 0.8893280748
In  In40  1  0.52211000  0.55863000  0.15825000  1.0 0.8893280748
In  In41  1  0.29636000  0.08305000  0.23868000  1.0 0.8893280748
In  In42  1  0.70364000  0.41695000  0.73868000  1.0 0.8893280748
In  In43  1  0.79636000  0.91695000  0.26132000  1.0 0.8893280748
In  In44  1  0.20364000  0.58305000  0.76132000  1.0 0.8790114933
In  In45  1  0.22230000  0.16168000  0.15636000  1.0 0.9194047833
In  In46  1  0.77770000  0.33832000  0.65636000  1.0 0.9194047833
In  In47  1  0.72230000  0.83832000  0.34364000  1.0 0.9194047833
In  In48  1  0.27770000  0.66168000  0.84364000  1.0 0.9194047833
In  In49  1  0.31147000  0.00273000  0.14205000  1.0 0.8601503212
In  In50  1  0.68853000  0.49727000  0.64205000  1.0 0.8601503212
In  In51  1  0.81147000  0.99727000  0.35795000  1.0 0.8601503212
In  In52  1  0.18853000  0.50273000  0.85795000  1.0 0.8601503212
In  In53  1  0.15711000  0.00814000  0.20613000  1.0 0.9810898317
In  In54  1  0.84289000  0.49186000  0.70613000  1.0 0.9810898317
In  In55  1  0.65711000  0.99186000  0.29387000  1.0 0.9810898317
In  In56  1  0.34289000  0.50814000  0.79387000  1.0 0.9810898317
In  In57  1  0.14083000  0.21855000  0.06775000  1.0 0.8893280748
In  In58  1  0.85917000  0.28145000  0.56775000  1.0 0.8893280748
In  In59  1  0.64083000  0.78145000  0.43225000  1.0 0.8893280748
In  In60  1  0.35917000  0.71855000  0.93225000  1.0 0.8893280748
In  In61  1  0.22630000  0.07874000  0.04949000  1.0 0.8790114933
In  In62  1  0.77370000  0.42126000  0.54949000  1.0 0.8790114933
In  In63  1  0.72630000  0.92126000  0.45051000  1.0 0.8790114933
In  In64  1  0.27370000  0.57874000  0.95051000  1.0 0.8790114933
In  In65  1  0.07129000  0.08581000  0.11335000  1.0 0.9810898317
In  In66  1  0.92871000  0.41419000  0.61335000  1.0 0.9810898317
In  In67  1  0.57129000  0.91419000  0.38665000  1.0 0.9810898317
In  In68  1  0.42871000  0.58581000  0.88665000  1.0 0.9810898317
In  In69  1  0.30449000  0.93232000  0.04438000  1.0 0.9716690246
In  In70  1  0.69551000  0.56768000  0.54438000  1.0 0.9716690246
In  In71  1  0.80449000  0.06768000  0.45562000  1.0 0.9716690246
In  In72  1  0.19551000  0.43232000  0.95562000  1.0 0.9716690246
In  In73  1  0.15973000  0.92629000  0.09811000  1.0 0.9194047833
In  In74  1  0.84027000  0.57371000  0.59811000  1.0 0.9194047833
In  In75  1  0.65973000  0.07371000  0.40189000  1.0 0.9194047833
In  In76  1  0.34027000  0.42629000  0.90189000  1.0 0.9194047833
In  In77  1  0.02211000  0.94137000  0.15825000  1.0 0.8893280748
In  In78  1  0.97789000  0.55863000  0.65825000  1.0 0.8893280748
In  In79  1  0.52211000  0.05863000  0.34175000  1.0 0.8893280748
In  In80  1  0.47789000  0.44137000  0.84175000  1.0 0.8893280748
H  H1  1  0.80640000  0.69680000  0.99950000  1.0 0.1490043469
H  H2  1  0.19360000  0.80320000  0.49950000  1.0 0.1490043469
H  H3  1  0.30640000  0.30320000  0.50050000  1.0 0.1490043469
H  H4  1  0.69360000  0.19680000  0.00050000  1.0 0.1490043469
H  H5  1  0.92480000  0.52000000  0.99400000  1.0 0.1618174687
H  H6  1  0.07520000  0.98000000  0.49400000  1.0 0.1618174687
H  H7  1  0.42480000  0.48000000  0.50600000  1.0 0.1618174687
H  H8  1  0.57520000  0.02000000  0.00600000  1.0 0.1618174687
H  H9  1  0.01030000  0.52000000  0.95530000  1.0 0.1490043469
H  H10  1  0.98970000  0.98000000  0.45530000  1.0 0.1490043469
H  H11  1  0.51030000  0.48000000  0.54470000  1.0 0.1490043469
H  H12  1  0.48970000  0.02000000  0.04470000  1.0 0.1490043469
H  H13  1  0.98010000  0.69020000  0.91940000  1.0 0.1780372846
H  H14  1  0.01990000  0.80980000  0.41940000  1.0 0.1780372846
H  H15  1  0.48010000  0.30980000  0.58060000  1.0 0.1780372846
H  H16  1  0.51990000  0.19020000  0.08060000  1.0 0.1780372846
H  H17  1  0.10020000  0.59010000  0.93620000  1.0 0.1618174687
H  H18  1  0.89980000  0.90990000  0.43620000  1.0 0.1618174687
H  H19  1  0.60020000  0.40990000  0.56380000  1.0 0.1618174687
H  H20  1  0.39980000  0.09010000  0.06380000  1.0 0.1618174687
H  H21  1  0.08300000  0.64850000  0.91170000  1.0 0.1618174687
H  H22  1  0.91700000  0.85150000  0.41170000  1.0 0.1618174687
H  H23  1  0.58300000  0.35150000  0.58830000  1.0 0.1618174687
H  H24  1  0.41700000  0.14850000  0.08830000  1.0 0.1618174687
H  H25  1  0.07130000  0.58390000  0.89340000  1.0 0.1680582246
H  H26  1  0.92870000  0.91610000  0.39340000  1.0 0.1680582246
H  H27  1  0.57130000  0.41610000  0.60660000  1.0 0.1680582246
H  H28  1  0.42870000  0.08390000  0.10660000  1.0 0.1680582246
H  H29  1  0.57750000  0.95200000  0.72220000  1.0 0.0953050617
H  H30  1  0.42250000  0.54800000  0.22220000  1.0 0.0933043766
H  H31  1  0.07750000  0.04800000  0.77780000  1.0 0.0933043766
H  H32  1  0.92250000  0.45200000  0.27780000  1.0 0.0933043766
H  H33  1  0.73000000  0.81360000  0.68910000  1.0 0.1444706905
H  H34  1  0.27000000  0.68640000  0.18910000  1.0 0.1490043469
H  H35  1  0.23000000  0.18640000  0.81090000  1.0 0.1444706905
H  H36  1  0.77000000  0.31360000  0.31090000  1.0 0.1444706905
H  H37  1  0.71710000  0.74540000  0.63840000  1.0 0.1490043469
H  H38  1  0.28290000  0.75460000  0.13840000  1.0 0.1490043469
H  H39  1  0.21710000  0.25460000  0.86160000  1.0 0.1490043469
H  H40  1  0.78290000  0.24540000  0.36160000  1.0 0.1490043469
H  H41  1  0.55480000  0.81850000  0.61360000  1.0 0.1680582246
H  H42  1  0.44520000  0.68150000  0.11360000  1.0 0.1680582246
H  H43  1  0.05480000  0.18150000  0.88640000  1.0 0.1680582246
H  H44  1  0.94520000  0.31850000  0.38640000  1.0 0.1680582246
H  H45  1  0.59550000  0.73880000  0.57380000  1.0 0.1618174687
H  H46  1  0.40450000  0.76120000  0.07380000  1.0 0.1618174687
H  H47  1  0.09550000  0.26120000  0.92620000  1.0 0.1680582246
H  H48  1  0.90450000  0.23880000  0.42620000  1.0 0.1618174687
H  H49  1  0.64930000  0.70030000  0.59140000  1.0 0.1618174687
H  H50  1  0.35070000  0.79970000  0.09140000  1.0 0.1618174687
H  H51  1  0.14930000  0.29970000  0.90860000  1.0 0.1618174687
H  H52  1  0.85070000  0.20030000  0.40860000  1.0 0.1618174687
H  H53  1  0.66300000  0.75860000  0.56580000  1.0 0.1680582246
H  H54  1  0.33700000  0.74140000  0.06580000  1.0 0.1680582246
H  H55  1  0.16300000  0.24140000  0.93420000  1.0 0.1680582246
H  H56  1  0.83700000  0.25860000  0.43420000  1.0 0.1680582246
H  H57  1  0.19360000  0.30320000  0.00050000  1.0 0.1490043469
H  H58  1  0.80640000  0.19680000  0.50050000  1.0 0.1490043469
H  H59  1  0.69360000  0.69680000  0.49950000  1.0 0.1490043469
H  H60  1  0.30640000  0.80320000  0.99950000  1.0 0.1490043469
H  H61  1  0.07520000  0.48000000  0.00600000  1.0 0.1618174687
H  H62  1  0.92480000  0.02000000  0.50600000  1.0 0.1618174687
H  H63  1  0.57520000  0.52000000  0.49400000  1.0 0.1618174687
H  H64  1  0.42480000  0.98000000  0.99400000  1.0 0.1618174687
H  H65  1  0.98970000  0.48000000  0.04470000  1.0 0.1490043469
H  H66  1  0.01030000  0.02000000  0.54470000  1.0 0.1490043469
H  H67  1  0.48970000  0.52000000  0.45530000  1.0 0.1490043469
H  H68  1  0.51030000  0.98000000  0.95530000  1.0 0.1490043469
H  H69  1  0.01990000  0.30980000  0.08060000  1.0 0.1780372846
H  H70  1  0.98010000  0.19020000  0.58060000  1.0 0.1780372846
H  H71  1  0.51990000  0.69020000  0.41940000  1.0 0.1780372846
H  H72  1  0.48010000  0.80980000  0.91940000  1.0 0.1780372846
H  H73  1  0.89980000  0.40990000  0.06380000  1.0 0.1618174687
H  H74  1  0.10020000  0.09010000  0.56380000  1.0 0.1618174687
H  H75  1  0.39980000  0.59010000  0.43620000  1.0 0.1618174687
H  H76  1  0.60020000  0.90990000  0.93620000  1.0 0.1618174687
H  H77  1  0.91700000  0.35150000  0.08830000  1.0 0.1618174687
H  H78  1  0.08300000  0.14850000  0.58830000  1.0 0.1618174687
H  H79  1  0.41700000  0.64850000  0.41170000  1.0 0.1618174687
H  H80  1  0.58300000  0.85150000  0.91170000  1.0 0.1618174687
H  H81  1  0.92870000  0.41610000  0.10660000  1.0 0.1680582246
H  H82  1  0.07130000  0.08390000  0.60660000  1.0 0.1680582246
H  H83  1  0.42870000  0.58390000  0.39340000  1.0 0.1680582246
H  H84  1  0.57130000  0.91610000  0.89340000  1.0 0.1680582246
H  H85  1  0.42250000  0.04800000  0.27780000  1.0 0.0933043766
H  H86  1  0.57750000  0.45200000  0.77780000  1.0 0.0953050617
H  H87  1  0.92250000  0.95200000  0.22220000  1.0 0.0933043766
H  H88  1  0.07750000  0.54800000  0.72220000  1.0 0.0953050617
H  H89  1  0.27000000  0.18640000  0.31090000  1.0 0.1490043469
H  H90  1  0.73000000  0.31360000  0.81090000  1.0 0.1490043469
H  H91  1  0.77000000  0.81360000  0.18910000  1.0 0.1490043469
H  H92  1  0.23000000  0.68640000  0.68910000  1.0 0.1490043469
H  H93  1  0.28290000  0.25460000  0.36160000  1.0 0.1490043469
H  H94  1  0.71710000  0.24540000  0.86160000  1.0 0.1490043469
H  H95  1  0.78290000  0.74540000  0.13840000  1.0 0.1490043469
H  H96  1  0.21710000  0.75460000  0.63840000  1.0 0.1490043469
H  H97  1  0.44520000  0.18150000  0.38640000  1.0 0.1680582246
H  H98  1  0.55480000  0.31850000  0.88640000  1.0 0.1680582246
H  H99  1  0.94520000  0.81850000  0.11360000  1.0 0.1680582246
H  H100  1  0.05480000  0.68150000  0.61360000  1.0 0.1680582246
H  H101  1  0.40450000  0.26120000  0.42620000  1.0 0.1680582246
H  H102  1  0.59550000  0.23880000  0.92620000  1.0 0.1618174687
H  H103  1  0.90450000  0.73880000  0.07380000  1.0 0.1618174687
H  H104  1  0.09550000  0.76120000  0.57380000  1.0 0.1618174687
H  H105  1  0.35070000  0.29970000  0.40860000  1.0 0.1618174687
H  H106  1  0.64930000  0.20030000  0.90860000  1.0 0.1618174687
H  H107  1  0.85070000  0.70030000  0.09140000  1.0 0.1618174687
H  H108  1  0.14930000  0.79970000  0.59140000  1.0 0.1618174687
H  H109  1  0.33700000  0.24140000  0.43420000  1.0 0.1680582246
H  H110  1  0.66300000  0.25860000  0.93420000  1.0 0.1680582246
H  H111  1  0.83700000  0.75860000  0.06580000  1.0 0.1680582246
H  H112  1  0.16300000  0.74140000  0.56580000  1.0 0.1680582246
C  C1  1  0.83990000  0.67550000  0.98970000  1.0 0.2264873051
C  C2  1  0.16010000  0.82450000  0.48970000  1.0 0.2264873051
C  C3  1  0.33990000  0.32450000  0.51030000  1.0 0.2202570433
C  C4  1  0.66010000  0.17550000  0.01030000  1.0 0.2202570433
C  C5  1  0.90430000  0.60530000  0.98020000  1.0 0.1490043469
C  C6  1  0.09570000  0.89470000  0.48020000  1.0 0.1490043469
C  C7  1  0.40430000  0.39470000  0.51980000  1.0 0.1490043469
C  C8  1  0.59570000  0.10530000  0.01980000  1.0 0.1490043469
C  C9  1  0.93660000  0.55440000  0.97970000  1.0 -0.1115610853
C  C10  1  0.06340000  0.94560000  0.47970000  1.0 -0.1115610853
C  C11  1  0.43660000  0.44560000  0.52030000  1.0 -0.1115610853
C  C12  1  0.56340000  0.05440000  0.02030000  1.0 -0.1115610853
C  C13  1  0.98730000  0.55540000  0.95720000  1.0 -0.0704771482
C  C14  1  0.01270000  0.94460000  0.45720000  1.0 -0.0704771482
C  C15  1  0.48730000  0.44460000  0.54280000  1.0 -0.0704771482
C  C16  1  0.51270000  0.05540000  0.04280000  1.0 -0.0704771482
C  C17  1  0.00710000  0.60660000  0.93660000  1.0 0.2202570433
C  C18  1  0.99290000  0.89340000  0.43660000  1.0 0.2202570433
C  C19  1  0.50710000  0.39340000  0.56340000  1.0 0.2202570433
C  C20  1  0.49290000  0.10660000  0.06340000  1.0 0.2202570433
C  C21  1  0.97020000  0.65670000  0.93520000  1.0 -0.1608557508
C  C22  1  0.02980000  0.84330000  0.43520000  1.0 -0.1608557508
C  C23  1  0.47020000  0.34330000  0.56480000  1.0 -0.1608557508
C  C24  1  0.52980000  0.15670000  0.06480000  1.0 -0.1608557508
C  C25  1  0.91990000  0.65580000  0.95710000  1.0 0.1680582246
C  C26  1  0.08010000  0.84420000  0.45710000  1.0 0.1680582246
C  C27  1  0.41990000  0.34420000  0.54290000  1.0 0.1680582246
C  C28  1  0.58010000  0.15580000  0.04290000  1.0 0.1680582246
C  C29  1  0.07150000  0.60740000  0.91770000  1.0 -0.3908522103
C  C30  1  0.92850000  0.89260000  0.41770000  1.0 -0.3908522103
C  C31  1  0.57150000  0.39260000  0.58230000  1.0 -0.3908522103
C  C32  1  0.42850000  0.10740000  0.08230000  1.0 -0.3908522103
C  C33  1  0.59250000  0.92110000  0.70580000  1.0 0.2531030577
C  C34  1  0.40750000  0.57890000  0.20580000  1.0 0.2531030577
C  C35  1  0.09250000  0.07890000  0.79420000  1.0 0.2531030577
C  C36  1  0.90750000  0.42110000  0.29420000  1.0 0.2531030577
C  C37  1  0.64940000  0.85310000  0.68310000  1.0 0.1201240185
C  C38  1  0.35060000  0.64690000  0.18310000  1.0 0.1201240185
C  C39  1  0.14940000  0.14690000  0.81690000  1.0 0.1201240185
C  C40  1  0.85060000  0.35310000  0.31690000  1.0 0.1201240185
C  C41  1  0.69420000  0.81360000  0.67420000  1.0 -0.0796111876
C  C42  1  0.30580000  0.68640000  0.17420000  1.0 -0.0796111876
C  C43  1  0.19420000  0.18640000  0.82580000  1.0 -0.0796111876
C  C44  1  0.80580000  0.31360000  0.32580000  1.0 -0.0796111876
C  C45  1  0.68700000  0.77420000  0.64380000  1.0 -0.0320752661
C  C46  1  0.31300000  0.72580000  0.14380000  1.0 -0.0320752661
C  C47  1  0.18700000  0.22580000  0.85620000  1.0 -0.0320752661
C  C48  1  0.81300000  0.27420000  0.35620000  1.0 -0.0320752661
C  C49  1  0.63480000  0.77640000  0.62020000  1.0 0.1931370922
C  C50  1  0.36520000  0.72360000  0.12020000  1.0 0.1931370922
C  C51  1  0.13480000  0.22360000  0.87980000  1.0 0.1931370922
C  C52  1  0.86520000  0.27640000  0.37980000  1.0 0.1931370922
C  C53  1  0.59020000  0.81650000  0.62890000  1.0 -0.1272028491
C  C54  1  0.40980000  0.68350000  0.12890000  1.0 -0.1272028491
C  C55  1  0.09020000  0.18350000  0.87110000  1.0 -0.1272028491
C  C56  1  0.90980000  0.31650000  0.37110000  1.0 -0.1272028491
C  C57  1  0.59890000  0.85420000  0.66110000  1.0 0.1281131169
C  C58  1  0.40110000  0.64580000  0.16110000  1.0 0.1281131169
C  C59  1  0.09890000  0.14580000  0.83890000  1.0 0.1281131169
C  C60  1  0.90110000  0.35420000  0.33890000  1.0 0.1281131169
C  C61  1  0.63600000  0.74070000  0.58500000  1.0 -0.3294451844
C  C62  1  0.36400000  0.75930000  0.08500000  1.0 -0.3294451844
C  C63  1  0.13600000  0.25930000  0.91500000  1.0 -0.3294451844
C  C64  1  0.86400000  0.24070000  0.41500000  1.0 -0.3294451844
C  C65  1  0.16010000  0.32450000  0.01030000  1.0 0.2202570433
C  C66  1  0.83990000  0.17550000  0.51030000  1.0 0.2264873051
C  C67  1  0.66010000  0.67550000  0.48970000  1.0 0.2202570433
C  C68  1  0.33990000  0.82450000  0.98970000  1.0 0.2202570433
C  C69  1  0.09570000  0.39470000  0.01980000  1.0 0.1490043469
C  C70  1  0.90430000  0.10530000  0.51980000  1.0 0.1490043469
C  C71  1  0.59570000  0.60530000  0.48020000  1.0 0.1490043469
C  C72  1  0.40430000  0.89470000  0.98020000  1.0 0.1490043469
C  C73  1  0.06340000  0.44560000  0.02030000  1.0 -0.1115610853
C  C74  1  0.93660000  0.05440000  0.52030000  1.0 -0.1115610853
C  C75  1  0.56340000  0.55440000  0.47970000  1.0 -0.1115610853
C  C76  1  0.43660000  0.94560000  0.97970000  1.0 -0.1115610853
C  C77  1  0.01270000  0.44460000  0.04280000  1.0 -0.0704771482
C  C78  1  0.98730000  0.05540000  0.54280000  1.0 -0.0704771482
C  C79  1  0.51270000  0.55540000  0.45720000  1.0 -0.0704771482
C  C80  1  0.48730000  0.94460000  0.95720000  1.0 -0.0704771482
C  C81  1  0.99290000  0.39340000  0.06340000  1.0 0.2202570433
C  C82  1  0.00710000  0.10660000  0.56340000  1.0 0.2202570433
C  C83  1  0.49290000  0.60660000  0.43660000  1.0 0.2202570433
C  C84  1  0.50710000  0.89340000  0.93660000  1.0 0.2202570433
C  C85  1  0.02980000  0.34330000  0.06480000  1.0 -0.1608557508
C  C86  1  0.97020000  0.15670000  0.56480000  1.0 -0.1608557508
C  C87  1  0.52980000  0.65670000  0.43520000  1.0 -0.1608557508
C  C88  1  0.47020000  0.84330000  0.93520000  1.0 -0.1608557508
C  C89  1  0.08010000  0.34420000  0.04290000  1.0 0.1680582246
C  C90  1  0.91990000  0.15580000  0.54290000  1.0 0.1680582246
C  C91  1  0.58010000  0.65580000  0.45710000  1.0 0.1680582246
C  C92  1  0.41990000  0.84420000  0.95710000  1.0 0.1680582246
C  C93  1  0.92850000  0.39260000  0.08230000  1.0 -0.3908522103
C  C94  1  0.07150000  0.10740000  0.58230000  1.0 -0.3908522103
C  C95  1  0.42850000  0.60740000  0.41770000  1.0 -0.3908522103
C  C96  1  0.57150000  0.89260000  0.91770000  1.0 -0.3908522103
C  C97  1  0.40750000  0.07890000  0.29420000  1.0 0.2531030577
C  C98  1  0.59250000  0.42110000  0.79420000  1.0 0.2531030577
C  C99  1  0.90750000  0.92110000  0.20580000  1.0 0.2531030577
C  C100  1  0.09250000  0.57890000  0.70580000  1.0 0.2531030577
C  C101  1  0.35060000  0.14690000  0.31690000  1.0 0.1201240185
C  C102  1  0.64940000  0.35310000  0.81690000  1.0 0.1201240185
C  C103  1  0.85060000  0.85310000  0.18310000  1.0 0.1201240185
C  C104  1  0.14940000  0.64690000  0.68310000  1.0 0.1201240185
C  C105  1  0.30580000  0.18640000  0.32580000  1.0 -0.0796111876
C  C106  1  0.69420000  0.31360000  0.82580000  1.0 -0.0796111876
C  C107  1  0.80580000  0.81360000  0.17420000  1.0 -0.0704771482
C  C108  1  0.19420000  0.68640000  0.67420000  1.0 -0.0796111876
C  C109  1  0.31300000  0.22580000  0.35620000  1.0 -0.0320752661
C  C110  1  0.68700000  0.27420000  0.85620000  1.0 -0.0320752661
C  C111  1  0.81300000  0.77420000  0.14380000  1.0 -0.0320752661
C  C112  1  0.18700000  0.72580000  0.64380000  1.0 -0.0320752661
C  C113  1  0.36520000  0.22360000  0.37980000  1.0 0.1951178524
C  C114  1  0.63480000  0.27640000  0.87980000  1.0 0.1931370922
C  C115  1  0.86520000  0.77640000  0.12020000  1.0 0.1931370922
C  C116  1  0.13480000  0.72360000  0.62020000  1.0 0.1931370922
C  C117  1  0.40980000  0.18350000  0.37110000  1.0 -0.1272028491
C  C118  1  0.59020000  0.31650000  0.87110000  1.0 -0.1272028491
C  C119  1  0.90980000  0.81650000  0.12890000  1.0 -0.1272028491
C  C120  1  0.09020000  0.68350000  0.62890000  1.0 -0.1272028491
C  C121  1  0.40110000  0.14580000  0.33890000  1.0 0.1281131169
C  C122  1  0.59890000  0.35420000  0.83890000  1.0 0.1281131169
C  C123  1  0.90110000  0.85420000  0.16110000  1.0 0.1281131169
C  C124  1  0.09890000  0.64580000  0.66110000  1.0 0.1281131169
C  C125  1  0.36400000  0.25930000  0.41500000  1.0 -0.3294451844
C  C126  1  0.63600000  0.24070000  0.91500000  1.0 -0.3294451844
C  C127  1  0.86400000  0.74070000  0.08500000  1.0 -0.3294451844
C  C128  1  0.13600000  0.75930000  0.58500000  1.0 -0.3294451844
S  S1  1  0.72310000  0.81730000  0.78447000  1.0 -0.5947786358
S  S2  1  0.27690000  0.68270000  0.28447000  1.0 -0.5999738397
S  S3  1  0.22310000  0.18270000  0.71553000  1.0 -0.5999738397
S  S4  1  0.77690000  0.31730000  0.21553000  1.0 -0.5999738397
S  S5  1  0.63326000  0.97690000  0.79850000  1.0 -0.5627622393
S  S6  1  0.36674000  0.52310000  0.29850000  1.0 -0.5627622393
S  S7  1  0.13326000  0.02310000  0.70150000  1.0 -0.5627622393
S  S8  1  0.86674000  0.47690000  0.20150000  1.0 -0.5627622393
S  S9  1  0.78630000  0.97340000  0.73474000  1.0 -0.631588259
S  S10  1  0.21370000  0.52660000  0.23474000  1.0 -0.631588259
S  S11  1  0.28630000  0.02660000  0.76526000  1.0 -0.6463102586
S  S12  1  0.71370000  0.47340000  0.26526000  1.0 -0.631588259
S  S13  1  0.80350000  0.74630000  0.87583000  1.0 -0.6683725928
S  S14  1  0.19650000  0.75370000  0.37583000  1.0 -0.6683725928
S  S15  1  0.30350000  0.25370000  0.62417000  1.0 -0.6753172066
S  S16  1  0.69650000  0.24630000  0.12417000  1.0 -0.6683725928
S  S17  1  0.71628000  0.90018000  0.88908000  1.0 -0.6683725928
S  S18  1  0.28372000  0.59982000  0.38908000  1.0 -0.6683725928
S  S19  1  0.21628000  0.09982000  0.61092000  1.0 -0.6642830756
S  S20  1  0.78372000  0.40018000  0.11092000  1.0 -0.6683725928
S  S21  1  0.87048000  0.89440000  0.82514000  1.0 -0.7481115513
S  S22  1  0.12952000  0.60560000  0.32514000  1.0 -0.7481115513
S  S23  1  0.37048000  0.10560000  0.67486000  1.0 -0.7731997904
S  S24  1  0.62952000  0.39440000  0.17486000  1.0 -0.7731997904
S  S25  1  0.62900000  0.05906000  0.90024000  1.0 -0.6082988212
S  S26  1  0.37100000  0.44094000  0.40024000  1.0 -0.6082988212
S  S27  1  0.12900000  0.94094000  0.59976000  1.0 -0.6082988212
S  S28  1  0.87100000  0.55906000  0.09976000  1.0 -0.5999738397
S  S29  1  0.78218000  0.05274000  0.84050000  1.0 -0.7014842616
S  S30  1  0.21782000  0.44726000  0.34050000  1.0 -0.7157104399
S  S31  1  0.28218000  0.94726000  0.65950000  1.0 -0.7014842616
S  S32  1  0.71782000  0.55274000  0.15950000  1.0 -0.7014842616
S  S33  1  0.93206000  0.04640000  0.77748000  1.0 -0.6082988212
S  S34  1  0.06794000  0.45360000  0.27748000  1.0 -0.6082988212
S  S35  1  0.43206000  0.95360000  0.72252000  1.0 -0.6082988212
S  S36  1  0.56794000  0.54640000  0.22252000  1.0 -0.6082988212
S  S37  1  0.80200000  0.83030000  0.98330000  1.0 -0.6463102586
S  S38  1  0.19800000  0.66970000  0.48330000  1.0 -0.6463102586
S  S39  1  0.30200000  0.16970000  0.51670000  1.0 -0.640023866
S  S40  1  0.69800000  0.33030000  0.01670000  1.0 -0.640023866
S  S41  1  0.95651000  0.82170000  0.91744000  1.0 -0.640023866
S  S42  1  0.04349000  0.67830000  0.41744000  1.0 -0.631588259
S  S43  1  0.45651000  0.17830000  0.58256000  1.0 -0.631588259
S  S44  1  0.54349000  0.32170000  0.08256000  1.0 -0.631588259
S  S45  1  0.70910000  0.97730000  0.99304000  1.0 -0.622724199
S  S46  1  0.29090000  0.52270000  0.49304000  1.0 -0.622724199
S  S47  1  0.20910000  0.02270000  0.50696000  1.0 -0.622724199
S  S48  1  0.79090000  0.47730000  0.00696000  1.0 -0.622724199
S  S49  1  0.86740000  0.97598000  0.93292000  1.0 -0.7591172443
S  S50  1  0.13260000  0.52402000  0.43292000  1.0 -0.7481115513
S  S51  1  0.36740000  0.02402000  0.56708000  1.0 -0.7481115513
S  S52  1  0.63260000  0.47598000  0.06708000  1.0 -0.7481115513
S  S53  1  0.01823000  0.96630000  0.86781000  1.0 -0.640023866
S  S54  1  0.98177000  0.53370000  0.36781000  1.0 -0.631588259
S  S55  1  0.51823000  0.03370000  0.63219000  1.0 -0.631588259
S  S56  1  0.48177000  0.46630000  0.13219000  1.0 -0.631588259
S  S57  1  0.78252000  0.13090000  0.94761000  1.0 -0.640023866
S  S58  1  0.21748000  0.36910000  0.44761000  1.0 -0.631588259
S  S59  1  0.28252000  0.86910000  0.55239000  1.0 -0.631588259
S  S60  1  0.71748000  0.63090000  0.05239000  1.0 -0.631588259
S  S61  1  0.93100000  0.12730000  0.88619000  1.0 -0.5999738397
S  S62  1  0.06900000  0.37270000  0.38619000  1.0 -0.5999738397
S  S63  1  0.43100000  0.87270000  0.61381000  1.0 -0.5999738397
S  S64  1  0.56900000  0.62730000  0.11381000  1.0 -0.5999738397
S  S65  1  0.27690000  0.18270000  0.21553000  1.0 -0.5999738397
S  S66  1  0.72310000  0.31730000  0.71553000  1.0 -0.5999738397
S  S67  1  0.77690000  0.81730000  0.28447000  1.0 -0.5999738397
S  S68  1  0.22310000  0.68270000  0.78447000  1.0 -0.5999738397
S  S69  1  0.36674000  0.02310000  0.20150000  1.0 -0.5627622393
S  S70  1  0.63326000  0.47690000  0.70150000  1.0 -0.5627622393
S  S71  1  0.86674000  0.97690000  0.29850000  1.0 -0.5627622393
S  S72  1  0.13326000  0.52310000  0.79850000  1.0 -0.5627622393
S  S73  1  0.21370000  0.02660000  0.26526000  1.0 -0.6463102586
S  S74  1  0.78630000  0.47340000  0.76526000  1.0 -0.6463102586
S  S75  1  0.71370000  0.97340000  0.23474000  1.0 -0.631588259
S  S76  1  0.28630000  0.52660000  0.73474000  1.0 -0.631588259
S  S77  1  0.19650000  0.25370000  0.12417000  1.0 -0.6683725928
S  S78  1  0.80350000  0.24630000  0.62417000  1.0 -0.6683725928
S  S79  1  0.69650000  0.74630000  0.37583000  1.0 -0.6683725928
S  S80  1  0.30350000  0.75370000  0.87583000  1.0 -0.6683725928
S  S81  1  0.28372000  0.09982000  0.11092000  1.0 -0.6683725928
S  S82  1  0.71628000  0.40018000  0.61092000  1.0 -0.6683725928
S  S83  1  0.78372000  0.90018000  0.38908000  1.0 -0.6683725928
S  S84  1  0.21628000  0.59982000  0.88908000  1.0 -0.6683725928
S  S85  1  0.12952000  0.10560000  0.17486000  1.0 -0.7481115513
S  S86  1  0.87048000  0.39440000  0.67486000  1.0 -0.7481115513
S  S87  1  0.62952000  0.89440000  0.32514000  1.0 -0.7731997904
S  S88  1  0.37048000  0.60560000  0.82514000  1.0 -0.7731997904
S  S89  1  0.37100000  0.94094000  0.09976000  1.0 -0.6082988212
S  S90  1  0.62900000  0.55906000  0.59976000  1.0 -0.6082988212
S  S91  1  0.87100000  0.05906000  0.40024000  1.0 -0.5999738397
S  S92  1  0.12900000  0.44094000  0.90024000  1.0 -0.6082988212
S  S93  1  0.21782000  0.94726000  0.15950000  1.0 -0.7157104399
S  S94  1  0.78218000  0.55274000  0.65950000  1.0 -0.7014842616
S  S95  1  0.71782000  0.05274000  0.34050000  1.0 -0.7014842616
S  S96  1  0.28218000  0.44726000  0.84050000  1.0 -0.7014842616
S  S97  1  0.06794000  0.95360000  0.22252000  1.0 -0.6082988212
S  S98  1  0.93206000  0.54640000  0.72252000  1.0 -0.6082988212
S  S99  1  0.56794000  0.04640000  0.27748000  1.0 -0.6082988212
S  S100  1  0.43206000  0.45360000  0.77748000  1.0 -0.6082988212
S  S101  1  0.19800000  0.16970000  0.01670000  1.0 -0.6463102586
S  S102  1  0.80200000  0.33030000  0.51670000  1.0 -0.640023866
S  S103  1  0.69800000  0.83030000  0.48330000  1.0 -0.640023866
S  S104  1  0.30200000  0.66970000  0.98330000  1.0 -0.640023866
S  S105  1  0.04349000  0.17830000  0.08256000  1.0 -0.631588259
S  S106  1  0.95651000  0.32170000  0.58256000  1.0 -0.631588259
S  S107  1  0.54349000  0.82170000  0.41744000  1.0 -0.631588259
S  S108  1  0.45651000  0.67830000  0.91744000  1.0 -0.631588259
S  S109  1  0.29090000  0.02270000  0.00696000  1.0 -0.622724199
S  S110  1  0.70910000  0.47730000  0.50696000  1.0 -0.622724199
S  S111  1  0.79090000  0.97730000  0.49304000  1.0 -0.622724199
S  S112  1  0.20910000  0.52270000  0.99304000  1.0 -0.622724199
S  S113  1  0.13260000  0.02402000  0.06708000  1.0 -0.7591172443
S  S114  1  0.86740000  0.47598000  0.56708000  1.0 -0.7591172443
S  S115  1  0.63260000  0.97598000  0.43292000  1.0 -0.7481115513
S  S116  1  0.36740000  0.52402000  0.93292000  1.0 -0.7481115513
S  S117  1  0.98177000  0.03370000  0.13219000  1.0 -0.631588259
S  S118  1  0.01823000  0.46630000  0.63219000  1.0 -0.640023866
S  S119  1  0.48177000  0.96630000  0.36781000  1.0 -0.631588259
S  S120  1  0.51823000  0.53370000  0.86781000  1.0 -0.640023866
S  S121  1  0.21748000  0.86910000  0.05239000  1.0 -0.631588259
S  S122  1  0.78252000  0.63090000  0.55239000  1.0 -0.631588259
S  S123  1  0.71748000  0.13090000  0.44761000  1.0 -0.631588259
S  S124  1  0.28252000  0.36910000  0.94761000  1.0 -0.631588259
S  S125  1  0.06900000  0.87270000  0.11381000  1.0 -0.5999738397
S  S126  1  0.93100000  0.62730000  0.61381000  1.0 -0.5999738397
S  S127  1  0.56900000  0.12730000  0.38619000  1.0 -0.5999738397
S  S128  1  0.43100000  0.37270000  0.88619000  1.0 -0.5999738397
N  N1  1  0.85380000  0.62030000  0.00160000  1.0 -0.2893998924
N  N2  1  0.14620000  0.87970000  0.50160000  1.0 -0.2893998924
N  N3  1  0.35380000  0.37970000  0.49840000  1.0 -0.2893998924
N  N4  1  0.64620000  0.12030000  0.99840000  1.0 -0.2893998924
N  N5  1  0.87710000  0.69820000  0.96290000  1.0 -0.3000393958
N  N6  1  0.12290000  0.80180000  0.46290000  1.0 -0.3000393958
N  N7  1  0.37710000  0.30180000  0.53710000  1.0 -0.3000393958
N  N8  1  0.62290000  0.19820000  0.03710000  1.0 -0.3000393958
N  N9  1  0.56140000  0.89930000  0.67640000  1.0 -0.3000393958
N  N10  1  0.43860000  0.60070000  0.17640000  1.0 -0.3000393958
N  N11  1  0.06140000  0.10070000  0.82360000  1.0 -0.2893998924
N  N12  1  0.93860000  0.39930000  0.32360000  1.0 -0.3000393958
N  N13  1  0.64620000  0.89730000  0.71110000  1.0 -0.2893998924
N  N14  1  0.35380000  0.60270000  0.21110000  1.0 -0.2893998924
N  N15  1  0.14620000  0.10270000  0.78890000  1.0 -0.2893998924
N  N16  1  0.85380000  0.39730000  0.28890000  1.0 -0.2893998924
N  N17  1  0.14620000  0.37970000  0.99840000  1.0 -0.2893998924
N  N18  1  0.85380000  0.12030000  0.49840000  1.0 -0.2893998924
N  N19  1  0.64620000  0.62030000  0.50160000  1.0 -0.2893998924
N  N20  1  0.35380000  0.87970000  0.00160000  1.0 -0.2893998924
N  N21  1  0.12290000  0.30180000  0.03710000  1.0 -0.3000393958
N  N22  1  0.87710000  0.19820000  0.53710000  1.0 -0.3000393958
N  N23  1  0.62290000  0.69820000  0.46290000  1.0 -0.3000393958
N  N24  1  0.37710000  0.80180000  0.96290000  1.0 -0.3000393958
N  N25  1  0.43860000  0.10070000  0.32360000  1.0 -0.3000393958
N  N26  1  0.56140000  0.39930000  0.82360000  1.0 -0.3000393958
N  N27  1  0.93860000  0.89930000  0.17640000  1.0 -0.3000393958
N  N28  1  0.06140000  0.60070000  0.67640000  1.0 -0.2893998924
N  N29  1  0.35380000  0.10270000  0.28890000  1.0 -0.2893998924
N  N30  1  0.64620000  0.39730000  0.78890000  1.0 -0.2893998924
N  N31  1  0.85380000  0.89730000  0.21110000  1.0 -0.2893998924
N  N32  1  0.14620000  0.60270000  0.71110000  1.0 -0.2893998924
