# DDEC6 charges by PACMAN v1.1 (https://github.com/mtap-research/PACMAN-charge/)
data_EMIREX_ASR_pacman
_symmetry_space_group_name_H-M   'P 1'
_cell_length_a   21.69780000
_cell_length_b   21.69780000
_cell_length_c   7.40570000
_cell_angle_alpha   90.00000000
_cell_angle_beta   90.00000000
_cell_angle_gamma   90.00000000
_symmetry_Int_Tables_number   1
_chemical_formula_structural   BaH57C24S4N10O11
_chemical_formula_sum   'Ba4 H228 C96 S16 N40 O44'
_cell_volume   3486.56301261
_cell_formula_units_Z   4
loop_
 _symmetry_equiv_pos_site_id
 _symmetry_equiv_pos_as_xyz
  1  'x, y, z'
loop_
 _atom_site_type_symbol
 _atom_site_label
 _atom_site_symmetry_multiplicity
 _atom_site_fract_x
 _atom_site_fract_y
 _atom_site_fract_z
 _atom_site_occupancy
 _atom_site_charge
Ba  Ba1  1  0.46280000  0.95725000  0.21367000  1.0 1.4359123108
Ba  Ba2  1  0.53720000  0.04275000  0.71367000  1.0 1.4359123108
Ba  Ba3  1  0.95725000  0.53720000  0.96367000  1.0 1.4359123108
Ba  Ba4  1  0.04275000  0.46280000  0.46367000  1.0 1.4359123108
H  H1  1  0.24580000  0.92780000  0.24620000  1.0 0.2732624855
H  H2  1  0.75420000  0.07220000  0.74620000  1.0 0.2732624855
H  H3  1  0.92780000  0.75420000  0.99620000  1.0 0.2732624855
H  H4  1  0.07220000  0.24580000  0.49620000  1.0 0.2732624855
H  H5  1  0.25290000  0.89000000  0.60340000  1.0 0.0893777854
H  H6  1  0.74710000  0.11000000  0.10340000  1.0 0.0893777854
H  H7  1  0.89000000  0.74710000  0.35340000  1.0 0.0893777854
H  H8  1  0.11000000  0.25290000  0.85340000  1.0 0.0893777854
H  H9  1  0.23710000  0.01690000  0.51780000  1.0 0.0709351365
H  H10  1  0.76290000  0.98310000  0.01780000  1.0 0.0709351365
H  H11  1  0.01690000  0.76290000  0.26780000  1.0 0.0709351365
H  H12  1  0.98310000  0.23710000  0.76780000  1.0 0.0709351365
H  H13  1  0.23150000  0.98610000  0.71170000  1.0 0.1084433958
H  H14  1  0.76850000  0.01390000  0.21170000  1.0 0.1084433958
H  H15  1  0.98610000  0.76850000  0.46170000  1.0 0.1084433958
H  H16  1  0.01390000  0.23150000  0.96170000  1.0 0.1084433958
H  H17  1  0.13490000  0.96960000  0.68710000  1.0 0.0628699016
H  H18  1  0.86510000  0.03040000  0.18710000  1.0 0.0628699016
H  H19  1  0.96960000  0.86510000  0.43710000  1.0 0.0628699016
H  H20  1  0.03040000  0.13490000  0.93710000  1.0 0.0628699016
H  H21  1  0.09030000  0.06500000  0.20570000  1.0 0.0709351365
H  H22  1  0.90970000  0.93500000  0.70570000  1.0 0.0709351365
H  H23  1  0.06500000  0.90970000  0.95570000  1.0 0.0709351365
H  H24  1  0.93500000  0.09030000  0.45570000  1.0 0.0709351365
H  H25  1  0.15540000  0.03150000  0.23100000  1.0 0.0813311683
H  H26  1  0.84460000  0.96850000  0.73100000  1.0 0.0813311683
H  H27  1  0.03150000  0.84460000  0.98100000  1.0 0.0813311683
H  H28  1  0.96850000  0.15540000  0.48100000  1.0 0.0813311683
H  H29  1  0.09290000  0.99260000  0.24750000  1.0 0.0628699016
H  H30  1  0.90710000  0.00740000  0.74750000  1.0 0.0628699016
H  H31  1  0.99260000  0.90710000  0.99750000  1.0 0.0628699016
H  H32  1  0.00740000  0.09290000  0.49750000  1.0 0.0628699016
H  H33  1  0.13680000  0.94930000  0.49070000  1.0 0.1415807527
H  H34  1  0.86320000  0.05070000  0.99070000  1.0 0.1415807527
H  H35  1  0.94930000  0.86320000  0.24070000  1.0 0.1415807527
H  H36  1  0.05070000  0.13680000  0.74070000  1.0 0.1415807527
H  H37  1  0.26240000  0.88020000  0.00090000  1.0 0.1084433958
H  H38  1  0.73760000  0.11980000  0.50090000  1.0 0.1084433958
H  H39  1  0.88020000  0.73760000  0.75090000  1.0 0.1084433958
H  H40  1  0.11980000  0.26240000  0.25090000  1.0 0.1084433958
H  H41  1  0.21080000  0.85180000  0.87080000  1.0 0.1212816291
H  H42  1  0.78920000  0.14820000  0.37080000  1.0 0.1212816291
H  H43  1  0.85180000  0.78920000  0.62080000  1.0 0.1212816291
H  H44  1  0.14820000  0.21080000  0.12080000  1.0 0.1212816291
H  H45  1  0.19650000  0.91290000  0.98420000  1.0 0.1084433958
H  H46  1  0.80350000  0.08710000  0.48420000  1.0 0.1084433958
H  H47  1  0.91290000  0.80350000  0.73420000  1.0 0.1084433958
H  H48  1  0.08710000  0.19650000  0.23420000  1.0 0.1084433958
H  H49  1  0.15980000  0.74410000  0.67560000  1.0 0.3283104993
H  H50  1  0.84020000  0.25590000  0.17560000  1.0 0.3283104993
H  H51  1  0.74410000  0.84020000  0.42560000  1.0 0.3283104993
H  H52  1  0.25590000  0.15980000  0.92560000  1.0 0.3283104993
H  H53  1  0.12860000  0.69610000  0.55650000  1.0 0.3032100048
H  H54  1  0.87140000  0.30390000  0.05650000  1.0 0.3032100048
H  H55  1  0.69610000  0.87140000  0.30650000  1.0 0.3032100048
H  H56  1  0.30390000  0.12860000  0.80650000  1.0 0.3032100048
H  H57  1  0.56700000  0.75890000  0.02950000  1.0 0.2789679949
H  H58  1  0.43300000  0.24110000  0.52950000  1.0 0.2789679949
H  H59  1  0.75890000  0.43300000  0.77950000  1.0 0.2789679949
H  H60  1  0.24110000  0.56700000  0.27950000  1.0 0.2789679949
H  H61  1  0.57680000  0.72200000  0.39120000  1.0 0.0980592188
H  H62  1  0.42320000  0.27800000  0.89120000  1.0 0.0980592188
H  H63  1  0.72200000  0.42320000  0.14120000  1.0 0.0980592188
H  H64  1  0.27800000  0.57680000  0.64120000  1.0 0.0980592188
H  H65  1  0.46580000  0.72840000  0.17540000  1.0 0.0980592188
H  H66  1  0.53420000  0.27160000  0.67540000  1.0 0.0980592188
H  H67  1  0.72840000  0.53420000  0.92540000  1.0 0.0980592188
H  H68  1  0.27160000  0.46580000  0.42540000  1.0 0.0980592188
H  H69  1  0.46550000  0.71270000  0.38630000  1.0 0.1084433958
H  H70  1  0.53450000  0.28730000  0.88630000  1.0 0.1084433958
H  H71  1  0.71270000  0.53450000  0.13630000  1.0 0.1084433958
H  H72  1  0.28730000  0.46550000  0.63630000  1.0 0.1084433958
H  H73  1  0.53160000  0.63530000  0.14410000  1.0 0.1084433958
H  H74  1  0.46840000  0.36470000  0.64410000  1.0 0.1084433958
H  H75  1  0.63530000  0.46840000  0.89410000  1.0 0.1084433958
H  H76  1  0.36470000  0.53160000  0.39410000  1.0 0.1084433958
H  H77  1  0.50780000  0.61800000  0.34200000  1.0 0.1212816291
H  H78  1  0.49220000  0.38200000  0.84200000  1.0 0.1212816291
H  H79  1  0.61800000  0.49220000  0.09200000  1.0 0.1212816291
H  H80  1  0.38200000  0.50780000  0.59200000  1.0 0.1212816291
H  H81  1  0.47100000  0.61670000  0.84900000  1.0 0.1415807527
H  H82  1  0.52900000  0.38330000  0.34900000  1.0 0.1415807527
H  H83  1  0.61670000  0.52900000  0.59900000  1.0 0.1415807527
H  H84  1  0.38330000  0.47100000  0.09900000  1.0 0.1415807527
H  H85  1  0.39760000  0.62200000  0.83890000  1.0 0.1486781584
H  H86  1  0.60240000  0.37800000  0.33890000  1.0 0.1486781584
H  H87  1  0.62200000  0.60240000  0.58890000  1.0 0.1486781584
H  H88  1  0.37800000  0.39760000  0.08890000  1.0 0.1486781584
H  H89  1  0.43750000  0.67920000  0.90880000  1.0 0.1486781584
H  H90  1  0.56250000  0.32080000  0.40880000  1.0 0.1486781584
H  H91  1  0.67920000  0.56250000  0.65880000  1.0 0.1486781584
H  H92  1  0.32080000  0.43750000  0.15880000  1.0 0.1486781584
H  H93  1  0.61990000  0.78910000  0.80800000  1.0 0.1317678594
H  H94  1  0.38010000  0.21090000  0.30800000  1.0 0.1317678594
H  H95  1  0.78910000  0.38010000  0.55800000  1.0 0.1317678594
H  H96  1  0.21090000  0.61990000  0.05800000  1.0 0.1317678594
H  H97  1  0.65580000  0.74420000  0.67240000  1.0 0.1486781584
H  H98  1  0.34420000  0.25580000  0.17240000  1.0 0.1486781584
H  H99  1  0.74420000  0.34420000  0.42240000  1.0 0.1486781584
H  H100  1  0.25580000  0.65580000  0.92240000  1.0 0.1486781584
H  H101  1  0.59310000  0.72190000  0.76570000  1.0 0.1317678594
H  H102  1  0.40690000  0.27810000  0.26570000  1.0 0.1317678594
H  H103  1  0.72190000  0.40690000  0.51570000  1.0 0.1317678594
H  H104  1  0.27810000  0.59310000  0.01570000  1.0 0.1317678594
H  H105  1  0.74030000  0.65760000  0.47750000  1.0 0.3283104993
H  H106  1  0.25970000  0.34240000  0.97750000  1.0 0.3283104993
H  H107  1  0.65760000  0.25970000  0.22750000  1.0 0.3283104993
H  H108  1  0.34240000  0.74030000  0.72750000  1.0 0.3283104993
H  H109  1  0.79340000  0.63630000  0.35790000  1.0 0.3177558441
H  H110  1  0.20660000  0.36370000  0.85790000  1.0 0.3177558441
H  H111  1  0.63630000  0.20660000  0.10790000  1.0 0.3177558441
H  H112  1  0.36370000  0.79340000  0.60790000  1.0 0.3177558441
H  H113  1  0.53410000  0.90160000  0.90100000  1.0 0.3032100048
H  H114  1  0.46590000  0.09840000  0.40100000  1.0 0.3032100048
H  H115  1  0.90160000  0.46590000  0.65100000  1.0 0.3032100048
H  H116  1  0.09840000  0.53410000  0.15100000  1.0 0.3032100048
H  H117  1  0.58180000  0.92720000  0.97960000  1.0 0.3177558441
H  H118  1  0.41820000  0.07280000  0.47960000  1.0 0.3177558441
H  H119  1  0.92720000  0.41820000  0.72960000  1.0 0.3177558441
H  H120  1  0.07280000  0.58180000  0.22960000  1.0 0.3177558441
H  H121  1  0.55850000  0.07290000  0.11280000  1.0 0.3406752047
H  H122  1  0.44150000  0.92710000  0.61280000  1.0 0.3406752047
H  H123  1  0.07290000  0.44150000  0.86280000  1.0 0.3406752047
H  H124  1  0.92710000  0.55850000  0.36280000  1.0 0.3406752047
H  H125  1  0.50460000  0.10410000  0.07140000  1.0 0.3406752047
H  H126  1  0.49540000  0.89590000  0.57140000  1.0 0.3406752047
H  H127  1  0.10410000  0.49540000  0.82140000  1.0 0.3406752047
H  H128  1  0.89590000  0.50460000  0.32140000  1.0 0.3406752047
H  H129  1  0.39830000  0.04190000  0.93080000  1.0 0.3283104993
H  H130  1  0.60170000  0.95810000  0.43080000  1.0 0.3283104993
H  H131  1  0.04190000  0.60170000  0.68080000  1.0 0.3283104993
H  H132  1  0.95810000  0.39830000  0.18080000  1.0 0.3283104993
H  H133  1  0.39710000  0.99280000  0.81440000  1.0 0.3592344295
H  H134  1  0.60290000  0.00720000  0.31440000  1.0 0.3592344295
H  H135  1  0.99280000  0.60290000  0.56440000  1.0 0.3592344295
H  H136  1  0.00720000  0.39710000  0.06440000  1.0 0.3592344295
H  H137  1  0.22630000  0.01460000  0.49580000  1.0 0.0980592188
H  H138  1  0.77370000  0.98540000  0.99580000  1.0 0.0980592188
H  H139  1  0.01460000  0.77370000  0.24580000  1.0 0.0980592188
H  H140  1  0.98540000  0.22630000  0.74580000  1.0 0.0980592188
H  H141  1  0.23810000  0.99400000  0.70010000  1.0 0.0709351365
H  H142  1  0.76190000  0.00600000  0.20010000  1.0 0.0709351365
H  H143  1  0.99400000  0.76190000  0.45010000  1.0 0.0709351365
H  H144  1  0.00600000  0.23810000  0.95010000  1.0 0.0709351365
H  H145  1  0.22160000  0.01340000  0.49070000  1.0 0.1084433958
H  H146  1  0.77840000  0.98660000  0.99070000  1.0 0.1084433958
H  H147  1  0.01340000  0.77840000  0.24070000  1.0 0.1084433958
H  H148  1  0.98660000  0.22160000  0.74070000  1.0 0.1084433958
H  H149  1  0.23940000  0.99670000  0.69550000  1.0 0.0628699016
H  H150  1  0.76060000  0.00330000  0.19550000  1.0 0.0628699016
H  H151  1  0.99670000  0.76060000  0.44550000  1.0 0.0628699016
H  H152  1  0.00330000  0.23940000  0.94550000  1.0 0.0628699016
H  H153  1  0.13950000  0.94920000  0.48180000  1.0 0.1415807527
H  H154  1  0.86050000  0.05080000  0.98180000  1.0 0.1415807527
H  H155  1  0.94920000  0.86050000  0.23180000  1.0 0.1415807527
H  H156  1  0.05080000  0.13950000  0.73180000  1.0 0.1415807527
H  H157  1  0.13550000  0.99440000  0.25040000  1.0 0.0628699016
H  H158  1  0.86450000  0.00560000  0.75040000  1.0 0.0628699016
H  H159  1  0.99440000  0.86450000  0.00040000  1.0 0.0628699016
H  H160  1  0.00560000  0.13550000  0.50040000  1.0 0.0628699016
H  H161  1  0.07030000  0.02790000  0.22520000  1.0 0.0516335154
H  H162  1  0.92970000  0.97210000  0.72520000  1.0 0.0516335154
H  H163  1  0.02790000  0.92970000  0.97520000  1.0 0.0516335154
H  H164  1  0.97210000  0.07030000  0.47520000  1.0 0.0516335154
H  H165  1  0.13280000  0.06670000  0.20860000  1.0 0.0813311683
H  H166  1  0.86720000  0.93330000  0.70860000  1.0 0.0813311683
H  H167  1  0.06670000  0.86720000  0.95860000  1.0 0.0813311683
H  H168  1  0.93330000  0.13280000  0.45860000  1.0 0.0813311683
H  H169  1  0.14740000  0.93550000  0.70040000  1.0 0.0980592188
H  H170  1  0.85260000  0.06450000  0.20040000  1.0 0.0980592188
H  H171  1  0.93550000  0.85260000  0.45040000  1.0 0.0980592188
H  H172  1  0.06450000  0.14740000  0.95040000  1.0 0.0980592188
H  H173  1  0.10920000  0.06960000  0.94830000  1.0 0.0516335154
H  H174  1  0.89080000  0.93040000  0.44830000  1.0 0.0516335154
H  H175  1  0.06960000  0.89080000  0.69830000  1.0 0.0516335154
H  H176  1  0.93040000  0.10920000  0.19830000  1.0 0.0516335154
H  H177  1  0.12340000  0.99720000  0.94810000  1.0 0.0709351365
H  H178  1  0.87660000  0.00280000  0.44810000  1.0 0.0709351365
H  H179  1  0.99720000  0.87660000  0.69810000  1.0 0.0709351365
H  H180  1  0.00280000  0.12340000  0.19810000  1.0 0.0709351365
H  H181  1  0.17630000  0.04520000  0.89400000  1.0 0.0893777854
H  H182  1  0.82370000  0.95480000  0.39400000  1.0 0.0893777854
H  H183  1  0.04520000  0.82370000  0.64400000  1.0 0.0893777854
H  H184  1  0.95480000  0.17630000  0.14400000  1.0 0.0893777854
H  H185  1  0.16340000  0.00510000  0.91190000  1.0 0.0709351365
H  H186  1  0.83660000  0.99490000  0.41190000  1.0 0.0709351365
H  H187  1  0.00510000  0.83660000  0.66190000  1.0 0.0709351365
H  H188  1  0.99490000  0.16340000  0.16190000  1.0 0.0709351365
H  H189  1  0.14920000  0.07750000  0.91220000  1.0 0.0893777854
H  H190  1  0.85080000  0.92250000  0.41220000  1.0 0.0893777854
H  H191  1  0.07750000  0.85080000  0.66220000  1.0 0.0893777854
H  H192  1  0.92250000  0.14920000  0.16220000  1.0 0.0893777854
H  H193  1  0.09630000  0.02950000  0.96630000  1.0 0.0377214529
H  H194  1  0.90370000  0.97050000  0.46630000  1.0 0.0377214529
H  H195  1  0.02950000  0.90370000  0.71630000  1.0 0.0377214529
H  H196  1  0.97050000  0.09630000  0.21630000  1.0 0.0377214529
H  H197  1  0.13490000  0.95350000  0.49790000  1.0 0.1415807527
H  H198  1  0.86510000  0.04650000  0.99790000  1.0 0.1415807527
H  H199  1  0.95350000  0.86510000  0.24790000  1.0 0.1415807527
H  H200  1  0.04650000  0.13490000  0.74790000  1.0 0.1415807527
H  H201  1  0.15720000  0.91760000  0.67390000  1.0 0.0980592188
H  H202  1  0.84280000  0.08240000  0.17390000  1.0 0.0980592188
H  H203  1  0.91760000  0.84280000  0.42390000  1.0 0.0980592188
H  H204  1  0.08240000  0.15720000  0.92390000  1.0 0.0980592188
H  H205  1  0.01470000  0.98090000  0.86470000  1.0 0.03073824
H  H206  1  0.98530000  0.01910000  0.36470000  1.0 0.03073824
H  H207  1  0.98090000  0.98530000  0.61470000  1.0 0.03073824
H  H208  1  0.01910000  0.01470000  0.11470000  1.0 0.03073824
H  H209  1  0.02500000  0.94900000  0.67220000  1.0 0.03073824
H  H210  1  0.97500000  0.05100000  0.17220000  1.0 0.03073824
H  H211  1  0.94900000  0.97500000  0.42220000  1.0 0.03073824
H  H212  1  0.05100000  0.02500000  0.92220000  1.0 0.03073824
H  H213  1  0.05750000  0.92110000  0.84820000  1.0 -0.0043278167
H  H214  1  0.94250000  0.07890000  0.34820000  1.0 -0.0043278167
H  H215  1  0.92110000  0.94250000  0.59820000  1.0 -0.0043278167
H  H216  1  0.07890000  0.05750000  0.09820000  1.0 -0.0043278167
H  H217  1  0.05010000  0.91980000  0.72540000  1.0 0.0516335154
H  H218  1  0.94990000  0.08020000  0.22540000  1.0 0.0516335154
H  H219  1  0.91980000  0.94990000  0.47540000  1.0 0.0516335154
H  H220  1  0.08020000  0.05010000  0.97540000  1.0 0.0516335154
H  H221  1  0.03980000  0.95170000  0.91790000  1.0 0.03073824
H  H222  1  0.96020000  0.04830000  0.41790000  1.0 0.03073824
H  H223  1  0.95170000  0.96020000  0.66790000  1.0 0.03073824
H  H224  1  0.04830000  0.03980000  0.16790000  1.0 0.03073824
H  H225  1  0.00730000  0.97960000  0.74190000  1.0 0.0377214529
H  H226  1  0.99270000  0.02040000  0.24190000  1.0 0.0377214529
H  H227  1  0.97960000  0.99270000  0.49190000  1.0 0.0377214529
H  H228  1  0.02040000  0.00730000  0.99190000  1.0 0.0377214529
C  C1  1  0.20849000  0.85107000  0.31120000  1.0 0.2789679949
C  C2  1  0.79151000  0.14893000  0.81120000  1.0 0.2789679949
C  C3  1  0.85107000  0.79151000  0.06120000  1.0 0.2789679949
C  C4  1  0.14893000  0.20849000  0.56120000  1.0 0.2789679949
C  C5  1  0.25853000  0.92450000  0.51560000  1.0 -0.0402923115
C  C6  1  0.74147000  0.07550000  0.01560000  1.0 -0.0344985596
C  C7  1  0.92450000  0.74147000  0.26560000  1.0 -0.0402923115
C  C8  1  0.07550000  0.25853000  0.76560000  1.0 -0.0402923115
C  C9  1  0.32663000  0.94256000  0.51340000  1.0 0.5702925842
C  C10  1  0.67337000  0.05744000  0.01340000  1.0 0.5702925842
C  C11  1  0.94256000  0.67337000  0.26340000  1.0 0.5702925842
C  C12  1  0.05744000  0.32663000  0.76340000  1.0 0.5702925842
C  C13  1  0.22122000  0.98030000  0.58260000  1.0 -0.210626664
C  C14  1  0.77878000  0.01970000  0.08260000  1.0 -0.210626664
C  C15  1  0.98030000  0.77878000  0.33260000  1.0 -0.210626664
C  C16  1  0.01970000  0.22122000  0.83260000  1.0 -0.210626664
C  C17  1  0.15120000  0.98210000  0.56800000  1.0 -0.0896642286
C  C18  1  0.84880000  0.01790000  0.06800000  1.0 -0.0896642286
C  C19  1  0.98210000  0.84880000  0.31800000  1.0 -0.0896642286
C  C20  1  0.01790000  0.15120000  0.81800000  1.0 -0.0896642286
C  C21  1  0.11240000  0.03260000  0.27130000  1.0 -0.4801885042
C  C22  1  0.88760000  0.96740000  0.77130000  1.0 -0.4801885042
C  C23  1  0.03260000  0.88760000  0.02130000  1.0 -0.4801885042
C  C24  1  0.96740000  0.11240000  0.52130000  1.0 -0.4801885042
C  C25  1  0.21810000  0.87320000  0.98530000  1.0 -0.3573779281
C  C26  1  0.78190000  0.12680000  0.48530000  1.0 -0.3573779281
C  C27  1  0.87320000  0.78190000  0.73530000  1.0 -0.3573779281
C  C28  1  0.12680000  0.21810000  0.23530000  1.0 -0.3573779281
C  C29  1  0.15979000  0.78340000  0.09380000  1.0 0.3849490878
C  C30  1  0.84021000  0.21660000  0.59380000  1.0 0.3855413791
C  C31  1  0.78340000  0.84021000  0.84380000  1.0 0.3849490878
C  C32  1  0.21660000  0.15979000  0.34380000  1.0 0.3855413791
C  C33  1  0.14520000  0.74418000  0.24750000  1.0 -0.1451190564
C  C34  1  0.85480000  0.25582000  0.74750000  1.0 -0.1451190564
C  C35  1  0.74418000  0.85480000  0.99750000  1.0 -0.1451190564
C  C36  1  0.25582000  0.14520000  0.49750000  1.0 -0.1389618489
C  C37  1  0.16220000  0.76370000  0.42460000  1.0 0.3504218009
C  C38  1  0.83780000  0.23630000  0.92460000  1.0 0.3504218009
C  C39  1  0.76370000  0.83780000  0.17460000  1.0 0.3504218009
C  C40  1  0.23630000  0.16220000  0.67460000  1.0 0.3504218009
C  C41  1  0.64154000  0.72001000  0.10630000  1.0 0.4458349344
C  C42  1  0.35846000  0.27999000  0.60630000  1.0 0.4458349344
C  C43  1  0.72001000  0.35846000  0.85630000  1.0 0.4458349344
C  C44  1  0.27999000  0.64154000  0.35630000  1.0 0.4458349344
C  C45  1  0.55149000  0.74280000  0.29620000  1.0 0.0039243918
C  C46  1  0.44851000  0.25720000  0.79620000  1.0 0.0039243918
C  C47  1  0.74280000  0.44851000  0.04620000  1.0 0.0039243918
C  C48  1  0.25720000  0.55149000  0.54620000  1.0 0.0039243918
C  C49  1  0.53628000  0.80928000  0.35600000  1.0 0.5702925842
C  C50  1  0.46372000  0.19072000  0.85600000  1.0 0.5702925842
C  C51  1  0.80928000  0.46372000  0.10600000  1.0 0.5702925842
C  C52  1  0.19072000  0.53628000  0.60600000  1.0 0.5702925842
C  C53  1  0.48960000  0.70850000  0.27340000  1.0 -0.210626664
C  C54  1  0.51040000  0.29150000  0.77340000  1.0 -0.210626664
C  C55  1  0.70850000  0.51040000  0.02340000  1.0 -0.210626664
C  C56  1  0.29150000  0.48960000  0.52340000  1.0 -0.210626664
C  C57  1  0.49700000  0.64030000  0.22980000  1.0 -0.1858931783
C  C58  1  0.50300000  0.35970000  0.72980000  1.0 -0.1858931783
C  C59  1  0.64030000  0.50300000  0.97980000  1.0 -0.1858931783
C  C60  1  0.35970000  0.49700000  0.47980000  1.0 -0.1858931783
C  C61  1  0.43430000  0.63410000  0.90690000  1.0 -0.4315505739
C  C62  1  0.56570000  0.36590000  0.40690000  1.0 -0.4315505739
C  C63  1  0.63410000  0.56570000  0.65690000  1.0 -0.4315505739
C  C64  1  0.36590000  0.43430000  0.15690000  1.0 -0.4315505739
C  C65  1  0.63080000  0.74610000  0.78250000  1.0 -0.3165742013
C  C66  1  0.36920000  0.25390000  0.28250000  1.0 -0.3165742013
C  C67  1  0.74610000  0.36920000  0.53250000  1.0 -0.3165742013
C  C68  1  0.25390000  0.63080000  0.03250000  1.0 -0.3165742013
C  C69  1  0.72212000  0.69186000  0.89650000  1.0 0.4006430504
C  C70  1  0.27788000  0.30814000  0.39650000  1.0 0.4006430504
C  C71  1  0.69186000  0.27788000  0.64650000  1.0 0.4006430504
C  C72  1  0.30814000  0.72212000  0.14650000  1.0 0.4006430504
C  C73  1  0.75384000  0.66617000  0.05030000  1.0 -0.1830171238
C  C74  1  0.24616000  0.33383000  0.55030000  1.0 -0.1830171238
C  C75  1  0.66617000  0.24616000  0.80030000  1.0 -0.1830171238
C  C76  1  0.33383000  0.75384000  0.30030000  1.0 -0.1830171238
C  C77  1  0.72692000  0.67291000  0.22610000  1.0 0.4144367051
C  C78  1  0.27308000  0.32709000  0.72610000  1.0 0.4144367051
C  C79  1  0.67291000  0.27308000  0.97610000  1.0 0.4144367051
C  C80  1  0.32709000  0.72692000  0.47610000  1.0 0.4144367051
C  C81  1  0.15280000  0.96690000  0.60500000  1.0 -0.2200311873
C  C82  1  0.84720000  0.03310000  0.10500000  1.0 -0.2200311873
C  C83  1  0.96690000  0.84720000  0.35500000  1.0 -0.2200311873
C  C84  1  0.03310000  0.15280000  0.85500000  1.0 -0.2200311873
C  C85  1  0.13200000  0.03650000  0.88790000  1.0 -0.3573779281
C  C86  1  0.86800000  0.96350000  0.38790000  1.0 -0.3573779281
C  C87  1  0.03650000  0.86800000  0.63790000  1.0 -0.3573779281
C  C88  1  0.96350000  0.13200000  0.13790000  1.0 -0.3573779281
C  C89  1  0.15540000  0.95870000  0.61600000  1.0 -0.19824186
C  C90  1  0.84460000  0.04130000  0.11600000  1.0 -0.19824186
C  C91  1  0.95870000  0.84460000  0.36600000  1.0 -0.19824186
C  C92  1  0.04130000  0.15540000  0.86600000  1.0 -0.19824186
C  C93  1  0.04440000  0.95910000  0.78800000  1.0 -0.4170631323
C  C94  1  0.95560000  0.04090000  0.28800000  1.0 -0.4170631323
C  C95  1  0.95910000  0.95560000  0.53800000  1.0 -0.4170631323
C  C96  1  0.04090000  0.04440000  0.03800000  1.0 -0.4170631323
S  S1  1  0.10993000  0.04813000  0.50360000  1.0 0.03073824
S  S2  1  0.89007000  0.95187000  0.00360000  1.0 0.03073824
S  S3  1  0.04813000  0.89007000  0.25360000  1.0 0.03073824
S  S4  1  0.95187000  0.10993000  0.75360000  1.0 0.03073824
S  S5  1  0.42868000  0.60579000  0.13350000  1.0 -0.0402923115
S  S6  1  0.57132000  0.39421000  0.63350000  1.0 -0.0402923115
S  S7  1  0.60579000  0.57132000  0.88350000  1.0 -0.0402923115
S  S8  1  0.39421000  0.42868000  0.38350000  1.0 -0.0402923115
S  S9  1  0.10900000  0.03210000  0.66100000  1.0 0.1612551507
S  S10  1  0.89100000  0.96790000  0.16100000  1.0 0.1612551507
S  S11  1  0.03210000  0.89100000  0.41100000  1.0 0.1612551507
S  S12  1  0.96790000  0.10900000  0.91100000  1.0 0.1612551507
S  S13  1  0.10860000  0.00620000  0.75040000  1.0 0.2477787804
S  S14  1  0.89140000  0.99380000  0.25040000  1.0 0.2477787804
S  S15  1  0.00620000  0.89140000  0.50040000  1.0 0.2477787804
S  S16  1  0.99380000  0.10860000  0.00040000  1.0 0.2477787804
N  N1  1  0.19326000  0.81697000  0.45340000  1.0 -0.5396793786
N  N2  1  0.80674000  0.18303000  0.95340000  1.0 -0.5396793786
N  N3  1  0.81697000  0.80674000  0.20340000  1.0 -0.5396793786
N  N4  1  0.18303000  0.19326000  0.70340000  1.0 -0.5396793786
N  N5  1  0.23818000  0.90398000  0.33980000  1.0 -0.4315505739
N  N6  1  0.76182000  0.09602000  0.83980000  1.0 -0.4315505739
N  N7  1  0.90398000  0.76182000  0.08980000  1.0 -0.4315505739
N  N8  1  0.09602000  0.23818000  0.58980000  1.0 -0.4315505739
N  N9  1  0.19498000  0.83557000  0.13460000  1.0 -0.2964976433
N  N10  1  0.80502000  0.16443000  0.63460000  1.0 -0.2964976433
N  N11  1  0.83557000  0.80502000  0.88460000  1.0 -0.2964976433
N  N12  1  0.16443000  0.19498000  0.38460000  1.0 -0.2964976433
N  N13  1  0.11603000  0.69166000  0.20170000  1.0 0.0628699016
N  N14  1  0.88397000  0.30834000  0.70170000  1.0 0.0628699016
N  N15  1  0.69166000  0.88397000  0.95170000  1.0 0.0628699016
N  N16  1  0.30834000  0.11603000  0.45170000  1.0 0.0628699016
N  N17  1  0.14872000  0.73105000  0.56790000  1.0 -0.5163022879
N  N18  1  0.85128000  0.26895000  0.06790000  1.0 -0.5163022879
N  N19  1  0.73105000  0.85128000  0.31790000  1.0 -0.5163022879
N  N20  1  0.26895000  0.14872000  0.81790000  1.0 -0.5163022879
N  N21  1  0.67143000  0.69870000  0.25000000  1.0 -0.4876578603
N  N22  1  0.32857000  0.30130000  0.75000000  1.0 -0.4876578603
N  N23  1  0.69870000  0.32857000  0.00000000  1.0 -0.4876578603
N  N24  1  0.30130000  0.67143000  0.50000000  1.0 -0.4876578603
N  N25  1  0.58507000  0.74292000  0.12490000  1.0 -0.3388736996
N  N26  1  0.41493000  0.25708000  0.62490000  1.0 -0.3388736996
N  N27  1  0.74292000  0.41493000  0.87490000  1.0 -0.3388736996
N  N28  1  0.25708000  0.58507000  0.37490000  1.0 -0.3388736996
N  N29  1  0.66618000  0.72092000  0.93450000  1.0 -0.1389618489
N  N30  1  0.33382000  0.27908000  0.43450000  1.0 -0.1389618489
N  N31  1  0.72092000  0.33382000  0.68450000  1.0 -0.1389618489
N  N32  1  0.27908000  0.66618000  0.18450000  1.0 -0.1389618489
N  N33  1  0.80634000  0.63596000  0.00740000  1.0 0.0813311683
N  N34  1  0.19366000  0.36404000  0.50740000  1.0 0.0813311683
N  N35  1  0.63596000  0.19366000  0.75740000  1.0 0.0813311683
N  N36  1  0.36404000  0.80634000  0.25740000  1.0 0.0813311683
N  N37  1  0.75685000  0.65346000  0.36970000  1.0 -0.4876578603
N  N38  1  0.24315000  0.34654000  0.86970000  1.0 -0.4876578603
N  N39  1  0.65346000  0.24315000  0.11970000  1.0 -0.4876578603
N  N40  1  0.34654000  0.75685000  0.61970000  1.0 -0.4876578603
O  O1  1  0.34813000  0.96619000  0.37170000  1.0 -0.6185350943
O  O2  1  0.65187000  0.03381000  0.87170000  1.0 -0.6185350943
O  O3  1  0.96619000  0.65187000  0.12170000  1.0 -0.6185350943
O  O4  1  0.03381000  0.34813000  0.62170000  1.0 -0.6185350943
O  O5  1  0.35532000  0.93432000  0.65950000  1.0 -0.5526914004
O  O6  1  0.64468000  0.06568000  0.15950000  1.0 -0.5526914004
O  O7  1  0.93432000  0.64468000  0.40950000  1.0 -0.5526914004
O  O8  1  0.06568000  0.35532000  0.90950000  1.0 -0.5526914004
O  O9  1  0.14408000  0.77333000  0.93760000  1.0 -0.4744794745
O  O10  1  0.85592000  0.22667000  0.43760000  1.0 -0.4744794745
O  O11  1  0.77333000  0.85592000  0.68760000  1.0 -0.4744794745
O  O12  1  0.22667000  0.14408000  0.18760000  1.0 -0.4744794745
O  O13  1  0.10002000  0.65552000  0.33120000  1.0 -0.3142329756
O  O14  1  0.89998000  0.34448000  0.83120000  1.0 -0.3142329756
O  O15  1  0.65552000  0.89998000  0.08120000  1.0 -0.3142329756
O  O16  1  0.34448000  0.10002000  0.58120000  1.0 -0.3142329756
O  O17  1  0.52709000  0.84853000  0.23900000  1.0 -0.6185350943
O  O18  1  0.47291000  0.15147000  0.73900000  1.0 -0.6185350943
O  O19  1  0.84853000  0.47291000  0.98900000  1.0 -0.6185350943
O  O20  1  0.15147000  0.52709000  0.48900000  1.0 -0.6185350943
O  O21  1  0.53351000  0.81792000  0.52660000  1.0 -0.5894222859
O  O22  1  0.46649000  0.18208000  0.02660000  1.0 -0.5894222859
O  O23  1  0.81792000  0.46649000  0.27660000  1.0 -0.5894222859
O  O24  1  0.18208000  0.53351000  0.77660000  1.0 -0.5894222859
O  O25  1  0.74174000  0.69041000  0.74000000  1.0 -0.4352110329
O  O26  1  0.25826000  0.30959000  0.24000000  1.0 -0.4352110329
O  O27  1  0.69041000  0.25826000  0.49000000  1.0 -0.4352110329
O  O28  1  0.30959000  0.74174000  0.99000000  1.0 -0.4352110329
O  O29  1  0.83649000  0.60948000  0.13210000  1.0 -0.2808545533
O  O30  1  0.16351000  0.39052000  0.63210000  1.0 -0.2808545533
O  O31  1  0.60948000  0.16351000  0.88210000  1.0 -0.2808545533
O  O32  1  0.39052000  0.83649000  0.38210000  1.0 -0.2808545533
O  O33  1  0.54798000  0.93625000  0.93110000  1.0 -0.7564893071
O  O34  1  0.45202000  0.06375000  0.43110000  1.0 -0.7564893071
O  O35  1  0.93625000  0.45202000  0.68110000  1.0 -0.7564893071
O  O36  1  0.06375000  0.54798000  0.18110000  1.0 -0.7564893071
O  O37  1  0.52130000  0.06933000  0.08270000  1.0 -0.7789192501
O  O38  1  0.47870000  0.93067000  0.58270000  1.0 -0.7789192501
O  O39  1  0.06933000  0.47870000  0.83270000  1.0 -0.7789192501
O  O40  1  0.93067000  0.52130000  0.33270000  1.0 -0.7789192501
O  O41  1  0.41948000  0.01385000  0.88340000  1.0 -0.7367168817
O  O42  1  0.58052000  0.98615000  0.38340000  1.0 -0.7367168817
O  O43  1  0.01385000  0.58052000  0.63340000  1.0 -0.7367168817
O  O44  1  0.98615000  0.41948000  0.13340000  1.0 -0.7367168817
