# DDEC6 charges by PACMAN v1.1 (https://github.com/mtap-research/PACMAN-charge/)
data_EMUBIZ_ASR_pacman
_symmetry_space_group_name_H-M   'P 1'
_cell_length_a   19.21000000
_cell_length_b   19.21000000
_cell_length_c   10.99400000
_cell_angle_alpha   90.00000000
_cell_angle_beta   90.00000000
_cell_angle_gamma   90.00000000
_symmetry_Int_Tables_number   1
_chemical_formula_structural   Cu2H3C7INO4
_chemical_formula_sum   'Cu16 H24 C56 I8 N8 O32'
_cell_volume   4057.05095540
_cell_formula_units_Z   8
loop_
 _symmetry_equiv_pos_site_id
 _symmetry_equiv_pos_as_xyz
  1  'x, y, z'
loop_
 _atom_site_type_symbol
 _atom_site_label
 _atom_site_symmetry_multiplicity
 _atom_site_fract_x
 _atom_site_fract_y
 _atom_site_fract_z
 _atom_site_occupancy
 _atom_site_charge
Cu  Cu1  1  0.00000000  0.93147000  0.08659000  1.0 0.1488296445
Cu  Cu2  1  0.00000000  0.06853000  0.08659000  1.0 0.1488296445
Cu  Cu3  1  0.43147000  0.50000000  0.08659000  1.0 0.1488296445
Cu  Cu4  1  0.56853000  0.50000000  0.08659000  1.0 0.1488296445
Cu  Cu5  1  0.50000000  0.56853000  0.91341000  1.0 0.1488296445
Cu  Cu6  1  0.50000000  0.43147000  0.91341000  1.0 0.1488296445
Cu  Cu7  1  0.93147000  0.00000000  0.91341000  1.0 0.1488296445
Cu  Cu8  1  0.06853000  0.00000000  0.91341000  1.0 0.1488296445
Cu  Cu9  1  0.21954000  0.71954000  0.59500000  1.0 0.8565022228
Cu  Cu10  1  0.78046000  0.28046000  0.59500000  1.0 0.8565022228
Cu  Cu11  1  0.21954000  0.28046000  0.59500000  1.0 0.8565022228
Cu  Cu12  1  0.78046000  0.71954000  0.59500000  1.0 0.8565022228
Cu  Cu13  1  0.71954000  0.78046000  0.40500000  1.0 0.8565022228
Cu  Cu14  1  0.28046000  0.21954000  0.40500000  1.0 0.8565022228
Cu  Cu15  1  0.71954000  0.21954000  0.40500000  1.0 0.8565022228
Cu  Cu16  1  0.28046000  0.78046000  0.40500000  1.0 0.8565022228
H  H1  1  0.10140000  0.84430000  0.22590000  1.0 0.123452845
H  H2  1  0.89860000  0.15570000  0.22590000  1.0 0.123452845
H  H3  1  0.34430000  0.39860000  0.22590000  1.0 0.123452845
H  H4  1  0.65570000  0.60140000  0.22590000  1.0 0.123452845
H  H5  1  0.60140000  0.65570000  0.77410000  1.0 0.123452845
H  H6  1  0.39860000  0.34430000  0.77410000  1.0 0.123452845
H  H7  1  0.84430000  0.10140000  0.77410000  1.0 0.123452845
H  H8  1  0.15570000  0.89860000  0.77410000  1.0 0.123452845
H  H9  1  0.39860000  0.65570000  0.77410000  1.0 0.123452845
H  H10  1  0.60140000  0.34430000  0.77410000  1.0 0.123452845
H  H11  1  0.15570000  0.10140000  0.77410000  1.0 0.123452845
H  H12  1  0.84430000  0.89860000  0.77410000  1.0 0.123452845
H  H13  1  0.89860000  0.84430000  0.22590000  1.0 0.123452845
H  H14  1  0.10140000  0.15570000  0.22590000  1.0 0.123452845
H  H15  1  0.65570000  0.39860000  0.22590000  1.0 0.123452845
H  H16  1  0.34430000  0.60140000  0.22590000  1.0 0.123452845
H  H17  1  0.00000000  0.73140000  0.47320000  1.0 0.1488296445
H  H18  1  0.00000000  0.26860000  0.47320000  1.0 0.1488296445
H  H19  1  0.23140000  0.50000000  0.47320000  1.0 0.1488296445
H  H20  1  0.76860000  0.50000000  0.47320000  1.0 0.1488296445
H  H21  1  0.50000000  0.76860000  0.52680000  1.0 0.1488296445
H  H22  1  0.50000000  0.23140000  0.52680000  1.0 0.1488296445
H  H23  1  0.73140000  0.00000000  0.52680000  1.0 0.1488296445
H  H24  1  0.26860000  0.00000000  0.52680000  1.0 0.1488296445
C  C1  1  0.05960000  0.82970000  0.25990000  1.0 0.0763460276
C  C2  1  0.94040000  0.17030000  0.25990000  1.0 0.0763460276
C  C3  1  0.32970000  0.44040000  0.25990000  1.0 0.0763460276
C  C4  1  0.67030000  0.55960000  0.25990000  1.0 0.0763460276
C  C5  1  0.55960000  0.67030000  0.74010000  1.0 0.0763460276
C  C6  1  0.44040000  0.32970000  0.74010000  1.0 0.0763460276
C  C7  1  0.82970000  0.05960000  0.74010000  1.0 0.0763460276
C  C8  1  0.17030000  0.94040000  0.74010000  1.0 0.0763460276
C  C9  1  0.44040000  0.67030000  0.74010000  1.0 0.0763460276
C  C10  1  0.55960000  0.32970000  0.74010000  1.0 0.0763460276
C  C11  1  0.17030000  0.05960000  0.74010000  1.0 0.0763460276
C  C12  1  0.82970000  0.94040000  0.74010000  1.0 0.0763460276
C  C13  1  0.94040000  0.82970000  0.25990000  1.0 0.0763460276
C  C14  1  0.05960000  0.17030000  0.25990000  1.0 0.0763460276
C  C15  1  0.67030000  0.44040000  0.25990000  1.0 0.0763460276
C  C16  1  0.32970000  0.55960000  0.25990000  1.0 0.0763460276
C  C17  1  0.06160000  0.78420000  0.35680000  1.0 -0.0698280391
C  C18  1  0.93840000  0.21580000  0.35680000  1.0 -0.0698280391
C  C19  1  0.28420000  0.43840000  0.35680000  1.0 -0.0698280391
C  C20  1  0.71580000  0.56160000  0.35680000  1.0 -0.0698280391
C  C21  1  0.56160000  0.71580000  0.64320000  1.0 -0.0698280391
C  C22  1  0.43840000  0.28420000  0.64320000  1.0 -0.0698280391
C  C23  1  0.78420000  0.06160000  0.64320000  1.0 -0.0698280391
C  C24  1  0.21580000  0.93840000  0.64320000  1.0 -0.0698280391
C  C25  1  0.43840000  0.71580000  0.64320000  1.0 -0.0698280391
C  C26  1  0.56160000  0.28420000  0.64320000  1.0 -0.0698280391
C  C27  1  0.21580000  0.06160000  0.64320000  1.0 -0.0698280391
C  C28  1  0.78420000  0.93840000  0.64320000  1.0 -0.0698280391
C  C29  1  0.93840000  0.78420000  0.35680000  1.0 -0.0698280391
C  C30  1  0.06160000  0.21580000  0.35680000  1.0 -0.0698280391
C  C31  1  0.71580000  0.43840000  0.35680000  1.0 -0.0698280391
C  C32  1  0.28420000  0.56160000  0.35680000  1.0 -0.0698280391
C  C33  1  0.00000000  0.76150000  0.40690000  1.0 -0.0417435826
C  C34  1  0.00000000  0.23850000  0.40690000  1.0 -0.0417435826
C  C35  1  0.26150000  0.50000000  0.40690000  1.0 -0.0417435826
C  C36  1  0.73850000  0.50000000  0.40690000  1.0 -0.0417435826
C  C37  1  0.50000000  0.73850000  0.59310000  1.0 -0.0417435826
C  C38  1  0.50000000  0.26150000  0.59310000  1.0 -0.0417435826
C  C39  1  0.76150000  0.00000000  0.59310000  1.0 -0.0417435826
C  C40  1  0.23850000  0.00000000  0.59310000  1.0 -0.0417435826
C  C41  1  0.13140000  0.76490000  0.40950000  1.0 0.5831215931
C  C42  1  0.86860000  0.23510000  0.40950000  1.0 0.5831215931
C  C43  1  0.26490000  0.36860000  0.40950000  1.0 0.5831215931
C  C44  1  0.73510000  0.63140000  0.40950000  1.0 0.5831215931
C  C45  1  0.63140000  0.73510000  0.59050000  1.0 0.5831215931
C  C46  1  0.36860000  0.26490000  0.59050000  1.0 0.5831215931
C  C47  1  0.76490000  0.13140000  0.59050000  1.0 0.5831215931
C  C48  1  0.23510000  0.86860000  0.59050000  1.0 0.5831215931
C  C49  1  0.36860000  0.73510000  0.59050000  1.0 0.5831215931
C  C50  1  0.63140000  0.26490000  0.59050000  1.0 0.5831215931
C  C51  1  0.23510000  0.13140000  0.59050000  1.0 0.5831215931
C  C52  1  0.76490000  0.86860000  0.59050000  1.0 0.5831215931
C  C53  1  0.86860000  0.76490000  0.40950000  1.0 0.5831215931
C  C54  1  0.13140000  0.23510000  0.40950000  1.0 0.5831215931
C  C55  1  0.73510000  0.36860000  0.40950000  1.0 0.5831215931
C  C56  1  0.26490000  0.63140000  0.40950000  1.0 0.5831215931
I  I1  1  0.00000000  0.87904000  0.86411000  1.0 -0.3069799217
I  I2  1  0.00000000  0.12096000  0.86411000  1.0 -0.3069799217
I  I3  1  0.37904000  0.50000000  0.86411000  1.0 -0.3069799217
I  I4  1  0.62096000  0.50000000  0.86411000  1.0 -0.3069799217
I  I5  1  0.50000000  0.62096000  0.13589000  1.0 -0.3069799217
I  I6  1  0.50000000  0.37904000  0.13589000  1.0 -0.3069799217
I  I7  1  0.87904000  0.00000000  0.13589000  1.0 -0.3069799217
I  I8  1  0.12096000  0.00000000  0.13589000  1.0 -0.3069799217
N  N1  1  0.00000000  0.85380000  0.21250000  1.0 -0.1584329279
N  N2  1  0.00000000  0.14620000  0.21250000  1.0 -0.1584329279
N  N3  1  0.35380000  0.50000000  0.21250000  1.0 -0.1584329279
N  N4  1  0.64620000  0.50000000  0.21250000  1.0 -0.1584329279
N  N5  1  0.50000000  0.64620000  0.78750000  1.0 -0.1584329279
N  N6  1  0.50000000  0.35380000  0.78750000  1.0 -0.1584329279
N  N7  1  0.85380000  0.00000000  0.78750000  1.0 -0.1584329279
N  N8  1  0.14620000  0.00000000  0.78750000  1.0 -0.1584329279
O  O1  1  0.13168000  0.73383000  0.50820000  1.0 -0.505800155
O  O2  1  0.86832000  0.26617000  0.50820000  1.0 -0.505800155
O  O3  1  0.23383000  0.36832000  0.50820000  1.0 -0.505800155
O  O4  1  0.76617000  0.63168000  0.50820000  1.0 -0.505800155
O  O5  1  0.63168000  0.76617000  0.49180000  1.0 -0.505800155
O  O6  1  0.36832000  0.23383000  0.49180000  1.0 -0.505800155
O  O7  1  0.73383000  0.13168000  0.49180000  1.0 -0.505800155
O  O8  1  0.26617000  0.86832000  0.49180000  1.0 -0.505800155
O  O9  1  0.36832000  0.76617000  0.49180000  1.0 -0.505800155
O  O10  1  0.63168000  0.23383000  0.49180000  1.0 -0.505800155
O  O11  1  0.26617000  0.13168000  0.49180000  1.0 -0.505800155
O  O12  1  0.73383000  0.86832000  0.49180000  1.0 -0.505800155
O  O13  1  0.86832000  0.73383000  0.50820000  1.0 -0.505800155
O  O14  1  0.13168000  0.26617000  0.50820000  1.0 -0.505800155
O  O15  1  0.76617000  0.36832000  0.50820000  1.0 -0.505800155
O  O16  1  0.23383000  0.63168000  0.50820000  1.0 -0.505800155
O  O17  1  0.18335000  0.78560000  0.35060000  1.0 -0.5307948115
O  O18  1  0.81665000  0.21440000  0.35060000  1.0 -0.5307948115
O  O19  1  0.28560000  0.31665000  0.35060000  1.0 -0.5307948115
O  O20  1  0.71440000  0.68335000  0.35060000  1.0 -0.5307948115
O  O21  1  0.68335000  0.71440000  0.64940000  1.0 -0.5307948115
O  O22  1  0.31665000  0.28560000  0.64940000  1.0 -0.5307948115
O  O23  1  0.78560000  0.18335000  0.64940000  1.0 -0.5307948115
O  O24  1  0.21440000  0.81665000  0.64940000  1.0 -0.5307948115
O  O25  1  0.31665000  0.71440000  0.64940000  1.0 -0.5307948115
O  O26  1  0.68335000  0.28560000  0.64940000  1.0 -0.5307948115
O  O27  1  0.21440000  0.18335000  0.64940000  1.0 -0.5307948115
O  O28  1  0.78560000  0.81665000  0.64940000  1.0 -0.5307948115
O  O29  1  0.81665000  0.78560000  0.35060000  1.0 -0.5307948115
O  O30  1  0.18335000  0.21440000  0.35060000  1.0 -0.5307948115
O  O31  1  0.71440000  0.31665000  0.35060000  1.0 -0.5307948115
O  O32  1  0.28560000  0.68335000  0.35060000  1.0 -0.5307948115
