# DDEC6 charges by PACMAN v1.1 (https://github.com/mtap-research/PACMAN-charge/)
data_EMUYAM_ASR_pacman
_symmetry_space_group_name_H-M   'P 1'
_cell_length_a   15.70700000
_cell_length_b   15.70700000
_cell_length_c   7.20400000
_cell_angle_alpha   90.00000000
_cell_angle_beta   90.00000000
_cell_angle_gamma   120.00000000
_symmetry_Int_Tables_number   1
_chemical_formula_structural   FeAg2(C2N)8
_chemical_formula_sum   'Fe3 Ag6 C48 N24'
_cell_volume   1539.18500349
_cell_formula_units_Z   3
loop_
 _symmetry_equiv_pos_site_id
 _symmetry_equiv_pos_as_xyz
  1  'x, y, z'
loop_
 _atom_site_type_symbol
 _atom_site_label
 _atom_site_symmetry_multiplicity
 _atom_site_fract_x
 _atom_site_fract_y
 _atom_site_fract_z
 _atom_site_occupancy
 _atom_site_charge
Fe  Fe1  1  0.50000000  0.50000000  0.50000000  1.0 0.8203688066
Fe  Fe2  1  0.50000000  0.00000000  0.50000000  1.0 0.8203688066
Fe  Fe3  1  0.00000000  0.50000000  0.50000000  1.0 0.8203688066
Ag  Ag1  1  0.52846000  0.26432000  0.99999000  1.0 0.1785425792
Ag  Ag2  1  0.73568000  0.26414000  0.99999000  1.0 0.1785425792
Ag  Ag3  1  0.73586000  0.47154000  0.99999000  1.0 0.1785425792
Ag  Ag4  1  0.47154000  0.73568000  0.00001000  1.0 0.1785425792
Ag  Ag5  1  0.26432000  0.73586000  0.00001000  1.0 0.1785425792
Ag  Ag6  1  0.26414000  0.52846000  0.00001000  1.0 0.1785425792
C  C1  1  0.52210000  0.35230000  0.20710000  1.0 0.0356482293
C  C2  1  0.64770000  0.16980000  0.20710000  1.0 0.0356482293
C  C3  1  0.83020000  0.47790000  0.20710000  1.0 0.0356482293
C  C4  1  0.47790000  0.64770000  0.79290000  1.0 0.0356482293
C  C5  1  0.35230000  0.83020000  0.79290000  1.0 0.0356482293
C  C6  1  0.16980000  0.52210000  0.79290000  1.0 0.0356482293
C  C7  1  0.35310000  0.52290000  0.20430000  1.0 0.0356482293
C  C8  1  0.47710000  0.83020000  0.20430000  1.0 0.0356482293
C  C9  1  0.16980000  0.64690000  0.20430000  1.0 0.0356482293
C  C10  1  0.64690000  0.47710000  0.79570000  1.0 0.0338263221
C  C11  1  0.52290000  0.16980000  0.79570000  1.0 0.0338263221
C  C12  1  0.83020000  0.35310000  0.79570000  1.0 0.0338263221
C  C13  1  0.36550000  0.28330000  0.66290000  1.0 0.2051735322
C  C14  1  0.71670000  0.08220000  0.66290000  1.0 0.2051735322
C  C15  1  0.91780000  0.63450000  0.66290000  1.0 0.2051735322
C  C16  1  0.63450000  0.71670000  0.33710000  1.0 0.2051735322
C  C17  1  0.28330000  0.91780000  0.33710000  1.0 0.2046970378
C  C18  1  0.08220000  0.36550000  0.33710000  1.0 0.2051735322
C  C19  1  0.27900000  0.20570000  0.73300000  1.0 -0.045473085
C  C20  1  0.79430000  0.07330000  0.73300000  1.0 -0.0447122392
C  C21  1  0.92670000  0.72100000  0.73300000  1.0 -0.0447122392
C  C22  1  0.72100000  0.79430000  0.26700000  1.0 -0.0447122392
C  C23  1  0.20570000  0.92670000  0.26700000  1.0 -0.045473085
C  C24  1  0.07330000  0.27900000  0.26700000  1.0 -0.045473085
C  C25  1  0.19850000  0.21780000  0.76700000  1.0 0.1637551586
C  C26  1  0.78220000  0.98070000  0.76700000  1.0 0.1637551586
C  C27  1  0.01930000  0.80150000  0.76700000  1.0 0.1637551586
C  C28  1  0.80150000  0.78220000  0.23300000  1.0 0.1637551586
C  C29  1  0.21780000  0.01930000  0.23300000  1.0 0.1637551586
C  C30  1  0.98070000  0.19850000  0.23300000  1.0 0.1637551586
C  C31  1  0.20450000  0.30750000  0.73000000  1.0 -0.0803393671
C  C32  1  0.69250000  0.89700000  0.73000000  1.0 -0.0803393671
C  C33  1  0.10300000  0.79550000  0.73000000  1.0 -0.0803393671
C  C34  1  0.79550000  0.69250000  0.27000000  1.0 -0.0803393671
C  C35  1  0.30750000  0.10300000  0.27000000  1.0 -0.0803393671
C  C36  1  0.89700000  0.20450000  0.27000000  1.0 -0.0803393671
C  C37  1  0.29090000  0.38510000  0.65920000  1.0 0.0958615641
C  C38  1  0.61490000  0.90580000  0.65920000  1.0 0.0958615641
C  C39  1  0.09420000  0.70910000  0.65920000  1.0 0.0958615641
C  C40  1  0.70910000  0.61490000  0.34080000  1.0 0.0958615641
C  C41  1  0.38510000  0.09420000  0.34080000  1.0 0.0958615641
C  C42  1  0.90580000  0.29090000  0.34080000  1.0 0.0958615641
C  C43  1  0.10700000  0.24700000  0.75500000  1.0 0.2198038574
C  C44  1  0.75300000  0.86000000  0.75500000  1.0 0.2198038574
C  C45  1  0.14000000  0.89300000  0.75500000  1.0 0.2198038574
C  C46  1  0.89300000  0.75300000  0.24500000  1.0 0.2198038574
C  C47  1  0.24700000  0.14000000  0.24500000  1.0 0.2198038574
C  C48  1  0.86000000  0.10700000  0.24500000  1.0 0.2198038574
N  N1  1  0.51500000  0.40390000  0.31070000  1.0 -0.3145333071
N  N2  1  0.59610000  0.11110000  0.31070000  1.0 -0.3145333071
N  N3  1  0.88890000  0.48500000  0.31070000  1.0 -0.3145333071
N  N4  1  0.48500000  0.59610000  0.68930000  1.0 -0.3145333071
N  N5  1  0.40390000  0.88890000  0.68930000  1.0 -0.3145333071
N  N6  1  0.11110000  0.51500000  0.68930000  1.0 -0.316843802
N  N7  1  0.40420000  0.51620000  0.31190000  1.0 -0.316843802
N  N8  1  0.48380000  0.88800000  0.31190000  1.0 -0.316843802
N  N9  1  0.11200000  0.59580000  0.31190000  1.0 -0.316843802
N  N10  1  0.59580000  0.48380000  0.68810000  1.0 -0.316843802
N  N11  1  0.51620000  0.11200000  0.68810000  1.0 -0.316843802
N  N12  1  0.88800000  0.40420000  0.68810000  1.0 -0.316843802
N  N13  1  0.37140000  0.37300000  0.62580000  1.0 -0.1633070061
N  N14  1  0.62700000  0.99840000  0.62580000  1.0 -0.1633070061
N  N15  1  0.00160000  0.62860000  0.62580000  1.0 -0.1633070061
N  N16  1  0.62860000  0.62700000  0.37420000  1.0 -0.1633070061
N  N17  1  0.37300000  0.00160000  0.37420000  1.0 -0.1633070061
N  N18  1  0.99840000  0.37140000  0.37420000  1.0 -0.1633070061
N  N19  1  0.01850000  0.22300000  0.77800000  1.0 -0.4231259574
N  N20  1  0.77700000  0.79550000  0.77800000  1.0 -0.4231259574
N  N21  1  0.20450000  0.98150000  0.77800000  1.0 -0.4231259574
N  N22  1  0.98150000  0.77700000  0.22200000  1.0 -0.4231259574
N  N23  1  0.22300000  0.20450000  0.22200000  1.0 -0.4231259574
N  N24  1  0.79550000  0.01850000  0.22200000  1.0 -0.4231259574
