# DDEC6 charges by PACMAN v1.1 (https://github.com/mtap-research/PACMAN-charge/)
data_ENAFAB_ASR_pacman
_symmetry_space_group_name_H-M   'P 1'
_cell_length_a   29.55700000
_cell_length_b   29.55700000
_cell_length_c   29.55700000
_cell_angle_alpha   90.00000000
_cell_angle_beta   90.00000000
_cell_angle_gamma   90.00000000
_symmetry_Int_Tables_number   1
_chemical_formula_structural   Ni3P2H42W18C39(N3O25)2
_chemical_formula_sum   'Ni24 P16 H336 W144 C312 N48 O400'
_cell_volume   25821.47547169
_cell_formula_units_Z   8
loop_
 _symmetry_equiv_pos_site_id
 _symmetry_equiv_pos_as_xyz
  1  'x, y, z'
loop_
 _atom_site_type_symbol
 _atom_site_label
 _atom_site_symmetry_multiplicity
 _atom_site_fract_x
 _atom_site_fract_y
 _atom_site_fract_z
 _atom_site_occupancy
 _atom_site_charge
Ni  Ni1  1  0.27590000  0.00000000  0.28957000  1.0 0.7576590669
Ni  Ni2  1  0.72410000  0.00000000  0.28957000  1.0 0.7576590669
Ni  Ni3  1  0.72410000  0.00000000  0.71043000  1.0 0.7576590669
Ni  Ni4  1  0.27590000  0.00000000  0.71043000  1.0 0.7576590669
Ni  Ni5  1  0.28957000  0.27590000  0.00000000  1.0 0.7576590669
Ni  Ni6  1  0.28957000  0.72410000  0.00000000  1.0 0.7576590669
Ni  Ni7  1  0.71043000  0.72410000  0.00000000  1.0 0.7576590669
Ni  Ni8  1  0.71043000  0.27590000  0.00000000  1.0 0.7576590669
Ni  Ni9  1  0.00000000  0.28957000  0.27590000  1.0 0.7576590669
Ni  Ni10  1  0.00000000  0.28957000  0.72410000  1.0 0.7576590669
Ni  Ni11  1  0.00000000  0.71043000  0.72410000  1.0 0.7576590669
Ni  Ni12  1  0.00000000  0.71043000  0.27590000  1.0 0.7576590669
Ni  Ni13  1  0.50000000  0.77590000  0.21043000  1.0 0.7576590669
Ni  Ni14  1  0.50000000  0.22410000  0.21043000  1.0 0.7576590669
Ni  Ni15  1  0.50000000  0.22410000  0.78957000  1.0 0.7576590669
Ni  Ni16  1  0.50000000  0.77590000  0.78957000  1.0 0.7576590669
Ni  Ni17  1  0.77590000  0.78957000  0.50000000  1.0 0.7576590669
Ni  Ni18  1  0.22410000  0.78957000  0.50000000  1.0 0.7576590669
Ni  Ni19  1  0.22410000  0.21043000  0.50000000  1.0 0.7576590669
Ni  Ni20  1  0.77590000  0.21043000  0.50000000  1.0 0.7576590669
Ni  Ni21  1  0.78957000  0.50000000  0.22410000  1.0 0.7576590669
Ni  Ni22  1  0.78957000  0.50000000  0.77590000  1.0 0.7576590669
Ni  Ni23  1  0.21043000  0.50000000  0.77590000  1.0 0.7576590669
Ni  Ni24  1  0.21043000  0.50000000  0.22410000  1.0 0.7576590669
P  P1  1  0.21076000  0.78924000  0.21076000  1.0 1.2029915443
P  P2  1  0.78924000  0.21076000  0.21076000  1.0 1.2064492098
P  P3  1  0.78924000  0.78924000  0.78924000  1.0 1.2064492098
P  P4  1  0.21076000  0.21076000  0.78924000  1.0 1.2029915443
P  P5  1  0.28924000  0.71076000  0.28924000  1.0 1.2029915443
P  P6  1  0.71076000  0.28924000  0.28924000  1.0 1.2064492098
P  P7  1  0.28924000  0.28924000  0.71076000  1.0 1.2029915443
P  P8  1  0.71076000  0.71076000  0.71076000  1.0 1.2064492098
P  P9  1  0.78924000  0.21076000  0.78924000  1.0 1.2064492098
P  P10  1  0.21076000  0.78924000  0.78924000  1.0 1.2029915443
P  P11  1  0.21076000  0.21076000  0.21076000  1.0 1.2029915443
P  P12  1  0.78924000  0.78924000  0.21076000  1.0 1.2064492098
P  P13  1  0.71076000  0.28924000  0.71076000  1.0 1.2064492098
P  P14  1  0.28924000  0.71076000  0.71076000  1.0 1.2029915443
P  P15  1  0.71076000  0.71076000  0.28924000  1.0 1.2064492098
P  P16  1  0.28924000  0.28924000  0.28924000  1.0 1.2029915443
H  H1  1  0.34240000  0.06580000  0.32920000  1.0 0.1001390657
H  H2  1  0.65760000  0.93420000  0.32920000  1.0 0.1001390657
H  H3  1  0.65760000  0.06580000  0.67080000  1.0 0.1001390657
H  H4  1  0.34240000  0.93420000  0.67080000  1.0 0.1001390657
H  H5  1  0.32920000  0.34240000  0.06580000  1.0 0.1001390657
H  H6  1  0.32920000  0.65760000  0.93420000  1.0 0.1001390657
H  H7  1  0.67080000  0.65760000  0.06580000  1.0 0.1001390657
H  H8  1  0.67080000  0.34240000  0.93420000  1.0 0.1001390657
H  H9  1  0.06580000  0.32920000  0.34240000  1.0 0.1001390657
H  H10  1  0.93420000  0.32920000  0.65760000  1.0 0.1001390657
H  H11  1  0.06580000  0.67080000  0.65760000  1.0 0.1001390657
H  H12  1  0.93420000  0.67080000  0.34240000  1.0 0.1001390657
H  H13  1  0.56580000  0.84240000  0.17080000  1.0 0.1001390657
H  H14  1  0.43420000  0.15760000  0.17080000  1.0 0.1001390657
H  H15  1  0.56580000  0.15760000  0.82920000  1.0 0.1001390657
H  H16  1  0.43420000  0.84240000  0.82920000  1.0 0.1001390657
H  H17  1  0.84240000  0.82920000  0.43420000  1.0 0.1001390657
H  H18  1  0.15760000  0.82920000  0.56580000  1.0 0.1001390657
H  H19  1  0.15760000  0.17080000  0.43420000  1.0 0.1001390657
H  H20  1  0.84240000  0.17080000  0.56580000  1.0 0.1001390657
H  H21  1  0.82920000  0.56580000  0.15760000  1.0 0.1001390657
H  H22  1  0.82920000  0.43420000  0.84240000  1.0 0.1001390657
H  H23  1  0.17080000  0.56580000  0.84240000  1.0 0.1001390657
H  H24  1  0.17080000  0.43420000  0.15760000  1.0 0.1001390657
H  H25  1  0.65760000  0.93420000  0.67080000  1.0 0.1001390657
H  H26  1  0.34240000  0.06580000  0.67080000  1.0 0.1001390657
H  H27  1  0.34240000  0.93420000  0.32920000  1.0 0.1001390657
H  H28  1  0.65760000  0.06580000  0.32920000  1.0 0.1001390657
H  H29  1  0.67080000  0.65760000  0.93420000  1.0 0.1001390657
H  H30  1  0.67080000  0.34240000  0.06580000  1.0 0.1001390657
H  H31  1  0.32920000  0.34240000  0.93420000  1.0 0.1001390657
H  H32  1  0.32920000  0.65760000  0.06580000  1.0 0.1001390657
H  H33  1  0.93420000  0.67080000  0.65760000  1.0 0.1001390657
H  H34  1  0.06580000  0.67080000  0.34240000  1.0 0.1001390657
H  H35  1  0.93420000  0.32920000  0.34240000  1.0 0.1001390657
H  H36  1  0.06580000  0.32920000  0.65760000  1.0 0.1001390657
H  H37  1  0.43420000  0.15760000  0.82920000  1.0 0.1001390657
H  H38  1  0.56580000  0.84240000  0.82920000  1.0 0.1001390657
H  H39  1  0.43420000  0.84240000  0.17080000  1.0 0.1001390657
H  H40  1  0.56580000  0.15760000  0.17080000  1.0 0.1001390657
H  H41  1  0.15760000  0.17080000  0.56580000  1.0 0.1001390657
H  H42  1  0.84240000  0.17080000  0.43420000  1.0 0.1001390657
H  H43  1  0.84240000  0.82920000  0.56580000  1.0 0.1001390657
H  H44  1  0.15760000  0.82920000  0.43420000  1.0 0.1001390657
H  H45  1  0.17080000  0.43420000  0.84240000  1.0 0.1001390657
H  H46  1  0.17080000  0.56580000  0.15760000  1.0 0.1001390657
H  H47  1  0.82920000  0.43420000  0.15760000  1.0 0.1001390657
H  H48  1  0.82920000  0.56580000  0.84240000  1.0 0.1001390657
H  H49  1  0.23140000  0.06720000  0.35420000  1.0 0.1001390657
H  H50  1  0.76860000  0.93280000  0.35420000  1.0 0.1001390657
H  H51  1  0.76860000  0.06720000  0.64580000  1.0 0.1001390657
H  H52  1  0.23140000  0.93280000  0.64580000  1.0 0.1001390657
H  H53  1  0.35420000  0.23140000  0.06720000  1.0 0.1001390657
H  H54  1  0.35420000  0.76860000  0.93280000  1.0 0.1001390657
H  H55  1  0.64580000  0.76860000  0.06720000  1.0 0.1001390657
H  H56  1  0.64580000  0.23140000  0.93280000  1.0 0.1001390657
H  H57  1  0.06720000  0.35420000  0.23140000  1.0 0.1001390657
H  H58  1  0.93280000  0.35420000  0.76860000  1.0 0.1001390657
H  H59  1  0.06720000  0.64580000  0.76860000  1.0 0.1001390657
H  H60  1  0.93280000  0.64580000  0.23140000  1.0 0.1001390657
H  H61  1  0.56720000  0.73140000  0.14580000  1.0 0.1001390657
H  H62  1  0.43280000  0.26860000  0.14580000  1.0 0.1001390657
H  H63  1  0.56720000  0.26860000  0.85420000  1.0 0.1001390657
H  H64  1  0.43280000  0.73140000  0.85420000  1.0 0.1001390657
H  H65  1  0.73140000  0.85420000  0.43280000  1.0 0.1001390657
H  H66  1  0.26860000  0.85420000  0.56720000  1.0 0.1001390657
H  H67  1  0.26860000  0.14580000  0.43280000  1.0 0.1001390657
H  H68  1  0.73140000  0.14580000  0.56720000  1.0 0.1001390657
H  H69  1  0.85420000  0.56720000  0.26860000  1.0 0.1001390657
H  H70  1  0.85420000  0.43280000  0.73140000  1.0 0.1001390657
H  H71  1  0.14580000  0.56720000  0.73140000  1.0 0.1001390657
H  H72  1  0.14580000  0.43280000  0.26860000  1.0 0.1001390657
H  H73  1  0.76860000  0.93280000  0.64580000  1.0 0.1001390657
H  H74  1  0.23140000  0.06720000  0.64580000  1.0 0.1001390657
H  H75  1  0.23140000  0.93280000  0.35420000  1.0 0.1001390657
H  H76  1  0.76860000  0.06720000  0.35420000  1.0 0.1001390657
H  H77  1  0.64580000  0.76860000  0.93280000  1.0 0.1001390657
H  H78  1  0.64580000  0.23140000  0.06720000  1.0 0.1001390657
H  H79  1  0.35420000  0.23140000  0.93280000  1.0 0.1001390657
H  H80  1  0.35420000  0.76860000  0.06720000  1.0 0.1001390657
H  H81  1  0.93280000  0.64580000  0.76860000  1.0 0.1001390657
H  H82  1  0.06720000  0.64580000  0.23140000  1.0 0.1001390657
H  H83  1  0.93280000  0.35420000  0.23140000  1.0 0.1001390657
H  H84  1  0.06720000  0.35420000  0.76860000  1.0 0.1001390657
H  H85  1  0.43280000  0.26860000  0.85420000  1.0 0.1001390657
H  H86  1  0.56720000  0.73140000  0.85420000  1.0 0.1001390657
H  H87  1  0.43280000  0.73140000  0.14580000  1.0 0.1001390657
H  H88  1  0.56720000  0.26860000  0.14580000  1.0 0.1001390657
H  H89  1  0.26860000  0.14580000  0.56720000  1.0 0.1001390657
H  H90  1  0.73140000  0.14580000  0.43280000  1.0 0.1001390657
H  H91  1  0.73140000  0.85420000  0.56720000  1.0 0.1001390657
H  H92  1  0.26860000  0.85420000  0.43280000  1.0 0.1001390657
H  H93  1  0.14580000  0.43280000  0.73140000  1.0 0.1001390657
H  H94  1  0.14580000  0.56720000  0.26860000  1.0 0.1001390657
H  H95  1  0.85420000  0.43280000  0.26860000  1.0 0.1001390657
H  H96  1  0.85420000  0.56720000  0.73140000  1.0 0.1001390657
H  H97  1  0.40500000  0.06870000  0.37590000  1.0 0.1186946622
H  H98  1  0.59500000  0.93130000  0.37590000  1.0 0.1186946622
H  H99  1  0.59500000  0.06870000  0.62410000  1.0 0.1186946622
H  H100  1  0.40500000  0.93130000  0.62410000  1.0 0.1186946622
H  H101  1  0.37590000  0.40500000  0.06870000  1.0 0.1186946622
H  H102  1  0.37590000  0.59500000  0.93130000  1.0 0.1186946622
H  H103  1  0.62410000  0.59500000  0.06870000  1.0 0.1186946622
H  H104  1  0.62410000  0.40500000  0.93130000  1.0 0.1186946622
H  H105  1  0.06870000  0.37590000  0.40500000  1.0 0.1186946622
H  H106  1  0.93130000  0.37590000  0.59500000  1.0 0.1186946622
H  H107  1  0.06870000  0.62410000  0.59500000  1.0 0.1186946622
H  H108  1  0.93130000  0.62410000  0.40500000  1.0 0.1186946622
H  H109  1  0.56870000  0.90500000  0.12410000  1.0 0.1186946622
H  H110  1  0.43130000  0.09500000  0.12410000  1.0 0.1186946622
H  H111  1  0.56870000  0.09500000  0.87590000  1.0 0.1186946622
H  H112  1  0.43130000  0.90500000  0.87590000  1.0 0.1186946622
H  H113  1  0.90500000  0.87590000  0.43130000  1.0 0.1186946622
H  H114  1  0.09500000  0.87590000  0.56870000  1.0 0.1186946622
H  H115  1  0.09500000  0.12410000  0.43130000  1.0 0.1186946622
H  H116  1  0.90500000  0.12410000  0.56870000  1.0 0.1186946622
H  H117  1  0.87590000  0.56870000  0.09500000  1.0 0.1186946622
H  H118  1  0.87590000  0.43130000  0.90500000  1.0 0.1186946622
H  H119  1  0.12410000  0.56870000  0.90500000  1.0 0.1186946622
H  H120  1  0.12410000  0.43130000  0.09500000  1.0 0.1186946622
H  H121  1  0.59500000  0.93130000  0.62410000  1.0 0.1186946622
H  H122  1  0.40500000  0.06870000  0.62410000  1.0 0.1186946622
H  H123  1  0.40500000  0.93130000  0.37590000  1.0 0.1186946622
H  H124  1  0.59500000  0.06870000  0.37590000  1.0 0.1186946622
H  H125  1  0.62410000  0.59500000  0.93130000  1.0 0.1186946622
H  H126  1  0.62410000  0.40500000  0.06870000  1.0 0.1186946622
H  H127  1  0.37590000  0.40500000  0.93130000  1.0 0.1186946622
H  H128  1  0.37590000  0.59500000  0.06870000  1.0 0.1186946622
H  H129  1  0.93130000  0.62410000  0.59500000  1.0 0.1186946622
H  H130  1  0.06870000  0.62410000  0.40500000  1.0 0.1186946622
H  H131  1  0.93130000  0.37590000  0.40500000  1.0 0.1186946622
H  H132  1  0.06870000  0.37590000  0.59500000  1.0 0.1186946622
H  H133  1  0.43130000  0.09500000  0.87590000  1.0 0.1186946622
H  H134  1  0.56870000  0.90500000  0.87590000  1.0 0.1186946622
H  H135  1  0.43130000  0.90500000  0.12410000  1.0 0.1186946622
H  H136  1  0.56870000  0.09500000  0.12410000  1.0 0.1186946622
H  H137  1  0.09500000  0.12410000  0.56870000  1.0 0.1186946622
H  H138  1  0.90500000  0.12410000  0.43130000  1.0 0.1186946622
H  H139  1  0.90500000  0.87590000  0.56870000  1.0 0.1186946622
H  H140  1  0.09500000  0.87590000  0.43130000  1.0 0.1186946622
H  H141  1  0.12410000  0.43130000  0.90500000  1.0 0.1186946622
H  H142  1  0.12410000  0.56870000  0.09500000  1.0 0.1186946622
H  H143  1  0.87590000  0.43130000  0.09500000  1.0 0.1186946622
H  H144  1  0.87590000  0.56870000  0.90500000  1.0 0.1186946622
H  H145  1  0.17840000  0.06830000  0.41140000  1.0 0.1059615734
H  H146  1  0.82160000  0.93170000  0.41140000  1.0 0.1059615734
H  H147  1  0.82160000  0.06830000  0.58860000  1.0 0.1059615734
H  H148  1  0.17840000  0.93170000  0.58860000  1.0 0.1059615734
H  H149  1  0.41140000  0.17840000  0.06830000  1.0 0.1059615734
H  H150  1  0.41140000  0.82160000  0.93170000  1.0 0.1059615734
H  H151  1  0.58860000  0.82160000  0.06830000  1.0 0.1059615734
H  H152  1  0.58860000  0.17840000  0.93170000  1.0 0.1059615734
H  H153  1  0.06830000  0.41140000  0.17840000  1.0 0.1059615734
H  H154  1  0.93170000  0.41140000  0.82160000  1.0 0.1059615734
H  H155  1  0.06830000  0.58860000  0.82160000  1.0 0.1059615734
H  H156  1  0.93170000  0.58860000  0.17840000  1.0 0.1059615734
H  H157  1  0.56830000  0.67840000  0.08860000  1.0 0.1059615734
H  H158  1  0.43170000  0.32160000  0.08860000  1.0 0.1059615734
H  H159  1  0.56830000  0.32160000  0.91140000  1.0 0.1059615734
H  H160  1  0.43170000  0.67840000  0.91140000  1.0 0.1059615734
H  H161  1  0.67840000  0.91140000  0.43170000  1.0 0.1059615734
H  H162  1  0.32160000  0.91140000  0.56830000  1.0 0.1059615734
H  H163  1  0.32160000  0.08860000  0.43170000  1.0 0.1059615734
H  H164  1  0.67840000  0.08860000  0.56830000  1.0 0.1059615734
H  H165  1  0.91140000  0.56830000  0.32160000  1.0 0.1059615734
H  H166  1  0.91140000  0.43170000  0.67840000  1.0 0.1059615734
H  H167  1  0.08860000  0.56830000  0.67840000  1.0 0.1059615734
H  H168  1  0.08860000  0.43170000  0.32160000  1.0 0.1059615734
H  H169  1  0.82160000  0.93170000  0.58860000  1.0 0.1059615734
H  H170  1  0.17840000  0.06830000  0.58860000  1.0 0.1059615734
H  H171  1  0.17840000  0.93170000  0.41140000  1.0 0.1059615734
H  H172  1  0.82160000  0.06830000  0.41140000  1.0 0.1059615734
H  H173  1  0.58860000  0.82160000  0.93170000  1.0 0.1059615734
H  H174  1  0.58860000  0.17840000  0.06830000  1.0 0.1059615734
H  H175  1  0.41140000  0.17840000  0.93170000  1.0 0.1059615734
H  H176  1  0.41140000  0.82160000  0.06830000  1.0 0.1059615734
H  H177  1  0.93170000  0.58860000  0.82160000  1.0 0.1059615734
H  H178  1  0.06830000  0.58860000  0.17840000  1.0 0.1059615734
H  H179  1  0.93170000  0.41140000  0.17840000  1.0 0.1059615734
H  H180  1  0.06830000  0.41140000  0.82160000  1.0 0.1059615734
H  H181  1  0.43170000  0.32160000  0.91140000  1.0 0.1059615734
H  H182  1  0.56830000  0.67840000  0.91140000  1.0 0.1059615734
H  H183  1  0.43170000  0.67840000  0.08860000  1.0 0.1059615734
H  H184  1  0.56830000  0.32160000  0.08860000  1.0 0.1059615734
H  H185  1  0.32160000  0.08860000  0.56830000  1.0 0.1059615734
H  H186  1  0.67840000  0.08860000  0.43170000  1.0 0.1059615734
H  H187  1  0.67840000  0.91140000  0.56830000  1.0 0.1059615734
H  H188  1  0.32160000  0.91140000  0.43170000  1.0 0.1059615734
H  H189  1  0.08860000  0.43170000  0.67840000  1.0 0.1059615734
H  H190  1  0.08860000  0.56830000  0.32160000  1.0 0.1059615734
H  H191  1  0.91140000  0.43170000  0.32160000  1.0 0.1059615734
H  H192  1  0.91140000  0.56830000  0.67840000  1.0 0.1059615734
H  H193  1  0.45650000  0.02710000  0.43010000  1.0 0.089232274
H  H194  1  0.54350000  0.97290000  0.43010000  1.0 0.089232274
H  H195  1  0.54350000  0.02710000  0.56990000  1.0 0.089232274
H  H196  1  0.45650000  0.97290000  0.56990000  1.0 0.089232274
H  H197  1  0.43010000  0.45650000  0.02710000  1.0 0.089232274
H  H198  1  0.43010000  0.54350000  0.97290000  1.0 0.089232274
H  H199  1  0.56990000  0.54350000  0.02710000  1.0 0.089232274
H  H200  1  0.56990000  0.45650000  0.97290000  1.0 0.089232274
H  H201  1  0.02710000  0.43010000  0.45650000  1.0 0.089232274
H  H202  1  0.97290000  0.43010000  0.54350000  1.0 0.089232274
H  H203  1  0.02710000  0.56990000  0.54350000  1.0 0.089232274
H  H204  1  0.97290000  0.56990000  0.45650000  1.0 0.089232274
H  H205  1  0.52710000  0.95650000  0.06990000  1.0 0.089232274
H  H206  1  0.47290000  0.04350000  0.06990000  1.0 0.089232274
H  H207  1  0.52710000  0.04350000  0.93010000  1.0 0.089232274
H  H208  1  0.47290000  0.95650000  0.93010000  1.0 0.089232274
H  H209  1  0.95650000  0.93010000  0.47290000  1.0 0.089232274
H  H210  1  0.04350000  0.93010000  0.52710000  1.0 0.089232274
H  H211  1  0.04350000  0.06990000  0.47290000  1.0 0.089232274
H  H212  1  0.95650000  0.06990000  0.52710000  1.0 0.089232274
H  H213  1  0.93010000  0.52710000  0.04350000  1.0 0.089232274
H  H214  1  0.93010000  0.47290000  0.95650000  1.0 0.089232274
H  H215  1  0.06990000  0.52710000  0.95650000  1.0 0.089232274
H  H216  1  0.06990000  0.47290000  0.04350000  1.0 0.089232274
H  H217  1  0.54350000  0.97290000  0.56990000  1.0 0.089232274
H  H218  1  0.45650000  0.02710000  0.56990000  1.0 0.089232274
H  H219  1  0.45650000  0.97290000  0.43010000  1.0 0.089232274
H  H220  1  0.54350000  0.02710000  0.43010000  1.0 0.089232274
H  H221  1  0.56990000  0.54350000  0.97290000  1.0 0.089232274
H  H222  1  0.56990000  0.45650000  0.02710000  1.0 0.089232274
H  H223  1  0.43010000  0.45650000  0.97290000  1.0 0.089232274
H  H224  1  0.43010000  0.54350000  0.02710000  1.0 0.089232274
H  H225  1  0.97290000  0.56990000  0.54350000  1.0 0.089232274
H  H226  1  0.02710000  0.56990000  0.45650000  1.0 0.089232274
H  H227  1  0.97290000  0.43010000  0.45650000  1.0 0.089232274
H  H228  1  0.02710000  0.43010000  0.54350000  1.0 0.089232274
H  H229  1  0.47290000  0.04350000  0.93010000  1.0 0.089232274
H  H230  1  0.52710000  0.95650000  0.93010000  1.0 0.089232274
H  H231  1  0.47290000  0.95650000  0.06990000  1.0 0.089232274
H  H232  1  0.52710000  0.04350000  0.06990000  1.0 0.089232274
H  H233  1  0.04350000  0.06990000  0.52710000  1.0 0.089232274
H  H234  1  0.95650000  0.06990000  0.47290000  1.0 0.089232274
H  H235  1  0.95650000  0.93010000  0.52710000  1.0 0.089232274
H  H236  1  0.04350000  0.93010000  0.47290000  1.0 0.089232274
H  H237  1  0.06990000  0.47290000  0.95650000  1.0 0.089232274
H  H238  1  0.06990000  0.52710000  0.04350000  1.0 0.089232274
H  H239  1  0.93010000  0.47290000  0.04350000  1.0 0.089232274
H  H240  1  0.93010000  0.52710000  0.95650000  1.0 0.089232274
H  H241  1  0.11920000  0.97270000  0.45660000  1.0 0.089232274
H  H242  1  0.88080000  0.02730000  0.45660000  1.0 0.089232274
H  H243  1  0.88080000  0.97270000  0.54340000  1.0 0.089232274
H  H244  1  0.11920000  0.02730000  0.54340000  1.0 0.089232274
H  H245  1  0.45660000  0.11920000  0.97270000  1.0 0.089232274
H  H246  1  0.45660000  0.88080000  0.02730000  1.0 0.089232274
H  H247  1  0.54340000  0.88080000  0.97270000  1.0 0.089232274
H  H248  1  0.54340000  0.11920000  0.02730000  1.0 0.089232274
H  H249  1  0.97270000  0.45660000  0.11920000  1.0 0.089232274
H  H250  1  0.02730000  0.45660000  0.88080000  1.0 0.089232274
H  H251  1  0.97270000  0.54340000  0.88080000  1.0 0.089232274
H  H252  1  0.02730000  0.54340000  0.11920000  1.0 0.089232274
H  H253  1  0.47270000  0.61920000  0.04340000  1.0 0.089232274
H  H254  1  0.52730000  0.38080000  0.04340000  1.0 0.089232274
H  H255  1  0.47270000  0.38080000  0.95660000  1.0 0.089232274
H  H256  1  0.52730000  0.61920000  0.95660000  1.0 0.089232274
H  H257  1  0.61920000  0.95660000  0.52730000  1.0 0.089232274
H  H258  1  0.38080000  0.95660000  0.47270000  1.0 0.089232274
H  H259  1  0.38080000  0.04340000  0.52730000  1.0 0.089232274
H  H260  1  0.61920000  0.04340000  0.47270000  1.0 0.089232274
H  H261  1  0.95660000  0.47270000  0.38080000  1.0 0.089232274
H  H262  1  0.95660000  0.52730000  0.61920000  1.0 0.089232274
H  H263  1  0.04340000  0.47270000  0.61920000  1.0 0.089232274
H  H264  1  0.04340000  0.52730000  0.38080000  1.0 0.089232274
H  H265  1  0.88080000  0.02730000  0.54340000  1.0 0.089232274
H  H266  1  0.11920000  0.97270000  0.54340000  1.0 0.089232274
H  H267  1  0.11920000  0.02730000  0.45660000  1.0 0.089232274
H  H268  1  0.88080000  0.97270000  0.45660000  1.0 0.089232274
H  H269  1  0.54340000  0.88080000  0.02730000  1.0 0.089232274
H  H270  1  0.54340000  0.11920000  0.97270000  1.0 0.089232274
H  H271  1  0.45660000  0.11920000  0.02730000  1.0 0.089232274
H  H272  1  0.45660000  0.88080000  0.97270000  1.0 0.089232274
H  H273  1  0.02730000  0.54340000  0.88080000  1.0 0.089232274
H  H274  1  0.97270000  0.54340000  0.11920000  1.0 0.089232274
H  H275  1  0.02730000  0.45660000  0.11920000  1.0 0.089232274
H  H276  1  0.97270000  0.45660000  0.88080000  1.0 0.089232274
H  H277  1  0.52730000  0.38080000  0.95660000  1.0 0.089232274
H  H278  1  0.47270000  0.61920000  0.95660000  1.0 0.089232274
H  H279  1  0.52730000  0.61920000  0.04340000  1.0 0.089232274
H  H280  1  0.47270000  0.38080000  0.04340000  1.0 0.089232274
H  H281  1  0.38080000  0.04340000  0.47270000  1.0 0.089232274
H  H282  1  0.61920000  0.04340000  0.52730000  1.0 0.089232274
H  H283  1  0.61920000  0.95660000  0.47270000  1.0 0.089232274
H  H284  1  0.38080000  0.95660000  0.52730000  1.0 0.089232274
H  H285  1  0.04340000  0.52730000  0.61920000  1.0 0.089232274
H  H286  1  0.04340000  0.47270000  0.38080000  1.0 0.089232274
H  H287  1  0.95660000  0.52730000  0.38080000  1.0 0.089232274
H  H288  1  0.95660000  0.47270000  0.61920000  1.0 0.089232274
H  H289  1  0.50000000  0.02710000  0.36130000  1.0 0.0773952955
H  H290  1  0.50000000  0.97290000  0.36130000  1.0 0.0773952955
H  H291  1  0.50000000  0.02710000  0.63870000  1.0 0.0773952955
H  H292  1  0.50000000  0.97290000  0.63870000  1.0 0.0773952955
H  H293  1  0.36130000  0.50000000  0.02710000  1.0 0.0773952955
H  H294  1  0.36130000  0.50000000  0.97290000  1.0 0.0773952955
H  H295  1  0.63870000  0.50000000  0.02710000  1.0 0.0773952955
H  H296  1  0.63870000  0.50000000  0.97290000  1.0 0.0773952955
H  H297  1  0.02710000  0.36130000  0.50000000  1.0 0.0773952955
H  H298  1  0.97290000  0.36130000  0.50000000  1.0 0.0773952955
H  H299  1  0.02710000  0.63870000  0.50000000  1.0 0.0773952955
H  H300  1  0.97290000  0.63870000  0.50000000  1.0 0.0773952955
H  H301  1  0.52710000  0.00000000  0.13870000  1.0 0.0773952955
H  H302  1  0.47290000  0.00000000  0.13870000  1.0 0.0773952955
H  H303  1  0.52710000  0.00000000  0.86130000  1.0 0.0773952955
H  H304  1  0.47290000  0.00000000  0.86130000  1.0 0.0773952955
H  H305  1  0.00000000  0.86130000  0.47290000  1.0 0.0773952955
H  H306  1  0.00000000  0.86130000  0.52710000  1.0 0.0773952955
H  H307  1  0.00000000  0.13870000  0.47290000  1.0 0.0773952955
H  H308  1  0.00000000  0.13870000  0.52710000  1.0 0.0773952955
H  H309  1  0.86130000  0.52710000  0.00000000  1.0 0.0773952955
H  H310  1  0.86130000  0.47290000  0.00000000  1.0 0.0773952955
H  H311  1  0.13870000  0.52710000  0.00000000  1.0 0.0773952955
H  H312  1  0.13870000  0.47290000  0.00000000  1.0 0.0773952955
H  H313  1  0.18720000  0.97290000  0.50000000  1.0 0.0773952955
H  H314  1  0.81280000  0.02710000  0.50000000  1.0 0.0773952955
H  H315  1  0.81280000  0.97290000  0.50000000  1.0 0.0773952955
H  H316  1  0.18720000  0.02710000  0.50000000  1.0 0.0773952955
H  H317  1  0.50000000  0.18720000  0.97290000  1.0 0.0773952955
H  H318  1  0.50000000  0.81280000  0.02710000  1.0 0.0773952955
H  H319  1  0.50000000  0.81280000  0.97290000  1.0 0.0773952955
H  H320  1  0.50000000  0.18720000  0.02710000  1.0 0.0773952955
H  H321  1  0.97290000  0.50000000  0.18720000  1.0 0.0773952955
H  H322  1  0.02710000  0.50000000  0.81280000  1.0 0.0773952955
H  H323  1  0.97290000  0.50000000  0.81280000  1.0 0.0773952955
H  H324  1  0.02710000  0.50000000  0.18720000  1.0 0.0773952955
H  H325  1  0.47290000  0.68720000  0.00000000  1.0 0.0773952955
H  H326  1  0.52710000  0.31280000  0.00000000  1.0 0.0773952955
H  H327  1  0.47290000  0.31280000  0.00000000  1.0 0.0773952955
H  H328  1  0.52710000  0.68720000  0.00000000  1.0 0.0773952955
H  H329  1  0.68720000  0.00000000  0.52710000  1.0 0.0773952955
H  H330  1  0.31280000  0.00000000  0.47290000  1.0 0.0773952955
H  H331  1  0.31280000  0.00000000  0.52710000  1.0 0.0773952955
H  H332  1  0.68720000  0.00000000  0.47290000  1.0 0.0773952955
H  H333  1  0.00000000  0.47290000  0.31280000  1.0 0.0773952955
H  H334  1  0.00000000  0.52710000  0.68720000  1.0 0.0773952955
H  H335  1  0.00000000  0.47290000  0.68720000  1.0 0.0773952955
H  H336  1  0.00000000  0.52710000  0.31280000  1.0 0.0773952955
W  W1  1  0.26416000  0.11919000  0.25981000  1.0 2.4309667589
W  W2  1  0.73584000  0.88081000  0.25981000  1.0 2.4309667589
W  W3  1  0.73584000  0.11919000  0.74019000  1.0 2.4309667589
W  W4  1  0.26416000  0.88081000  0.74019000  1.0 2.4309667589
W  W5  1  0.25981000  0.26416000  0.11919000  1.0 2.4309667589
W  W6  1  0.25981000  0.73584000  0.88081000  1.0 2.4309667589
W  W7  1  0.74019000  0.73584000  0.11919000  1.0 2.4309667589
W  W8  1  0.74019000  0.26416000  0.88081000  1.0 2.4309667589
W  W9  1  0.11919000  0.25981000  0.26416000  1.0 2.4309667589
W  W10  1  0.88081000  0.25981000  0.73584000  1.0 2.4309667589
W  W11  1  0.11919000  0.74019000  0.73584000  1.0 2.4309667589
W  W12  1  0.88081000  0.74019000  0.26416000  1.0 2.4309667589
W  W13  1  0.61919000  0.76416000  0.24019000  1.0 2.4309667589
W  W14  1  0.38081000  0.23584000  0.24019000  1.0 2.4309667589
W  W15  1  0.61919000  0.23584000  0.75981000  1.0 2.4309667589
W  W16  1  0.38081000  0.76416000  0.75981000  1.0 2.4309667589
W  W17  1  0.76416000  0.75981000  0.38081000  1.0 2.4309667589
W  W18  1  0.23584000  0.75981000  0.61919000  1.0 2.4309667589
W  W19  1  0.23584000  0.24019000  0.38081000  1.0 2.4309667589
W  W20  1  0.76416000  0.24019000  0.61919000  1.0 2.4309667589
W  W21  1  0.75981000  0.61919000  0.23584000  1.0 2.4309667589
W  W22  1  0.75981000  0.38081000  0.76416000  1.0 2.4309667589
W  W23  1  0.24019000  0.61919000  0.76416000  1.0 2.4309667589
W  W24  1  0.24019000  0.38081000  0.23584000  1.0 2.4309667589
W  W25  1  0.73584000  0.88081000  0.74019000  1.0 2.4309667589
W  W26  1  0.26416000  0.11919000  0.74019000  1.0 2.4309667589
W  W27  1  0.26416000  0.88081000  0.25981000  1.0 2.4309667589
W  W28  1  0.73584000  0.11919000  0.25981000  1.0 2.4309667589
W  W29  1  0.74019000  0.73584000  0.88081000  1.0 2.4309667589
W  W30  1  0.74019000  0.26416000  0.11919000  1.0 2.4309667589
W  W31  1  0.25981000  0.26416000  0.88081000  1.0 2.4309667589
W  W32  1  0.25981000  0.73584000  0.11919000  1.0 2.4309667589
W  W33  1  0.88081000  0.74019000  0.73584000  1.0 2.4309667589
W  W34  1  0.11919000  0.74019000  0.26416000  1.0 2.4309667589
W  W35  1  0.88081000  0.25981000  0.26416000  1.0 2.4309667589
W  W36  1  0.11919000  0.25981000  0.73584000  1.0 2.4309667589
W  W37  1  0.38081000  0.23584000  0.75981000  1.0 2.4309667589
W  W38  1  0.61919000  0.76416000  0.75981000  1.0 2.4309667589
W  W39  1  0.38081000  0.76416000  0.24019000  1.0 2.4309667589
W  W40  1  0.61919000  0.23584000  0.24019000  1.0 2.4309667589
W  W41  1  0.23584000  0.24019000  0.61919000  1.0 2.4309667589
W  W42  1  0.76416000  0.24019000  0.38081000  1.0 2.4309667589
W  W43  1  0.76416000  0.75981000  0.61919000  1.0 2.4309667589
W  W44  1  0.23584000  0.75981000  0.38081000  1.0 2.4309667589
W  W45  1  0.24019000  0.38081000  0.76416000  1.0 2.4309667589
W  W46  1  0.24019000  0.61919000  0.23584000  1.0 2.4309667589
W  W47  1  0.75981000  0.38081000  0.23584000  1.0 2.4309667589
W  W48  1  0.75981000  0.61919000  0.76416000  1.0 2.4309667589
W  W49  1  0.30973000  0.83891000  0.16581000  1.0 2.4008900067
W  W50  1  0.69027000  0.16109000  0.16581000  1.0 2.4008900067
W  W51  1  0.69027000  0.83891000  0.83419000  1.0 2.4008900067
W  W52  1  0.30973000  0.16109000  0.83419000  1.0 2.4008900067
W  W53  1  0.16581000  0.30973000  0.83891000  1.0 2.4008900067
W  W54  1  0.16581000  0.69027000  0.16109000  1.0 2.4008900067
W  W55  1  0.83419000  0.69027000  0.83891000  1.0 2.4008900067
W  W56  1  0.83419000  0.30973000  0.16109000  1.0 2.4008900067
W  W57  1  0.83891000  0.16581000  0.30973000  1.0 2.4008900067
W  W58  1  0.16109000  0.16581000  0.69027000  1.0 2.4008900067
W  W59  1  0.83891000  0.83419000  0.69027000  1.0 2.4008900067
W  W60  1  0.16109000  0.83419000  0.30973000  1.0 2.4008900067
W  W61  1  0.33891000  0.80973000  0.33419000  1.0 2.4008900067
W  W62  1  0.66109000  0.19027000  0.33419000  1.0 2.4008900067
W  W63  1  0.33891000  0.19027000  0.66581000  1.0 2.4008900067
W  W64  1  0.66109000  0.80973000  0.66581000  1.0 2.4008900067
W  W65  1  0.80973000  0.66581000  0.66109000  1.0 2.4008900067
W  W66  1  0.19027000  0.66581000  0.33891000  1.0 2.4008900067
W  W67  1  0.19027000  0.33419000  0.66109000  1.0 2.4008900067
W  W68  1  0.80973000  0.33419000  0.33891000  1.0 2.4008900067
W  W69  1  0.66581000  0.33891000  0.19027000  1.0 2.4008900067
W  W70  1  0.66581000  0.66109000  0.80973000  1.0 2.4008900067
W  W71  1  0.33419000  0.33891000  0.80973000  1.0 2.4008900067
W  W72  1  0.33419000  0.66109000  0.19027000  1.0 2.4008900067
W  W73  1  0.69027000  0.16109000  0.83419000  1.0 2.4008900067
W  W74  1  0.30973000  0.83891000  0.83419000  1.0 2.4008900067
W  W75  1  0.30973000  0.16109000  0.16581000  1.0 2.4008900067
W  W76  1  0.69027000  0.83891000  0.16581000  1.0 2.4008900067
W  W77  1  0.83419000  0.69027000  0.16109000  1.0 2.4008900067
W  W78  1  0.83419000  0.30973000  0.83891000  1.0 2.4008900067
W  W79  1  0.16581000  0.30973000  0.16109000  1.0 2.4008900067
W  W80  1  0.16581000  0.69027000  0.83891000  1.0 2.4008900067
W  W81  1  0.16109000  0.83419000  0.69027000  1.0 2.4008900067
W  W82  1  0.83891000  0.83419000  0.30973000  1.0 2.4008900067
W  W83  1  0.16109000  0.16581000  0.30973000  1.0 2.4008900067
W  W84  1  0.83891000  0.16581000  0.69027000  1.0 2.4008900067
W  W85  1  0.66109000  0.19027000  0.66581000  1.0 2.4008900067
W  W86  1  0.33891000  0.80973000  0.66581000  1.0 2.4008900067
W  W87  1  0.66109000  0.80973000  0.33419000  1.0 2.4008900067
W  W88  1  0.33891000  0.19027000  0.33419000  1.0 2.4008900067
W  W89  1  0.19027000  0.33419000  0.33891000  1.0 2.4008900067
W  W90  1  0.80973000  0.33419000  0.66109000  1.0 2.4008900067
W  W91  1  0.80973000  0.66581000  0.33891000  1.0 2.4008900067
W  W92  1  0.19027000  0.66581000  0.66109000  1.0 2.4008900067
W  W93  1  0.33419000  0.66109000  0.80973000  1.0 2.4008900067
W  W94  1  0.33419000  0.33891000  0.19027000  1.0 2.4008900067
W  W95  1  0.66581000  0.66109000  0.19027000  1.0 2.4008900067
W  W96  1  0.66581000  0.33891000  0.80973000  1.0 2.4008900067
W  W97  1  0.15499000  0.89271000  0.19980000  1.0 2.4197334638
W  W98  1  0.84501000  0.10729000  0.19980000  1.0 2.4197334638
W  W99  1  0.84501000  0.89271000  0.80020000  1.0 2.4197334638
W  W100  1  0.15499000  0.10729000  0.80020000  1.0 2.4197334638
W  W101  1  0.19980000  0.15499000  0.89271000  1.0 2.4197334638
W  W102  1  0.19980000  0.84501000  0.10729000  1.0 2.4197334638
W  W103  1  0.80020000  0.84501000  0.89271000  1.0 2.4197334638
W  W104  1  0.80020000  0.15499000  0.10729000  1.0 2.4197334638
W  W105  1  0.89271000  0.19980000  0.15499000  1.0 2.4197334638
W  W106  1  0.10729000  0.19980000  0.84501000  1.0 2.4197334638
W  W107  1  0.89271000  0.80020000  0.84501000  1.0 2.4197334638
W  W108  1  0.10729000  0.80020000  0.15499000  1.0 2.4197334638
W  W109  1  0.39271000  0.65499000  0.30020000  1.0 2.4197334638
W  W110  1  0.60729000  0.34501000  0.30020000  1.0 2.4197334638
W  W111  1  0.39271000  0.34501000  0.69980000  1.0 2.4197334638
W  W112  1  0.60729000  0.65499000  0.69980000  1.0 2.4197334638
W  W113  1  0.65499000  0.69980000  0.60729000  1.0 2.4197334638
W  W114  1  0.34501000  0.69980000  0.39271000  1.0 2.4197334638
W  W115  1  0.34501000  0.30020000  0.60729000  1.0 2.4197334638
W  W116  1  0.65499000  0.30020000  0.39271000  1.0 2.4197334638
W  W117  1  0.69980000  0.39271000  0.34501000  1.0 2.4197334638
W  W118  1  0.69980000  0.60729000  0.65499000  1.0 2.4197334638
W  W119  1  0.30020000  0.39271000  0.65499000  1.0 2.4197334638
W  W120  1  0.30020000  0.60729000  0.34501000  1.0 2.4197334638
W  W121  1  0.84501000  0.10729000  0.80020000  1.0 2.4197334638
W  W122  1  0.15499000  0.89271000  0.80020000  1.0 2.4197334638
W  W123  1  0.15499000  0.10729000  0.19980000  1.0 2.4197334638
W  W124  1  0.84501000  0.89271000  0.19980000  1.0 2.4197334638
W  W125  1  0.80020000  0.84501000  0.10729000  1.0 2.4197334638
W  W126  1  0.80020000  0.15499000  0.89271000  1.0 2.4197334638
W  W127  1  0.19980000  0.15499000  0.10729000  1.0 2.4197334638
W  W128  1  0.19980000  0.84501000  0.89271000  1.0 2.4197334638
W  W129  1  0.10729000  0.80020000  0.84501000  1.0 2.4197334638
W  W130  1  0.89271000  0.80020000  0.15499000  1.0 2.4197334638
W  W131  1  0.10729000  0.19980000  0.15499000  1.0 2.4197334638
W  W132  1  0.89271000  0.19980000  0.84501000  1.0 2.4197334638
W  W133  1  0.60729000  0.34501000  0.69980000  1.0 2.4197334638
W  W134  1  0.39271000  0.65499000  0.69980000  1.0 2.4197334638
W  W135  1  0.60729000  0.65499000  0.30020000  1.0 2.4197334638
W  W136  1  0.39271000  0.34501000  0.30020000  1.0 2.4197334638
W  W137  1  0.34501000  0.30020000  0.39271000  1.0 2.4197334638
W  W138  1  0.65499000  0.30020000  0.60729000  1.0 2.4197334638
W  W139  1  0.65499000  0.69980000  0.39271000  1.0 2.4197334638
W  W140  1  0.34501000  0.69980000  0.60729000  1.0 2.4197334638
W  W141  1  0.30020000  0.60729000  0.65499000  1.0 2.4197334638
W  W142  1  0.30020000  0.39271000  0.34501000  1.0 2.4197334638
W  W143  1  0.69980000  0.60729000  0.34501000  1.0 2.4197334638
W  W144  1  0.69980000  0.39271000  0.65499000  1.0 2.4197334638
C  C1  1  0.35480000  0.03830000  0.34040000  1.0 0.0658577206
C  C2  1  0.64520000  0.96170000  0.34040000  1.0 0.0658577206
C  C3  1  0.64520000  0.03830000  0.65960000  1.0 0.0658577206
C  C4  1  0.35480000  0.96170000  0.65960000  1.0 0.0658577206
C  C5  1  0.34040000  0.35480000  0.03830000  1.0 0.0658577206
C  C6  1  0.34040000  0.64520000  0.96170000  1.0 0.0658577206
C  C7  1  0.65960000  0.64520000  0.03830000  1.0 0.0658577206
C  C8  1  0.65960000  0.35480000  0.96170000  1.0 0.0658577206
C  C9  1  0.03830000  0.34040000  0.35480000  1.0 0.0658577206
C  C10  1  0.96170000  0.34040000  0.64520000  1.0 0.0658577206
C  C11  1  0.03830000  0.65960000  0.64520000  1.0 0.0658577206
C  C12  1  0.96170000  0.65960000  0.35480000  1.0 0.0658577206
C  C13  1  0.53830000  0.85480000  0.15960000  1.0 0.0658577206
C  C14  1  0.46170000  0.14520000  0.15960000  1.0 0.0658577206
C  C15  1  0.53830000  0.14520000  0.84040000  1.0 0.0658577206
C  C16  1  0.46170000  0.85480000  0.84040000  1.0 0.0658577206
C  C17  1  0.85480000  0.84040000  0.46170000  1.0 0.0658577206
C  C18  1  0.14520000  0.84040000  0.53830000  1.0 0.0658577206
C  C19  1  0.14520000  0.15960000  0.46170000  1.0 0.0658577206
C  C20  1  0.85480000  0.15960000  0.53830000  1.0 0.0658577206
C  C21  1  0.84040000  0.53830000  0.14520000  1.0 0.0658577206
C  C22  1  0.84040000  0.46170000  0.85480000  1.0 0.0658577206
C  C23  1  0.15960000  0.53830000  0.85480000  1.0 0.0658577206
C  C24  1  0.15960000  0.46170000  0.14520000  1.0 0.0658577206
C  C25  1  0.64520000  0.96170000  0.65960000  1.0 0.0658577206
C  C26  1  0.35480000  0.03830000  0.65960000  1.0 0.0658577206
C  C27  1  0.35480000  0.96170000  0.34040000  1.0 0.0658577206
C  C28  1  0.64520000  0.03830000  0.34040000  1.0 0.0658577206
C  C29  1  0.65960000  0.64520000  0.96170000  1.0 0.0658577206
C  C30  1  0.65960000  0.35480000  0.03830000  1.0 0.0658577206
C  C31  1  0.34040000  0.35480000  0.96170000  1.0 0.0658577206
C  C32  1  0.34040000  0.64520000  0.03830000  1.0 0.0658577206
C  C33  1  0.96170000  0.65960000  0.64520000  1.0 0.0658577206
C  C34  1  0.03830000  0.65960000  0.35480000  1.0 0.0658577206
C  C35  1  0.96170000  0.34040000  0.35480000  1.0 0.0658577206
C  C36  1  0.03830000  0.34040000  0.64520000  1.0 0.0658577206
C  C37  1  0.46170000  0.14520000  0.84040000  1.0 0.0658577206
C  C38  1  0.53830000  0.85480000  0.84040000  1.0 0.0658577206
C  C39  1  0.46170000  0.85480000  0.15960000  1.0 0.0658577206
C  C40  1  0.53830000  0.14520000  0.15960000  1.0 0.0658577206
C  C41  1  0.14520000  0.15960000  0.53830000  1.0 0.0658577206
C  C42  1  0.85480000  0.15960000  0.46170000  1.0 0.0658577206
C  C43  1  0.85480000  0.84040000  0.53830000  1.0 0.0658577206
C  C44  1  0.14520000  0.84040000  0.46170000  1.0 0.0658577206
C  C45  1  0.15960000  0.46170000  0.85480000  1.0 0.0658577206
C  C46  1  0.15960000  0.53830000  0.14520000  1.0 0.0658577206
C  C47  1  0.84040000  0.46170000  0.14520000  1.0 0.0658577206
C  C48  1  0.84040000  0.53830000  0.85480000  1.0 0.0658577206
C  C49  1  0.21980000  0.03910000  0.36460000  1.0 0.0501118196
C  C50  1  0.78020000  0.96090000  0.36460000  1.0 0.0501118196
C  C51  1  0.78020000  0.03910000  0.63540000  1.0 0.0501118196
C  C52  1  0.21980000  0.96090000  0.63540000  1.0 0.0501118196
C  C53  1  0.36460000  0.21980000  0.03910000  1.0 0.0501118196
C  C54  1  0.36460000  0.78020000  0.96090000  1.0 0.0501118196
C  C55  1  0.63540000  0.78020000  0.03910000  1.0 0.0501118196
C  C56  1  0.63540000  0.21980000  0.96090000  1.0 0.0501118196
C  C57  1  0.03910000  0.36460000  0.21980000  1.0 0.0501118196
C  C58  1  0.96090000  0.36460000  0.78020000  1.0 0.0501118196
C  C59  1  0.03910000  0.63540000  0.78020000  1.0 0.0501118196
C  C60  1  0.96090000  0.63540000  0.21980000  1.0 0.0501118196
C  C61  1  0.53910000  0.71980000  0.13540000  1.0 0.0501118196
C  C62  1  0.46090000  0.28020000  0.13540000  1.0 0.0501118196
C  C63  1  0.53910000  0.28020000  0.86460000  1.0 0.0501118196
C  C64  1  0.46090000  0.71980000  0.86460000  1.0 0.0501118196
C  C65  1  0.71980000  0.86460000  0.46090000  1.0 0.0501118196
C  C66  1  0.28020000  0.86460000  0.53910000  1.0 0.0501118196
C  C67  1  0.28020000  0.13540000  0.46090000  1.0 0.0501118196
C  C68  1  0.71980000  0.13540000  0.53910000  1.0 0.0501118196
C  C69  1  0.86460000  0.53910000  0.28020000  1.0 0.0501118196
C  C70  1  0.86460000  0.46090000  0.71980000  1.0 0.0501118196
C  C71  1  0.13540000  0.53910000  0.71980000  1.0 0.0501118196
C  C72  1  0.13540000  0.46090000  0.28020000  1.0 0.0501118196
C  C73  1  0.78020000  0.96090000  0.63540000  1.0 0.0501118196
C  C74  1  0.21980000  0.03910000  0.63540000  1.0 0.0501118196
C  C75  1  0.21980000  0.96090000  0.36460000  1.0 0.0501118196
C  C76  1  0.78020000  0.03910000  0.36460000  1.0 0.0501118196
C  C77  1  0.63540000  0.78020000  0.96090000  1.0 0.0501118196
C  C78  1  0.63540000  0.21980000  0.03910000  1.0 0.0501118196
C  C79  1  0.36460000  0.21980000  0.96090000  1.0 0.0501118196
C  C80  1  0.36460000  0.78020000  0.03910000  1.0 0.0501118196
C  C81  1  0.96090000  0.63540000  0.78020000  1.0 0.0501118196
C  C82  1  0.03910000  0.63540000  0.21980000  1.0 0.0501118196
C  C83  1  0.96090000  0.36460000  0.21980000  1.0 0.0501118196
C  C84  1  0.03910000  0.36460000  0.78020000  1.0 0.0501118196
C  C85  1  0.46090000  0.28020000  0.86460000  1.0 0.0501118196
C  C86  1  0.53910000  0.71980000  0.86460000  1.0 0.0501118196
C  C87  1  0.46090000  0.71980000  0.13540000  1.0 0.0501118196
C  C88  1  0.53910000  0.28020000  0.13540000  1.0 0.0501118196
C  C89  1  0.28020000  0.13540000  0.53910000  1.0 0.0501118196
C  C90  1  0.71980000  0.13540000  0.46090000  1.0 0.0501118196
C  C91  1  0.71980000  0.86460000  0.53910000  1.0 0.0501118196
C  C92  1  0.28020000  0.86460000  0.46090000  1.0 0.0501118196
C  C93  1  0.13540000  0.46090000  0.71980000  1.0 0.0501118196
C  C94  1  0.13540000  0.53910000  0.28020000  1.0 0.0501118196
C  C95  1  0.86460000  0.46090000  0.28020000  1.0 0.0501118196
C  C96  1  0.86460000  0.53910000  0.71980000  1.0 0.0501118196
C  C97  1  0.39280000  0.04030000  0.36700000  1.0 -0.2491648327
C  C98  1  0.60720000  0.95970000  0.36700000  1.0 -0.2491648327
C  C99  1  0.60720000  0.04030000  0.63300000  1.0 -0.2491648327
C  C100  1  0.39280000  0.95970000  0.63300000  1.0 -0.2491648327
C  C101  1  0.36700000  0.39280000  0.04030000  1.0 -0.2491648327
C  C102  1  0.36700000  0.60720000  0.95970000  1.0 -0.2491648327
C  C103  1  0.63300000  0.60720000  0.04030000  1.0 -0.2491648327
C  C104  1  0.63300000  0.39280000  0.95970000  1.0 -0.2491648327
C  C105  1  0.04030000  0.36700000  0.39280000  1.0 -0.2491648327
C  C106  1  0.95970000  0.36700000  0.60720000  1.0 -0.2491648327
C  C107  1  0.04030000  0.63300000  0.60720000  1.0 -0.2491648327
C  C108  1  0.95970000  0.63300000  0.39280000  1.0 -0.2491648327
C  C109  1  0.54030000  0.89280000  0.13300000  1.0 -0.2491648327
C  C110  1  0.45970000  0.10720000  0.13300000  1.0 -0.2491648327
C  C111  1  0.54030000  0.10720000  0.86700000  1.0 -0.2491648327
C  C112  1  0.45970000  0.89280000  0.86700000  1.0 -0.2491648327
C  C113  1  0.89280000  0.86700000  0.45970000  1.0 -0.2491648327
C  C114  1  0.10720000  0.86700000  0.54030000  1.0 -0.2491648327
C  C115  1  0.10720000  0.13300000  0.45970000  1.0 -0.2491648327
C  C116  1  0.89280000  0.13300000  0.54030000  1.0 -0.2491648327
C  C117  1  0.86700000  0.54030000  0.10720000  1.0 -0.2491648327
C  C118  1  0.86700000  0.45970000  0.89280000  1.0 -0.2491648327
C  C119  1  0.13300000  0.54030000  0.89280000  1.0 -0.2491648327
C  C120  1  0.13300000  0.45970000  0.10720000  1.0 -0.2491648327
C  C121  1  0.60720000  0.95970000  0.63300000  1.0 -0.2491648327
C  C122  1  0.39280000  0.04030000  0.63300000  1.0 -0.2491648327
C  C123  1  0.39280000  0.95970000  0.36700000  1.0 -0.2491648327
C  C124  1  0.60720000  0.04030000  0.36700000  1.0 -0.2491648327
C  C125  1  0.63300000  0.60720000  0.95970000  1.0 -0.2491648327
C  C126  1  0.63300000  0.39280000  0.04030000  1.0 -0.2491648327
C  C127  1  0.36700000  0.39280000  0.95970000  1.0 -0.2491648327
C  C128  1  0.36700000  0.60720000  0.04030000  1.0 -0.2491648327
C  C129  1  0.95970000  0.63300000  0.60720000  1.0 -0.2491648327
C  C130  1  0.04030000  0.63300000  0.39280000  1.0 -0.2491648327
C  C131  1  0.95970000  0.36700000  0.39280000  1.0 -0.2491648327
C  C132  1  0.04030000  0.36700000  0.60720000  1.0 -0.2491648327
C  C133  1  0.45970000  0.10720000  0.86700000  1.0 -0.2491648327
C  C134  1  0.54030000  0.89280000  0.86700000  1.0 -0.2491648327
C  C135  1  0.45970000  0.89280000  0.13300000  1.0 -0.2491648327
C  C136  1  0.54030000  0.10720000  0.13300000  1.0 -0.2491648327
C  C137  1  0.10720000  0.13300000  0.54030000  1.0 -0.2491648327
C  C138  1  0.89280000  0.13300000  0.45970000  1.0 -0.2491648327
C  C139  1  0.89280000  0.86700000  0.54030000  1.0 -0.2491648327
C  C140  1  0.10720000  0.86700000  0.45970000  1.0 -0.2491648327
C  C141  1  0.13300000  0.45970000  0.89280000  1.0 -0.2491648327
C  C142  1  0.13300000  0.54030000  0.10720000  1.0 -0.2491648327
C  C143  1  0.86700000  0.45970000  0.10720000  1.0 -0.2491648327
C  C144  1  0.86700000  0.54030000  0.89280000  1.0 -0.2491648327
C  C145  1  0.18880000  0.04000000  0.40030000  1.0 -0.2404744685
C  C146  1  0.81120000  0.96000000  0.40030000  1.0 -0.2404744685
C  C147  1  0.81120000  0.04000000  0.59970000  1.0 -0.2404744685
C  C148  1  0.18880000  0.96000000  0.59970000  1.0 -0.2404744685
C  C149  1  0.40030000  0.18880000  0.04000000  1.0 -0.2404744685
C  C150  1  0.40030000  0.81120000  0.96000000  1.0 -0.2404744685
C  C151  1  0.59970000  0.81120000  0.04000000  1.0 -0.2404744685
C  C152  1  0.59970000  0.18880000  0.96000000  1.0 -0.2404744685
C  C153  1  0.04000000  0.40030000  0.18880000  1.0 -0.2404744685
C  C154  1  0.96000000  0.40030000  0.81120000  1.0 -0.2404744685
C  C155  1  0.04000000  0.59970000  0.81120000  1.0 -0.2404744685
C  C156  1  0.96000000  0.59970000  0.18880000  1.0 -0.2404744685
C  C157  1  0.54000000  0.68880000  0.09970000  1.0 -0.2404744685
C  C158  1  0.46000000  0.31120000  0.09970000  1.0 -0.2404744685
C  C159  1  0.54000000  0.31120000  0.90030000  1.0 -0.2404744685
C  C160  1  0.46000000  0.68880000  0.90030000  1.0 -0.2404744685
C  C161  1  0.68880000  0.90030000  0.46000000  1.0 -0.2404744685
C  C162  1  0.31120000  0.90030000  0.54000000  1.0 -0.2404744685
C  C163  1  0.31120000  0.09970000  0.46000000  1.0 -0.2404744685
C  C164  1  0.68880000  0.09970000  0.54000000  1.0 -0.2404744685
C  C165  1  0.90030000  0.54000000  0.31120000  1.0 -0.2404744685
C  C166  1  0.90030000  0.46000000  0.68880000  1.0 -0.2404744685
C  C167  1  0.09970000  0.54000000  0.68880000  1.0 -0.2404744685
C  C168  1  0.09970000  0.46000000  0.31120000  1.0 -0.2404744685
C  C169  1  0.81120000  0.96000000  0.59970000  1.0 -0.2404744685
C  C170  1  0.18880000  0.04000000  0.59970000  1.0 -0.2404744685
C  C171  1  0.18880000  0.96000000  0.40030000  1.0 -0.2404744685
C  C172  1  0.81120000  0.04000000  0.40030000  1.0 -0.2404744685
C  C173  1  0.59970000  0.81120000  0.96000000  1.0 -0.2404744685
C  C174  1  0.59970000  0.18880000  0.04000000  1.0 -0.2404744685
C  C175  1  0.40030000  0.18880000  0.96000000  1.0 -0.2404744685
C  C176  1  0.40030000  0.81120000  0.04000000  1.0 -0.2404744685
C  C177  1  0.96000000  0.59970000  0.81120000  1.0 -0.2404744685
C  C178  1  0.04000000  0.59970000  0.18880000  1.0 -0.2404744685
C  C179  1  0.96000000  0.40030000  0.18880000  1.0 -0.2404744685
C  C180  1  0.04000000  0.40030000  0.81120000  1.0 -0.2404744685
C  C181  1  0.46000000  0.31120000  0.90030000  1.0 -0.2404744685
C  C182  1  0.54000000  0.68880000  0.90030000  1.0 -0.2404744685
C  C183  1  0.46000000  0.68880000  0.09970000  1.0 -0.2404744685
C  C184  1  0.54000000  0.31120000  0.09970000  1.0 -0.2404744685
C  C185  1  0.31120000  0.09970000  0.54000000  1.0 -0.2404744685
C  C186  1  0.68880000  0.09970000  0.46000000  1.0 -0.2404744685
C  C187  1  0.68880000  0.90030000  0.54000000  1.0 -0.2404744685
C  C188  1  0.31120000  0.90030000  0.46000000  1.0 -0.2404744685
C  C189  1  0.09970000  0.46000000  0.68880000  1.0 -0.2404744685
C  C190  1  0.09970000  0.54000000  0.31120000  1.0 -0.2404744685
C  C191  1  0.90030000  0.46000000  0.31120000  1.0 -0.2404744685
C  C192  1  0.90030000  0.54000000  0.68880000  1.0 -0.2404744685
C  C193  1  0.41310000  0.00000000  0.38080000  1.0 0.1510658224
C  C194  1  0.58690000  0.00000000  0.38080000  1.0 0.1551652095
C  C195  1  0.58690000  0.00000000  0.61920000  1.0 0.1510658224
C  C196  1  0.41310000  0.00000000  0.61920000  1.0 0.1510658224
C  C197  1  0.38080000  0.41310000  0.00000000  1.0 0.1510658224
C  C198  1  0.38080000  0.58690000  0.00000000  1.0 0.1510658224
C  C199  1  0.61920000  0.58690000  0.00000000  1.0 0.1510658224
C  C200  1  0.61920000  0.41310000  0.00000000  1.0 0.1510658224
C  C201  1  0.00000000  0.38080000  0.41310000  1.0 0.1510658224
C  C202  1  0.00000000  0.38080000  0.58690000  1.0 0.1510658224
C  C203  1  0.00000000  0.61920000  0.58690000  1.0 0.1510658224
C  C204  1  0.00000000  0.61920000  0.41310000  1.0 0.1510658224
C  C205  1  0.50000000  0.91310000  0.11920000  1.0 0.1510658224
C  C206  1  0.50000000  0.08690000  0.11920000  1.0 0.1510658224
C  C207  1  0.50000000  0.08690000  0.88080000  1.0 0.1510658224
C  C208  1  0.50000000  0.91310000  0.88080000  1.0 0.1510658224
C  C209  1  0.91310000  0.88080000  0.50000000  1.0 0.1510658224
C  C210  1  0.08690000  0.88080000  0.50000000  1.0 0.1510658224
C  C211  1  0.08690000  0.11920000  0.50000000  1.0 0.1510658224
C  C212  1  0.91310000  0.11920000  0.50000000  1.0 0.1510658224
C  C213  1  0.88080000  0.50000000  0.08690000  1.0 0.1510658224
C  C214  1  0.88080000  0.50000000  0.91310000  1.0 0.1510658224
C  C215  1  0.11920000  0.50000000  0.91310000  1.0 0.1510658224
C  C216  1  0.11920000  0.50000000  0.08690000  1.0 0.1510658224
C  C217  1  0.17280000  0.00000000  0.41990000  1.0 0.1510658224
C  C218  1  0.82720000  0.00000000  0.41990000  1.0 0.1510658224
C  C219  1  0.82720000  0.00000000  0.58010000  1.0 0.1510658224
C  C220  1  0.17280000  0.00000000  0.58010000  1.0 0.1510658224
C  C221  1  0.41990000  0.17280000  0.00000000  1.0 0.1510658224
C  C222  1  0.41990000  0.82720000  0.00000000  1.0 0.1510658224
C  C223  1  0.58010000  0.82720000  0.00000000  1.0 0.1510658224
C  C224  1  0.58010000  0.17280000  0.00000000  1.0 0.1510658224
C  C225  1  0.00000000  0.41990000  0.17280000  1.0 0.1510658224
C  C226  1  0.00000000  0.41990000  0.82720000  1.0 0.1510658224
C  C227  1  0.00000000  0.58010000  0.82720000  1.0 0.1510658224
C  C228  1  0.00000000  0.58010000  0.17280000  1.0 0.1510658224
C  C229  1  0.50000000  0.67280000  0.08010000  1.0 0.1510658224
C  C230  1  0.50000000  0.32720000  0.08010000  1.0 0.1510658224
C  C231  1  0.50000000  0.32720000  0.91990000  1.0 0.1510658224
C  C232  1  0.50000000  0.67280000  0.91990000  1.0 0.1510658224
C  C233  1  0.67280000  0.91990000  0.50000000  1.0 0.1510658224
C  C234  1  0.32720000  0.91990000  0.50000000  1.0 0.1510658224
C  C235  1  0.32720000  0.08010000  0.50000000  1.0 0.1510658224
C  C236  1  0.67280000  0.08010000  0.50000000  1.0 0.1510658224
C  C237  1  0.91990000  0.50000000  0.32720000  1.0 0.1510658224
C  C238  1  0.91990000  0.50000000  0.67280000  1.0 0.1510658224
C  C239  1  0.08010000  0.50000000  0.67280000  1.0 0.1510658224
C  C240  1  0.08010000  0.50000000  0.32720000  1.0 0.1510658224
C  C241  1  0.45650000  0.00000000  0.41040000  1.0 -0.2817863458
C  C242  1  0.54350000  0.00000000  0.41040000  1.0 -0.2817863458
C  C243  1  0.54350000  0.00000000  0.58960000  1.0 -0.2817863458
C  C244  1  0.45650000  0.00000000  0.58960000  1.0 -0.2817863458
C  C245  1  0.41040000  0.45650000  0.00000000  1.0 -0.2817863458
C  C246  1  0.41040000  0.54350000  0.00000000  1.0 -0.2817863458
C  C247  1  0.58960000  0.54350000  0.00000000  1.0 -0.2817863458
C  C248  1  0.58960000  0.45650000  0.00000000  1.0 -0.2817863458
C  C249  1  0.00000000  0.41040000  0.45650000  1.0 -0.2817863458
C  C250  1  0.00000000  0.41040000  0.54350000  1.0 -0.2817863458
C  C251  1  0.00000000  0.58960000  0.54350000  1.0 -0.2817863458
C  C252  1  0.00000000  0.58960000  0.45650000  1.0 -0.2817863458
C  C253  1  0.50000000  0.95650000  0.08960000  1.0 -0.2817863458
C  C254  1  0.50000000  0.04350000  0.08960000  1.0 -0.2817863458
C  C255  1  0.50000000  0.04350000  0.91040000  1.0 -0.2817863458
C  C256  1  0.50000000  0.95650000  0.91040000  1.0 -0.2817863458
C  C257  1  0.95650000  0.91040000  0.50000000  1.0 -0.2817863458
C  C258  1  0.04350000  0.91040000  0.50000000  1.0 -0.2817863458
C  C259  1  0.04350000  0.08960000  0.50000000  1.0 -0.2817863458
C  C260  1  0.95650000  0.08960000  0.50000000  1.0 -0.2817863458
C  C261  1  0.91040000  0.50000000  0.04350000  1.0 -0.2817863458
C  C262  1  0.91040000  0.50000000  0.95650000  1.0 -0.2817863458
C  C263  1  0.08960000  0.50000000  0.95650000  1.0 -0.2817863458
C  C264  1  0.08960000  0.50000000  0.04350000  1.0 -0.2817863458
C  C265  1  0.13860000  0.00000000  0.45780000  1.0 -0.2883305465
C  C266  1  0.86140000  0.00000000  0.45780000  1.0 -0.2883305465
C  C267  1  0.86140000  0.00000000  0.54220000  1.0 -0.2883305465
C  C268  1  0.13860000  0.00000000  0.54220000  1.0 -0.2883305465
C  C269  1  0.45780000  0.13860000  0.00000000  1.0 -0.2883305465
C  C270  1  0.45780000  0.86140000  0.00000000  1.0 -0.2883305465
C  C271  1  0.54220000  0.86140000  0.00000000  1.0 -0.2883305465
C  C272  1  0.54220000  0.13860000  0.00000000  1.0 -0.2883305465
C  C273  1  0.00000000  0.45780000  0.13860000  1.0 -0.2883305465
C  C274  1  0.00000000  0.45780000  0.86140000  1.0 -0.2883305465
C  C275  1  0.00000000  0.54220000  0.86140000  1.0 -0.2883305465
C  C276  1  0.00000000  0.54220000  0.13860000  1.0 -0.2883305465
C  C277  1  0.50000000  0.63860000  0.04220000  1.0 -0.2883305465
C  C278  1  0.50000000  0.36140000  0.04220000  1.0 -0.2883305465
C  C279  1  0.50000000  0.36140000  0.95780000  1.0 -0.2883305465
C  C280  1  0.50000000  0.63860000  0.95780000  1.0 -0.2883305465
C  C281  1  0.63860000  0.95780000  0.50000000  1.0 -0.2883305465
C  C282  1  0.36140000  0.95780000  0.50000000  1.0 -0.2883305465
C  C283  1  0.36140000  0.04220000  0.50000000  1.0 -0.2883305465
C  C284  1  0.63860000  0.04220000  0.50000000  1.0 -0.2883305465
C  C285  1  0.95780000  0.50000000  0.36140000  1.0 -0.2883305465
C  C286  1  0.95780000  0.50000000  0.63860000  1.0 -0.2883305465
C  C287  1  0.04220000  0.50000000  0.63860000  1.0 -0.2883305465
C  C288  1  0.04220000  0.50000000  0.36140000  1.0 -0.2883305465
C  C289  1  0.50000000  0.00000000  0.38100000  1.0 -0.1672806575
C  C290  1  0.50000000  0.00000000  0.61900000  1.0 -0.1672806575
C  C291  1  0.38100000  0.50000000  0.00000000  1.0 -0.1672806575
C  C292  1  0.61900000  0.50000000  0.00000000  1.0 -0.1672806575
C  C293  1  0.00000000  0.38100000  0.50000000  1.0 -0.1672806575
C  C294  1  0.00000000  0.61900000  0.50000000  1.0 -0.1672806575
C  C295  1  0.50000000  0.00000000  0.11900000  1.0 -0.1672806575
C  C296  1  0.50000000  0.00000000  0.88100000  1.0 -0.1672806575
C  C297  1  0.00000000  0.88100000  0.50000000  1.0 -0.1672806575
C  C298  1  0.00000000  0.11900000  0.50000000  1.0 -0.1672806575
C  C299  1  0.88100000  0.50000000  0.00000000  1.0 -0.1672806575
C  C300  1  0.11900000  0.50000000  0.00000000  1.0 -0.1672806575
C  C301  1  0.16800000  0.00000000  0.50000000  1.0 -0.1672806575
C  C302  1  0.83200000  0.00000000  0.50000000  1.0 -0.1672806575
C  C303  1  0.50000000  0.16800000  0.00000000  1.0 -0.1672806575
C  C304  1  0.50000000  0.83200000  0.00000000  1.0 -0.1672806575
C  C305  1  0.00000000  0.50000000  0.16800000  1.0 -0.1672806575
C  C306  1  0.00000000  0.50000000  0.83200000  1.0 -0.1672806575
C  C307  1  0.50000000  0.66800000  0.00000000  1.0 -0.1672806575
C  C308  1  0.50000000  0.33200000  0.00000000  1.0 -0.1672806575
C  C309  1  0.66800000  0.00000000  0.50000000  1.0 -0.1672806575
C  C310  1  0.33200000  0.00000000  0.50000000  1.0 -0.1672806575
C  C311  1  0.00000000  0.50000000  0.33200000  1.0 -0.1672806575
C  C312  1  0.00000000  0.50000000  0.66800000  1.0 -0.1672806575
N  N1  1  0.33480000  0.00000000  0.32990000  1.0 -0.2346269348
N  N2  1  0.66520000  0.00000000  0.32990000  1.0 -0.2404744685
N  N3  1  0.66520000  0.00000000  0.67010000  1.0 -0.2404744685
N  N4  1  0.33480000  0.00000000  0.67010000  1.0 -0.2346269348
N  N5  1  0.32990000  0.33480000  0.00000000  1.0 -0.2346269348
N  N6  1  0.32990000  0.66520000  0.00000000  1.0 -0.2404744685
N  N7  1  0.67010000  0.66520000  0.00000000  1.0 -0.2346269348
N  N8  1  0.67010000  0.33480000  0.00000000  1.0 -0.2346269348
N  N9  1  0.00000000  0.32990000  0.33480000  1.0 -0.2404744685
N  N10  1  0.00000000  0.32990000  0.66520000  1.0 -0.2404744685
N  N11  1  0.00000000  0.67010000  0.66520000  1.0 -0.2404744685
N  N12  1  0.00000000  0.67010000  0.33480000  1.0 -0.2404744685
N  N13  1  0.50000000  0.83480000  0.17010000  1.0 -0.2346269348
N  N14  1  0.50000000  0.16520000  0.17010000  1.0 -0.2346269348
N  N15  1  0.50000000  0.16520000  0.82990000  1.0 -0.2404744685
N  N16  1  0.50000000  0.83480000  0.82990000  1.0 -0.2404744685
N  N17  1  0.83480000  0.82990000  0.50000000  1.0 -0.2404744685
N  N18  1  0.16520000  0.82990000  0.50000000  1.0 -0.2404744685
N  N19  1  0.16520000  0.17010000  0.50000000  1.0 -0.2346269348
N  N20  1  0.83480000  0.17010000  0.50000000  1.0 -0.2346269348
N  N21  1  0.82990000  0.50000000  0.16520000  1.0 -0.2346269348
N  N22  1  0.82990000  0.50000000  0.83480000  1.0 -0.2404744685
N  N23  1  0.17010000  0.50000000  0.83480000  1.0 -0.2404744685
N  N24  1  0.17010000  0.50000000  0.16520000  1.0 -0.2346269348
N  N25  1  0.23490000  0.00000000  0.34320000  1.0 -0.2883305465
N  N26  1  0.76510000  0.00000000  0.34320000  1.0 -0.2883305465
N  N27  1  0.76510000  0.00000000  0.65680000  1.0 -0.2883305465
N  N28  1  0.23490000  0.00000000  0.65680000  1.0 -0.2883305465
N  N29  1  0.34320000  0.23490000  0.00000000  1.0 -0.2883305465
N  N30  1  0.34320000  0.76510000  0.00000000  1.0 -0.2883305465
N  N31  1  0.65680000  0.76510000  0.00000000  1.0 -0.2883305465
N  N32  1  0.65680000  0.23490000  0.00000000  1.0 -0.2883305465
N  N33  1  0.00000000  0.34320000  0.23490000  1.0 -0.2883305465
N  N34  1  0.00000000  0.34320000  0.76510000  1.0 -0.2883305465
N  N35  1  0.00000000  0.65680000  0.76510000  1.0 -0.2883305465
N  N36  1  0.00000000  0.65680000  0.23490000  1.0 -0.2883305465
N  N37  1  0.50000000  0.73490000  0.15680000  1.0 -0.2883305465
N  N38  1  0.50000000  0.26510000  0.15680000  1.0 -0.2883305465
N  N39  1  0.50000000  0.26510000  0.84320000  1.0 -0.2883305465
N  N40  1  0.50000000  0.73490000  0.84320000  1.0 -0.2883305465
N  N41  1  0.73490000  0.84320000  0.50000000  1.0 -0.2883305465
N  N42  1  0.26510000  0.84320000  0.50000000  1.0 -0.2883305465
N  N43  1  0.26510000  0.15680000  0.50000000  1.0 -0.2883305465
N  N44  1  0.73490000  0.15680000  0.50000000  1.0 -0.2883305465
N  N45  1  0.84320000  0.50000000  0.26510000  1.0 -0.2883305465
N  N46  1  0.84320000  0.50000000  0.73490000  1.0 -0.2883305465
N  N47  1  0.15680000  0.50000000  0.73490000  1.0 -0.2883305465
N  N48  1  0.15680000  0.50000000  0.26510000  1.0 -0.2883305465
O  O1  1  0.27450000  0.06740000  0.28460000  1.0 -0.8001577391
O  O2  1  0.72550000  0.93260000  0.28460000  1.0 -0.8001577391
O  O3  1  0.72550000  0.06740000  0.71540000  1.0 -0.8001577391
O  O4  1  0.27450000  0.93260000  0.71540000  1.0 -0.8001577391
O  O5  1  0.28460000  0.27450000  0.06740000  1.0 -0.8001577391
O  O6  1  0.28460000  0.72550000  0.93260000  1.0 -0.8001577391
O  O7  1  0.71540000  0.72550000  0.06740000  1.0 -0.8001577391
O  O8  1  0.71540000  0.27450000  0.93260000  1.0 -0.8001577391
O  O9  1  0.06740000  0.28460000  0.27450000  1.0 -0.8001577391
O  O10  1  0.93260000  0.28460000  0.72550000  1.0 -0.8001577391
O  O11  1  0.06740000  0.71540000  0.72550000  1.0 -0.8001577391
O  O12  1  0.93260000  0.71540000  0.27450000  1.0 -0.8001577391
O  O13  1  0.56740000  0.77450000  0.21540000  1.0 -0.8001577391
O  O14  1  0.43260000  0.22550000  0.21540000  1.0 -0.8001577391
O  O15  1  0.56740000  0.22550000  0.78460000  1.0 -0.8001577391
O  O16  1  0.43260000  0.77450000  0.78460000  1.0 -0.8001577391
O  O17  1  0.77450000  0.78460000  0.43260000  1.0 -0.8001577391
O  O18  1  0.22550000  0.78460000  0.56740000  1.0 -0.8001577391
O  O19  1  0.22550000  0.21540000  0.43260000  1.0 -0.8001577391
O  O20  1  0.77450000  0.21540000  0.56740000  1.0 -0.8001577391
O  O21  1  0.78460000  0.56740000  0.22550000  1.0 -0.8001577391
O  O22  1  0.78460000  0.43260000  0.77450000  1.0 -0.8001577391
O  O23  1  0.21540000  0.56740000  0.77450000  1.0 -0.8001577391
O  O24  1  0.21540000  0.43260000  0.22550000  1.0 -0.8001577391
O  O25  1  0.72550000  0.93260000  0.71540000  1.0 -0.8001577391
O  O26  1  0.27450000  0.06740000  0.71540000  1.0 -0.8001577391
O  O27  1  0.27450000  0.93260000  0.28460000  1.0 -0.8001577391
O  O28  1  0.72550000  0.06740000  0.28460000  1.0 -0.8001577391
O  O29  1  0.71540000  0.72550000  0.93260000  1.0 -0.8001577391
O  O30  1  0.71540000  0.27450000  0.06740000  1.0 -0.8001577391
O  O31  1  0.28460000  0.27450000  0.93260000  1.0 -0.8001577391
O  O32  1  0.28460000  0.72550000  0.06740000  1.0 -0.8001577391
O  O33  1  0.93260000  0.71540000  0.72550000  1.0 -0.8001577391
O  O34  1  0.06740000  0.71540000  0.27450000  1.0 -0.8001577391
O  O35  1  0.93260000  0.28460000  0.27450000  1.0 -0.8001577391
O  O36  1  0.06740000  0.28460000  0.72550000  1.0 -0.8001577391
O  O37  1  0.43260000  0.22550000  0.78460000  1.0 -0.8001577391
O  O38  1  0.56740000  0.77450000  0.78460000  1.0 -0.8001577391
O  O39  1  0.43260000  0.77450000  0.21540000  1.0 -0.8001577391
O  O40  1  0.56740000  0.22550000  0.21540000  1.0 -0.8001577391
O  O41  1  0.22550000  0.21540000  0.56740000  1.0 -0.8001577391
O  O42  1  0.77450000  0.21540000  0.43260000  1.0 -0.8001577391
O  O43  1  0.77450000  0.78460000  0.56740000  1.0 -0.8001577391
O  O44  1  0.22550000  0.78460000  0.43260000  1.0 -0.8001577391
O  O45  1  0.21540000  0.43260000  0.77450000  1.0 -0.8001577391
O  O46  1  0.21540000  0.56740000  0.22550000  1.0 -0.8001577391
O  O47  1  0.78460000  0.43260000  0.22550000  1.0 -0.8001577391
O  O48  1  0.78460000  0.56740000  0.77450000  1.0 -0.8001577391
O  O49  1  0.25450000  0.81560000  0.22090000  1.0 -0.8926089414
O  O50  1  0.74550000  0.18440000  0.22090000  1.0 -0.8926089414
O  O51  1  0.74550000  0.81560000  0.77910000  1.0 -0.8926089414
O  O52  1  0.25450000  0.18440000  0.77910000  1.0 -0.8926089414
O  O53  1  0.22090000  0.25450000  0.81560000  1.0 -0.8926089414
O  O54  1  0.22090000  0.74550000  0.18440000  1.0 -0.8926089414
O  O55  1  0.77910000  0.74550000  0.81560000  1.0 -0.8926089414
O  O56  1  0.77910000  0.25450000  0.18440000  1.0 -0.8926089414
O  O57  1  0.81560000  0.22090000  0.25450000  1.0 -0.8926089414
O  O58  1  0.18440000  0.22090000  0.74550000  1.0 -0.8926089414
O  O59  1  0.81560000  0.77910000  0.74550000  1.0 -0.8926089414
O  O60  1  0.18440000  0.77910000  0.25450000  1.0 -0.8926089414
O  O61  1  0.31560000  0.75450000  0.27910000  1.0 -0.8926089414
O  O62  1  0.68440000  0.24550000  0.27910000  1.0 -0.8926089414
O  O63  1  0.31560000  0.24550000  0.72090000  1.0 -0.8926089414
O  O64  1  0.68440000  0.75450000  0.72090000  1.0 -0.8926089414
O  O65  1  0.75450000  0.72090000  0.68440000  1.0 -0.8926089414
O  O66  1  0.24550000  0.72090000  0.31560000  1.0 -0.8926089414
O  O67  1  0.24550000  0.27910000  0.68440000  1.0 -0.8926089414
O  O68  1  0.75450000  0.27910000  0.31560000  1.0 -0.8926089414
O  O69  1  0.72090000  0.31560000  0.24550000  1.0 -0.8926089414
O  O70  1  0.72090000  0.68440000  0.75450000  1.0 -0.8926089414
O  O71  1  0.27910000  0.31560000  0.75450000  1.0 -0.8926089414
O  O72  1  0.27910000  0.68440000  0.24550000  1.0 -0.8926089414
O  O73  1  0.74550000  0.18440000  0.77910000  1.0 -0.8926089414
O  O74  1  0.25450000  0.81560000  0.77910000  1.0 -0.8926089414
O  O75  1  0.25450000  0.18440000  0.22090000  1.0 -0.8926089414
O  O76  1  0.74550000  0.81560000  0.22090000  1.0 -0.8926089414
O  O77  1  0.77910000  0.74550000  0.18440000  1.0 -0.8926089414
O  O78  1  0.77910000  0.25450000  0.81560000  1.0 -0.8926089414
O  O79  1  0.22090000  0.25450000  0.18440000  1.0 -0.8926089414
O  O80  1  0.22090000  0.74550000  0.81560000  1.0 -0.8926089414
O  O81  1  0.18440000  0.77910000  0.74550000  1.0 -0.8926089414
O  O82  1  0.81560000  0.77910000  0.25450000  1.0 -0.8926089414
O  O83  1  0.18440000  0.22090000  0.25450000  1.0 -0.8926089414
O  O84  1  0.81560000  0.22090000  0.74550000  1.0 -0.8926089414
O  O85  1  0.68440000  0.24550000  0.72090000  1.0 -0.8926089414
O  O86  1  0.31560000  0.75450000  0.72090000  1.0 -0.8926089414
O  O87  1  0.68440000  0.75450000  0.27910000  1.0 -0.8926089414
O  O88  1  0.31560000  0.24550000  0.27910000  1.0 -0.8926089414
O  O89  1  0.24550000  0.27910000  0.31560000  1.0 -0.8926089414
O  O90  1  0.75450000  0.27910000  0.68440000  1.0 -0.8926089414
O  O91  1  0.75450000  0.72090000  0.31560000  1.0 -0.8926089414
O  O92  1  0.24550000  0.72090000  0.68440000  1.0 -0.8926089414
O  O93  1  0.27910000  0.68440000  0.75450000  1.0 -0.8926089414
O  O94  1  0.27910000  0.31560000  0.24550000  1.0 -0.8926089414
O  O95  1  0.72090000  0.68440000  0.24550000  1.0 -0.8926089414
O  O96  1  0.72090000  0.31560000  0.75450000  1.0 -0.8926089414
O  O97  1  0.21990000  0.85830000  0.29970000  1.0 -0.9232794862
O  O98  1  0.78010000  0.14170000  0.29970000  1.0 -0.9232794862
O  O99  1  0.78010000  0.85830000  0.70030000  1.0 -0.9232794862
O  O100  1  0.21990000  0.14170000  0.70030000  1.0 -0.9232794862
O  O101  1  0.29970000  0.21990000  0.85830000  1.0 -0.9232794862
O  O102  1  0.29970000  0.78010000  0.14170000  1.0 -0.9232794862
O  O103  1  0.70030000  0.78010000  0.85830000  1.0 -0.9232794862
O  O104  1  0.70030000  0.21990000  0.14170000  1.0 -0.9232794862
O  O105  1  0.85830000  0.29970000  0.21990000  1.0 -0.9232794862
O  O106  1  0.14170000  0.29970000  0.78010000  1.0 -0.9232794862
O  O107  1  0.85830000  0.70030000  0.78010000  1.0 -0.9232794862
O  O108  1  0.14170000  0.70030000  0.21990000  1.0 -0.9232794862
O  O109  1  0.35830000  0.71990000  0.20030000  1.0 -0.9232794862
O  O110  1  0.64170000  0.28010000  0.20030000  1.0 -0.9232794862
O  O111  1  0.35830000  0.28010000  0.79970000  1.0 -0.9232794862
O  O112  1  0.64170000  0.71990000  0.79970000  1.0 -0.9232794862
O  O113  1  0.71990000  0.79970000  0.64170000  1.0 -0.9232794862
O  O114  1  0.28010000  0.79970000  0.35830000  1.0 -0.9232794862
O  O115  1  0.28010000  0.20030000  0.64170000  1.0 -0.9232794862
O  O116  1  0.71990000  0.20030000  0.35830000  1.0 -0.9232794862
O  O117  1  0.79970000  0.35830000  0.28010000  1.0 -0.9232794862
O  O118  1  0.79970000  0.64170000  0.71990000  1.0 -0.9232794862
O  O119  1  0.20030000  0.35830000  0.71990000  1.0 -0.9232794862
O  O120  1  0.20030000  0.64170000  0.28010000  1.0 -0.9232794862
O  O121  1  0.78010000  0.14170000  0.70030000  1.0 -0.9232794862
O  O122  1  0.21990000  0.85830000  0.70030000  1.0 -0.9232794862
O  O123  1  0.21990000  0.14170000  0.29970000  1.0 -0.9232794862
O  O124  1  0.78010000  0.85830000  0.29970000  1.0 -0.9232794862
O  O125  1  0.70030000  0.78010000  0.14170000  1.0 -0.9232794862
O  O126  1  0.70030000  0.21990000  0.85830000  1.0 -0.9232794862
O  O127  1  0.29970000  0.21990000  0.14170000  1.0 -0.9232794862
O  O128  1  0.29970000  0.78010000  0.85830000  1.0 -0.9232794862
O  O129  1  0.14170000  0.70030000  0.78010000  1.0 -0.9232794862
O  O130  1  0.85830000  0.70030000  0.21990000  1.0 -0.9232794862
O  O131  1  0.14170000  0.29970000  0.21990000  1.0 -0.9232794862
O  O132  1  0.85830000  0.29970000  0.78010000  1.0 -0.9232794862
O  O133  1  0.64170000  0.28010000  0.79970000  1.0 -0.9232794862
O  O134  1  0.35830000  0.71990000  0.79970000  1.0 -0.9232794862
O  O135  1  0.64170000  0.71990000  0.20030000  1.0 -0.9232794862
O  O136  1  0.35830000  0.28010000  0.20030000  1.0 -0.9232794862
O  O137  1  0.28010000  0.20030000  0.35830000  1.0 -0.9232794862
O  O138  1  0.71990000  0.20030000  0.64170000  1.0 -0.9232794862
O  O139  1  0.71990000  0.79970000  0.35830000  1.0 -0.9232794862
O  O140  1  0.28010000  0.79970000  0.64170000  1.0 -0.9232794862
O  O141  1  0.20030000  0.64170000  0.71990000  1.0 -0.9232794862
O  O142  1  0.20030000  0.35830000  0.28010000  1.0 -0.9232794862
O  O143  1  0.79970000  0.64170000  0.28010000  1.0 -0.9232794862
O  O144  1  0.79970000  0.35830000  0.71990000  1.0 -0.9232794862
O  O145  1  0.30880000  0.84890000  0.29050000  1.0 -0.9254367807
O  O146  1  0.69120000  0.15110000  0.29050000  1.0 -0.9254367807
O  O147  1  0.69120000  0.84890000  0.70950000  1.0 -0.9232794862
O  O148  1  0.30880000  0.15110000  0.70950000  1.0 -0.9254367807
O  O149  1  0.29050000  0.30880000  0.84890000  1.0 -0.9254367807
O  O150  1  0.29050000  0.69120000  0.15110000  1.0 -0.9254367807
O  O151  1  0.70950000  0.69120000  0.84890000  1.0 -0.9254367807
O  O152  1  0.70950000  0.30880000  0.15110000  1.0 -0.9254367807
O  O153  1  0.84890000  0.29050000  0.30880000  1.0 -0.9254367807
O  O154  1  0.15110000  0.29050000  0.69120000  1.0 -0.9254367807
O  O155  1  0.84890000  0.70950000  0.69120000  1.0 -0.9232794862
O  O156  1  0.15110000  0.70950000  0.30880000  1.0 -0.9254367807
O  O157  1  0.34890000  0.80880000  0.20950000  1.0 -0.9232794862
O  O158  1  0.65110000  0.19120000  0.20950000  1.0 -0.9254367807
O  O159  1  0.34890000  0.19120000  0.79050000  1.0 -0.9254367807
O  O160  1  0.65110000  0.80880000  0.79050000  1.0 -0.9232794862
O  O161  1  0.80880000  0.79050000  0.65110000  1.0 -0.9232794862
O  O162  1  0.19120000  0.79050000  0.34890000  1.0 -0.9254367807
O  O163  1  0.19120000  0.20950000  0.65110000  1.0 -0.9254367807
O  O164  1  0.80880000  0.20950000  0.34890000  1.0 -0.9232794862
O  O165  1  0.79050000  0.34890000  0.19120000  1.0 -0.9254367807
O  O166  1  0.79050000  0.65110000  0.80880000  1.0 -0.9232794862
O  O167  1  0.20950000  0.34890000  0.80880000  1.0 -0.9232794862
O  O168  1  0.20950000  0.65110000  0.19120000  1.0 -0.9254367807
O  O169  1  0.69120000  0.15110000  0.70950000  1.0 -0.9254367807
O  O170  1  0.30880000  0.84890000  0.70950000  1.0 -0.9254367807
O  O171  1  0.30880000  0.15110000  0.29050000  1.0 -0.9254367807
O  O172  1  0.69120000  0.84890000  0.29050000  1.0 -0.9254367807
O  O173  1  0.70950000  0.69120000  0.15110000  1.0 -0.9254367807
O  O174  1  0.70950000  0.30880000  0.84890000  1.0 -0.9254367807
O  O175  1  0.29050000  0.30880000  0.15110000  1.0 -0.9254367807
O  O176  1  0.29050000  0.69120000  0.84890000  1.0 -0.9232794862
O  O177  1  0.15110000  0.70950000  0.69120000  1.0 -0.9254367807
O  O178  1  0.84890000  0.70950000  0.30880000  1.0 -0.9254367807
O  O179  1  0.15110000  0.29050000  0.30880000  1.0 -0.9254367807
O  O180  1  0.84890000  0.29050000  0.69120000  1.0 -0.9254367807
O  O181  1  0.65110000  0.19120000  0.79050000  1.0 -0.9254367807
O  O182  1  0.34890000  0.80880000  0.79050000  1.0 -0.9232794862
O  O183  1  0.65110000  0.80880000  0.20950000  1.0 -0.9232794862
O  O184  1  0.34890000  0.19120000  0.20950000  1.0 -0.9254367807
O  O185  1  0.19120000  0.20950000  0.34890000  1.0 -0.9254367807
O  O186  1  0.80880000  0.20950000  0.65110000  1.0 -0.9232794862
O  O187  1  0.80880000  0.79050000  0.34890000  1.0 -0.9232794862
O  O188  1  0.19120000  0.79050000  0.65110000  1.0 -0.9254367807
O  O189  1  0.20950000  0.65110000  0.80880000  1.0 -0.9232794862
O  O190  1  0.20950000  0.34890000  0.19120000  1.0 -0.9254367807
O  O191  1  0.79050000  0.65110000  0.19120000  1.0 -0.9254367807
O  O192  1  0.79050000  0.34890000  0.80880000  1.0 -0.9232794862
O  O193  1  0.21420000  0.90130000  0.22250000  1.0 -0.9698610302
O  O194  1  0.78580000  0.09870000  0.22250000  1.0 -0.9698610302
O  O195  1  0.78580000  0.90130000  0.77750000  1.0 -0.9698610302
O  O196  1  0.21420000  0.09870000  0.77750000  1.0 -0.9698610302
O  O197  1  0.22250000  0.21420000  0.90130000  1.0 -0.9698610302
O  O198  1  0.22250000  0.78580000  0.09870000  1.0 -0.9698610302
O  O199  1  0.77750000  0.78580000  0.90130000  1.0 -0.9698610302
O  O200  1  0.77750000  0.21420000  0.09870000  1.0 -0.9698610302
O  O201  1  0.90130000  0.22250000  0.21420000  1.0 -0.9698610302
O  O202  1  0.09870000  0.22250000  0.78580000  1.0 -0.9698610302
O  O203  1  0.90130000  0.77750000  0.78580000  1.0 -0.9698610302
O  O204  1  0.09870000  0.77750000  0.21420000  1.0 -0.9698610302
O  O205  1  0.40130000  0.71420000  0.27750000  1.0 -0.9698610302
O  O206  1  0.59870000  0.28580000  0.27750000  1.0 -0.9698610302
O  O207  1  0.40130000  0.28580000  0.72250000  1.0 -0.9698610302
O  O208  1  0.59870000  0.71420000  0.72250000  1.0 -0.9698610302
O  O209  1  0.71420000  0.72250000  0.59870000  1.0 -0.9698610302
O  O210  1  0.28580000  0.72250000  0.40130000  1.0 -0.9698610302
O  O211  1  0.28580000  0.27750000  0.59870000  1.0 -0.9698610302
O  O212  1  0.71420000  0.27750000  0.40130000  1.0 -0.9698610302
O  O213  1  0.72250000  0.40130000  0.28580000  1.0 -0.9698610302
O  O214  1  0.72250000  0.59870000  0.71420000  1.0 -0.9698610302
O  O215  1  0.27750000  0.40130000  0.71420000  1.0 -0.9698610302
O  O216  1  0.27750000  0.59870000  0.28580000  1.0 -0.9698610302
O  O217  1  0.78580000  0.09870000  0.77750000  1.0 -0.9698610302
O  O218  1  0.21420000  0.90130000  0.77750000  1.0 -0.9698610302
O  O219  1  0.21420000  0.09870000  0.22250000  1.0 -0.9698610302
O  O220  1  0.78580000  0.90130000  0.22250000  1.0 -0.9698610302
O  O221  1  0.77750000  0.78580000  0.09870000  1.0 -0.9698610302
O  O222  1  0.77750000  0.21420000  0.90130000  1.0 -0.9698610302
O  O223  1  0.22250000  0.21420000  0.09870000  1.0 -0.9698610302
O  O224  1  0.22250000  0.78580000  0.90130000  1.0 -0.9698610302
O  O225  1  0.09870000  0.77750000  0.78580000  1.0 -0.9698610302
O  O226  1  0.90130000  0.77750000  0.21420000  1.0 -0.9698610302
O  O227  1  0.09870000  0.22250000  0.21420000  1.0 -0.9698610302
O  O228  1  0.90130000  0.22250000  0.78580000  1.0 -0.9698610302
O  O229  1  0.59870000  0.28580000  0.72250000  1.0 -0.9698610302
O  O230  1  0.40130000  0.71420000  0.72250000  1.0 -0.9698610302
O  O231  1  0.59870000  0.71420000  0.27750000  1.0 -0.9698610302
O  O232  1  0.40130000  0.28580000  0.27750000  1.0 -0.9698610302
O  O233  1  0.28580000  0.27750000  0.40130000  1.0 -0.9698610302
O  O234  1  0.71420000  0.27750000  0.59870000  1.0 -0.9698610302
O  O235  1  0.71420000  0.72250000  0.40130000  1.0 -0.9698610302
O  O236  1  0.28580000  0.72250000  0.59870000  1.0 -0.9698610302
O  O237  1  0.27750000  0.59870000  0.71420000  1.0 -0.9698610302
O  O238  1  0.27750000  0.40130000  0.28580000  1.0 -0.9698610302
O  O239  1  0.72250000  0.59870000  0.28580000  1.0 -0.9698610302
O  O240  1  0.72250000  0.40130000  0.71420000  1.0 -0.9698610302
O  O241  1  0.30340000  0.88600000  0.20820000  1.0 -0.9395776064
O  O242  1  0.69660000  0.11400000  0.20820000  1.0 -0.9395776064
O  O243  1  0.69660000  0.88600000  0.79180000  1.0 -0.9395776064
O  O244  1  0.30340000  0.11400000  0.79180000  1.0 -0.9395776064
O  O245  1  0.20820000  0.30340000  0.88600000  1.0 -0.9395776064
O  O246  1  0.20820000  0.69660000  0.11400000  1.0 -0.9395776064
O  O247  1  0.79180000  0.69660000  0.88600000  1.0 -0.9395776064
O  O248  1  0.79180000  0.30340000  0.11400000  1.0 -0.9395776064
O  O249  1  0.88600000  0.20820000  0.30340000  1.0 -0.9395776064
O  O250  1  0.11400000  0.20820000  0.69660000  1.0 -0.9395776064
O  O251  1  0.88600000  0.79180000  0.69660000  1.0 -0.9395776064
O  O252  1  0.11400000  0.79180000  0.30340000  1.0 -0.9395776064
O  O253  1  0.38600000  0.80340000  0.29180000  1.0 -0.9395776064
O  O254  1  0.61400000  0.19660000  0.29180000  1.0 -0.9395776064
O  O255  1  0.38600000  0.19660000  0.70820000  1.0 -0.9395776064
O  O256  1  0.61400000  0.80340000  0.70820000  1.0 -0.9395776064
O  O257  1  0.80340000  0.70820000  0.61400000  1.0 -0.9395776064
O  O258  1  0.19660000  0.70820000  0.38600000  1.0 -0.9395776064
O  O259  1  0.19660000  0.29180000  0.61400000  1.0 -0.9395776064
O  O260  1  0.80340000  0.29180000  0.38600000  1.0 -0.9395776064
O  O261  1  0.70820000  0.38600000  0.19660000  1.0 -0.9395776064
O  O262  1  0.70820000  0.61400000  0.80340000  1.0 -0.9395776064
O  O263  1  0.29180000  0.38600000  0.80340000  1.0 -0.9395776064
O  O264  1  0.29180000  0.61400000  0.19660000  1.0 -0.9395776064
O  O265  1  0.69660000  0.11400000  0.79180000  1.0 -0.9395776064
O  O266  1  0.30340000  0.88600000  0.79180000  1.0 -0.9395776064
O  O267  1  0.30340000  0.11400000  0.20820000  1.0 -0.9395776064
O  O268  1  0.69660000  0.88600000  0.20820000  1.0 -0.9395776064
O  O269  1  0.79180000  0.69660000  0.11400000  1.0 -0.9395776064
O  O270  1  0.79180000  0.30340000  0.88600000  1.0 -0.9395776064
O  O271  1  0.20820000  0.30340000  0.11400000  1.0 -0.9395776064
O  O272  1  0.20820000  0.69660000  0.88600000  1.0 -0.9395776064
O  O273  1  0.11400000  0.79180000  0.69660000  1.0 -0.9395776064
O  O274  1  0.88600000  0.79180000  0.30340000  1.0 -0.9395776064
O  O275  1  0.11400000  0.20820000  0.30340000  1.0 -0.9395776064
O  O276  1  0.88600000  0.20820000  0.69660000  1.0 -0.9395776064
O  O277  1  0.61400000  0.19660000  0.70820000  1.0 -0.9395776064
O  O278  1  0.38600000  0.80340000  0.70820000  1.0 -0.9395776064
O  O279  1  0.61400000  0.80340000  0.29180000  1.0 -0.9395776064
O  O280  1  0.38600000  0.19660000  0.29180000  1.0 -0.9395776064
O  O281  1  0.19660000  0.29180000  0.38600000  1.0 -0.9395776064
O  O282  1  0.80340000  0.29180000  0.61400000  1.0 -0.9395776064
O  O283  1  0.80340000  0.70820000  0.38600000  1.0 -0.9395776064
O  O284  1  0.19660000  0.70820000  0.61400000  1.0 -0.9395776064
O  O285  1  0.29180000  0.61400000  0.80340000  1.0 -0.9395776064
O  O286  1  0.29180000  0.38600000  0.19660000  1.0 -0.9395776064
O  O287  1  0.70820000  0.61400000  0.19660000  1.0 -0.9395776064
O  O288  1  0.70820000  0.38600000  0.80340000  1.0 -0.9395776064
O  O289  1  0.18000000  0.82000000  0.18000000  1.0 -1.0165064343
O  O290  1  0.82000000  0.18000000  0.18000000  1.0 -1.0165064343
O  O291  1  0.82000000  0.82000000  0.82000000  1.0 -1.0165064343
O  O292  1  0.18000000  0.18000000  0.82000000  1.0 -1.0165064343
O  O293  1  0.32000000  0.68000000  0.32000000  1.0 -1.0165064343
O  O294  1  0.68000000  0.32000000  0.32000000  1.0 -1.0165064343
O  O295  1  0.32000000  0.32000000  0.68000000  1.0 -1.0165064343
O  O296  1  0.68000000  0.68000000  0.68000000  1.0 -1.0165064343
O  O297  1  0.82000000  0.18000000  0.82000000  1.0 -1.0165064343
O  O298  1  0.18000000  0.82000000  0.82000000  1.0 -1.0165064343
O  O299  1  0.18000000  0.18000000  0.18000000  1.0 -1.0165064343
O  O300  1  0.82000000  0.82000000  0.18000000  1.0 -1.0165064343
O  O301  1  0.68000000  0.32000000  0.68000000  1.0 -1.0165064343
O  O302  1  0.32000000  0.68000000  0.68000000  1.0 -1.0165064343
O  O303  1  0.68000000  0.68000000  0.32000000  1.0 -1.0165064343
O  O304  1  0.32000000  0.32000000  0.32000000  1.0 -1.0165064343
O  O305  1  0.25640000  0.85720000  0.13450000  1.0 -1.0003759547
O  O306  1  0.74360000  0.14280000  0.13450000  1.0 -1.0003759547
O  O307  1  0.74360000  0.85720000  0.86550000  1.0 -1.0003759547
O  O308  1  0.25640000  0.14280000  0.86550000  1.0 -1.0003759547
O  O309  1  0.13450000  0.25640000  0.85720000  1.0 -1.0003759547
O  O310  1  0.13450000  0.74360000  0.14280000  1.0 -1.0003759547
O  O311  1  0.86550000  0.74360000  0.85720000  1.0 -1.0003759547
O  O312  1  0.86550000  0.25640000  0.14280000  1.0 -1.0003759547
O  O313  1  0.85720000  0.13450000  0.25640000  1.0 -1.0003759547
O  O314  1  0.14280000  0.13450000  0.74360000  1.0 -1.0003759547
O  O315  1  0.85720000  0.86550000  0.74360000  1.0 -1.0003759547
O  O316  1  0.14280000  0.86550000  0.25640000  1.0 -1.0003759547
O  O317  1  0.35720000  0.75640000  0.36550000  1.0 -1.0003759547
O  O318  1  0.64280000  0.24360000  0.36550000  1.0 -1.0003759547
O  O319  1  0.35720000  0.24360000  0.63450000  1.0 -1.0003759547
O  O320  1  0.64280000  0.75640000  0.63450000  1.0 -1.0003759547
O  O321  1  0.75640000  0.63450000  0.64280000  1.0 -1.0003759547
O  O322  1  0.24360000  0.63450000  0.35720000  1.0 -1.0003759547
O  O323  1  0.24360000  0.36550000  0.64280000  1.0 -1.0003759547
O  O324  1  0.75640000  0.36550000  0.35720000  1.0 -1.0003759547
O  O325  1  0.63450000  0.35720000  0.24360000  1.0 -1.0003759547
O  O326  1  0.63450000  0.64280000  0.75640000  1.0 -1.0003759547
O  O327  1  0.36550000  0.35720000  0.75640000  1.0 -1.0003759547
O  O328  1  0.36550000  0.64280000  0.24360000  1.0 -1.0003759547
O  O329  1  0.74360000  0.14280000  0.86550000  1.0 -1.0003759547
O  O330  1  0.25640000  0.85720000  0.86550000  1.0 -1.0003759547
O  O331  1  0.25640000  0.14280000  0.13450000  1.0 -1.0003759547
O  O332  1  0.74360000  0.85720000  0.13450000  1.0 -1.0003759547
O  O333  1  0.86550000  0.74360000  0.14280000  1.0 -1.0003759547
O  O334  1  0.86550000  0.25640000  0.85720000  1.0 -1.0003759547
O  O335  1  0.13450000  0.25640000  0.14280000  1.0 -1.0003759547
O  O336  1  0.13450000  0.74360000  0.85720000  1.0 -1.0003759547
O  O337  1  0.14280000  0.86550000  0.74360000  1.0 -1.0003759547
O  O338  1  0.85720000  0.86550000  0.25640000  1.0 -1.0003759547
O  O339  1  0.14280000  0.13450000  0.25640000  1.0 -1.0003759547
O  O340  1  0.85720000  0.13450000  0.74360000  1.0 -1.0003759547
O  O341  1  0.64280000  0.24360000  0.63450000  1.0 -1.0003759547
O  O342  1  0.35720000  0.75640000  0.63450000  1.0 -1.0003759547
O  O343  1  0.64280000  0.75640000  0.36550000  1.0 -1.0003759547
O  O344  1  0.35720000  0.24360000  0.36550000  1.0 -1.0003759547
O  O345  1  0.24360000  0.36550000  0.35720000  1.0 -1.0003759547
O  O346  1  0.75640000  0.36550000  0.64280000  1.0 -1.0003759547
O  O347  1  0.75640000  0.63450000  0.35720000  1.0 -1.0003759547
O  O348  1  0.24360000  0.63450000  0.64280000  1.0 -1.0003759547
O  O349  1  0.36550000  0.64280000  0.75640000  1.0 -1.0003759547
O  O350  1  0.36550000  0.35720000  0.24360000  1.0 -1.0003759547
O  O351  1  0.63450000  0.64280000  0.24360000  1.0 -1.0003759547
O  O352  1  0.63450000  0.35720000  0.75640000  1.0 -1.0003759547
O  O353  1  0.10300000  0.86100000  0.17790000  1.0 -1.0690488128
O  O354  1  0.89700000  0.13900000  0.17790000  1.0 -1.0690488128
O  O355  1  0.89700000  0.86100000  0.82210000  1.0 -1.0690488128
O  O356  1  0.10300000  0.13900000  0.82210000  1.0 -1.0690488128
O  O357  1  0.17790000  0.10300000  0.86100000  1.0 -1.0690488128
O  O358  1  0.17790000  0.89700000  0.13900000  1.0 -1.0690488128
O  O359  1  0.82210000  0.89700000  0.86100000  1.0 -1.0690488128
O  O360  1  0.82210000  0.10300000  0.13900000  1.0 -1.0690488128
O  O361  1  0.86100000  0.17790000  0.10300000  1.0 -1.0690488128
O  O362  1  0.13900000  0.17790000  0.89700000  1.0 -1.0690488128
O  O363  1  0.86100000  0.82210000  0.89700000  1.0 -1.0690488128
O  O364  1  0.13900000  0.82210000  0.10300000  1.0 -1.0690488128
O  O365  1  0.36100000  0.60300000  0.32210000  1.0 -1.0690488128
O  O366  1  0.63900000  0.39700000  0.32210000  1.0 -1.0690488128
O  O367  1  0.36100000  0.39700000  0.67790000  1.0 -1.0690488128
O  O368  1  0.63900000  0.60300000  0.67790000  1.0 -1.0690488128
O  O369  1  0.60300000  0.67790000  0.63900000  1.0 -1.0690488128
O  O370  1  0.39700000  0.67790000  0.36100000  1.0 -1.0690488128
O  O371  1  0.39700000  0.32210000  0.63900000  1.0 -1.0690488128
O  O372  1  0.60300000  0.32210000  0.36100000  1.0 -1.0690488128
O  O373  1  0.67790000  0.36100000  0.39700000  1.0 -1.0690488128
O  O374  1  0.67790000  0.63900000  0.60300000  1.0 -1.0690488128
O  O375  1  0.32210000  0.36100000  0.60300000  1.0 -1.0690488128
O  O376  1  0.32210000  0.63900000  0.39700000  1.0 -1.0690488128
O  O377  1  0.89700000  0.13900000  0.82210000  1.0 -1.0690488128
O  O378  1  0.10300000  0.86100000  0.82210000  1.0 -1.0690488128
O  O379  1  0.10300000  0.13900000  0.17790000  1.0 -1.0690488128
O  O380  1  0.89700000  0.86100000  0.17790000  1.0 -1.0690488128
O  O381  1  0.82210000  0.89700000  0.13900000  1.0 -1.0690488128
O  O382  1  0.82210000  0.10300000  0.86100000  1.0 -1.0690488128
O  O383  1  0.17790000  0.10300000  0.13900000  1.0 -1.0690488128
O  O384  1  0.17790000  0.89700000  0.86100000  1.0 -1.0690488128
O  O385  1  0.13900000  0.82210000  0.89700000  1.0 -1.0690488128
O  O386  1  0.86100000  0.82210000  0.10300000  1.0 -1.0690488128
O  O387  1  0.13900000  0.17790000  0.10300000  1.0 -1.0690488128
O  O388  1  0.86100000  0.17790000  0.89700000  1.0 -1.0690488128
O  O389  1  0.63900000  0.39700000  0.67790000  1.0 -1.0690488128
O  O390  1  0.36100000  0.60300000  0.67790000  1.0 -1.0690488128
O  O391  1  0.63900000  0.60300000  0.32210000  1.0 -1.0690488128
O  O392  1  0.36100000  0.39700000  0.32210000  1.0 -1.0690488128
O  O393  1  0.39700000  0.32210000  0.36100000  1.0 -1.0690488128
O  O394  1  0.60300000  0.32210000  0.63900000  1.0 -1.0690488128
O  O395  1  0.60300000  0.67790000  0.36100000  1.0 -1.0690488128
O  O396  1  0.39700000  0.67790000  0.63900000  1.0 -1.0690488128
O  O397  1  0.32210000  0.63900000  0.60300000  1.0 -1.0690488128
O  O398  1  0.32210000  0.36100000  0.39700000  1.0 -1.0690488128
O  O399  1  0.67790000  0.63900000  0.39700000  1.0 -1.0690488128
O  O400  1  0.67790000  0.36100000  0.60300000  1.0 -1.0690488128
