# DDEC6 charges by PACMAN v1.1 (https://github.com/mtap-research/PACMAN-charge/)
data_ENAFOP_ASR_pacman
_symmetry_space_group_name_H-M   'P 1'
_cell_length_a   18.53860000
_cell_length_b   18.62360000
_cell_length_c   27.27330000
_cell_angle_alpha   92.98600000
_cell_angle_beta   107.87100000
_cell_angle_gamma   107.62400000
_symmetry_Int_Tables_number   1
_chemical_formula_structural   Na9Gd4H92C87N12O61
_chemical_formula_sum   'Na18 Gd8 H184 C174 N24 O122'
_cell_volume   8431.44150699
_cell_formula_units_Z   2
loop_
 _symmetry_equiv_pos_site_id
 _symmetry_equiv_pos_as_xyz
  1  'x, y, z'
loop_
 _atom_site_type_symbol
 _atom_site_label
 _atom_site_symmetry_multiplicity
 _atom_site_fract_x
 _atom_site_fract_y
 _atom_site_fract_z
 _atom_site_occupancy
 _atom_site_charge
Na  Na1  1  0.63792000  0.17586000  0.00540000  1.0 0.8612209717
Na  Na2  1  0.36208000  0.82414000  0.99460000  1.0 0.8612209717
Na  Na3  1  0.86473000  0.32655000  0.00293000  1.0 0.8612209717
Na  Na4  1  0.13527000  0.67345000  0.99707000  1.0 0.8612209717
Na  Na5  1  0.82509000  0.28230000  0.14436000  1.0 0.8612209717
Na  Na6  1  0.17491000  0.71770000  0.85564000  1.0 0.8612209717
Na  Na7  1  0.81820000  0.50190000  0.05160000  1.0 0.8468357384
Na  Na8  1  0.18180000  0.49810000  0.94840000  1.0 0.8468357384
Na  Na9  1  0.74110000  0.02260000  0.04730000  1.0 0.8612209717
Na  Na10  1  0.25890000  0.97740000  0.95270000  1.0 0.8612209717
Na  Na11  1  0.82970000  0.78450000  0.14570000  1.0 0.8612209717
Na  Na12  1  0.17030000  0.21550000  0.85430000  1.0 0.8612209717
Na  Na13  1  0.66840000  0.58130000  0.05770000  1.0 0.7956312954
Na  Na14  1  0.33160000  0.41870000  0.94230000  1.0 0.7956312954
Na  Na15  1  0.97630000  0.30930000  0.29220000  1.0 0.8850358784
Na  Na16  1  0.02370000  0.69070000  0.70780000  1.0 0.8850358784
Na  Na17  1  0.89120000  0.94350000  0.05310000  1.0 0.8612209717
Na  Na18  1  0.10880000  0.05650000  0.94690000  1.0 0.8612209717
Gd  Gd1  1  0.87630000  0.21949000  0.89369000  1.0 1.8399947941
Gd  Gd2  1  0.12370000  0.78051000  0.10631000  1.0 1.8399947941
Gd  Gd3  1  0.11139000  0.24585000  0.12051000  1.0 1.7765189468
Gd  Gd4  1  0.88861000  0.75415000  0.87949000  1.0 1.7765189468
Gd  Gd5  1  0.51076000  0.23482000  0.89861000  1.0 1.8208870351
Gd  Gd6  1  0.48924000  0.76518000  0.10139000  1.0 1.8208870351
Gd  Gd7  1  0.51597000  0.31107000  0.12627000  1.0 1.583420521
Gd  Gd8  1  0.48403000  0.68893000  0.87373000  1.0 1.583420521
H  H1  1  0.71690000  0.99710000  0.81640000  1.0 0.1308825911
H  H2  1  0.28310000  0.00290000  0.18360000  1.0 0.1308825911
H  H3  1  0.79380000  0.00380000  0.86560000  1.0 0.1395418194
H  H4  1  0.20620000  0.99620000  0.13440000  1.0 0.1395418194
H  H5  1  0.77520000  0.03850000  0.93370000  1.0 0.1395418194
H  H6  1  0.22480000  0.96150000  0.06630000  1.0 0.1395418194
H  H7  1  0.68310000  0.03400000  0.91060000  1.0 0.1395418194
H  H8  1  0.31690000  0.96600000  0.08940000  1.0 0.1395418194
H  H9  1  0.66310000  0.13640000  0.85820000  1.0 0.150065228
H  H10  1  0.33690000  0.86360000  0.14180000  1.0 0.150065228
H  H11  1  0.63500000  0.05440000  0.82330000  1.0 0.1308825911
H  H12  1  0.36500000  0.94560000  0.17670000  1.0 0.1308825911
H  H13  1  0.60920000  0.06070000  0.73230000  1.0 0.150065228
H  H14  1  0.39080000  0.93930000  0.26770000  1.0 0.150065228
H  H15  1  0.74610000  0.23900000  0.69040000  1.0 0.150065228
H  H16  1  0.25390000  0.76100000  0.30960000  1.0 0.150065228
H  H17  1  0.79820000  0.35180000  0.80180000  1.0 0.1395418194
H  H18  1  0.20180000  0.64820000  0.19820000  1.0 0.1395418194
H  H19  1  0.84040000  0.34670000  0.75910000  1.0 0.1308825911
H  H20  1  0.15960000  0.65330000  0.24090000  1.0 0.1308825911
H  H21  1  0.93280000  0.43730000  0.84170000  1.0 0.150065228
H  H22  1  0.06720000  0.56270000  0.15830000  1.0 0.150065228
H  H23  1  0.99410000  0.40730000  0.88390000  1.0 0.1603150737
H  H24  1  0.00590000  0.59270000  0.11610000  1.0 0.1603150737
H  H25  1  0.97640000  0.35030000  0.78900000  1.0 0.1308825911
H  H26  1  0.02360000  0.64970000  0.21100000  1.0 0.1308825911
H  H27  1  0.92260000  0.26130000  0.77700000  1.0 0.150065228
H  H28  1  0.07740000  0.73870000  0.22300000  1.0 0.150065228
H  H29  1  0.49660000  0.93930000  0.56940000  1.0 0.1395418194
H  H30  1  0.50340000  0.06070000  0.43060000  1.0 0.1395418194
H  H31  1  0.57540000  0.12610000  0.51400000  1.0 0.1216644972
H  H32  1  0.42460000  0.87390000  0.48600000  1.0 0.1216644972
H  H33  1  0.17890000  0.46010000  0.12630000  1.0 0.1603150737
H  H34  1  0.82110000  0.53990000  0.87370000  1.0 0.1603150737
H  H35  1  0.26010000  0.47830000  0.17490000  1.0 0.1308825911
H  H36  1  0.73990000  0.52170000  0.82510000  1.0 0.1308825911
H  H37  1  0.19370000  0.41000000  0.05850000  1.0 0.150065228
H  H38  1  0.80630000  0.59000000  0.94150000  1.0 0.150065228
H  H39  1  0.28580000  0.41340000  0.07950000  1.0 0.1308825911
H  H40  1  0.71420000  0.58660000  0.92050000  1.0 0.1308825911
H  H41  1  0.34360000  0.42790000  0.17940000  1.0 0.1216644972
H  H42  1  0.65640000  0.57210000  0.82060000  1.0 0.1216644972
H  H43  1  0.32730000  0.34560000  0.14860000  1.0 0.1216644972
H  H44  1  0.67270000  0.65440000  0.85140000  1.0 0.1216644972
H  H45  1  0.37750000  0.42970000  0.26870000  1.0 0.150065228
H  H46  1  0.62250000  0.57030000  0.73130000  1.0 0.150065228
H  H47  1  0.25610000  0.25150000  0.32500000  1.0 0.1395418194
H  H48  1  0.74390000  0.74850000  0.67500000  1.0 0.1395418194
H  H49  1  0.15860000  0.14310000  0.26310000  1.0 0.1308825911
H  H50  1  0.84140000  0.85690000  0.73690000  1.0 0.1308825911
H  H51  1  0.18600000  0.12560000  0.21480000  1.0 0.150065228
H  H52  1  0.81400000  0.87440000  0.78520000  1.0 0.150065228
H  H53  1  0.01430000  0.15560000  0.23870000  1.0 0.150065228
H  H54  1  0.98570000  0.84440000  0.76130000  1.0 0.150065228
H  H55  1  0.07890000  0.23870000  0.24560000  1.0 0.1395418194
H  H56  1  0.92110000  0.76130000  0.75440000  1.0 0.1395418194
H  H57  1  0.98180000  0.07790000  0.15610000  1.0 0.1603150737
H  H58  1  0.01820000  0.92210000  0.84390000  1.0 0.1603150737
H  H59  1  0.04570000  0.04740000  0.19550000  1.0 0.1603150737
H  H60  1  0.95430000  0.95260000  0.80450000  1.0 0.1603150737
H  H61  1  0.55320000  0.46990000  0.44130000  1.0 0.1105514898
H  H62  1  0.44680000  0.53010000  0.55870000  1.0 0.1105514898
H  H63  1  0.36030000  0.46780000  0.47310000  1.0 0.1105514898
H  H64  1  0.63970000  0.53220000  0.52690000  1.0 0.1105514898
H  H65  1  0.95400000  0.14370000  0.96810000  1.0 0.3833400517
H  H66  1  0.04600000  0.85630000  0.03190000  1.0 0.3833400517
H  H67  1  0.93400000  0.08770000  0.92380000  1.0 0.3942583561
H  H68  1  0.06600000  0.91230000  0.07620000  1.0 0.3942583561
H  H69  1  0.82530000  0.21480000  0.04910000  1.0 0.3508594155
H  H70  1  0.17470000  0.78520000  0.95090000  1.0 0.3508594155
H  H71  1  0.89970000  0.23770000  0.08990000  1.0 0.3610433995
H  H72  1  0.10030000  0.76230000  0.91010000  1.0 0.3610433995
H  H73  1  0.69390000  0.30280000  0.09260000  1.0 0.3508594155
H  H74  1  0.30610000  0.69720000  0.90740000  1.0 0.3508594155
H  H75  1  0.72560000  0.30760000  0.05230000  1.0 0.3406771949
H  H76  1  0.27440000  0.69240000  0.94770000  1.0 0.3406771949
H  H77  1  0.56370000  0.13000000  0.07670000  1.0 0.39779222
H  H78  1  0.43630000  0.87000000  0.92330000  1.0 0.39779222
H  H79  1  0.00140000  0.44500000  0.05870000  1.0 0.39779222
H  H80  1  0.99860000  0.55500000  0.94130000  1.0 0.39779222
H  H81  1  0.91710000  0.52840000  0.98780000  1.0 0.3718592285
H  H82  1  0.08290000  0.47160000  0.01220000  1.0 0.3718592285
H  H83  1  0.88880000  0.43550000  0.15150000  1.0 0.2793308854
H  H84  1  0.11120000  0.56450000  0.84850000  1.0 0.2793308854
H  H85  1  0.93040000  0.40780000  0.13040000  1.0 0.3281186431
H  H86  1  0.06960000  0.59220000  0.86960000  1.0 0.3281186431
H  H87  1  0.70370000  0.14960000  0.13130000  1.0 0.4196285843
H  H88  1  0.29630000  0.85040000  0.86870000  1.0 0.4196285843
H  H89  1  0.57980000  0.96910000  0.98560000  1.0 0.3833400517
H  H90  1  0.42020000  0.03090000  0.01440000  1.0 0.3833400517
H  H91  1  0.82810000  0.63490000  0.09370000  1.0 0.3406771949
H  H92  1  0.17190000  0.36510000  0.90630000  1.0 0.3406771949
H  H93  1  0.79160000  0.63740000  0.04320000  1.0 0.3406771949
H  H94  1  0.20840000  0.36260000  0.95680000  1.0 0.3406771949
H  H95  1  0.67390000  0.74540000  0.07680000  1.0 0.3610433995
H  H96  1  0.32610000  0.25460000  0.92320000  1.0 0.3610433995
H  H97  1  0.76670000  0.90450000  0.09020000  1.0 0.3190284729
H  H98  1  0.23330000  0.09550000  0.90980000  1.0 0.3190284729
H  H99  1  0.74980000  0.88160000  0.03860000  1.0 0.302941671
H  H100  1  0.25020000  0.11840000  0.96140000  1.0 0.302941671
H  H101  1  0.92400000  0.10440000  0.04350000  1.0 0.39779222
H  H102  1  0.07600000  0.89560000  0.95650000  1.0 0.4057962059
H  H103  1  0.81280000  0.33750000  0.26580000  1.0 0.4429887295
H  H104  1  0.18720000  0.66250000  0.73420000  1.0 0.4429887295
H  H105  1  0.81170000  0.09980000  0.15540000  1.0 0.4196285843
H  H106  1  0.18830000  0.90020000  0.84460000  1.0 0.4275342583
H  H107  1  0.96520000  0.87470000  0.21360000  1.0 0.4196285843
H  H108  1  0.03480000  0.12530000  0.78640000  1.0 0.4196285843
H  H109  1  0.72440000  0.42910000  0.91850000  1.0 0.1395418194
H  H110  1  0.27560000  0.57090000  0.08150000  1.0 0.1395418194
H  H111  1  0.65620000  0.43430000  0.94190000  1.0 0.1395418194
H  H112  1  0.34380000  0.56570000  0.05810000  1.0 0.1395418194
H  H113  1  0.59870000  0.42360000  0.82280000  1.0 0.1216644972
H  H114  1  0.40130000  0.57640000  0.17720000  1.0 0.1216644972
H  H115  1  0.57090000  0.44170000  0.87090000  1.0 0.1216644972
H  H116  1  0.42910000  0.55830000  0.12910000  1.0 0.1216644972
H  H117  1  0.68930000  0.29700000  0.86720000  1.0 0.150065228
H  H118  1  0.31070000  0.70300000  0.13280000  1.0 0.150065228
H  H119  1  0.68660000  0.36370000  0.83230000  1.0 0.1308825911
H  H120  1  0.31340000  0.63630000  0.16770000  1.0 0.1308825911
H  H121  1  0.61760000  0.31120000  0.73870000  1.0 0.150065228
H  H122  1  0.38240000  0.68880000  0.26130000  1.0 0.150065228
H  H123  1  0.42940000  0.11730000  0.69670000  1.0 0.150065228
H  H124  1  0.57060000  0.88270000  0.30330000  1.0 0.150065228
H  H125  1  0.49280000  0.06150000  0.80970000  1.0 0.1395418194
H  H126  1  0.50720000  0.93850000  0.19030000  1.0 0.1395418194
H  H127  1  0.40620000  0.04550000  0.76650000  1.0 0.1308825911
H  H128  1  0.59380000  0.95450000  0.23350000  1.0 0.1308825911
H  H129  1  0.39300000  0.99430000  0.84680000  1.0 0.150065228
H  H130  1  0.60700000  0.00570000  0.15320000  1.0 0.150065228
H  H131  1  0.38200000  0.04800000  0.89010000  1.0 0.1603150737
H  H132  1  0.61800000  0.95200000  0.10990000  1.0 0.1603150737
H  H133  1  0.29800000  0.06230000  0.79610000  1.0 0.150065228
H  H134  1  0.70200000  0.93770000  0.20390000  1.0 0.150065228
H  H135  1  0.34160000  0.14600000  0.78600000  1.0 0.150065228
H  H136  1  0.65840000  0.85400000  0.21400000  1.0 0.150065228
H  H137  1  0.38430000  0.18910000  0.52210000  1.0 0.1308825911
H  H138  1  0.61570000  0.81090000  0.47790000  1.0 0.1308825911
H  H139  1  0.39200000  0.20360000  0.43830000  1.0 0.1308825911
H  H140  1  0.60800000  0.79640000  0.56170000  1.0 0.1308825911
H  H141  1  0.63130000  0.31180000  0.49710000  1.0 0.1308825911
H  H142  1  0.36870000  0.68820000  0.50290000  1.0 0.1308825911
H  H143  1  0.62620000  0.29990000  0.58280000  1.0 0.1308825911
H  H144  1  0.37380000  0.70010000  0.41720000  1.0 0.1308825911
H  H145  1  0.58350000  0.40310000  0.33080000  1.0 0.150065228
H  H146  1  0.41650000  0.59690000  0.66920000  1.0 0.150065228
H  H147  1  0.40480000  0.19950000  0.27800000  1.0 0.150065228
H  H148  1  0.59520000  0.80050000  0.72200000  1.0 0.150065228
H  H149  1  0.34880000  0.15520000  0.18710000  1.0 0.1308825911
H  H150  1  0.65120000  0.84480000  0.81290000  1.0 0.1308825911
H  H151  1  0.33440000  0.22270000  0.15550000  1.0 0.1216644972
H  H152  1  0.66560000  0.77730000  0.84450000  1.0 0.1216644972
H  H153  1  0.30110000  0.12350000  0.09040000  1.0 0.1395418194
H  H154  1  0.69890000  0.87650000  0.90960000  1.0 0.1395418194
H  H155  1  0.36830000  0.11450000  0.06730000  1.0 0.1308825911
H  H156  1  0.63170000  0.88550000  0.93270000  1.0 0.1308825911
H  H157  1  0.46300000  0.10050000  0.13190000  1.0 0.150065228
H  H158  1  0.53700000  0.89950000  0.86810000  1.0 0.150065228
H  H159  1  0.43410000  0.10070000  0.18140000  1.0 0.1308825911
H  H160  1  0.56590000  0.89930000  0.81860000  1.0 0.1308825911
H  H161  1  0.62020000  0.47920000  0.26910000  1.0 0.1308825911
H  H162  1  0.37980000  0.52080000  0.73090000  1.0 0.1308825911
H  H163  1  0.54190000  0.47580000  0.22190000  1.0 0.1308825911
H  H164  1  0.45810000  0.52420000  0.77810000  1.0 0.1308825911
H  H165  1  0.67660000  0.37430000  0.24800000  1.0 0.1603150737
H  H166  1  0.32340000  0.62570000  0.75200000  1.0 0.1603150737
H  H167  1  0.73380000  0.45540000  0.24280000  1.0 0.150065228
H  H168  1  0.26620000  0.54460000  0.75720000  1.0 0.150065228
H  H169  1  0.68580000  0.49540000  0.16200000  1.0 0.1105514898
H  H170  1  0.31420000  0.50460000  0.83800000  1.0 0.1105514898
H  H171  1  0.66290000  0.54460000  0.20110000  1.0 0.1216644972
H  H172  1  0.33710000  0.45540000  0.79890000  1.0 0.1216644972
H  H173  1  0.51010000  0.34470000  0.97240000  1.0 0.3718592285
H  H174  1  0.48990000  0.65530000  0.02760000  1.0 0.3718592285
H  H175  1  0.48220000  0.37710000  0.92570000  1.0 0.3406771949
H  H176  1  0.51780000  0.62290000  0.07430000  1.0 0.3508594155
H  H177  1  0.49280000  0.43660000  0.58130000  1.0 0.1105514898
H  H178  1  0.50720000  0.56340000  0.41870000  1.0 0.1105514898
H  H179  1  0.38990000  0.37890000  0.48940000  1.0 0.1105514898
H  H180  1  0.61010000  0.62110000  0.51060000  1.0 0.1105514898
H  H181  1  0.61830000  0.53320000  0.17060000  1.0 0.1000038892
H  H182  1  0.38170000  0.46680000  0.82940000  1.0 0.1000038892
H  H183  1  0.63510000  0.47670000  0.13370000  1.0 0.0853095114
H  H184  1  0.36490000  0.52330000  0.86630000  1.0 0.0853095114
C  C1  1  0.82100000  0.06330000  0.81040000  1.0 0.6264092981
C  C2  1  0.17900000  0.93670000  0.18960000  1.0 0.6264092981
C  C3  1  0.76860000  0.03310000  0.84060000  1.0 -0.3193955362
C  C4  1  0.23140000  0.96690000  0.15940000  1.0 -0.3193955362
C  C5  1  0.73940000  0.06750000  0.91830000  1.0 -0.3021006943
C  C6  1  0.26060000  0.93250000  0.08170000  1.0 -0.3021006943
C  C7  1  0.75780000  0.13830000  0.95700000  1.0 0.6596674978
C  C8  1  0.24220000  0.86170000  0.04300000  1.0 0.6596674978
C  C9  1  0.67960000  0.10370000  0.83700000  1.0 -0.2095165194
C  C10  1  0.32040000  0.89630000  0.16300000  1.0 -0.2095165194
C  C11  1  0.69570000  0.14190000  0.79240000  1.0 0.2793308854
C  C12  1  0.30430000  0.85810000  0.20760000  1.0 0.2793308854
C  C13  1  0.65160000  0.10820000  0.74020000  1.0 -0.2472777128
C  C14  1  0.34840000  0.89180000  0.25980000  1.0 -0.2587437826
C  C15  1  0.66970000  0.14370000  0.70090000  1.0 0.1783803388
C  C16  1  0.33030000  0.85630000  0.29910000  1.0 0.1783803388
C  C17  1  0.73140000  0.21250000  0.71660000  1.0 -0.2416440979
C  C18  1  0.26860000  0.78750000  0.28340000  1.0 -0.2416440979
C  C19  1  0.77350000  0.24560000  0.76810000  1.0 0.2417324394
C  C20  1  0.22650000  0.75440000  0.23190000  1.0 0.2417324394
C  C21  1  0.82590000  0.32240000  0.78770000  1.0 -0.2046807647
C  C22  1  0.17410000  0.67760000  0.21230000  1.0 -0.2046807647
C  C23  1  0.93670000  0.39710000  0.86370000  1.0 -0.2691907078
C  C24  1  0.06330000  0.60290000  0.13630000  1.0 -0.2691907078
C  C25  1  0.88790000  0.39730000  0.90190000  1.0 0.6203689436
C  C26  1  0.11210000  0.60270000  0.09810000  1.0 0.6203689436
C  C27  1  0.02210000  0.28930000  0.84800000  1.0 0.6502594113
C  C28  1  0.97790000  0.71070000  0.15200000  1.0 0.6502594113
C  C29  1  0.95360000  0.30620000  0.80480000  1.0 -0.2587437826
C  C30  1  0.04640000  0.69380000  0.19520000  1.0 -0.2587437826
C  C31  1  0.62760000  0.11070000  0.64600000  1.0 -0.0812079577
C  C32  1  0.37240000  0.88930000  0.35400000  1.0 -0.0812079577
C  C33  1  0.59250000  0.07860000  0.60350000  1.0 -0.0716392543
C  C34  1  0.40750000  0.92140000  0.39650000  1.0 -0.0716392543
C  C35  1  0.54430000  0.03840000  0.55110000  1.0 0.1216644972
C  C36  1  0.45570000  0.96160000  0.44890000  1.0 0.1216644972
C  C37  1  0.49920000  0.96590000  0.54090000  1.0 -0.1388226957
C  C38  1  0.50080000  0.03410000  0.45910000  1.0 -0.1388226957
C  C39  1  0.54460000  0.07360000  0.50910000  1.0 -0.1388226957
C  C40  1  0.45540000  0.92640000  0.49090000  1.0 -0.1388226957
C  C41  1  0.15940000  0.41420000  0.19040000  1.0 0.6403223931
C  C42  1  0.84060000  0.58580000  0.80960000  1.0 0.6403223931
C  C43  1  0.20860000  0.43800000  0.15470000  1.0 -0.2858465255
C  C44  1  0.79140000  0.56200000  0.84530000  1.0 -0.2858465255
C  C45  1  0.23030000  0.38350000  0.07710000  1.0 -0.3073330505
C  C46  1  0.76970000  0.61650000  0.92290000  1.0 -0.3073330505
C  C47  1  0.20620000  0.30460000  0.04810000  1.0 0.5897742569
C  C48  1  0.79380000  0.69540000  0.95190000  1.0 0.5897742569
C  C49  1  0.30500000  0.37520000  0.16750000  1.0 -0.2416440979
C  C50  1  0.69500000  0.62480000  0.83250000  1.0 -0.2416440979
C  C51  1  0.29270000  0.33940000  0.21340000  1.0 0.2725875735
C  C52  1  0.70730000  0.66060000  0.78660000  1.0 0.2725875735
C  C53  1  0.33910000  0.38020000  0.26310000  1.0 -0.2416440979
C  C54  1  0.66090000  0.61980000  0.73690000  1.0 -0.2416440979
C  C55  1  0.32520000  0.34250000  0.30490000  1.0 0.1875354111
C  C56  1  0.67480000  0.65750000  0.69510000  1.0 0.1875354111
C  C57  1  0.26760000  0.27360000  0.29650000  1.0 -0.2416440979
C  C58  1  0.73240000  0.72640000  0.70350000  1.0 -0.2416440979
C  C59  1  0.22410000  0.23440000  0.24420000  1.0 0.2513626426
C  C60  1  0.77590000  0.76560000  0.75580000  1.0 0.2513626426
C  C61  1  0.16600000  0.16110000  0.23090000  1.0 -0.2095165194
C  C62  1  0.83400000  0.83890000  0.76910000  1.0 -0.2095165194
C  C63  1  0.04120000  0.19300000  0.21990000  1.0 -0.3073330505
C  C64  1  0.95880000  0.80700000  0.78010000  1.0 -0.3073330505
C  C65  1  0.98070000  0.21430000  0.17960000  1.0 0.6502594113
C  C66  1  0.01930000  0.78570000  0.82040000  1.0 0.6502594113
C  C67  1  0.06340000  0.06030000  0.12680000  1.0 0.6030731558
C  C68  1  0.93660000  0.93970000  0.87320000  1.0 0.6030731558
C  C69  1  0.03930000  0.08230000  0.16950000  1.0 -0.3021006943
C  C70  1  0.96070000  0.91770000  0.83050000  1.0 -0.3021006943
C  C71  1  0.36900000  0.38430000  0.35640000  1.0 -0.1082058043
C  C72  1  0.63100000  0.61570000  0.64360000  1.0 -0.1082058043
C  C73  1  0.40670000  0.41890000  0.40030000  1.0 -0.1282548398
C  C74  1  0.59330000  0.58110000  0.59970000  1.0 -0.1282548398
C  C75  1  0.45430000  0.46300000  0.45150000  1.0 0.1216644972
C  C76  1  0.54570000  0.53700000  0.54850000  1.0 0.1216644972
C  C77  1  0.53020000  0.48190000  0.46590000  1.0 -0.0812079577
C  C78  1  0.46980000  0.51810000  0.53410000  1.0 -0.0812079577
C  C79  1  0.41700000  0.48010000  0.48350000  1.0 -0.1282548398
C  C80  1  0.58300000  0.51990000  0.51650000  1.0 -0.1282548398
C  C81  1  0.00980000  0.26710000  0.02410000  1.0 0.8671377956
C  C82  1  0.99020000  0.73290000  0.97590000  1.0 0.8671377956
C  C83  1  0.69740000  0.34590000  0.96280000  1.0 0.6673737227
C  C84  1  0.30260000  0.65410000  0.03720000  1.0 0.6673737227
C  C85  1  0.67620000  0.39870000  0.92600000  1.0 -0.3021006943
C  C86  1  0.32380000  0.60130000  0.07400000  1.0 -0.3073330505
C  C87  1  0.57030000  0.40020000  0.84640000  1.0 -0.2812645972
C  C88  1  0.42970000  0.59980000  0.15360000  1.0 -0.2812645972
C  C89  1  0.48080000  0.35080000  0.81360000  1.0 0.6108030438
C  C90  1  0.51920000  0.64920000  0.18640000  1.0 0.6108030438
C  C91  1  0.65350000  0.32150000  0.84500000  1.0 -0.2095165194
C  C92  1  0.34650000  0.67850000  0.15500000  1.0 -0.2095165194
C  C93  1  0.58960000  0.26380000  0.79930000  1.0 0.2725875735
C  C94  1  0.41040000  0.73620000  0.20070000  1.0 0.2725875735
C  C95  1  0.58140000  0.26970000  0.74730000  1.0 -0.2472777128
C  C96  1  0.41860000  0.73030000  0.25270000  1.0 -0.2472777128
C  C97  1  0.51980000  0.21430000  0.70790000  1.0 0.1875354111
C  C98  1  0.48020000  0.78570000  0.29210000  1.0 0.1875354111
C  C99  1  0.47190000  0.15610000  0.72270000  1.0 -0.2314108551
C  C100  1  0.52810000  0.84390000  0.27730000  1.0 -0.2314108551
C  C101  1  0.48270000  0.15120000  0.77400000  1.0 0.2417324394
C  C102  1  0.51730000  0.84880000  0.22600000  1.0 0.2417324394
C  C103  1  0.45030000  0.08390000  0.79490000  1.0 -0.2095165194
C  C104  1  0.54970000  0.91610000  0.20510000  1.0 -0.2095165194
C  C105  1  0.41580000  0.04530000  0.86860000  1.0 -0.2587437826
C  C106  1  0.58420000  0.95470000  0.13140000  1.0 -0.2587437826
C  C107  1  0.50690000  0.06020000  0.90520000  1.0 0.6264092981
C  C108  1  0.49310000  0.93980000  0.09480000  1.0 0.6264092981
C  C109  1  0.31810000  0.14760000  0.85550000  1.0 0.6108030438
C  C110  1  0.68190000  0.85240000  0.14450000  1.0 0.6108030438
C  C111  1  0.33940000  0.11260000  0.81290000  1.0 -0.2691907078
C  C112  1  0.66060000  0.88740000  0.18710000  1.0 -0.2691907078
C  C113  1  0.51140000  0.22170000  0.65540000  1.0 -0.0891694546
C  C114  1  0.48860000  0.77830000  0.34460000  1.0 -0.0891694546
C  C115  1  0.50970000  0.23140000  0.61130000  1.0 -0.0812079577
C  C116  1  0.49030000  0.76860000  0.38870000  1.0 -0.0812079577
C  C117  1  0.50770000  0.24300000  0.55920000  1.0 0.1395418194
C  C118  1  0.49230000  0.75700000  0.44080000  1.0 0.1395418194
C  C119  1  0.43380000  0.21450000  0.51720000  1.0 -0.1388226957
C  C120  1  0.56620000  0.78550000  0.48280000  1.0 -0.1388226957
C  C121  1  0.43890000  0.22650000  0.46810000  1.0 -0.1176068922
C  C122  1  0.56110000  0.77350000  0.53190000  1.0 -0.1176068922
C  C123  1  0.50480000  0.26750000  0.46080000  1.0 0.1216644972
C  C124  1  0.49520000  0.73250000  0.53920000  1.0 0.1216644972
C  C125  1  0.58170000  0.29080000  0.50300000  1.0 -0.1176068922
C  C126  1  0.41830000  0.70920000  0.49700000  1.0 -0.1176068922
C  C127  1  0.57850000  0.28050000  0.55320000  1.0 -0.1501623035
C  C128  1  0.42150000  0.71950000  0.44680000  1.0 -0.1501623035
C  C129  1  0.50720000  0.28030000  0.41010000  1.0 -0.0891694546
C  C130  1  0.49280000  0.71970000  0.58990000  1.0 -0.0891694546
C  C131  1  0.50210000  0.28930000  0.36520000  1.0 -0.0891694546
C  C132  1  0.49790000  0.71070000  0.63480000  1.0 -0.0891694546
C  C133  1  0.49730000  0.30270000  0.31300000  1.0 0.1958710312
C  C134  1  0.50270000  0.69730000  0.68700000  1.0 0.1958710312
C  C135  1  0.54300000  0.36610000  0.30280000  1.0 -0.2215739132
C  C136  1  0.45700000  0.63390000  0.69720000  1.0 -0.2215739132
C  C137  1  0.53240000  0.37920000  0.25100000  1.0 0.2417324394
C  C138  1  0.46760000  0.62080000  0.74900000  1.0 0.2417324394
C  C139  1  0.43530000  0.25940000  0.22120000  1.0 0.288649103
C  C140  1  0.56470000  0.74060000  0.77880000  1.0 0.288649103
C  C141  1  0.43900000  0.24490000  0.27180000  1.0 -0.2416440979
C  C142  1  0.56100000  0.75510000  0.72820000  1.0 -0.2416440979
C  C143  1  0.37600000  0.20170000  0.17490000  1.0 -0.2587437826
C  C144  1  0.62400000  0.79830000  0.82510000  1.0 -0.2587437826
C  C145  1  0.35360000  0.15090000  0.08670000  1.0 -0.1176068922
C  C146  1  0.64640000  0.84910000  0.91330000  1.0 -0.1176068922
C  C147  1  0.34630000  0.21970000  0.05540000  1.0 0.3281186431
C  C148  1  0.65370000  0.78030000  0.94460000  1.0 0.3281186431
C  C149  1  0.46180000  0.13390000  0.16080000  1.0 -0.2858465255
C  C150  1  0.53820000  0.86610000  0.83920000  1.0 -0.2858465255
C  C151  1  0.54750000  0.17760000  0.19550000  1.0 0.6203689436
C  C152  1  0.45250000  0.82240000  0.80450000  1.0 0.6203689436
C  C153  1  0.57790000  0.44680000  0.23700000  1.0 -0.2472777128
C  C154  1  0.42210000  0.55320000  0.76300000  1.0 -0.2472777128
C  C155  1  0.68780000  0.40930000  0.22310000  1.0 -0.3073330505
C  C156  1  0.31220000  0.59070000  0.77690000  1.0 -0.3073330505
C  C157  1  0.70940000  0.37080000  0.18280000  1.0 0.6203689436
C  C158  1  0.29060000  0.62920000  0.81720000  1.0 0.6203689436
C  C159  1  0.64200000  0.49800000  0.17480000  1.0 -0.1388226957
C  C160  1  0.35800000  0.50200000  0.82520000  1.0 -0.1388226957
C  C161  1  0.57330000  0.50150000  0.13090000  1.0 0.1783803388
C  C162  1  0.42670000  0.49850000  0.86910000  1.0 0.1783803388
C  C163  1  0.51240000  0.24590000  0.02820000  1.0 0.7874276697
C  C164  1  0.48760000  0.75410000  0.97180000  1.0 0.7874276697
C  C165  1  0.49200000  0.45920000  0.55100000  1.0 -0.1282548398
C  C166  1  0.50800000  0.54080000  0.44900000  1.0 -0.1282548398
C  C167  1  0.43500000  0.42400000  0.49590000  1.0 -0.0398846327
C  C168  1  0.56500000  0.57600000  0.50410000  1.0 -0.0398846327
C  C169  1  0.32220000  0.18500000  0.05670000  1.0 0.2513626426
C  C170  1  0.67780000  0.81500000  0.94330000  1.0 0.2513626426
C  C171  1  0.59800000  0.48000000  0.15290000  1.0 -0.033138977
C  C172  1  0.40200000  0.52000000  0.84710000  1.0 -0.033138977
C  C173  1  0.52500000  0.47180000  0.11380000  1.0 0.288649103
C  C174  1  0.47500000  0.52820000  0.88620000  1.0 0.288649103
N  N1  1  0.75150000  0.09050000  0.86960000  1.0 -0.0891694546
N  N2  1  0.24850000  0.90950000  0.13040000  1.0 -0.0891694546
N  N3  1  0.75480000  0.20680000  0.80650000  1.0 -0.4044770539
N  N4  1  0.24520000  0.79320000  0.19350000  1.0 -0.4044770539
N  N5  1  0.90300000  0.32310000  0.83140000  1.0 -0.1013938074
N  N6  1  0.09700000  0.67690000  0.16860000  1.0 -0.1013938074
N  N7  1  0.22550000  0.37630000  0.13200000  1.0 -0.1013938074
N  N8  1  0.77450000  0.62370000  0.86800000  1.0 -0.1013938074
N  N9  1  0.23800000  0.27020000  0.20330000  1.0 -0.4362299681
N  N10  1  0.76200000  0.72980000  0.79670000  1.0 -0.4362299681
N  N11  1  0.08670000  0.15860000  0.19390000  1.0 -0.0812079577
N  N12  1  0.91330000  0.84140000  0.80610000  1.0 -0.0812079577
N  N13  1  0.61130000  0.35170000  0.87570000  1.0 -0.1082058043
N  N14  1  0.38870000  0.64830000  0.12430000  1.0 -0.1082058043
N  N15  1  0.54210000  0.20570000  0.81350000  1.0 -0.4306701661
N  N16  1  0.45790000  0.79430000  0.18650000  1.0 -0.4306701661
N  N17  1  0.41880000  0.10350000  0.83680000  1.0 -0.1082058043
N  N18  1  0.58120000  0.89650000  0.16320000  1.0 -0.1082058043
N  N19  1  0.47940000  0.32300000  0.21080000  1.0 -0.4362299681
N  N20  1  0.52060000  0.67700000  0.78920000  1.0 -0.4362299681
N  N21  1  0.41620000  0.18100000  0.13930000  1.0 -0.1751881332
N  N22  1  0.58380000  0.81900000  0.86070000  1.0 -0.1751881332
N  N23  1  0.61670000  0.43120000  0.19870000  1.0 -0.0891694546
N  N24  1  0.38330000  0.56880000  0.80130000  1.0 -0.0891694546
O  O1  1  0.86930000  0.13090000  0.82520000  1.0 -0.6181199119
O  O2  1  0.13070000  0.86910000  0.17480000  1.0 -0.6181199119
O  O3  1  0.81900000  0.01980000  0.77260000  1.0 -0.559930567
O  O4  1  0.18100000  0.98020000  0.22740000  1.0 -0.559930567
O  O5  1  0.79530000  0.20290000  0.94793000  1.0 -0.6784485519
O  O6  1  0.20470000  0.79710000  0.05207000  1.0 -0.6784485519
O  O7  1  0.73780000  0.13010000  0.99684000  1.0 -0.6381497175
O  O8  1  0.26220000  0.86990000  0.00316000  1.0 -0.6381497175
O  O9  1  0.85580000  0.33700000  0.91403000  1.0 -0.6181199119
O  O10  1  0.14420000  0.66300000  0.08597000  1.0 -0.6181199119
O  O11  1  0.89590000  0.46280000  0.92240000  1.0 -0.5035139263
O  O12  1  0.10410000  0.53720000  0.07760000  1.0 -0.5035139263
O  O13  1  0.00610000  0.26050000  0.88590000  1.0 -0.6181199119
O  O14  1  0.99390000  0.73950000  0.11410000  1.0 -0.6181199119
O  O15  1  0.08910000  0.30310000  0.84110000  1.0 -0.6288768491
O  O16  1  0.91090000  0.69690000  0.15890000  1.0 -0.6288768491
O  O17  1  0.11550000  0.34070000  0.18340000  1.0 -0.6885727585
O  O18  1  0.88450000  0.65930000  0.81660000  1.0 -0.6885727585
O  O19  1  0.16230000  0.46340000  0.22410000  1.0 -0.559930567
O  O20  1  0.83770000  0.53660000  0.77590000  1.0 -0.559930567
O  O21  1  0.20740000  0.30420000  0.00200000  1.0 -0.4720838011
O  O22  1  0.79260000  0.69580000  0.99800000  1.0 -0.4720838011
O  O23  1  0.18760000  0.24970000  0.06630000  1.0 -0.5173613251
O  O24  1  0.81240000  0.75030000  0.93370000  1.0 -0.5173613251
O  O25  1  0.98100000  0.20990000  0.13090000  1.0 -0.6130684555
O  O26  1  0.01900000  0.79010000  0.86910000  1.0 -0.6130684555
O  O27  1  0.92850000  0.23410000  0.19370000  1.0 -0.6130684555
O  O28  1  0.07150000  0.76590000  0.80630000  1.0 -0.6130684555
O  O29  1  0.10620000  0.11350000  0.10420000  1.0 -0.6714515627
O  O30  1  0.89380000  0.88650000  0.89580000  1.0 -0.6714515627
O  O31  1  0.04350000  0.99350000  0.10560000  1.0 -0.5262028516
O  O32  1  0.95650000  0.00650000  0.89440000  1.0 -0.5262028516
O  O33  1  0.05310000  0.32140000  0.06340000  1.0 -0.6381497175
O  O34  1  0.94690000  0.67860000  0.93660000  1.0 -0.6381497175
O  O35  1  0.96710000  0.28200000  0.98214000  1.0 -0.6885727585
O  O36  1  0.03290000  0.71800000  0.01786000  1.0 -0.6885727585
O  O37  1  0.01350000  0.19880000  0.03010000  1.0 -0.6885727585
O  O38  1  0.98650000  0.80120000  0.96990000  1.0 -0.6885727585
O  O39  1  0.92470000  0.12460000  0.93710000  1.0 -0.753668958
O  O40  1  0.07530000  0.87540000  0.06290000  1.0 -0.753668958
O  O41  1  0.86230000  0.25100000  0.07081000  1.0 -0.7581592838
O  O42  1  0.13770000  0.74900000  0.92919000  1.0 -0.7581592838
O  O43  1  0.71110000  0.28040000  0.07361000  1.0 -0.7581592838
O  O44  1  0.28890000  0.71960000  0.92639000  1.0 -0.7581592838
O  O45  1  0.60310000  0.11950000  0.07340000  1.0 -0.7407810132
O  O46  1  0.39690000  0.88050000  0.92660000  1.0 -0.7407810132
O  O47  1  0.96970000  0.41530000  0.07100000  1.0 -0.7344766796
O  O48  1  0.03030000  0.58470000  0.92900000  1.0 -0.7344766796
O  O49  1  0.92590000  0.55620000  0.01580000  1.0 -0.7407810132
O  O50  1  0.07410000  0.44380000  0.98420000  1.0 -0.7407810132
O  O51  1  0.91420000  0.40450000  0.15600000  1.0 -0.7182897121
O  O52  1  0.08580000  0.59550000  0.84400000  1.0 -0.7182897121
O  O53  1  0.66710000  0.45500000  0.05600000  1.0 -0.4086442977
O  O54  1  0.33290000  0.54500000  0.94400000  1.0 -0.4086442977
O  O55  1  0.74800000  0.16540000  0.15590000  1.0 -0.791019404
O  O56  1  0.25200000  0.83460000  0.84410000  1.0 -0.791019404
O  O57  1  0.60110000  0.95190000  0.01210000  1.0 -0.7407810132
O  O58  1  0.39890000  0.04810000  0.98790000  1.0 -0.7407810132
O  O59  1  0.79320000  0.60930000  0.06610000  1.0 -0.8152556956
O  O60  1  0.20680000  0.39070000  0.93390000  1.0 -0.8152556956
O  O61  1  0.69310000  0.71830000  0.06270000  1.0 -0.7581592838
O  O62  1  0.30690000  0.28170000  0.93730000  1.0 -0.7581592838
O  O63  1  0.77210000  0.91940000  0.06260000  1.0 -0.7844860495
O  O64  1  0.22790000  0.08060000  0.93740000  1.0 -0.7844860495
O  O65  1  0.88890000  0.06760000  0.04870000  1.0 -0.9097440481
O  O66  1  0.11110000  0.93240000  0.95130000  1.0 -0.9097440481
O  O67  1  0.83800000  0.32910000  0.29500000  1.0 -0.9439086258
O  O68  1  0.16200000  0.67090000  0.70500000  1.0 -0.9439086258
O  O69  1  0.82660000  0.06730000  0.14250000  1.0 -0.7130583764
O  O70  1  0.17340000  0.93270000  0.85750000  1.0 -0.7130583764
O  O71  1  0.61340000  0.58210000  0.97480000  1.0 -0.3534383268
O  O72  1  0.38660000  0.41790000  0.02520000  1.0 -0.3534383268
O  O73  1  0.94110000  0.88250000  0.18390000  1.0 -0.9788405836
O  O74  1  0.05890000  0.11750000  0.81610000  1.0 -0.9788405836
O  O75  1  0.64880000  0.27730000  0.95356000  1.0 -0.6885727585
O  O76  1  0.35120000  0.72270000  0.04644000  1.0 -0.6885727585
O  O77  1  0.75980000  0.37170000  0.00192000  1.0 -0.6288768491
O  O78  1  0.24020000  0.62830000  0.99808000  1.0 -0.6288768491
O  O79  1  0.44780000  0.29210000  0.82940000  1.0 -0.6288768491
O  O80  1  0.55220000  0.70790000  0.17060000  1.0 -0.6288768491
O  O81  1  0.44810000  0.37670000  0.77460000  1.0 -0.559930567
O  O82  1  0.55190000  0.62330000  0.22540000  1.0 -0.559930567
O  O83  1  0.55300000  0.12630000  0.91776000  1.0 -0.6288768491
O  O84  1  0.44700000  0.87370000  0.08224000  1.0 -0.6288768491
O  O85  1  0.52430000  0.00470000  0.92430000  1.0 -0.4827618092
O  O86  1  0.47570000  0.99530000  0.07570000  1.0 -0.4827618092
O  O87  1  0.37010000  0.19120000  0.88940000  1.0 -0.5074846387
O  O88  1  0.62990000  0.80880000  0.11060000  1.0 -0.5074846387
O  O89  1  0.24490000  0.13100000  0.84600000  1.0 -0.5074846387
O  O90  1  0.75510000  0.86900000  0.15400000  1.0 -0.5074846387
O  O91  1  0.38390000  0.28570000  0.07510000  1.0 -0.1693042309
O  O92  1  0.61610000  0.71430000  0.92490000  1.0 -0.1693042309
O  O93  1  0.29880000  0.20000000  0.00960000  1.0 -0.0398846327
O  O94  1  0.70120000  0.80000000  0.99040000  1.0 -0.0398846327
O  O95  1  0.57790000  0.24330000  0.18840000  1.0 -0.5869415939
O  O96  1  0.42210000  0.75670000  0.81160000  1.0 -0.5869415939
O  O97  1  0.58160000  0.14220000  0.22650000  1.0 -0.5173613251
O  O98  1  0.41840000  0.85780000  0.77350000  1.0 -0.5173613251
O  O99  1  0.65530000  0.35320000  0.13530000  1.0 -0.6181199119
O  O100  1  0.34470000  0.64680000  0.86470000  1.0 -0.6181199119
O  O101  1  0.77320000  0.35660000  0.19600000  1.0 -0.5173613251
O  O102  1  0.22680000  0.64340000  0.80400000  1.0 -0.5262028516
O  O103  1  0.58560000  0.56380000  0.11270000  1.0 -0.1388226957
O  O104  1  0.41440000  0.43620000  0.88730000  1.0 -0.1388226957
O  O105  1  0.50630000  0.43630000  0.11120000  1.0 0.0359715748
O  O106  1  0.49370000  0.56370000  0.88880000  1.0 0.0359715748
O  O107  1  0.51020000  0.21270000  0.98472000  1.0 -0.6784485519
O  O108  1  0.48980000  0.78730000  0.01528000  1.0 -0.6784485519
O  O109  1  0.51370000  0.21130000  0.06722000  1.0 -0.6288768491
O  O110  1  0.48630000  0.78870000  0.93278000  1.0 -0.6288768491
O  O111  1  0.51620000  0.31680000  0.03520000  1.0 -0.6288768491
O  O112  1  0.48380000  0.68320000  0.96480000  1.0 -0.6288768491
O  O113  1  0.50750000  0.34940000  0.94150000  1.0 -0.7182897121
O  O114  1  0.49250000  0.65060000  0.05850000  1.0 -0.7182897121
O  O115  1  0.36940000  0.24570000  0.07650000  1.0 0.0253098797
O  O116  1  0.63060000  0.75430000  0.92350000  1.0 0.0249253123
O  O117  1  0.26220000  0.15270000  0.01940000  1.0 -0.0398846327
O  O118  1  0.73780000  0.84730000  0.98060000  1.0 -0.0398846327
O  O119  1  0.53320000  0.53220000  0.09730000  1.0 -0.0716392543
O  O120  1  0.46680000  0.46780000  0.90270000  1.0 -0.0716392543
O  O121  1  0.45930000  0.40010000  0.09530000  1.0 -0.2691907078
O  O122  1  0.54070000  0.59990000  0.90470000  1.0 -0.2691907078
