# DDEC6 charges by PACMAN v1.1 (https://github.com/mtap-research/PACMAN-charge/)
data_ENAVAT_FSR_pacman
_symmetry_space_group_name_H-M   'P 1'
_cell_length_a   16.78230000
_cell_length_b   30.52600000
_cell_length_c   24.01620000
_cell_angle_alpha   90.00000000
_cell_angle_beta   94.22470000
_cell_angle_gamma   90.00000000
_symmetry_Int_Tables_number   1
_chemical_formula_structural   Eu4H57C83S14(N2O15)2
_chemical_formula_sum   'Eu16 H228 C332 S56 N16 O120'
_cell_volume   12269.98426482
_cell_formula_units_Z   4
loop_
 _symmetry_equiv_pos_site_id
 _symmetry_equiv_pos_as_xyz
  1  'x, y, z'
loop_
 _atom_site_type_symbol
 _atom_site_label
 _atom_site_symmetry_multiplicity
 _atom_site_fract_x
 _atom_site_fract_y
 _atom_site_fract_z
 _atom_site_occupancy
 _atom_site_charge
Eu  Eu1  1  0.20700000  0.29989000  0.99245000  1.0 2.0701844762
Eu  Eu2  1  0.42344000  0.24387000  0.00862000  1.0 2.0793635319
Eu  Eu3  1  0.59345000  0.45764000  0.50622000  1.0 1.9910273025
Eu  Eu4  1  0.87940000  0.46695000  0.50223000  1.0 2.120791621
Eu  Eu5  1  0.29300000  0.79989000  0.00755000  1.0 2.0701844762
Eu  Eu6  1  0.07656000  0.74387000  0.99138000  1.0 2.0793635319
Eu  Eu7  1  0.90655000  0.95764000  0.49378000  1.0 1.9910273025
Eu  Eu8  1  0.62060000  0.96695000  0.49777000  1.0 2.120791621
Eu  Eu9  1  0.79300000  0.70011000  0.00755000  1.0 2.0701844762
Eu  Eu10  1  0.57656000  0.75613000  0.99138000  1.0 2.0793635319
Eu  Eu11  1  0.40655000  0.54236000  0.49378000  1.0 1.9910273025
Eu  Eu12  1  0.12060000  0.53305000  0.49777000  1.0 2.120791621
Eu  Eu13  1  0.70700000  0.20011000  0.99245000  1.0 2.0701844762
Eu  Eu14  1  0.92344000  0.25613000  0.00862000  1.0 2.0793635319
Eu  Eu15  1  0.09345000  0.04236000  0.50622000  1.0 1.9910273025
Eu  Eu16  1  0.37940000  0.03305000  0.50223000  1.0 2.120791621
H  H1  1  0.16944000  0.40689000  0.93449000  1.0 0.0990763368
H  H2  1  0.38862000  0.44678000  0.96929000  1.0 0.1299773855
H  H3  1  0.34862000  0.42041000  0.01764000  1.0 0.1484616126
H  H4  1  0.36819000  0.39585000  0.96138000  1.0 0.1396378998
H  H5  1  0.31718000  0.48264000  0.91114000  1.0 0.1299773855
H  H6  1  0.26276000  0.44906000  0.87398000  1.0 0.1109822517
H  H7  1  0.22214000  0.48339000  0.91355000  1.0 0.1299773855
H  H8  1  0.95486000  0.27045000  0.81124000  1.0 0.1194405644
H  H9  1  0.96504000  0.28217000  0.16230000  1.0 0.1396378998
H  H10  1  0.26510000  0.37874000  0.10600000  1.0 0.1396378998
H  H11  1  0.49557000  0.33268000  0.75360000  1.0 0.082504947
H  H12  1  0.96908000  0.30854000  0.72256000  1.0 0.1194405644
H  H13  1  0.96190000  0.31821000  0.25352000  1.0 0.1194405644
H  H14  1  0.27645000  0.41906000  0.19466000  1.0 0.1194405644
H  H15  1  0.86932000  0.35890000  0.05817000  1.0 0.0990763368
H  H16  1  0.24975000  0.40073000  0.70005000  1.0 0.0990763368
H  H17  1  0.14444000  0.42868000  0.76160000  1.0 0.1109822517
H  H18  1  0.17578000  0.41581000  0.27504000  1.0 0.1109822517
H  H19  1  0.48546000  0.35494000  0.30682000  1.0 0.1194405644
H  H20  1  0.26796000  0.44559000  0.61702000  1.0 0.1109822517
H  H21  1  0.97902000  0.44936000  0.09028000  1.0 0.1299773855
H  H22  1  0.88677000  0.43562000  0.08419000  1.0 0.1299773855
H  H23  1  0.94924000  0.40742000  0.12290000  1.0 0.1299773855
H  H24  1  0.04561000  0.43380000  0.02332000  1.0 0.1194405644
H  H25  1  0.05674000  0.38222000  0.01479000  1.0 0.1484616126
H  H26  1  0.99836000  0.40944000  0.97192000  1.0 0.1396378998
H  H27  1  0.15421000  0.46874000  0.67318000  1.0 0.1299773855
H  H28  1  0.15623000  0.46248000  0.35791000  1.0 0.1484616126
H  H29  1  0.51547000  0.39567000  0.39037000  1.0 0.1396378998
H  H30  1  0.09040000  0.63752000  0.44847000  1.0 0.0990763368
H  H31  1  0.21243000  0.72223000  0.41510000  1.0 0.1299773855
H  H32  1  0.16603000  0.68337000  0.38183000  1.0 0.1109822517
H  H33  1  0.11957000  0.71422000  0.42250000  1.0 0.1194405644
H  H34  1  0.28466000  0.70543000  0.48620000  1.0 0.1109822517
H  H35  1  0.23415000  0.68754000  0.53541000  1.0 0.1299773855
H  H36  1  0.28892000  0.65470000  0.50299000  1.0 0.1484616126
H  H37  1  0.15324000  0.55658000  0.65682000  1.0 0.1299773855
H  H38  1  0.62463000  0.37693000  0.61702000  1.0 0.1109822517
H  H39  1  0.15286000  0.59533000  0.74637000  1.0 0.1194405644
H  H40  1  0.62338000  0.33958000  0.70731000  1.0 0.0990763368
H  H41  1  0.40099000  0.66221000  0.78572000  1.0 0.1109822517
H  H42  1  0.86703000  0.37165000  0.81275000  1.0 0.1194405644
H  H43  1  0.39245000  0.70684000  0.86958000  1.0 0.1484616126
H  H44  1  0.87066000  0.32571000  0.89531000  1.0 0.1396378998
H  H45  1  0.24519000  0.45031000  0.54465000  1.0 0.0919705493
H  H46  1  0.29664000  0.35611000  0.44607000  1.0 0.1299773855
H  H47  1  0.22443000  0.38692000  0.42301000  1.0 0.1396378998
H  H48  1  0.31450000  0.40426000  0.42373000  1.0 0.1299773855
H  H49  1  0.31072000  0.34701000  0.52780000  1.0 0.1396378998
H  H50  1  0.33862000  0.38872000  0.56460000  1.0 0.1109822517
H  H51  1  0.24873000  0.37127000  0.56489000  1.0 0.1396378998
H  H52  1  0.49654000  0.31088000  0.85557000  1.0 0.1109822517
H  H53  1  0.50980000  0.35104000  0.77006000  1.0 0.0990763368
H  H54  1  0.30137000  0.45179000  0.74462000  1.0 0.0990763368
H  H55  1  0.31821000  0.48927000  0.65503000  1.0 0.1109822517
H  H56  1  0.61494000  0.42357000  0.64886000  1.0 0.0990763368
H  H57  1  0.61551000  0.39384000  0.74351000  1.0 0.0919705493
H  H58  1  0.33056000  0.90689000  0.06551000  1.0 0.0990763368
H  H59  1  0.11138000  0.94678000  0.03071000  1.0 0.1299773855
H  H60  1  0.15138000  0.92041000  0.98236000  1.0 0.1484616126
H  H61  1  0.13181000  0.89585000  0.03862000  1.0 0.1299773855
H  H62  1  0.18282000  0.98264000  0.08886000  1.0 0.1299773855
H  H63  1  0.23724000  0.94906000  0.12602000  1.0 0.1109822517
H  H64  1  0.27786000  0.98339000  0.08645000  1.0 0.1299773855
H  H65  1  0.54514000  0.77045000  0.18876000  1.0 0.1194405644
H  H66  1  0.53496000  0.78217000  0.83770000  1.0 0.1396378998
H  H67  1  0.23490000  0.87874000  0.89400000  1.0 0.1396378998
H  H68  1  0.00443000  0.83268000  0.24640000  1.0 0.082504947
H  H69  1  0.53092000  0.80854000  0.27744000  1.0 0.1194405644
H  H70  1  0.53810000  0.81821000  0.74648000  1.0 0.1194405644
H  H71  1  0.22355000  0.91906000  0.80534000  1.0 0.1194405644
H  H72  1  0.63068000  0.85890000  0.94183000  1.0 0.0990763368
H  H73  1  0.25025000  0.90073000  0.29995000  1.0 0.0990763368
H  H74  1  0.35556000  0.92868000  0.23840000  1.0 0.1109822517
H  H75  1  0.32422000  0.91581000  0.72496000  1.0 0.1109822517
H  H76  1  0.01454000  0.85494000  0.69318000  1.0 0.1194405644
H  H77  1  0.23204000  0.94559000  0.38298000  1.0 0.1109822517
H  H78  1  0.52098000  0.94936000  0.90972000  1.0 0.1299773855
H  H79  1  0.61323000  0.93562000  0.91581000  1.0 0.1299773855
H  H80  1  0.55076000  0.90742000  0.87710000  1.0 0.1299773855
H  H81  1  0.45439000  0.93380000  0.97668000  1.0 0.1194405644
H  H82  1  0.44326000  0.88222000  0.98521000  1.0 0.1484616126
H  H83  1  0.50164000  0.90944000  0.02808000  1.0 0.1396378998
H  H84  1  0.34579000  0.96874000  0.32682000  1.0 0.1299773855
H  H85  1  0.34377000  0.96248000  0.64209000  1.0 0.1484616126
H  H86  1  0.98453000  0.89567000  0.60963000  1.0 0.1396378998
H  H87  1  0.40960000  0.13752000  0.55153000  1.0 0.0990763368
H  H88  1  0.28757000  0.22223000  0.58490000  1.0 0.1299773855
H  H89  1  0.33397000  0.18337000  0.61817000  1.0 0.1109822517
H  H90  1  0.38043000  0.21422000  0.57750000  1.0 0.1194405644
H  H91  1  0.21534000  0.20543000  0.51380000  1.0 0.1109822517
H  H92  1  0.26585000  0.18754000  0.46459000  1.0 0.1299773855
H  H93  1  0.21108000  0.15470000  0.49701000  1.0 0.1484616126
H  H94  1  0.34676000  0.05658000  0.34318000  1.0 0.1299773855
H  H95  1  0.87537000  0.87693000  0.38298000  1.0 0.1109822517
H  H96  1  0.34714000  0.09533000  0.25363000  1.0 0.1194405644
H  H97  1  0.87662000  0.83958000  0.29269000  1.0 0.0990763368
H  H98  1  0.09901000  0.16221000  0.21428000  1.0 0.1109822517
H  H99  1  0.63297000  0.87165000  0.18725000  1.0 0.1194405644
H  H100  1  0.10755000  0.20684000  0.13042000  1.0 0.1484616126
H  H101  1  0.62934000  0.82571000  0.10469000  1.0 0.1396378998
H  H102  1  0.25481000  0.95031000  0.45535000  1.0 0.0919705493
H  H103  1  0.20336000  0.85611000  0.55393000  1.0 0.1299773855
H  H104  1  0.27557000  0.88692000  0.57699000  1.0 0.1396378998
H  H105  1  0.18550000  0.90426000  0.57627000  1.0 0.1299773855
H  H106  1  0.18928000  0.84701000  0.47220000  1.0 0.1396378998
H  H107  1  0.16138000  0.88872000  0.43540000  1.0 0.1109822517
H  H108  1  0.25127000  0.87127000  0.43511000  1.0 0.1396378998
H  H109  1  0.00346000  0.81088000  0.14443000  1.0 0.1109822517
H  H110  1  0.99020000  0.85104000  0.22994000  1.0 0.0990763368
H  H111  1  0.19863000  0.95179000  0.25538000  1.0 0.0990763368
H  H112  1  0.18179000  0.98927000  0.34497000  1.0 0.1109822517
H  H113  1  0.88506000  0.92357000  0.35114000  1.0 0.0990763368
H  H114  1  0.88449000  0.89384000  0.25649000  1.0 0.0919705493
H  H115  1  0.83056000  0.59311000  0.06551000  1.0 0.0990763368
H  H116  1  0.61138000  0.55322000  0.03071000  1.0 0.1299773855
H  H117  1  0.65138000  0.57959000  0.98236000  1.0 0.1484616126
H  H118  1  0.63181000  0.60415000  0.03862000  1.0 0.1299773855
H  H119  1  0.68282000  0.51736000  0.08886000  1.0 0.1299773855
H  H120  1  0.73724000  0.55094000  0.12602000  1.0 0.1109822517
H  H121  1  0.77786000  0.51661000  0.08645000  1.0 0.1299773855
H  H122  1  0.04514000  0.72955000  0.18876000  1.0 0.1194405644
H  H123  1  0.03496000  0.71783000  0.83770000  1.0 0.1396378998
H  H124  1  0.73490000  0.62126000  0.89400000  1.0 0.1396378998
H  H125  1  0.50443000  0.66732000  0.24640000  1.0 0.082504947
H  H126  1  0.03092000  0.69146000  0.27744000  1.0 0.1194405644
H  H127  1  0.03810000  0.68179000  0.74648000  1.0 0.1194405644
H  H128  1  0.72355000  0.58094000  0.80534000  1.0 0.1194405644
H  H129  1  0.13068000  0.64110000  0.94183000  1.0 0.0990763368
H  H130  1  0.75025000  0.59927000  0.29995000  1.0 0.0990763368
H  H131  1  0.85556000  0.57132000  0.23840000  1.0 0.1109822517
H  H132  1  0.82422000  0.58419000  0.72496000  1.0 0.1109822517
H  H133  1  0.51454000  0.64506000  0.69318000  1.0 0.1194405644
H  H134  1  0.73204000  0.55441000  0.38298000  1.0 0.1109822517
H  H135  1  0.02098000  0.55064000  0.90972000  1.0 0.1299773855
H  H136  1  0.11323000  0.56438000  0.91581000  1.0 0.1299773855
H  H137  1  0.05076000  0.59258000  0.87710000  1.0 0.1299773855
H  H138  1  0.95439000  0.56620000  0.97668000  1.0 0.1194405644
H  H139  1  0.94326000  0.61778000  0.98521000  1.0 0.1484616126
H  H140  1  0.00164000  0.59056000  0.02808000  1.0 0.1396378998
H  H141  1  0.84579000  0.53126000  0.32682000  1.0 0.1299773855
H  H142  1  0.84377000  0.53752000  0.64209000  1.0 0.1484616126
H  H143  1  0.48453000  0.60433000  0.60963000  1.0 0.1396378998
H  H144  1  0.90960000  0.36248000  0.55153000  1.0 0.0990763368
H  H145  1  0.78757000  0.27777000  0.58490000  1.0 0.1299773855
H  H146  1  0.83397000  0.31663000  0.61817000  1.0 0.1109822517
H  H147  1  0.88043000  0.28578000  0.57750000  1.0 0.1194405644
H  H148  1  0.71534000  0.29457000  0.51380000  1.0 0.1109822517
H  H149  1  0.76585000  0.31246000  0.46459000  1.0 0.1299773855
H  H150  1  0.71108000  0.34530000  0.49701000  1.0 0.1484616126
H  H151  1  0.84676000  0.44342000  0.34318000  1.0 0.1299773855
H  H152  1  0.37537000  0.62307000  0.38298000  1.0 0.1109822517
H  H153  1  0.84714000  0.40467000  0.25363000  1.0 0.1194405644
H  H154  1  0.37662000  0.66042000  0.29269000  1.0 0.0990763368
H  H155  1  0.59901000  0.33779000  0.21428000  1.0 0.1109822517
H  H156  1  0.13297000  0.62835000  0.18725000  1.0 0.1194405644
H  H157  1  0.60755000  0.29316000  0.13042000  1.0 0.1484616126
H  H158  1  0.12934000  0.67429000  0.10469000  1.0 0.1396378998
H  H159  1  0.75481000  0.54969000  0.45535000  1.0 0.0919705493
H  H160  1  0.70336000  0.64389000  0.55393000  1.0 0.1299773855
H  H161  1  0.77557000  0.61308000  0.57699000  1.0 0.1396378998
H  H162  1  0.68550000  0.59574000  0.57627000  1.0 0.1299773855
H  H163  1  0.68928000  0.65299000  0.47220000  1.0 0.1396378998
H  H164  1  0.66138000  0.61128000  0.43540000  1.0 0.1109822517
H  H165  1  0.75127000  0.62873000  0.43511000  1.0 0.1396378998
H  H166  1  0.50346000  0.68912000  0.14443000  1.0 0.1109822517
H  H167  1  0.49020000  0.64896000  0.22994000  1.0 0.0990763368
H  H168  1  0.69863000  0.54821000  0.25538000  1.0 0.0990763368
H  H169  1  0.68179000  0.51073000  0.34497000  1.0 0.1109822517
H  H170  1  0.38506000  0.57643000  0.35114000  1.0 0.0990763368
H  H171  1  0.38449000  0.60616000  0.25649000  1.0 0.0919705493
H  H172  1  0.66944000  0.09311000  0.93449000  1.0 0.0990763368
H  H173  1  0.88862000  0.05322000  0.96929000  1.0 0.1299773855
H  H174  1  0.84862000  0.07959000  0.01764000  1.0 0.1484616126
H  H175  1  0.86819000  0.10415000  0.96138000  1.0 0.1299773855
H  H176  1  0.81718000  0.01736000  0.91114000  1.0 0.1299773855
H  H177  1  0.76276000  0.05094000  0.87398000  1.0 0.1109822517
H  H178  1  0.72214000  0.01661000  0.91355000  1.0 0.1299773855
H  H179  1  0.45486000  0.22955000  0.81124000  1.0 0.1194405644
H  H180  1  0.46504000  0.21783000  0.16230000  1.0 0.1396378998
H  H181  1  0.76510000  0.12126000  0.10600000  1.0 0.1396378998
H  H182  1  0.99557000  0.16732000  0.75360000  1.0 0.082504947
H  H183  1  0.46908000  0.19146000  0.72256000  1.0 0.1194405644
H  H184  1  0.46190000  0.18179000  0.25352000  1.0 0.1194405644
H  H185  1  0.77645000  0.08094000  0.19466000  1.0 0.1194405644
H  H186  1  0.36932000  0.14110000  0.05817000  1.0 0.0990763368
H  H187  1  0.74975000  0.09927000  0.70005000  1.0 0.0990763368
H  H188  1  0.64444000  0.07132000  0.76160000  1.0 0.1109822517
H  H189  1  0.67578000  0.08419000  0.27504000  1.0 0.1109822517
H  H190  1  0.98546000  0.14506000  0.30682000  1.0 0.1194405644
H  H191  1  0.76796000  0.05441000  0.61702000  1.0 0.1109822517
H  H192  1  0.47902000  0.05064000  0.09028000  1.0 0.1299773855
H  H193  1  0.38677000  0.06438000  0.08419000  1.0 0.1299773855
H  H194  1  0.44924000  0.09258000  0.12290000  1.0 0.1299773855
H  H195  1  0.54561000  0.06620000  0.02332000  1.0 0.1194405644
H  H196  1  0.55674000  0.11778000  0.01479000  1.0 0.1484616126
H  H197  1  0.49836000  0.09056000  0.97192000  1.0 0.1396378998
H  H198  1  0.65421000  0.03126000  0.67318000  1.0 0.1299773855
H  H199  1  0.65623000  0.03752000  0.35791000  1.0 0.1484616126
H  H200  1  0.01547000  0.10433000  0.39037000  1.0 0.1396378998
H  H201  1  0.59040000  0.86248000  0.44847000  1.0 0.0919705493
H  H202  1  0.71243000  0.77777000  0.41510000  1.0 0.1299773855
H  H203  1  0.66603000  0.81663000  0.38183000  1.0 0.1109822517
H  H204  1  0.61957000  0.78578000  0.42250000  1.0 0.1194405644
H  H205  1  0.78466000  0.79457000  0.48620000  1.0 0.1109822517
H  H206  1  0.73415000  0.81246000  0.53541000  1.0 0.1299773855
H  H207  1  0.78892000  0.84530000  0.50299000  1.0 0.1484616126
H  H208  1  0.65324000  0.94342000  0.65682000  1.0 0.1299773855
H  H209  1  0.12463000  0.12307000  0.61702000  1.0 0.1109822517
H  H210  1  0.65286000  0.90467000  0.74637000  1.0 0.1194405644
H  H211  1  0.12338000  0.16042000  0.70731000  1.0 0.0990763368
H  H212  1  0.90099000  0.83779000  0.78572000  1.0 0.1109822517
H  H213  1  0.36703000  0.12835000  0.81275000  1.0 0.1194405644
H  H214  1  0.89245000  0.79316000  0.86958000  1.0 0.1484616126
H  H215  1  0.37066000  0.17429000  0.89531000  1.0 0.1396378998
H  H216  1  0.74519000  0.04969000  0.54465000  1.0 0.0919705493
H  H217  1  0.79664000  0.14389000  0.44607000  1.0 0.1299773855
H  H218  1  0.72443000  0.11308000  0.42301000  1.0 0.1396378998
H  H219  1  0.81450000  0.09574000  0.42373000  1.0 0.1299773855
H  H220  1  0.81072000  0.15299000  0.52780000  1.0 0.1396378998
H  H221  1  0.83862000  0.11128000  0.56460000  1.0 0.1109822517
H  H222  1  0.74873000  0.12873000  0.56489000  1.0 0.1396378998
H  H223  1  0.99654000  0.18912000  0.85557000  1.0 0.1109822517
H  H224  1  0.00980000  0.14896000  0.77006000  1.0 0.0990763368
H  H225  1  0.80137000  0.04821000  0.74462000  1.0 0.0990763368
H  H226  1  0.81821000  0.01073000  0.65503000  1.0 0.1109822517
H  H227  1  0.11494000  0.07643000  0.64886000  1.0 0.0990763368
H  H228  1  0.11551000  0.10616000  0.74351000  1.0 0.0919705493
C  C1  1  0.21540000  0.40570000  0.96010000  1.0 0.1976227904
C  C2  1  0.35360000  0.31888000  0.91050000  1.0 0.5027800272
C  C3  1  0.03770000  0.30146000  0.91090000  1.0 0.6380031775
C  C4  1  0.08090000  0.30820000  0.08830000  1.0 0.6304828992
C  C5  1  0.37850000  0.31070000  0.08870000  1.0 0.6202631365
C  C6  1  0.37640000  0.33190000  0.85230000  1.0 -0.1110763505
C  C7  1  0.03280000  0.31390000  0.85100000  1.0 -0.1110763505
C  C8  1  0.05970000  0.32060000  0.14490000  1.0 -0.1295193345
C  C9  1  0.36220000  0.34220000  0.13290000  1.0 -0.1110763505
C  C10  1  0.35070000  0.42350000  0.97720000  1.0 -0.2975384225
C  C11  1  0.26880000  0.46460000  0.90980000  1.0 -0.3177847852
C  C12  1  0.44700000  0.32030000  0.83000000  1.0 -0.0274505191
C  C13  1  0.98770000  0.29550000  0.80760000  1.0 -0.1011802037
C  C14  1  0.00100000  0.30470000  0.17500000  1.0 -0.1110763505
C  C15  1  0.30500000  0.37310000  0.13530000  1.0 -0.1110763505
C  C16  1  0.45150000  0.33730000  0.77550000  1.0 -0.050757092
C  C17  1  0.38420000  0.36130000  0.75770000  1.0 -0.0024765127
C  C18  1  0.99530000  0.31750000  0.75710000  1.0 -0.2024277267
C  C19  1  0.04500000  0.35380000  0.76250000  1.0 -0.0024765127
C  C20  1  0.99960000  0.32530000  0.22730000  1.0 -0.188482571
C  C21  1  0.05730000  0.35630000  0.23670000  1.0 -0.0095965377
C  C22  1  0.31160000  0.39600000  0.18620000  1.0 -0.2024277267
C  C23  1  0.37210000  0.38230000  0.22200000  1.0 -0.0095965377
C  C24  1  0.36880000  0.38410000  0.70500000  1.0 -0.0024765127
C  C25  1  0.91090000  0.36270000  0.03380000  1.0 0.2585476706
C  C26  1  0.06520000  0.38530000  0.72080000  1.0 -0.0024765127
C  C27  1  0.07000000  0.38560000  0.28430000  1.0 -0.0095965377
C  C28  1  0.39990000  0.39680000  0.27830000  1.0 -0.0095965377
C  C29  1  0.29950000  0.40380000  0.68390000  1.0 -0.1295193345
C  C30  1  0.11590000  0.42090000  0.72740000  1.0 -0.2024277267
C  C31  1  0.13050000  0.41370000  0.29640000  1.0 -0.188482571
C  C32  1  0.45720000  0.38090000  0.31480000  1.0 -0.188482571
C  C33  1  0.30970000  0.42910000  0.63580000  1.0 -0.0829131972
C  C34  1  0.38390000  0.42740000  0.61930000  1.0 0.0298413054
C  C35  1  0.94170000  0.42460000  0.08850000  1.0 -0.3108227226
C  C36  1  0.01870000  0.40660000  0.01110000  1.0 -0.2871279349
C  C37  1  0.12000000  0.44430000  0.67680000  1.0 -0.1110763505
C  C38  1  0.07040000  0.42850000  0.63360000  1.0 -0.1110763505
C  C39  1  0.12010000  0.44020000  0.34480000  1.0 -0.1011802037
C  C40  1  0.05380000  0.42970000  0.36900000  1.0 -0.1110763505
C  C41  1  0.47350000  0.40290000  0.36320000  1.0 -0.1011802037
C  C42  1  0.42090000  0.43710000  0.36750000  1.0 -0.1353383292
C  C43  1  0.42050000  0.45300000  0.57500000  1.0 0.1779400702
C  C44  1  0.05410000  0.44700000  0.57710000  1.0 0.6497421334
C  C45  1  0.01830000  0.45030000  0.41730000  1.0 0.6497421334
C  C46  1  0.41850000  0.46690000  0.41430000  1.0 0.5948409508
C  C47  1  0.13980000  0.63830000  0.47050000  1.0 0.274244832
C  C48  1  0.28270000  0.56417000  0.58970000  1.0 0.6380031775
C  C49  1  0.75680000  0.43030000  0.59320000  1.0 0.6202631365
C  C50  1  0.26330000  0.58170000  0.64460000  1.0 -0.1110763505
C  C51  1  0.73500000  0.40850000  0.64500000  1.0 -0.0685113077
C  C52  1  0.17070000  0.69990000  0.41690000  1.0 -0.3108227226
C  C53  1  0.25420000  0.68050000  0.49920000  1.0 -0.2796001109
C  C54  1  0.19590000  0.57470000  0.67120000  1.0 -0.1110763505
C  C55  1  0.66450000  0.38040000  0.64690000  1.0 -0.0604541157
C  C56  1  0.19550000  0.59720000  0.72260000  1.0 -0.2024277267
C  C57  1  0.26190000  0.62170000  0.73480000  1.0 0.0020132449
C  C58  1  0.66380000  0.35960000  0.69820000  1.0 -0.09046926
C  C59  1  0.73250000  0.37170000  0.73720000  1.0 0.0209884448
C  C60  1  0.28050000  0.64910000  0.78370000  1.0 -0.0199423626
C  C61  1  0.75260000  0.35170000  0.79120000  1.0 -0.0274505191
C  C62  1  0.35280000  0.66666667  0.80330000  1.0 -0.1843333025
C  C63  1  0.82330000  0.35420000  0.82240000  1.0 -0.1614262317
C  C64  1  0.34810000  0.69190000  0.85160000  1.0 -0.09046926
C  C65  1  0.27360000  0.69290000  0.87000000  1.0 -0.1202780356
C  C66  1  0.82460000  0.32830000  0.87000000  1.0 -0.09046926
C  C67  1  0.75670000  0.30740000  0.87760000  1.0 -0.09046926
C  C68  1  0.24420000  0.71723000  0.91790000  1.0 0.6304828992
C  C69  1  0.74020000  0.27656000  0.92260000  1.0 0.6202631365
C  C70  1  0.24540000  0.44490000  0.50570000  1.0 0.3058481286
C  C71  1  0.27710000  0.38640000  0.44350000  1.0 -0.2796001109
C  C72  1  0.29410000  0.37540000  0.54190000  1.0 -0.3574832658
C  C73  1  0.38590000  0.33620000  0.86140000  1.0 -0.1202780356
C  C74  1  0.45610000  0.32960000  0.83930000  1.0 -0.0199423626
C  C75  1  0.46370000  0.35300000  0.79060000  1.0 -0.0829131972
C  C76  1  0.40170000  0.37830000  0.77470000  1.0 -0.0413286709
C  C77  1  0.38810000  0.40550000  0.72590000  1.0 0.0209884448
C  C78  1  0.33730000  0.44240000  0.71830000  1.0 -0.1614262317
C  C79  1  0.34660000  0.46360000  0.66680000  1.0 -0.1011802037
C  C80  1  0.40270000  0.44250000  0.63480000  1.0 0.0298413054
C  C81  1  0.43400000  0.45610000  0.58290000  1.0 0.1484616126
C  C82  1  0.66070000  0.41070000  0.66790000  1.0 -0.0274505191
C  C83  1  0.65980000  0.39240000  0.72110000  1.0 -0.09046926
C  C84  1  0.28460000  0.90570000  0.03990000  1.0 0.1976227904
C  C85  1  0.14640000  0.81888000  0.08950000  1.0 0.5027800272
C  C86  1  0.46230000  0.80146000  0.08910000  1.0 0.6380031775
C  C87  1  0.41910000  0.80820000  0.91170000  1.0 0.6202631365
C  C88  1  0.12150000  0.81070000  0.91130000  1.0 0.6202631365
C  C89  1  0.12360000  0.83190000  0.14770000  1.0 -0.1202780356
C  C90  1  0.46720000  0.81390000  0.14900000  1.0 -0.1110763505
C  C91  1  0.44030000  0.82060000  0.85510000  1.0 -0.1295193345
C  C92  1  0.13780000  0.84220000  0.86710000  1.0 -0.1110763505
C  C93  1  0.14930000  0.92350000  0.02280000  1.0 -0.2975384225
C  C94  1  0.23120000  0.96460000  0.09020000  1.0 -0.3177847852
C  C95  1  0.05300000  0.82030000  0.17000000  1.0 -0.0274505191
C  C96  1  0.51230000  0.79550000  0.19240000  1.0 -0.1011802037
C  C97  1  0.49900000  0.80470000  0.82500000  1.0 -0.1110763505
C  C98  1  0.19500000  0.87310000  0.86470000  1.0 -0.1110763505
C  C99  1  0.04850000  0.83730000  0.22450000  1.0 -0.050757092
C  C100  1  0.11580000  0.86130000  0.24230000  1.0 -0.0024765127
C  C101  1  0.50470000  0.81750000  0.24290000  1.0 -0.2024277267
C  C102  1  0.45500000  0.85380000  0.23750000  1.0 -0.0024765127
C  C103  1  0.50040000  0.82530000  0.77270000  1.0 -0.188482571
C  C104  1  0.44270000  0.85630000  0.76330000  1.0 -0.0095965377
C  C105  1  0.18840000  0.89600000  0.81380000  1.0 -0.2024277267
C  C106  1  0.12790000  0.88230000  0.77800000  1.0 -0.0095965377
C  C107  1  0.13120000  0.88410000  0.29500000  1.0 -0.0024765127
C  C108  1  0.58910000  0.86270000  0.96620000  1.0 0.2585476706
C  C109  1  0.43480000  0.88530000  0.27920000  1.0 -0.0095965377
C  C110  1  0.43000000  0.88560000  0.71570000  1.0 -0.0095965377
C  C111  1  0.10010000  0.89680000  0.72170000  1.0 -0.0095965377
C  C112  1  0.20050000  0.90380000  0.31610000  1.0 -0.1295193345
C  C113  1  0.38410000  0.92090000  0.27260000  1.0 -0.2024277267
C  C114  1  0.36950000  0.91370000  0.70360000  1.0 -0.188482571
C  C115  1  0.04280000  0.88090000  0.68520000  1.0 -0.188482571
C  C116  1  0.19030000  0.92910000  0.36420000  1.0 -0.0829131972
C  C117  1  0.11610000  0.92740000  0.38070000  1.0 0.0298413054
C  C118  1  0.55830000  0.92460000  0.91150000  1.0 -0.3108227226
C  C119  1  0.48130000  0.90660000  0.98890000  1.0 -0.2871279349
C  C120  1  0.38000000  0.94430000  0.32320000  1.0 -0.1110763505
C  C121  1  0.42960000  0.92850000  0.36640000  1.0 -0.1110763505
C  C122  1  0.37990000  0.94020000  0.65520000  1.0 -0.1011802037
C  C123  1  0.44620000  0.92970000  0.63100000  1.0 -0.1110763505
C  C124  1  0.02650000  0.90290000  0.63680000  1.0 -0.1011802037
C  C125  1  0.07910000  0.93710000  0.63250000  1.0 -0.1353383292
C  C126  1  0.07950000  0.95300000  0.42500000  1.0 0.1779400702
C  C127  1  0.44590000  0.94700000  0.42290000  1.0 0.6497421334
C  C128  1  0.48170000  0.95030000  0.58270000  1.0 0.6497421334
C  C129  1  0.08150000  0.96690000  0.58570000  1.0 0.5948409508
C  C130  1  0.36020000  0.13830000  0.52950000  1.0 0.274244832
C  C131  1  0.21730000  0.06417000  0.41030000  1.0 0.6380031775
C  C132  1  0.74320000  0.93030000  0.40680000  1.0 0.6202631365
C  C133  1  0.23670000  0.08170000  0.35540000  1.0 -0.1110763505
C  C134  1  0.76500000  0.90850000  0.35500000  1.0 -0.0685113077
C  C135  1  0.32930000  0.19990000  0.58310000  1.0 -0.3108227226
C  C136  1  0.24580000  0.18050000  0.50080000  1.0 -0.2796001109
C  C137  1  0.30410000  0.07470000  0.32880000  1.0 -0.1110763505
C  C138  1  0.83550000  0.88040000  0.35310000  1.0 -0.0604541157
C  C139  1  0.30450000  0.09720000  0.27740000  1.0 -0.2024277267
C  C140  1  0.23810000  0.12170000  0.26520000  1.0 0.0056041493
C  C141  1  0.83620000  0.85960000  0.30180000  1.0 -0.09046926
C  C142  1  0.76750000  0.87170000  0.26280000  1.0 0.0209884448
C  C143  1  0.21950000  0.14910000  0.21630000  1.0 -0.0199423626
C  C144  1  0.74740000  0.85170000  0.20880000  1.0 -0.0274505191
C  C145  1  0.14720000  0.16667000  0.19670000  1.0 -0.188482571
C  C146  1  0.67670000  0.85420000  0.17760000  1.0 -0.1614262317
C  C147  1  0.15190000  0.19190000  0.14840000  1.0 -0.09046926
C  C148  1  0.22640000  0.19290000  0.13000000  1.0 -0.1202780356
C  C149  1  0.67540000  0.82830000  0.13000000  1.0 -0.09046926
C  C150  1  0.74330000  0.80740000  0.12240000  1.0 -0.09046926
C  C151  1  0.25580000  0.21723000  0.08210000  1.0 0.6304828992
C  C152  1  0.75980000  0.77656000  0.07740000  1.0 0.6202631365
C  C153  1  0.25460000  0.94490000  0.49430000  1.0 0.3039672445
C  C154  1  0.22290000  0.88640000  0.55650000  1.0 -0.2871279349
C  C155  1  0.20590000  0.87540000  0.45810000  1.0 -0.3574832658
C  C156  1  0.11410000  0.83620000  0.13860000  1.0 -0.1202780356
C  C157  1  0.04390000  0.82960000  0.16070000  1.0 -0.0199423626
C  C158  1  0.03630000  0.85300000  0.20940000  1.0 -0.0829131972
C  C159  1  0.09830000  0.87830000  0.22530000  1.0 -0.0413286709
C  C160  1  0.11190000  0.90550000  0.27410000  1.0 0.0209884448
C  C161  1  0.16270000  0.94240000  0.28170000  1.0 -0.1614262317
C  C162  1  0.15340000  0.96360000  0.33320000  1.0 -0.1011802037
C  C163  1  0.09730000  0.94250000  0.36520000  1.0 0.0298413054
C  C164  1  0.06600000  0.95610000  0.41710000  1.0 0.1484616126
C  C165  1  0.83930000  0.91070000  0.33210000  1.0 -0.0274505191
C  C166  1  0.84020000  0.89240000  0.27890000  1.0 -0.09046926
C  C167  1  0.78460000  0.59430000  0.03990000  1.0 0.1976227904
C  C168  1  0.64640000  0.68112000  0.08950000  1.0 0.5027800272
C  C169  1  0.96230000  0.69854000  0.08910000  1.0 0.6380031775
C  C170  1  0.91910000  0.69180000  0.91170000  1.0 0.6202631365
C  C171  1  0.62150000  0.68930000  0.91130000  1.0 0.6202631365
C  C172  1  0.62360000  0.66810000  0.14770000  1.0 -0.1202780356
C  C173  1  0.96720000  0.68610000  0.14900000  1.0 -0.1110763505
C  C174  1  0.94030000  0.67940000  0.85510000  1.0 -0.1295193345
C  C175  1  0.63780000  0.65780000  0.86710000  1.0 -0.1110763505
C  C176  1  0.64930000  0.57650000  0.02280000  1.0 -0.2975384225
C  C177  1  0.73120000  0.53540000  0.09020000  1.0 -0.3177847852
C  C178  1  0.55300000  0.67970000  0.17000000  1.0 -0.0274505191
C  C179  1  0.01230000  0.70450000  0.19240000  1.0 -0.1011802037
C  C180  1  0.99900000  0.69530000  0.82500000  1.0 -0.1110763505
C  C181  1  0.69500000  0.62690000  0.86470000  1.0 -0.1110763505
C  C182  1  0.54850000  0.66270000  0.22450000  1.0 -0.050757092
C  C183  1  0.61580000  0.63870000  0.24230000  1.0 0.0020132449
C  C184  1  0.00470000  0.68250000  0.24290000  1.0 -0.2024277267
C  C185  1  0.95500000  0.64620000  0.23750000  1.0 -0.0024765127
C  C186  1  0.00040000  0.67470000  0.77270000  1.0 -0.188482571
C  C187  1  0.94270000  0.64370000  0.76330000  1.0 -0.0095965377
C  C188  1  0.68840000  0.60400000  0.81380000  1.0 -0.2024277267
C  C189  1  0.62790000  0.61770000  0.77800000  1.0 -0.0095965377
C  C190  1  0.63120000  0.61590000  0.29500000  1.0 -0.0024765127
C  C191  1  0.08910000  0.63730000  0.96620000  1.0 0.2585476706
C  C192  1  0.93480000  0.61470000  0.27920000  1.0 -0.0095965377
C  C193  1  0.93000000  0.61440000  0.71570000  1.0 -0.0095965377
C  C194  1  0.60010000  0.60320000  0.72170000  1.0 -0.0095965377
C  C195  1  0.70050000  0.59620000  0.31610000  1.0 -0.1295193345
C  C196  1  0.88410000  0.57910000  0.27260000  1.0 -0.2024277267
C  C197  1  0.86950000  0.58630000  0.70360000  1.0 -0.188482571
C  C198  1  0.54280000  0.61910000  0.68520000  1.0 -0.188482571
C  C199  1  0.69030000  0.57090000  0.36420000  1.0 -0.0829131972
C  C200  1  0.61610000  0.57260000  0.38070000  1.0 0.0298413054
C  C201  1  0.05830000  0.57540000  0.91150000  1.0 -0.3177847852
C  C202  1  0.98130000  0.59340000  0.98890000  1.0 -0.2871279349
C  C203  1  0.88000000  0.55570000  0.32320000  1.0 -0.1110763505
C  C204  1  0.92960000  0.57150000  0.36640000  1.0 -0.1110763505
C  C205  1  0.87990000  0.55980000  0.65520000  1.0 -0.1011802037
C  C206  1  0.94620000  0.57030000  0.63100000  1.0 -0.1110763505
C  C207  1  0.52650000  0.59710000  0.63680000  1.0 -0.1011802037
C  C208  1  0.57910000  0.56290000  0.63250000  1.0 -0.1353383292
C  C209  1  0.57950000  0.54700000  0.42500000  1.0 0.1779400702
C  C210  1  0.94590000  0.55300000  0.42290000  1.0 0.6497421334
C  C211  1  0.98170000  0.54970000  0.58270000  1.0 0.6497421334
C  C212  1  0.58150000  0.53310000  0.58570000  1.0 0.5948409508
C  C213  1  0.86020000  0.36170000  0.52950000  1.0 0.274244832
C  C214  1  0.71730000  0.43583000  0.41030000  1.0 0.6380031775
C  C215  1  0.24320000  0.56970000  0.40680000  1.0 0.6202631365
C  C216  1  0.73670000  0.41830000  0.35540000  1.0 -0.1110763505
C  C217  1  0.26500000  0.59150000  0.35500000  1.0 -0.0685113077
C  C218  1  0.82930000  0.30010000  0.58310000  1.0 -0.3108227226
C  C219  1  0.74580000  0.31950000  0.50080000  1.0 -0.2796001109
C  C220  1  0.80410000  0.42530000  0.32880000  1.0 -0.1110763505
C  C221  1  0.33550000  0.61960000  0.35310000  1.0 -0.0604541157
C  C222  1  0.80450000  0.40280000  0.27740000  1.0 -0.2024277267
C  C223  1  0.73810000  0.37830000  0.26520000  1.0 0.0056041493
C  C224  1  0.33620000  0.64040000  0.30180000  1.0 -0.09046926
C  C225  1  0.26750000  0.62830000  0.26280000  1.0 0.0209884448
C  C226  1  0.71950000  0.35090000  0.21630000  1.0 -0.0199423626
C  C227  1  0.24740000  0.64830000  0.20880000  1.0 -0.0274505191
C  C228  1  0.64720000  0.33333333  0.19670000  1.0 -0.1843333025
C  C229  1  0.17670000  0.64580000  0.17760000  1.0 -0.1614262317
C  C230  1  0.65190000  0.30810000  0.14840000  1.0 -0.09046926
C  C231  1  0.72640000  0.30710000  0.13000000  1.0 -0.1202780356
C  C232  1  0.17540000  0.67170000  0.13000000  1.0 -0.0829131972
C  C233  1  0.24330000  0.69260000  0.12240000  1.0 -0.09046926
C  C234  1  0.75580000  0.28277000  0.08210000  1.0 0.6304828992
C  C235  1  0.25980000  0.72344000  0.07740000  1.0 0.6202631365
C  C236  1  0.75460000  0.55510000  0.49430000  1.0 0.3039672445
C  C237  1  0.72290000  0.61360000  0.55650000  1.0 -0.2796001109
C  C238  1  0.70590000  0.62460000  0.45810000  1.0 -0.3574832658
C  C239  1  0.61410000  0.66380000  0.13860000  1.0 -0.1202780356
C  C240  1  0.54390000  0.67040000  0.16070000  1.0 -0.0199423626
C  C241  1  0.53630000  0.64700000  0.20940000  1.0 -0.0829131972
C  C242  1  0.59830000  0.62170000  0.22530000  1.0 -0.0413286709
C  C243  1  0.61190000  0.59450000  0.27410000  1.0 0.0209884448
C  C244  1  0.66270000  0.55760000  0.28170000  1.0 -0.1614262317
C  C245  1  0.65340000  0.53640000  0.33320000  1.0 -0.1011802037
C  C246  1  0.59730000  0.55750000  0.36520000  1.0 0.0298413054
C  C247  1  0.56600000  0.54390000  0.41710000  1.0 0.1484616126
C  C248  1  0.33930000  0.58930000  0.33210000  1.0 -0.0274505191
C  C249  1  0.34020000  0.60760000  0.27890000  1.0 -0.09046926
C  C250  1  0.71540000  0.09430000  0.96010000  1.0 0.1976227904
C  C251  1  0.85360000  0.18112000  0.91050000  1.0 0.5027800272
C  C252  1  0.53770000  0.19854000  0.91090000  1.0 0.6380031775
C  C253  1  0.58090000  0.19180000  0.08830000  1.0 0.6304828992
C  C254  1  0.87850000  0.18930000  0.08870000  1.0 0.6202631365
C  C255  1  0.87640000  0.16810000  0.85230000  1.0 -0.1110763505
C  C256  1  0.53280000  0.18610000  0.85100000  1.0 -0.1110763505
C  C257  1  0.55970000  0.17940000  0.14490000  1.0 -0.1295193345
C  C258  1  0.86220000  0.15780000  0.13290000  1.0 -0.1110763505
C  C259  1  0.85070000  0.07650000  0.97720000  1.0 -0.2975384225
C  C260  1  0.76880000  0.03540000  0.90980000  1.0 -0.3177847852
C  C261  1  0.94700000  0.17970000  0.83000000  1.0 -0.0274505191
C  C262  1  0.48770000  0.20450000  0.80760000  1.0 -0.1011802037
C  C263  1  0.50100000  0.19530000  0.17500000  1.0 -0.1110763505
C  C264  1  0.80500000  0.12690000  0.13530000  1.0 -0.1110763505
C  C265  1  0.95150000  0.16270000  0.77550000  1.0 -0.050757092
C  C266  1  0.88420000  0.13870000  0.75770000  1.0 0.0020132449
C  C267  1  0.49530000  0.18250000  0.75710000  1.0 -0.2024277267
C  C268  1  0.54500000  0.14620000  0.76250000  1.0 0.0020132449
C  C269  1  0.49960000  0.17470000  0.22730000  1.0 -0.188482571
C  C270  1  0.55730000  0.14370000  0.23670000  1.0 -0.0095965377
C  C271  1  0.81160000  0.10400000  0.18620000  1.0 -0.2024277267
C  C272  1  0.87210000  0.11770000  0.22200000  1.0 -0.0095965377
C  C273  1  0.86880000  0.11590000  0.70500000  1.0 -0.0024765127
C  C274  1  0.41090000  0.13730000  0.03380000  1.0 0.2585476706
C  C275  1  0.56520000  0.11470000  0.72080000  1.0 -0.0024765127
C  C276  1  0.57000000  0.11440000  0.28430000  1.0 -0.0095965377
C  C277  1  0.89990000  0.10320000  0.27830000  1.0 -0.0095965377
C  C278  1  0.79950000  0.09620000  0.68390000  1.0 -0.1295193345
C  C279  1  0.61590000  0.07910000  0.72740000  1.0 -0.2024277267
C  C280  1  0.63050000  0.08630000  0.29640000  1.0 -0.188482571
C  C281  1  0.95720000  0.11910000  0.31480000  1.0 -0.188482571
C  C282  1  0.80970000  0.07090000  0.63580000  1.0 -0.0829131972
C  C283  1  0.88390000  0.07260000  0.61930000  1.0 0.0298413054
C  C284  1  0.44170000  0.07540000  0.08850000  1.0 -0.3108227226
C  C285  1  0.51870000  0.09340000  0.01110000  1.0 -0.2871279349
C  C286  1  0.62000000  0.05570000  0.67680000  1.0 -0.1110763505
C  C287  1  0.57040000  0.07150000  0.63360000  1.0 -0.1110763505
C  C288  1  0.62010000  0.05980000  0.34480000  1.0 -0.1011802037
C  C289  1  0.55380000  0.07030000  0.36900000  1.0 -0.1110763505
C  C290  1  0.97350000  0.09710000  0.36320000  1.0 -0.1011802037
C  C291  1  0.92090000  0.06290000  0.36750000  1.0 -0.1353383292
C  C292  1  0.92050000  0.04700000  0.57500000  1.0 0.1779400702
C  C293  1  0.55410000  0.05300000  0.57710000  1.0 0.6497421334
C  C294  1  0.51830000  0.04970000  0.41730000  1.0 0.6497421334
C  C295  1  0.91850000  0.03310000  0.41430000  1.0 0.5948409508
C  C296  1  0.63980000  0.86170000  0.47050000  1.0 0.2789501022
C  C297  1  0.78270000  0.93583000  0.58970000  1.0 0.6380031775
C  C298  1  0.25680000  0.06970000  0.59320000  1.0 0.6202631365
C  C299  1  0.76330000  0.91830000  0.64460000  1.0 -0.1110763505
C  C300  1  0.23500000  0.09150000  0.64500000  1.0 -0.0685113077
C  C301  1  0.67070000  0.80010000  0.41690000  1.0 -0.3108227226
C  C302  1  0.75420000  0.81950000  0.49920000  1.0 -0.2796001109
C  C303  1  0.69590000  0.92530000  0.67120000  1.0 -0.1110763505
C  C304  1  0.16450000  0.11960000  0.64690000  1.0 -0.0604541157
C  C305  1  0.69550000  0.90280000  0.72260000  1.0 -0.2024277267
C  C306  1  0.76190000  0.87830000  0.73480000  1.0 0.0056041493
C  C307  1  0.16380000  0.14040000  0.69820000  1.0 -0.09046926
C  C308  1  0.23250000  0.12830000  0.73720000  1.0 0.0209884448
C  C309  1  0.78050000  0.85090000  0.78370000  1.0 -0.0199423626
C  C310  1  0.25260000  0.14830000  0.79120000  1.0 -0.0274505191
C  C311  1  0.85280000  0.83333000  0.80330000  1.0 -0.1843333025
C  C312  1  0.32330000  0.14580000  0.82240000  1.0 -0.1614262317
C  C313  1  0.84810000  0.80810000  0.85160000  1.0 -0.09046926
C  C314  1  0.77360000  0.80710000  0.87000000  1.0 -0.1202780356
C  C315  1  0.32460000  0.17170000  0.87000000  1.0 -0.09046926
C  C316  1  0.25670000  0.19260000  0.87760000  1.0 -0.09046926
C  C317  1  0.74420000  0.78277000  0.91790000  1.0 0.6304828992
C  C318  1  0.24020000  0.22344000  0.92260000  1.0 0.6202631365
C  C319  1  0.74540000  0.05510000  0.50570000  1.0 0.3058481286
C  C320  1  0.77710000  0.11360000  0.44350000  1.0 -0.2796001109
C  C321  1  0.79410000  0.12460000  0.54190000  1.0 -0.3574832658
C  C322  1  0.88590000  0.16380000  0.86140000  1.0 -0.1202780356
C  C323  1  0.95610000  0.17040000  0.83930000  1.0 -0.0199423626
C  C324  1  0.96370000  0.14700000  0.79060000  1.0 -0.0829131972
C  C325  1  0.90170000  0.12170000  0.77470000  1.0 -0.0413286709
C  C326  1  0.88810000  0.09450000  0.72590000  1.0 0.0209884448
C  C327  1  0.83730000  0.05760000  0.71830000  1.0 -0.1614262317
C  C328  1  0.84660000  0.03640000  0.66680000  1.0 -0.1011802037
C  C329  1  0.90270000  0.05750000  0.63480000  1.0 0.0298413054
C  C330  1  0.93400000  0.04390000  0.58290000  1.0 0.1484616126
C  C331  1  0.16070000  0.08930000  0.66790000  1.0 -0.0274505191
C  C332  1  0.15980000  0.10760000  0.72110000  1.0 -0.09046926
S  S1  1  0.31430000  0.36010000  0.80660000  1.0 0.1109822517
S  S2  1  0.08455000  0.35894000  0.83004000  1.0 0.0725162447
S  S3  1  0.11336000  0.36143000  0.18027000  1.0 0.1484616126
S  S4  1  0.42444000  0.34012000  0.19348000  1.0 0.1396378998
S  S5  1  0.44530000  0.39940000  0.66666667  1.0 0.0594694714
S  S6  1  0.01596000  0.38480000  0.65507000  1.0 0.1109822517
S  S7  1  0.00149000  0.38931000  0.33281000  1.0 0.1587983663
S  S8  1  0.35521000  0.44044000  0.30919000  1.0 0.1299773855
S  S9  1  0.32637000  0.61709000  0.68253000  1.0 0.1484616126
S  S10  1  0.80170000  0.39542000  0.69887000  1.0 0.0430733473
S  S11  1  0.20689000  0.66380000  0.82611000  1.0 0.0919705493
S  S12  1  0.68725000  0.31928000  0.82397000  1.0 0.0594694714
S  S13  1  0.32790000  0.37380000  0.82110000  1.0 0.0990763368
S  S14  1  0.45580000  0.40360000  0.67450000  1.0 0.0056041493
S  S15  1  0.18570000  0.86010000  0.19340000  1.0 0.1109822517
S  S16  1  0.41545000  0.85894000  0.16996000  1.0 0.082504947
S  S17  1  0.38664000  0.86143000  0.81973000  1.0 0.1396378998
S  S18  1  0.07556000  0.84012000  0.80652000  1.0 0.1396378998
S  S19  1  0.05470000  0.89940000  0.33340000  1.0 0.0594694714
S  S20  1  0.48404000  0.88480000  0.34493000  1.0 0.1109822517
S  S21  1  0.49851000  0.88931000  0.66719000  1.0 0.1587983663
S  S22  1  0.14479000  0.94044000  0.69081000  1.0 0.1299773855
S  S23  1  0.17363000  0.11709000  0.31747000  1.0 0.1484616126
S  S24  1  0.69830000  0.89542000  0.30113000  1.0 0.0430733473
S  S25  1  0.29311000  0.16380000  0.17389000  1.0 0.0919705493
S  S26  1  0.81275000  0.81928000  0.17603000  1.0 0.0534724973
S  S27  1  0.17210000  0.87380000  0.17890000  1.0 0.0990763368
S  S28  1  0.04420000  0.90360000  0.32550000  1.0 0.0020132449
S  S29  1  0.68570000  0.63990000  0.19340000  1.0 0.1109822517
S  S30  1  0.91545000  0.64106000  0.16996000  1.0 0.0725162447
S  S31  1  0.88664000  0.63857000  0.81973000  1.0 0.1484616126
S  S32  1  0.57556000  0.65988000  0.80652000  1.0 0.1396378998
S  S33  1  0.55470000  0.60060000  0.33340000  1.0 0.0594694714
S  S34  1  0.98404000  0.61520000  0.34493000  1.0 0.1109822517
S  S35  1  0.99851000  0.61069000  0.66719000  1.0 0.1587983663
S  S36  1  0.64479000  0.55956000  0.69081000  1.0 0.1299773855
S  S37  1  0.67363000  0.38291000  0.31747000  1.0 0.1484616126
S  S38  1  0.19830000  0.60458000  0.30113000  1.0 0.0430733473
S  S39  1  0.79311000  0.33620000  0.17389000  1.0 0.0919705493
S  S40  1  0.31275000  0.68072000  0.17603000  1.0 0.0534724973
S  S41  1  0.67210000  0.62620000  0.17890000  1.0 0.0990763368
S  S42  1  0.54420000  0.59640000  0.32550000  1.0 0.0020132449
S  S43  1  0.81430000  0.13990000  0.80660000  1.0 0.1109822517
S  S44  1  0.58455000  0.14106000  0.83004000  1.0 0.0725162447
S  S45  1  0.61336000  0.13857000  0.18027000  1.0 0.1396378998
S  S46  1  0.92444000  0.15988000  0.19348000  1.0 0.1396378998
S  S47  1  0.94530000  0.10060000  0.66666667  1.0 0.0594694714
S  S48  1  0.51596000  0.11520000  0.65507000  1.0 0.1109822517
S  S49  1  0.50149000  0.11069000  0.33281000  1.0 0.1587983663
S  S50  1  0.85521000  0.05956000  0.30919000  1.0 0.1299773855
S  S51  1  0.82637000  0.88291000  0.68253000  1.0 0.1484616126
S  S52  1  0.30170000  0.10458000  0.69887000  1.0 0.0430733473
S  S53  1  0.70689000  0.83620000  0.82611000  1.0 0.0919705493
S  S54  1  0.18725000  0.18072000  0.82397000  1.0 0.0534724973
S  S55  1  0.82790000  0.12620000  0.82110000  1.0 0.0990763368
S  S56  1  0.95580000  0.09640000  0.67450000  1.0 0.0056041493
N  N1  1  0.27480000  0.43440000  0.95310000  1.0 0.0298413054
N  N2  1  0.95600000  0.39860000  0.04360000  1.0 0.0430733473
N  N3  1  0.19030000  0.67180000  0.46080000  1.0 -0.0024765127
N  N4  1  0.27130000  0.40310000  0.49680000  1.0 0.0298413054
N  N5  1  0.22520000  0.93440000  0.04690000  1.0 0.0209884448
N  N6  1  0.54400000  0.89860000  0.95640000  1.0 0.0430733473
N  N7  1  0.30970000  0.17180000  0.53920000  1.0 0.0020132449
N  N8  1  0.22870000  0.90310000  0.50320000  1.0 0.0298413054
N  N9  1  0.72520000  0.56560000  0.04690000  1.0 0.0209884448
N  N10  1  0.04400000  0.60140000  0.95640000  1.0 0.0430733473
N  N11  1  0.80970000  0.32820000  0.53920000  1.0 0.0020132449
N  N12  1  0.72870000  0.59690000  0.50320000  1.0 0.0298413054
N  N13  1  0.77480000  0.06560000  0.95310000  1.0 0.0209884448
N  N14  1  0.45600000  0.10140000  0.04360000  1.0 0.0430733473
N  N15  1  0.69030000  0.82820000  0.46080000  1.0 -0.0024765127
N  N16  1  0.77130000  0.09690000  0.49680000  1.0 0.0298413054
O  O1  1  0.21680000  0.37922000  0.99601000  1.0 -0.4563502898
O  O2  1  0.28120000  0.32305000  0.91790000  1.0 -0.6385365854
O  O3  1  0.09120000  0.32048000  0.94167000  1.0 -0.6923669209
O  O4  1  0.14420000  0.32405000  0.07201000  1.0 -0.6385365854
O  O5  1  0.32790000  0.30725000  0.04651000  1.0 -0.7514148732
O  O6  1  0.20280000  0.23760000  0.05176000  1.0 -0.6199518894
O  O7  1  0.29730000  0.23528000  0.95650000  1.0 -0.7403685977
O  O8  1  0.17110000  0.23935000  0.92507000  1.0 -0.5685359766
O  O9  1  0.40720000  0.30282000  0.94423000  1.0 -0.5780372252
O  O10  1  0.98810000  0.27497000  0.92611000  1.0 -0.6006585339
O  O11  1  0.03490000  0.28343000  0.06026000  1.0 -0.6385365854
O  O12  1  0.44140000  0.28905000  0.09279000  1.0 -0.5685359766
O  O13  1  0.04890000  0.20694000  0.00323000  1.0 -0.0413286709
O  O14  1  0.91470000  0.33502000  0.99952000  1.0 -0.4738488276
O  O15  1  0.82930000  0.28386000  0.07587000  1.0 -0.6734957625
O  O16  1  0.49670000  0.44417000  0.57109000  1.0 -0.3574832658
O  O17  1  0.38190000  0.47928000  0.54776000  1.0 -0.3574832658
O  O18  1  0.99330000  0.43307000  0.54946000  1.0 -0.6544343759
O  O19  1  0.10250000  0.47540000  0.56280000  1.0 -0.6593188812
O  O20  1  0.95200000  0.43605000  0.42964000  1.0 -0.6199518894
O  O21  1  0.05750000  0.48044000  0.44185000  1.0 -0.6923669209
O  O22  1  0.47320000  0.46727000  0.45217000  1.0 -0.6923669209
O  O23  1  0.36010000  0.49346000  0.41496000  1.0 -0.6006585339
O  O24  1  0.22330000  0.47632000  0.48058000  1.0 -0.4502430091
O  O25  1  0.15110000  0.61034000  0.50320000  1.0 -0.4502430091
O  O26  1  0.23140000  0.54066000  0.56352000  1.0 -0.6803918858
O  O27  1  0.17500000  0.55361000  0.40846000  1.0 -0.6120412802
O  O28  1  0.55820000  0.38167000  0.50060000  1.0 -0.6006585339
O  O29  1  0.70390000  0.42907000  0.55280000  1.0 -0.6803918858
O  O30  1  0.64920000  0.42811000  0.42595000  1.0 -0.6120412802
O  O31  1  0.28320000  0.87922000  0.00399000  1.0 -0.4563502898
O  O32  1  0.21880000  0.82305000  0.08210000  1.0 -0.6385365854
O  O33  1  0.40880000  0.82048000  0.05833000  1.0 -0.6923669209
O  O34  1  0.35580000  0.82405000  0.92799000  1.0 -0.6385365854
O  O35  1  0.17210000  0.80725000  0.95349000  1.0 -0.7514148732
O  O36  1  0.29720000  0.73760000  0.94824000  1.0 -0.6199518894
O  O37  1  0.20270000  0.73528000  0.04350000  1.0 -0.7403685977
O  O38  1  0.32890000  0.73935000  0.07493000  1.0 -0.5685359766
O  O39  1  0.09280000  0.80282000  0.05577000  1.0 -0.5780372252
O  O40  1  0.51190000  0.77497000  0.07389000  1.0 -0.6006585339
O  O41  1  0.46510000  0.78343000  0.93974000  1.0 -0.6385365854
O  O42  1  0.05860000  0.78905000  0.90721000  1.0 -0.5685359766
O  O43  1  0.45110000  0.70694000  0.99677000  1.0 -0.0413286709
O  O44  1  0.58530000  0.83502000  0.00048000  1.0 -0.4738488276
O  O45  1  0.67070000  0.78386000  0.92413000  1.0 -0.6734957625
O  O46  1  0.00330000  0.94417000  0.42891000  1.0 -0.3574832658
O  O47  1  0.11810000  0.97928000  0.45224000  1.0 -0.3574832658
O  O48  1  0.50670000  0.93307000  0.45054000  1.0 -0.6544343759
O  O49  1  0.39750000  0.97540000  0.43720000  1.0 -0.6593188812
O  O50  1  0.54800000  0.93605000  0.57036000  1.0 -0.6199518894
O  O51  1  0.44250000  0.98044000  0.55815000  1.0 -0.6923669209
O  O52  1  0.02680000  0.96727000  0.54783000  1.0 -0.6923669209
O  O53  1  0.13990000  0.99346000  0.58504000  1.0 -0.6006585339
O  O54  1  0.27670000  0.97632000  0.51942000  1.0 -0.4502430091
O  O55  1  0.34890000  0.11034000  0.49680000  1.0 -0.4502430091
O  O56  1  0.26860000  0.04066000  0.43648000  1.0 -0.6803918858
O  O57  1  0.32500000  0.05361000  0.59154000  1.0 -0.6120412802
O  O58  1  0.94180000  0.88167000  0.49940000  1.0 -0.6006585339
O  O59  1  0.79610000  0.92907000  0.44720000  1.0 -0.6803918858
O  O60  1  0.85080000  0.92811000  0.57405000  1.0 -0.6120412802
O  O61  1  0.78320000  0.62078000  0.00399000  1.0 -0.4563502898
O  O62  1  0.71880000  0.67695000  0.08210000  1.0 -0.6385365854
O  O63  1  0.90880000  0.67952000  0.05833000  1.0 -0.6923669209
O  O64  1  0.85580000  0.67595000  0.92799000  1.0 -0.6385365854
O  O65  1  0.67210000  0.69275000  0.95349000  1.0 -0.7514148732
O  O66  1  0.79720000  0.76240000  0.94824000  1.0 -0.6199518894
O  O67  1  0.70270000  0.76472000  0.04350000  1.0 -0.7403685977
O  O68  1  0.82890000  0.76065000  0.07493000  1.0 -0.5685359766
O  O69  1  0.59280000  0.69718000  0.05577000  1.0 -0.5780372252
O  O70  1  0.01190000  0.72503000  0.07389000  1.0 -0.6006585339
O  O71  1  0.96510000  0.71657000  0.93974000  1.0 -0.6385365854
O  O72  1  0.55860000  0.71095000  0.90721000  1.0 -0.5685359766
O  O73  1  0.95110000  0.79306000  0.99677000  1.0 -0.0413286709
O  O74  1  0.08530000  0.66498000  0.00048000  1.0 -0.4738488276
O  O75  1  0.17070000  0.71614000  0.92413000  1.0 -0.6734957625
O  O76  1  0.50330000  0.55583000  0.42891000  1.0 -0.3574832658
O  O77  1  0.61810000  0.52072000  0.45224000  1.0 -0.3574832658
O  O78  1  0.00670000  0.56693000  0.45054000  1.0 -0.6544343759
O  O79  1  0.89750000  0.52460000  0.43720000  1.0 -0.6593188812
O  O80  1  0.04800000  0.56395000  0.57036000  1.0 -0.6199518894
O  O81  1  0.94250000  0.51956000  0.55815000  1.0 -0.6923669209
O  O82  1  0.52680000  0.53273000  0.54783000  1.0 -0.6923669209
O  O83  1  0.63990000  0.50654000  0.58504000  1.0 -0.6006585339
O  O84  1  0.77670000  0.52368000  0.51942000  1.0 -0.4502430091
O  O85  1  0.84890000  0.38966000  0.49680000  1.0 -0.4502430091
O  O86  1  0.76860000  0.45934000  0.43648000  1.0 -0.6803918858
O  O87  1  0.82500000  0.44639000  0.59154000  1.0 -0.6120412802
O  O88  1  0.44180000  0.61833000  0.49940000  1.0 -0.6006585339
O  O89  1  0.29610000  0.57093000  0.44720000  1.0 -0.6803918858
O  O90  1  0.35080000  0.57189000  0.57405000  1.0 -0.6120412802
O  O91  1  0.71680000  0.12078000  0.99601000  1.0 -0.4502430091
O  O92  1  0.78120000  0.17695000  0.91790000  1.0 -0.6385365854
O  O93  1  0.59120000  0.17952000  0.94167000  1.0 -0.6923669209
O  O94  1  0.64420000  0.17595000  0.07201000  1.0 -0.6385365854
O  O95  1  0.82790000  0.19275000  0.04651000  1.0 -0.7514148732
O  O96  1  0.70280000  0.26240000  0.05176000  1.0 -0.6199518894
O  O97  1  0.79730000  0.26472000  0.95650000  1.0 -0.7403685977
O  O98  1  0.67110000  0.26065000  0.92507000  1.0 -0.5685359766
O  O99  1  0.90720000  0.19718000  0.94423000  1.0 -0.5780372252
O  O100  1  0.48810000  0.22503000  0.92611000  1.0 -0.6006585339
O  O101  1  0.53490000  0.21657000  0.06026000  1.0 -0.6385365854
O  O102  1  0.94140000  0.21095000  0.09279000  1.0 -0.5685359766
O  O103  1  0.54890000  0.29306000  0.00323000  1.0 -0.0413286709
O  O104  1  0.41470000  0.16498000  0.99952000  1.0 -0.4738488276
O  O105  1  0.32930000  0.21614000  0.07587000  1.0 -0.6734957625
O  O106  1  0.99670000  0.05583000  0.57109000  1.0 -0.3574832658
O  O107  1  0.88190000  0.02072000  0.54776000  1.0 -0.3574832658
O  O108  1  0.49330000  0.06693000  0.54946000  1.0 -0.6593188812
O  O109  1  0.60250000  0.02460000  0.56280000  1.0 -0.6593188812
O  O110  1  0.45200000  0.06395000  0.42964000  1.0 -0.6199518894
O  O111  1  0.55750000  0.01956000  0.44185000  1.0 -0.6923669209
O  O112  1  0.97320000  0.03273000  0.45217000  1.0 -0.6923669209
O  O113  1  0.86010000  0.00654000  0.41496000  1.0 -0.6006585339
O  O114  1  0.72330000  0.02368000  0.48058000  1.0 -0.4502430091
O  O115  1  0.65110000  0.88966000  0.50320000  1.0 -0.4502430091
O  O116  1  0.73140000  0.95934000  0.56352000  1.0 -0.6803918858
O  O117  1  0.67500000  0.94639000  0.40846000  1.0 -0.6120412802
O  O118  1  0.05820000  0.11833000  0.50060000  1.0 -0.6006585339
O  O119  1  0.20390000  0.07093000  0.55280000  1.0 -0.6803918858
O  O120  1  0.14920000  0.07189000  0.42595000  1.0 -0.6120412802
