# DDEC6 charges by PACMAN v1.1 (https://github.com/mtap-research/PACMAN-charge/)
data_ENAZIF_FSR_pacman
_symmetry_space_group_name_H-M   'P 1'
_cell_length_a   22.60500000
_cell_length_b   12.45600000
_cell_length_c   26.50190000
_cell_angle_alpha   90.00000000
_cell_angle_beta   122.82400000
_cell_angle_gamma   90.00000000
_symmetry_Int_Tables_number   1
_chemical_formula_structural   Tb2Re3H10C15Se4N5O8
_chemical_formula_sum   'Tb16 Re24 H80 C120 Se32 N40 O64'
_cell_volume   6270.68466072
_cell_formula_units_Z   8
loop_
 _symmetry_equiv_pos_site_id
 _symmetry_equiv_pos_as_xyz
  1  'x, y, z'
loop_
 _atom_site_type_symbol
 _atom_site_label
 _atom_site_symmetry_multiplicity
 _atom_site_fract_x
 _atom_site_fract_y
 _atom_site_fract_z
 _atom_site_occupancy
 _atom_site_charge
Tb  Tb1  1  0.73179000  0.45735000  0.22379000  1.0 2.0120190969
Tb  Tb2  1  0.86154000  0.24870000  0.32478000  1.0 2.1155358544
Tb  Tb3  1  0.74587000  0.19580000  0.15264000  1.0 2.1100800199
Tb  Tb4  1  0.65881000  0.20270000  0.24309000  1.0 2.017312645
Tb  Tb5  1  0.26821000  0.95735000  0.27621000  1.0 2.0120190969
Tb  Tb6  1  0.13846000  0.74870000  0.17522000  1.0 2.1100800199
Tb  Tb7  1  0.25413000  0.69580000  0.34736000  1.0 2.1100800199
Tb  Tb8  1  0.34119000  0.70270000  0.25691000  1.0 2.017312645
Tb  Tb9  1  0.26821000  0.54265000  0.77621000  1.0 2.0120190969
Tb  Tb10  1  0.13846000  0.75130000  0.67522000  1.0 2.1100800199
Tb  Tb11  1  0.25413000  0.80420000  0.84736000  1.0 2.1100800199
Tb  Tb12  1  0.34119000  0.79730000  0.75691000  1.0 2.017312645
Tb  Tb13  1  0.73179000  0.04265000  0.72379000  1.0 2.0120190969
Tb  Tb14  1  0.86154000  0.25130000  0.82478000  1.0 2.1100800199
Tb  Tb15  1  0.74587000  0.30420000  0.65264000  1.0 2.1100800199
Tb  Tb16  1  0.65881000  0.29730000  0.74309000  1.0 2.017312645
Re  Re1  1  0.73558000  0.69907000  0.41068000  1.0 0.1410474279
Re  Re2  1  0.73947000  0.65884000  0.51014000  1.0 0.1499985448
Re  Re3  1  0.83218000  0.79114000  0.51251000  1.0 0.1410474279
Re  Re4  1  0.72808000  0.90637000  0.42567000  1.0 0.1099716353
Re  Re5  1  0.63574000  0.77356000  0.42406000  1.0 0.1499985448
Re  Re6  1  0.73165000  0.86732000  0.52549000  1.0 0.1499985448
Re  Re7  1  0.26442000  0.19907000  0.08932000  1.0 0.1499985448
Re  Re8  1  0.26053000  0.15884000  0.98986000  1.0 0.1499985448
Re  Re9  1  0.16782000  0.29114000  0.98749000  1.0 0.1499985448
Re  Re10  1  0.27192000  0.40637000  0.07433000  1.0 0.1099716353
Re  Re11  1  0.36426000  0.27356000  0.07594000  1.0 0.1499985448
Re  Re12  1  0.26835000  0.36732000  0.97451000  1.0 0.1499985448
Re  Re13  1  0.26442000  0.30093000  0.58932000  1.0 0.1410474279
Re  Re14  1  0.26053000  0.34116000  0.48986000  1.0 0.1499985448
Re  Re15  1  0.16782000  0.20886000  0.48749000  1.0 0.1499985448
Re  Re16  1  0.27192000  0.09363000  0.57433000  1.0 0.1099716353
Re  Re17  1  0.36426000  0.22644000  0.57594000  1.0 0.1499985448
Re  Re18  1  0.26835000  0.13268000  0.47451000  1.0 0.1499985448
Re  Re19  1  0.73558000  0.80093000  0.91068000  1.0 0.1410474279
Re  Re20  1  0.73947000  0.84116000  0.01014000  1.0 0.1410474279
Re  Re21  1  0.83218000  0.70886000  0.01251000  1.0 0.1410474279
Re  Re22  1  0.72808000  0.59363000  0.92567000  1.0 0.1099716353
Re  Re23  1  0.63574000  0.72644000  0.92406000  1.0 0.1499985448
Re  Re24  1  0.73165000  0.63268000  0.02549000  1.0 0.1499985448
H  H1  1  0.84577000  0.35986000  0.22116000  1.0 0.3439437142
H  H2  1  0.75568000  0.35933000  0.33277000  1.0 0.4066760829
H  H3  1  0.62471000  0.31206000  0.13403000  1.0 0.4066760829
H  H4  1  0.77318000  0.06563000  0.25790000  1.0 0.3895800105
H  H5  1  0.62667000  0.66354000  0.21459000  1.0 0.1014593561
H  H6  1  0.59966000  0.84322000  0.19614000  1.0 0.1312555572
H  H7  1  0.75384000  0.87476000  0.16209000  1.0 0.1410474279
H  H8  1  0.77995000  0.69049000  0.18662000  1.0 0.1014593561
H  H9  1  0.00180000  0.83188000  0.32748000  1.0 0.0903831829
H  H10  1  0.90405000  0.72249000  0.29460000  1.0 0.1194857946
H  H11  1  0.03531000  0.48462000  0.39850000  1.0 0.1194857946
H  H12  1  0.13035000  0.59663000  0.42564000  1.0 0.1014593561
H  H13  1  0.13214000  0.99183000  0.33828000  1.0 0.1014593561
H  H14  1  0.04372000  0.09994000  0.33024000  1.0 0.1312555572
H  H15  1  0.90284000  0.93108000  0.18125000  1.0 0.1312555572
H  H16  1  0.99499000  0.82102000  0.19744000  1.0 0.1014593561
H  H17  1  0.57367000  0.19785000  0.32310000  1.0 0.1099716353
H  H18  1  0.49368000  0.10511000  0.33584000  1.0 0.1312555572
H  H19  1  0.45236000  0.91569000  0.19535000  1.0 0.1312555572
H  H20  1  0.53348000  0.01274000  0.18759000  1.0 0.1099716353
H  H21  1  0.15423000  0.85986000  0.27884000  1.0 0.3439437142
H  H22  1  0.24432000  0.85933000  0.16723000  1.0 0.4066760829
H  H23  1  0.37529000  0.81206000  0.36597000  1.0 0.4066760829
H  H24  1  0.22682000  0.56563000  0.24210000  1.0 0.3895800105
H  H25  1  0.37333000  0.16354000  0.28541000  1.0 0.1014593561
H  H26  1  0.40034000  0.34322000  0.30386000  1.0 0.1312555572
H  H27  1  0.24616000  0.37476000  0.33791000  1.0 0.1410474279
H  H28  1  0.22005000  0.19049000  0.31338000  1.0 0.1014593561
H  H29  1  0.99820000  0.33188000  0.17252000  1.0 0.0903831829
H  H30  1  0.09595000  0.22249000  0.20540000  1.0 0.1194857946
H  H31  1  0.96469000  0.98462000  0.10150000  1.0 0.1194857946
H  H32  1  0.86965000  0.09663000  0.07436000  1.0 0.1014593561
H  H33  1  0.86786000  0.49183000  0.16172000  1.0 0.1014593561
H  H34  1  0.95628000  0.59994000  0.16976000  1.0 0.1312555572
H  H35  1  0.09716000  0.43108000  0.31875000  1.0 0.1312555572
H  H36  1  0.00501000  0.32102000  0.30256000  1.0 0.1014593561
H  H37  1  0.42633000  0.69785000  0.17690000  1.0 0.1099716353
H  H38  1  0.50632000  0.60511000  0.16416000  1.0 0.1312555572
H  H39  1  0.54764000  0.41569000  0.30465000  1.0 0.1312555572
H  H40  1  0.46652000  0.51274000  0.31241000  1.0 0.1099716353
H  H41  1  0.15423000  0.64014000  0.77884000  1.0 0.3439437142
H  H42  1  0.24432000  0.64067000  0.66723000  1.0 0.4066760829
H  H43  1  0.37529000  0.68794000  0.86597000  1.0 0.4066760829
H  H44  1  0.22682000  0.93437000  0.74210000  1.0 0.3895800105
H  H45  1  0.37333000  0.33646000  0.78541000  1.0 0.1014593561
H  H46  1  0.40034000  0.15678000  0.80386000  1.0 0.1312555572
H  H47  1  0.24616000  0.12524000  0.83791000  1.0 0.1410474279
H  H48  1  0.22005000  0.30951000  0.81338000  1.0 0.1014593561
H  H49  1  0.99820000  0.16812000  0.67252000  1.0 0.0903831829
H  H50  1  0.09595000  0.27751000  0.70540000  1.0 0.1194857946
H  H51  1  0.96469000  0.51538000  0.60150000  1.0 0.1194857946
H  H52  1  0.86965000  0.40337000  0.57436000  1.0 0.1014593561
H  H53  1  0.86786000  0.00817000  0.66172000  1.0 0.1014593561
H  H54  1  0.95628000  0.90006000  0.66976000  1.0 0.1312555572
H  H55  1  0.09716000  0.06892000  0.81875000  1.0 0.1312555572
H  H56  1  0.00501000  0.17898000  0.80256000  1.0 0.1014593561
H  H57  1  0.42633000  0.80215000  0.67690000  1.0 0.1099716353
H  H58  1  0.50632000  0.89489000  0.66416000  1.0 0.1312555572
H  H59  1  0.54764000  0.08431000  0.80465000  1.0 0.1312555572
H  H60  1  0.46652000  0.98726000  0.81241000  1.0 0.1099716353
H  H61  1  0.84577000  0.14014000  0.72116000  1.0 0.3439437142
H  H62  1  0.75568000  0.14067000  0.83277000  1.0 0.4066760829
H  H63  1  0.62471000  0.18794000  0.63403000  1.0 0.4066760829
H  H64  1  0.77318000  0.43437000  0.75790000  1.0 0.3895800105
H  H65  1  0.62667000  0.83646000  0.71459000  1.0 0.1014593561
H  H66  1  0.59966000  0.65678000  0.69614000  1.0 0.1312555572
H  H67  1  0.75384000  0.62524000  0.66209000  1.0 0.1410474279
H  H68  1  0.77995000  0.80951000  0.68662000  1.0 0.1014593561
H  H69  1  0.00180000  0.66812000  0.82748000  1.0 0.0903831829
H  H70  1  0.90405000  0.77751000  0.79460000  1.0 0.1194857946
H  H71  1  0.03531000  0.01538000  0.89850000  1.0 0.1194857946
H  H72  1  0.13035000  0.90337000  0.92564000  1.0 0.1014593561
H  H73  1  0.13214000  0.50817000  0.83828000  1.0 0.1014593561
H  H74  1  0.04372000  0.40006000  0.83024000  1.0 0.1312555572
H  H75  1  0.90284000  0.56892000  0.68125000  1.0 0.1312555572
H  H76  1  0.99499000  0.67898000  0.69744000  1.0 0.1014593561
H  H77  1  0.57367000  0.30215000  0.82310000  1.0 0.1099716353
H  H78  1  0.49368000  0.39489000  0.83584000  1.0 0.1312555572
H  H79  1  0.45236000  0.58431000  0.69535000  1.0 0.1312555572
H  H80  1  0.53348000  0.48726000  0.68759000  1.0 0.1099716353
C  C1  1  0.73910000  0.60340000  0.34710000  1.0 0.1014593561
C  C2  1  0.74180000  0.51250000  0.55210000  1.0 0.0680470288
C  C3  1  0.94380000  0.78820000  0.56370000  1.0 0.0680470288
C  C4  1  0.72260000  0.03990000  0.37460000  1.0 0.1410474279
C  C5  1  0.52510000  0.75350000  0.37570000  1.0 0.0797257452
C  C6  1  0.72470000  0.95990000  0.58990000  1.0 0.1194857946
C  C7  1  0.65840000  0.99770000  0.16590000  1.0 0.6085911384
C  C8  1  0.65240000  0.70680000  0.20350000  1.0 0.0903831829
C  C9  1  0.63610000  0.81390000  0.19270000  1.0 -0.1688452539
C  C10  1  0.67290000  0.87890000  0.17680000  1.0 0.0417786902
C  C11  1  0.72750000  0.83290000  0.17320000  1.0 -0.1781936334
C  C12  1  0.74160000  0.72190000  0.18660000  1.0 0.1014593561
C  C13  1  0.89790000  0.51440000  0.31850000  1.0 0.6183878771
C  C14  1  0.00880000  0.75970000  0.34110000  1.0 0.0510912147
C  C15  1  0.95010000  0.69500000  0.32150000  1.0 -0.1688452539
C  C16  1  0.95960000  0.58930000  0.34170000  1.0 0.0010014819
C  C17  1  0.02730000  0.55490000  0.38210000  1.0 -0.1642526118
C  C18  1  0.08390000  0.62260000  0.39900000  1.0 0.0680470288
C  C19  1  0.90580000  0.09950000  0.24550000  1.0 0.6183878771
C  C20  1  0.08480000  0.97860000  0.30670000  1.0 0.0680470288
C  C21  1  0.03270000  0.04440000  0.30190000  1.0 -0.1642526118
C  C22  1  0.96400000  0.02740000  0.25480000  1.0 0.0119889891
C  C23  1  0.94950000  0.94370000  0.21440000  1.0 -0.1781936334
C  C24  1  0.00490000  0.87950000  0.22390000  1.0 0.0680470288
C  C25  1  0.40840000  0.93830000  0.26970000  1.0 0.6045426121
C  C26  1  0.54890000  0.13930000  0.29710000  1.0 0.0903831829
C  C27  1  0.50080000  0.08520000  0.30490000  1.0 -0.1851972648
C  C28  1  0.46280000  0.00050000  0.26570000  1.0 0.0266638594
C  C29  1  0.47660000  0.97360000  0.22210000  1.0 -0.1781936334
C  C30  1  0.52550000  0.03180000  0.21810000  1.0 0.0797257452
C  C31  1  0.26090000  0.10340000  0.15290000  1.0 0.1014593561
C  C32  1  0.25820000  0.01250000  0.94790000  1.0 0.0680470288
C  C33  1  0.05620000  0.28820000  0.93630000  1.0 0.0680470288
C  C34  1  0.27740000  0.53990000  0.12540000  1.0 0.1410474279
C  C35  1  0.47490000  0.25350000  0.12430000  1.0 0.0797257452
C  C36  1  0.27530000  0.45990000  0.91010000  1.0 0.1194857946
C  C37  1  0.34160000  0.49770000  0.33410000  1.0 0.6085911384
C  C38  1  0.34760000  0.20680000  0.29650000  1.0 0.0903831829
C  C39  1  0.36390000  0.31390000  0.30730000  1.0 -0.1688452539
C  C40  1  0.32710000  0.37890000  0.32320000  1.0 0.0417786902
C  C41  1  0.27250000  0.33290000  0.32680000  1.0 -0.1781936334
C  C42  1  0.25840000  0.22190000  0.31340000  1.0 0.1014593561
C  C43  1  0.10210000  0.01440000  0.18150000  1.0 0.6183878771
C  C44  1  0.99120000  0.25970000  0.15890000  1.0 0.0510912147
C  C45  1  0.04990000  0.19500000  0.17850000  1.0 -0.1688452539
C  C46  1  0.04040000  0.08930000  0.15830000  1.0 0.0010014819
C  C47  1  0.97270000  0.05490000  0.11790000  1.0 -0.1642526118
C  C48  1  0.91610000  0.12260000  0.10100000  1.0 0.064767561
C  C49  1  0.09420000  0.59950000  0.25450000  1.0 0.6183878771
C  C50  1  0.91520000  0.47860000  0.19330000  1.0 0.0680470288
C  C51  1  0.96730000  0.54440000  0.19810000  1.0 -0.1642526118
C  C52  1  0.03600000  0.52740000  0.24520000  1.0 0.0119889891
C  C53  1  0.05050000  0.44370000  0.28560000  1.0 -0.1781936334
C  C54  1  0.99510000  0.37950000  0.27610000  1.0 0.0680470288
C  C55  1  0.59160000  0.43830000  0.23030000  1.0 0.6045426121
C  C56  1  0.45110000  0.63930000  0.20290000  1.0 0.0903831829
C  C57  1  0.49920000  0.58520000  0.19510000  1.0 -0.1851972648
C  C58  1  0.53720000  0.50050000  0.23430000  1.0 0.0266638594
C  C59  1  0.52340000  0.47360000  0.27790000  1.0 -0.1781936334
C  C60  1  0.47450000  0.53180000  0.28190000  1.0 0.0797257452
C  C61  1  0.26090000  0.39660000  0.65290000  1.0 0.1014593561
C  C62  1  0.25820000  0.48750000  0.44790000  1.0 0.0680470288
C  C63  1  0.05620000  0.21180000  0.43630000  1.0 0.0680470288
C  C64  1  0.27740000  0.96010000  0.62540000  1.0 0.1410474279
C  C65  1  0.47490000  0.24650000  0.62430000  1.0 0.0797257452
C  C66  1  0.27530000  0.04010000  0.41010000  1.0 0.1194857946
C  C67  1  0.34160000  0.00230000  0.83410000  1.0 0.6085911384
C  C68  1  0.34760000  0.29320000  0.79650000  1.0 0.0903831829
C  C69  1  0.36390000  0.18610000  0.80730000  1.0 -0.1688452539
C  C70  1  0.32710000  0.12110000  0.82320000  1.0 0.0417786902
C  C71  1  0.27250000  0.16710000  0.82680000  1.0 -0.1781936334
C  C72  1  0.25840000  0.27810000  0.81340000  1.0 0.1014593561
C  C73  1  0.10210000  0.48560000  0.68150000  1.0 0.6183878771
C  C74  1  0.99120000  0.24030000  0.65890000  1.0 0.0510912147
C  C75  1  0.04990000  0.30500000  0.67850000  1.0 -0.1688452539
C  C76  1  0.04040000  0.41070000  0.65830000  1.0 0.0010014819
C  C77  1  0.97270000  0.44510000  0.61790000  1.0 -0.1642526118
C  C78  1  0.91610000  0.37740000  0.60100000  1.0 0.064767561
C  C79  1  0.09420000  0.90050000  0.75450000  1.0 0.6183878771
C  C80  1  0.91520000  0.02140000  0.69330000  1.0 0.0680470288
C  C81  1  0.96730000  0.95560000  0.69810000  1.0 -0.1642526118
C  C82  1  0.03600000  0.97260000  0.74520000  1.0 0.0119889891
C  C83  1  0.05050000  0.05630000  0.78560000  1.0 -0.1781936334
C  C84  1  0.99510000  0.12050000  0.77610000  1.0 0.0680470288
C  C85  1  0.59160000  0.06170000  0.73030000  1.0 0.6045426121
C  C86  1  0.45110000  0.86070000  0.70290000  1.0 0.0903831829
C  C87  1  0.49920000  0.91480000  0.69510000  1.0 -0.1851972648
C  C88  1  0.53720000  0.99950000  0.73430000  1.0 0.0266638594
C  C89  1  0.52340000  0.02640000  0.77790000  1.0 -0.1781936334
C  C90  1  0.47450000  0.96820000  0.78190000  1.0 0.0797257452
C  C91  1  0.73910000  0.89660000  0.84710000  1.0 0.1014593561
C  C92  1  0.74180000  0.98750000  0.05210000  1.0 0.0680470288
C  C93  1  0.94380000  0.71180000  0.06370000  1.0 0.0680470288
C  C94  1  0.72260000  0.46010000  0.87460000  1.0 0.1410474279
C  C95  1  0.52510000  0.74650000  0.87570000  1.0 0.0797257452
C  C96  1  0.72470000  0.54010000  0.08990000  1.0 0.1194857946
C  C97  1  0.65840000  0.50230000  0.66590000  1.0 0.6085911384
C  C98  1  0.65240000  0.79320000  0.70350000  1.0 0.0903831829
C  C99  1  0.63610000  0.68610000  0.69270000  1.0 -0.1688452539
C  C100  1  0.67290000  0.62110000  0.67680000  1.0 0.0417786902
C  C101  1  0.72750000  0.66710000  0.67320000  1.0 -0.1781936334
C  C102  1  0.74160000  0.77810000  0.68660000  1.0 0.1014593561
C  C103  1  0.89790000  0.98560000  0.81850000  1.0 0.6183878771
C  C104  1  0.00880000  0.74030000  0.84110000  1.0 0.0510912147
C  C105  1  0.95010000  0.80500000  0.82150000  1.0 -0.1688452539
C  C106  1  0.95960000  0.91070000  0.84170000  1.0 0.0010014819
C  C107  1  0.02730000  0.94510000  0.88210000  1.0 -0.1642526118
C  C108  1  0.08390000  0.87740000  0.89900000  1.0 0.0680470288
C  C109  1  0.90580000  0.40050000  0.74550000  1.0 0.6183878771
C  C110  1  0.08480000  0.52140000  0.80670000  1.0 0.0680470288
C  C111  1  0.03270000  0.45560000  0.80190000  1.0 -0.1642526118
C  C112  1  0.96400000  0.47260000  0.75480000  1.0 0.0119889891
C  C113  1  0.94950000  0.55630000  0.71440000  1.0 -0.1781936334
C  C114  1  0.00490000  0.62050000  0.72390000  1.0 0.0680470288
C  C115  1  0.40840000  0.56170000  0.76970000  1.0 0.6045426121
C  C116  1  0.54890000  0.36070000  0.79710000  1.0 0.0903831829
C  C117  1  0.50080000  0.41480000  0.80490000  1.0 -0.1851972648
C  C118  1  0.46280000  0.49950000  0.76570000  1.0 0.0266638594
C  C119  1  0.47660000  0.52640000  0.72210000  1.0 -0.1781936334
C  C120  1  0.52550000  0.46820000  0.71810000  1.0 0.0797257452
Se  Se1  1  0.64762000  0.57545000  0.41165000  1.0 0.1014593561
Se  Se2  1  0.83446000  0.59281000  0.49510000  1.0 0.1194857946
Se  Se3  1  0.82418000  0.82839000  0.41503000  1.0 0.2772011748
Se  Se4  1  0.63560000  0.81171000  0.33055000  1.0 -0.0404303893
Se  Se5  1  0.64352000  0.73619000  0.52110000  1.0 0.1622090033
Se  Se6  1  0.83079000  0.75330000  0.60552000  1.0 -0.1071413417
Se  Se7  1  0.82065000  0.99065000  0.52482000  1.0 0.2397472514
Se  Se8  1  0.63213000  0.97268000  0.44029000  1.0 0.1622090033
Se  Se9  1  0.35238000  0.07545000  0.08835000  1.0 0.1014593561
Se  Se10  1  0.16554000  0.09281000  0.00490000  1.0 0.1099716353
Se  Se11  1  0.17582000  0.32839000  0.08497000  1.0 0.2772011748
Se  Se12  1  0.36440000  0.31171000  0.16945000  1.0 -0.0404303893
Se  Se13  1  0.35648000  0.23619000  0.97890000  1.0 0.1622090033
Se  Se14  1  0.16921000  0.25330000  0.89448000  1.0 -0.1071413417
Se  Se15  1  0.17935000  0.49065000  0.97518000  1.0 0.2397472514
Se  Se16  1  0.36787000  0.47268000  0.05971000  1.0 0.1622090033
Se  Se17  1  0.35238000  0.42455000  0.58835000  1.0 0.1014593561
Se  Se18  1  0.16554000  0.40719000  0.50490000  1.0 0.1194857946
Se  Se19  1  0.17582000  0.17161000  0.58497000  1.0 0.2772011748
Se  Se20  1  0.36440000  0.18829000  0.66945000  1.0 -0.0404303893
Se  Se21  1  0.35648000  0.26381000  0.47890000  1.0 0.1622090033
Se  Se22  1  0.16921000  0.24670000  0.39448000  1.0 -0.1071413417
Se  Se23  1  0.17935000  0.00935000  0.47518000  1.0 0.2397472514
Se  Se24  1  0.36787000  0.02732000  0.55971000  1.0 0.1622090033
Se  Se25  1  0.64762000  0.92455000  0.91165000  1.0 0.1014593561
Se  Se26  1  0.83446000  0.90719000  0.99510000  1.0 0.1194857946
Se  Se27  1  0.82418000  0.67161000  0.91503000  1.0 0.2772011748
Se  Se28  1  0.63560000  0.68829000  0.83055000  1.0 -0.0404303893
Se  Se29  1  0.64352000  0.76381000  0.02110000  1.0 0.1622090033
Se  Se30  1  0.83079000  0.74670000  0.10552000  1.0 -0.1044129515
Se  Se31  1  0.82065000  0.50935000  0.02482000  1.0 0.2397472514
Se  Se32  1  0.63213000  0.52732000  0.94029000  1.0 0.1622090033
N  N1  1  0.73990000  0.55070000  0.31100000  1.0 -0.426652641
N  N2  1  0.74040000  0.43270000  0.57290000  1.0 -0.3679676661
N  N3  1  0.00420000  0.77850000  0.59080000  1.0 -0.3795224363
N  N4  1  0.71750000  0.10910000  0.34240000  1.0 -0.4391600499
N  N5  1  0.46560000  0.73980000  0.34910000  1.0 -0.4029033193
N  N6  1  0.71880000  0.00410000  0.62480000  1.0 -0.426652641
N  N7  1  0.70320000  0.66030000  0.19930000  1.0 -0.3356600115
N  N8  1  0.07470000  0.72460000  0.37840000  1.0 -0.0743916733
N  N9  1  0.07160000  0.89650000  0.26870000  1.0 -0.1781936334
N  N10  1  0.56300000  0.11420000  0.25470000  1.0 -0.3634595209
N  N11  1  0.26010000  0.05070000  0.18900000  1.0 -0.426652641
N  N12  1  0.25960000  0.93270000  0.92710000  1.0 -0.3679676661
N  N13  1  0.99580000  0.27850000  0.90920000  1.0 -0.3795224363
N  N14  1  0.28250000  0.60910000  0.15760000  1.0 -0.4391600499
N  N15  1  0.53440000  0.23980000  0.15090000  1.0 -0.4029033193
N  N16  1  0.28120000  0.50410000  0.87520000  1.0 -0.426652641
N  N17  1  0.29680000  0.16030000  0.30070000  1.0 -0.3342386791
N  N18  1  0.92530000  0.22460000  0.12160000  1.0 -0.0743916733
N  N19  1  0.92840000  0.39650000  0.23130000  1.0 -0.1781936334
N  N20  1  0.43700000  0.61420000  0.24530000  1.0 -0.3634595209
N  N21  1  0.26010000  0.44930000  0.68900000  1.0 -0.426652641
N  N22  1  0.25960000  0.56730000  0.42710000  1.0 -0.3679676661
N  N23  1  0.99580000  0.22150000  0.40920000  1.0 -0.3795224363
N  N24  1  0.28250000  0.89090000  0.65760000  1.0 -0.4391600499
N  N25  1  0.53440000  0.26020000  0.65090000  1.0 -0.4029033193
N  N26  1  0.28120000  0.99590000  0.37520000  1.0 -0.426652641
N  N27  1  0.29680000  0.33970000  0.80070000  1.0 -0.3342386791
N  N28  1  0.92530000  0.27540000  0.62160000  1.0 -0.0743916733
N  N29  1  0.92840000  0.10350000  0.73130000  1.0 -0.1781936334
N  N30  1  0.43700000  0.88580000  0.74530000  1.0 -0.3634595209
N  N31  1  0.73990000  0.94930000  0.81100000  1.0 -0.426652641
N  N32  1  0.74040000  0.06730000  0.07290000  1.0 -0.3679676661
N  N33  1  0.00420000  0.72150000  0.09080000  1.0 -0.3795224363
N  N34  1  0.71750000  0.39090000  0.84240000  1.0 -0.4391600499
N  N35  1  0.46560000  0.76020000  0.84910000  1.0 -0.4029033193
N  N36  1  0.71880000  0.49590000  0.12480000  1.0 -0.426652641
N  N37  1  0.70320000  0.83970000  0.69930000  1.0 -0.3342386791
N  N38  1  0.07470000  0.77540000  0.87840000  1.0 -0.0743916733
N  N39  1  0.07160000  0.60350000  0.76870000  1.0 -0.1781936334
N  N40  1  0.56300000  0.38580000  0.75470000  1.0 -0.3634595209
O  O1  1  0.80920000  0.32600000  0.22620000  1.0 -1.0792836705
O  O2  1  0.75440000  0.32730000  0.29760000  1.0 -1.109964461
O  O3  1  0.67120000  0.29650000  0.17160000  1.0 -1.109964461
O  O4  1  0.76490000  0.14450000  0.25010000  1.0 -1.0792836705
O  O5  1  0.87000000  0.27580000  0.41730000  1.0 -0.7337600201
O  O6  1  0.87150000  0.06200000  0.36390000  1.0 -0.6435748646
O  O7  1  0.79850000  0.28910000  0.10570000  1.0 -0.7139940867
O  O8  1  0.64630000  0.25320000  0.05670000  1.0 -0.720060856
O  O9  1  0.63250000  0.04050000  0.19270000  1.0 -0.6506769666
O  O10  1  0.67400000  0.04630000  0.13310000  1.0 -0.6129305372
O  O11  1  0.84020000  0.54470000  0.27300000  1.0 -0.6583222309
O  O12  1  0.90820000  0.42490000  0.34540000  1.0 -0.6435748646
O  O13  1  0.92070000  0.16330000  0.28830000  1.0 -0.6435748646
O  O14  1  0.84750000  0.09360000  0.19670000  1.0 -0.6245368132
O  O15  1  0.38630000  0.97530000  0.30090000  1.0 -0.6583222309
O  O16  1  0.38720000  0.85260000  0.23870000  1.0 -0.6741374144
O  O17  1  0.19080000  0.82600000  0.27380000  1.0 -1.0792836705
O  O18  1  0.24560000  0.82730000  0.20240000  1.0 -1.109964461
O  O19  1  0.32880000  0.79650000  0.32840000  1.0 -1.109964461
O  O20  1  0.23510000  0.64450000  0.24990000  1.0 -1.0792836705
O  O21  1  0.13000000  0.77580000  0.08270000  1.0 -0.7357528219
O  O22  1  0.12850000  0.56200000  0.13610000  1.0 -0.6435748646
O  O23  1  0.20150000  0.78910000  0.39430000  1.0 -0.7139940867
O  O24  1  0.35370000  0.75320000  0.44330000  1.0 -0.720060856
O  O25  1  0.36750000  0.54050000  0.30730000  1.0 -0.6506769666
O  O26  1  0.32600000  0.54630000  0.36690000  1.0 -0.6129305372
O  O27  1  0.15980000  0.04470000  0.22700000  1.0 -0.6583222309
O  O28  1  0.09180000  0.92490000  0.15460000  1.0 -0.6435748646
O  O29  1  0.07930000  0.66330000  0.21170000  1.0 -0.6435748646
O  O30  1  0.15250000  0.59360000  0.30330000  1.0 -0.6245368132
O  O31  1  0.61370000  0.47530000  0.19910000  1.0 -0.6583222309
O  O32  1  0.61280000  0.35260000  0.26130000  1.0 -0.6741374144
O  O33  1  0.19080000  0.67400000  0.77380000  1.0 -1.0792836705
O  O34  1  0.24560000  0.67270000  0.70240000  1.0 -1.109964461
O  O35  1  0.32880000  0.70350000  0.82840000  1.0 -1.109964461
O  O36  1  0.23510000  0.85550000  0.74990000  1.0 -1.0792836705
O  O37  1  0.13000000  0.72420000  0.58270000  1.0 -0.7337600201
O  O38  1  0.12850000  0.93800000  0.63610000  1.0 -0.6435748646
O  O39  1  0.20150000  0.71090000  0.89430000  1.0 -0.7139940867
O  O40  1  0.35370000  0.74680000  0.94330000  1.0 -0.720060856
O  O41  1  0.36750000  0.95950000  0.80730000  1.0 -0.6506769666
O  O42  1  0.32600000  0.95370000  0.86690000  1.0 -0.6129305372
O  O43  1  0.15980000  0.45530000  0.72700000  1.0 -0.6583222309
O  O44  1  0.09180000  0.57510000  0.65460000  1.0 -0.6435748646
O  O45  1  0.07930000  0.83670000  0.71170000  1.0 -0.6435748646
O  O46  1  0.15250000  0.90640000  0.80330000  1.0 -0.6245368132
O  O47  1  0.61370000  0.02470000  0.69910000  1.0 -0.6583222309
O  O48  1  0.61280000  0.14740000  0.76130000  1.0 -0.6741374144
O  O49  1  0.80920000  0.17400000  0.72620000  1.0 -1.0792836705
O  O50  1  0.75440000  0.17270000  0.79760000  1.0 -1.109964461
O  O51  1  0.67120000  0.20350000  0.67160000  1.0 -1.109964461
O  O52  1  0.76490000  0.35550000  0.75010000  1.0 -1.0792836705
O  O53  1  0.87000000  0.22420000  0.91730000  1.0 -0.7337600201
O  O54  1  0.87150000  0.43800000  0.86390000  1.0 -0.6435748646
O  O55  1  0.79850000  0.21090000  0.60570000  1.0 -0.7139940867
O  O56  1  0.64630000  0.24680000  0.55670000  1.0 -0.720060856
O  O57  1  0.63250000  0.45950000  0.69270000  1.0 -0.6506769666
O  O58  1  0.67400000  0.45370000  0.63310000  1.0 -0.6129305372
O  O59  1  0.84020000  0.95530000  0.77300000  1.0 -0.6583222309
O  O60  1  0.90820000  0.07510000  0.84540000  1.0 -0.6435748646
O  O61  1  0.92070000  0.33670000  0.78830000  1.0 -0.6435748646
O  O62  1  0.84750000  0.40640000  0.69670000  1.0 -0.6245368132
O  O63  1  0.38630000  0.52470000  0.80090000  1.0 -0.6583222309
O  O64  1  0.38720000  0.64740000  0.73870000  1.0 -0.6741374144
