# DDEC6 charges by PACMAN v1.1 (https://github.com/mtap-research/PACMAN-charge/)
data_ENCNBZ01_FSR_pacman
_symmetry_space_group_name_H-M   'P 1'
_cell_length_a   7.67500000
_cell_length_b   7.67500000
_cell_length_c   8.05600000
_cell_angle_alpha   90.00000000
_cell_angle_beta   90.00000000
_cell_angle_gamma   90.00000000
_symmetry_Int_Tables_number   1
_chemical_formula_structural   CdNi(CN2)6
_chemical_formula_sum   'Cd1 Ni1 C6 N12'
_cell_volume   474.54371500
_cell_formula_units_Z   1
loop_
 _symmetry_equiv_pos_site_id
 _symmetry_equiv_pos_as_xyz
  1  'x, y, z'
loop_
 _atom_site_type_symbol
 _atom_site_label
 _atom_site_symmetry_multiplicity
 _atom_site_fract_x
 _atom_site_fract_y
 _atom_site_fract_z
 _atom_site_occupancy
 _atom_site_charge
Cd  Cd1  1  0.00000000  0.00000000  0.00000000  1.0 0.595414589
Ni  Ni1  1  0.50000000  0.50000000  0.00000000  1.0 0.0070553821
C  C1  1  0.32830000  0.32830000  0.00000000  1.0 0.1347902518
C  C2  1  0.67170000  0.32830000  0.00000000  1.0 0.1350703042
C  C3  1  0.32830000  0.67170000  0.00000000  1.0 0.1347902518
C  C4  1  0.67170000  0.67170000  0.00000000  1.0 0.1350703042
C  C5  1  0.00000000  0.00000000  0.41590000  1.0 0.0274094518
C  C6  1  0.00000000  0.00000000  0.58410000  1.0 0.0274094518
N  N1  1  0.22110000  0.22110000  0.00000000  1.0 -0.4596544627
N  N2  1  0.77890000  0.22110000  0.00000000  1.0 -0.4596544627
N  N3  1  0.22110000  0.77890000  0.00000000  1.0 -0.4596544627
N  N4  1  0.77890000  0.77890000  0.00000000  1.0 -0.4596544627
N  N5  1  0.00000000  0.07400000  0.27400000  1.0 0.080200983
N  N6  1  0.92600000  0.00000000  0.27400000  1.0 0.080200983
N  N7  1  0.07400000  0.00000000  0.27400000  1.0 0.080200983
N  N8  1  0.07400000  0.00000000  0.72600000  1.0 0.080200983
N  N9  1  0.00000000  0.92600000  0.27400000  1.0 0.080200983
N  N10  1  0.00000000  0.92600000  0.72600000  1.0 0.080200983
N  N11  1  0.00000000  0.07400000  0.72600000  1.0 0.080200983
N  N12  1  0.92600000  0.00000000  0.72600000  1.0 0.080200983
