# DDEC6 charges by PACMAN v1.1 (https://github.com/mtap-research/PACMAN-charge/)
data_ENICOW_ASR_pacman
_symmetry_space_group_name_H-M   'P 1'
_cell_length_a   16.36060000
_cell_length_b   16.36060000
_cell_length_c   22.09490000
_cell_angle_alpha   87.63070000
_cell_angle_beta   92.36930000
_cell_angle_gamma   43.17180000
_symmetry_Int_Tables_number   1
_chemical_formula_structural   Mn8H92C128N24O25
_chemical_formula_sum   'Mn8 H92 C128 N24 O25'
_cell_volume   4020.74690195
_cell_formula_units_Z   1
loop_
 _symmetry_equiv_pos_site_id
 _symmetry_equiv_pos_as_xyz
  1  'x, y, z'
loop_
 _atom_site_type_symbol
 _atom_site_label
 _atom_site_symmetry_multiplicity
 _atom_site_fract_x
 _atom_site_fract_y
 _atom_site_fract_z
 _atom_site_occupancy
 _atom_site_charge
Mn  Mn1  1  0.05247000  0.94753000  0.93902000  1.0 0.9991754018
Mn  Mn2  1  0.94753000  0.05247000  0.06098000  1.0 0.9991754018
Mn  Mn3  1  0.44493000  0.55507000  0.40772000  1.0 0.9708789311
Mn  Mn4  1  0.78323000  0.21677000  0.48036000  1.0 0.5509676558
Mn  Mn5  1  0.69860000  0.30140000  0.49048000  1.0 0.483268144
Mn  Mn6  1  0.55507000  0.44493000  0.59228000  1.0 0.9708789311
Mn  Mn7  1  0.21677000  0.78323000  0.51964000  1.0 0.5509676558
Mn  Mn8  1  0.30140000  0.69860000  0.50952000  1.0 0.483268144
H  H1  1  0.32370000  0.29170000  0.12140000  1.0 0.2703304388
H  H2  1  0.91060000  0.53660000  0.22290000  1.0 0.2810387336
H  H3  1  0.38920000  0.01660000  0.22490000  1.0 0.2644902117
H  H4  1  0.11970000  0.03190000  0.35160000  1.0 0.1005682835
H  H5  1  0.12560000  0.13180000  0.27810000  1.0 0.1005682835
H  H6  1  0.48800000  0.86700000  0.30760000  1.0 0.1005682835
H  H7  1  0.47820000  0.76880000  0.38160000  1.0 0.1005682835
H  H8  1  0.73120000  0.59320000  0.23330000  1.0 0.1103749037
H  H9  1  0.92890000  0.29950000  0.39550000  1.0 0.1190288015
H  H10  1  0.62620000  0.58100000  0.29160000  1.0 0.1103749037
H  H11  1  0.03820000  0.31260000  0.33830000  1.0 0.1103749037
H  H12  1  0.26670000  0.56490000  0.00950000  1.0 0.0740516394
H  H13  1  0.33940000  0.38960000  0.05560000  1.0 0.0545211606
H  H14  1  0.97540000  0.75900000  0.09900000  1.0 0.1005682835
H  H15  1  0.03340000  0.58760000  0.13440000  1.0 0.0919542111
H  H16  1  0.12770000  0.05670000  0.37820000  1.0 0.1005682835
H  H17  1  0.46940000  0.74220000  0.35650000  1.0 0.1005682835
H  H18  1  0.47790000  0.84170000  0.28250000  1.0 0.1005682835
H  H19  1  0.13620000  0.15620000  0.30420000  1.0 0.1005682835
H  H20  1  0.14840000  0.54520000  0.19210000  1.0 0.0740516394
H  H21  1  0.08230000  0.72370000  0.15480000  1.0 0.0919542111
H  H22  1  0.26070000  0.41710000  0.02860000  1.0 0.0564134342
H  H23  1  0.19190000  0.59630000  0.99260000  1.0 0.0840262197
H  H24  1  0.29170000  0.32370000  0.87860000  1.0 0.2703304388
H  H25  1  0.53660000  0.91060000  0.77710000  1.0 0.2810387336
H  H26  1  0.01660000  0.38920000  0.77510000  1.0 0.2644902117
H  H27  1  0.03190000  0.11970000  0.64840000  1.0 0.1005682835
H  H28  1  0.13180000  0.12560000  0.72190000  1.0 0.1005682835
H  H29  1  0.86700000  0.48800000  0.69240000  1.0 0.1005682835
H  H30  1  0.76880000  0.47820000  0.61840000  1.0 0.1005682835
H  H31  1  0.59320000  0.73120000  0.76670000  1.0 0.1103749037
H  H32  1  0.29950000  0.92890000  0.60450000  1.0 0.1190288015
H  H33  1  0.58100000  0.62620000  0.70840000  1.0 0.1103749037
H  H34  1  0.31260000  0.03820000  0.66170000  1.0 0.1103749037
H  H35  1  0.56490000  0.26670000  0.99050000  1.0 0.0740516394
H  H36  1  0.38960000  0.33940000  0.94440000  1.0 0.0564134342
H  H37  1  0.75900000  0.97540000  0.90100000  1.0 0.1005682835
H  H38  1  0.58760000  0.03340000  0.86560000  1.0 0.0919542111
H  H39  1  0.05670000  0.12770000  0.62180000  1.0 0.1005682835
H  H40  1  0.74220000  0.46940000  0.64350000  1.0 0.1005682835
H  H41  1  0.84170000  0.47790000  0.71750000  1.0 0.1005682835
H  H42  1  0.15620000  0.13620000  0.69580000  1.0 0.1005682835
H  H43  1  0.54520000  0.14840000  0.80790000  1.0 0.0740516394
H  H44  1  0.72370000  0.08230000  0.84520000  1.0 0.0919542111
H  H45  1  0.41710000  0.26070000  0.97140000  1.0 0.0564134342
H  H46  1  0.59630000  0.19190000  0.00740000  1.0 0.0840262197
H  H47  1  0.67630000  0.70830000  0.87860000  1.0 0.2703304388
H  H48  1  0.08940000  0.46340000  0.77710000  1.0 0.2810387336
H  H49  1  0.61080000  0.98340000  0.77510000  1.0 0.2644902117
H  H50  1  0.88030000  0.96810000  0.64840000  1.0 0.1005682835
H  H51  1  0.87440000  0.86820000  0.72190000  1.0 0.1005682835
H  H52  1  0.51200000  0.13300000  0.69240000  1.0 0.1005682835
H  H53  1  0.52180000  0.23120000  0.61840000  1.0 0.1005682835
H  H54  1  0.26880000  0.40680000  0.76670000  1.0 0.1103749037
H  H55  1  0.07110000  0.70050000  0.60450000  1.0 0.1190288015
H  H56  1  0.37380000  0.41900000  0.70840000  1.0 0.1103749037
H  H57  1  0.96180000  0.68740000  0.66170000  1.0 0.1103749037
H  H58  1  0.73330000  0.43510000  0.99050000  1.0 0.0740516394
H  H59  1  0.66060000  0.61040000  0.94440000  1.0 0.0564134342
H  H60  1  0.02460000  0.24100000  0.90100000  1.0 0.1005682835
H  H61  1  0.96660000  0.41240000  0.86560000  1.0 0.0919542111
H  H62  1  0.87230000  0.94330000  0.62180000  1.0 0.1005682835
H  H63  1  0.53060000  0.25780000  0.64350000  1.0 0.1005682835
H  H64  1  0.52210000  0.15830000  0.71750000  1.0 0.1005682835
H  H65  1  0.86380000  0.84380000  0.69580000  1.0 0.1005682835
H  H66  1  0.85160000  0.45480000  0.80790000  1.0 0.0740516394
H  H67  1  0.91770000  0.27630000  0.84520000  1.0 0.0919542111
H  H68  1  0.73930000  0.58290000  0.97140000  1.0 0.0564134342
H  H69  1  0.80810000  0.40370000  0.00740000  1.0 0.0840262197
H  H70  1  0.70830000  0.67630000  0.12140000  1.0 0.2703304388
H  H71  1  0.46340000  0.08940000  0.22290000  1.0 0.2810387336
H  H72  1  0.98340000  0.61080000  0.22490000  1.0 0.2644902117
H  H73  1  0.96810000  0.88030000  0.35160000  1.0 0.1005682835
H  H74  1  0.86820000  0.87440000  0.27810000  1.0 0.1005682835
H  H75  1  0.13300000  0.51200000  0.30760000  1.0 0.1005682835
H  H76  1  0.23120000  0.52180000  0.38160000  1.0 0.1005682835
H  H77  1  0.40680000  0.26880000  0.23330000  1.0 0.1103749037
H  H78  1  0.70050000  0.07110000  0.39550000  1.0 0.1190288015
H  H79  1  0.41900000  0.37380000  0.29160000  1.0 0.1103749037
H  H80  1  0.68740000  0.96180000  0.33830000  1.0 0.1103749037
H  H81  1  0.43510000  0.73330000  0.00950000  1.0 0.0740516394
H  H82  1  0.61040000  0.66060000  0.05560000  1.0 0.0545211606
H  H83  1  0.24100000  0.02460000  0.09900000  1.0 0.1005682835
H  H84  1  0.41240000  0.96660000  0.13440000  1.0 0.0919542111
H  H85  1  0.94330000  0.87230000  0.37820000  1.0 0.1005682835
H  H86  1  0.25780000  0.53060000  0.35650000  1.0 0.1005682835
H  H87  1  0.15830000  0.52210000  0.28250000  1.0 0.1005682835
H  H88  1  0.84380000  0.86380000  0.30420000  1.0 0.1005682835
H  H89  1  0.45480000  0.85160000  0.19210000  1.0 0.0740516394
H  H90  1  0.27630000  0.91770000  0.15480000  1.0 0.0919542111
H  H91  1  0.58290000  0.73930000  0.02860000  1.0 0.0564134342
H  H92  1  0.40370000  0.80810000  0.99260000  1.0 0.0840262197
C  C1  1  0.20998000  0.32998000  0.17180000  1.0 0.5190724455
C  C2  1  0.08166000  0.79426000  0.03850000  1.0 0.5509676558
C  C3  1  0.24389000  0.18449000  0.22380000  1.0 0.5105144702
C  C4  1  0.06712000  0.37852000  0.22460000  1.0 0.5278784208
C  C5  1  0.76900000  0.43760000  0.34980000  1.0 -0.0325493098
C  C6  1  0.89569000  0.45129000  0.27730000  1.0 0.2213117353
C  C7  1  0.70080000  0.42880000  0.38810000  1.0 0.5679739885
C  C8  1  0.28910000  0.83190000  0.42700000  1.0 0.4075063787
C  C9  1  0.29773000  0.89013000  0.37430000  1.0 -0.0193902939
C  C10  1  0.30790000  0.00830000  0.28630000  1.0 0.1190288015
C  C11  1  0.19540000  0.99760000  0.34280000  1.0 -0.0909956541
C  C12  1  0.19810000  0.05770000  0.29910000  1.0 -0.0724453553
C  C13  1  0.41240000  0.90100000  0.31660000  1.0 -0.0909956541
C  C14  1  0.40590000  0.84310000  0.36050000  1.0 -0.0724453553
C  C15  1  0.20500000  0.46680000  0.11040000  1.0 0.1103749037
C  C16  1  0.12451000  0.67931000  0.06310000  1.0 -0.0325493098
C  C17  1  0.77340000  0.53160000  0.26610000  1.0 -0.2022248782
C  C18  1  0.88810000  0.36010000  0.36230000  1.0 -0.1182492521
C  C19  1  0.71060000  0.52500000  0.30100000  1.0 -0.1182492521
C  C20  1  0.95470000  0.36590000  0.32750000  1.0 -0.2022248782
C  C21  1  0.22750000  0.56730000  0.04110000  1.0 -0.0511725737
C  C22  1  0.26740000  0.46480000  0.06710000  1.0 -0.0607810955
C  C23  1  0.05320000  0.68320000  0.09300000  1.0 -0.0724453553
C  C24  1  0.08860000  0.58120000  0.11530000  1.0 -0.0607810955
C  C25  1  0.19880000  0.01300000  0.35880000  1.0 -0.0724453553
C  C26  1  0.40180000  0.82620000  0.34590000  1.0 -0.0724453553
C  C27  1  0.40680000  0.88540000  0.30190000  1.0 -0.0968122162
C  C28  1  0.20380000  0.07220000  0.31480000  1.0 -0.0511725737
C  C29  1  0.15440000  0.55760000  0.15090000  1.0 -0.0909956541
C  C30  1  0.11500000  0.66280000  0.12890000  1.0 -0.0443948485
C  C31  1  0.22120000  0.48000000  0.05420000  1.0 -0.0607810955
C  C32  1  0.17880000  0.58920000  0.03300000  1.0 -0.0325493098
C  C33  1  0.32998000  0.20998000  0.82820000  1.0 0.5190724455
C  C34  1  0.79426000  0.08166000  0.96150000  1.0 0.5509676558
C  C35  1  0.18449000  0.24389000  0.77620000  1.0 0.5105144702
C  C36  1  0.37852000  0.06712000  0.77540000  1.0 0.5278784208
C  C37  1  0.43760000  0.76900000  0.65020000  1.0 -0.0325493098
C  C38  1  0.45129000  0.89569000  0.72270000  1.0 0.2213117353
C  C39  1  0.42880000  0.70080000  0.61190000  1.0 0.5679739885
C  C40  1  0.83190000  0.28910000  0.57300000  1.0 0.4075063787
C  C41  1  0.89013000  0.29773000  0.62570000  1.0 -0.0193902939
C  C42  1  0.00830000  0.30790000  0.71370000  1.0 0.1190288015
C  C43  1  0.99760000  0.19540000  0.65720000  1.0 -0.0909956541
C  C44  1  0.05770000  0.19810000  0.70090000  1.0 -0.0724453553
C  C45  1  0.90100000  0.41240000  0.68340000  1.0 -0.0909956541
C  C46  1  0.84310000  0.40590000  0.63950000  1.0 -0.0724453553
C  C47  1  0.46680000  0.20500000  0.88960000  1.0 0.1103749037
C  C48  1  0.67931000  0.12451000  0.93690000  1.0 -0.0325493098
C  C49  1  0.53160000  0.77340000  0.73390000  1.0 -0.2022248782
C  C50  1  0.36010000  0.88810000  0.63770000  1.0 -0.1182492521
C  C51  1  0.52500000  0.71060000  0.69900000  1.0 -0.1182492521
C  C52  1  0.36590000  0.95470000  0.67250000  1.0 -0.2022248782
C  C53  1  0.56730000  0.22750000  0.95890000  1.0 -0.0511725737
C  C54  1  0.46480000  0.26740000  0.93290000  1.0 -0.0607810955
C  C55  1  0.68320000  0.05320000  0.90700000  1.0 -0.0724453553
C  C56  1  0.58120000  0.08860000  0.88470000  1.0 -0.0607810955
C  C57  1  0.01300000  0.19880000  0.64120000  1.0 -0.0724453553
C  C58  1  0.82620000  0.40180000  0.65410000  1.0 -0.0724453553
C  C59  1  0.88540000  0.40680000  0.69810000  1.0 -0.0968122162
C  C60  1  0.07220000  0.20380000  0.68520000  1.0 -0.0511725737
C  C61  1  0.55760000  0.15440000  0.84910000  1.0 -0.0909956541
C  C62  1  0.66280000  0.11500000  0.87110000  1.0 -0.0443948485
C  C63  1  0.48000000  0.22120000  0.94580000  1.0 -0.0607810955
C  C64  1  0.58920000  0.17880000  0.96700000  1.0 -0.0325493098
C  C65  1  0.79002000  0.67002000  0.82820000  1.0 0.5190724455
C  C66  1  0.91834000  0.20574000  0.96150000  1.0 0.5509676558
C  C67  1  0.75611000  0.81551000  0.77620000  1.0 0.5105144702
C  C68  1  0.93288000  0.62148000  0.77540000  1.0 0.5278784208
C  C69  1  0.23100000  0.56240000  0.65020000  1.0 -0.0325493098
C  C70  1  0.10431000  0.54871000  0.72270000  1.0 0.2213117353
C  C71  1  0.29920000  0.57120000  0.61190000  1.0 0.5679739885
C  C72  1  0.71090000  0.16810000  0.57300000  1.0 0.4075063787
C  C73  1  0.70227000  0.10987000  0.62570000  1.0 -0.0193902939
C  C74  1  0.69210000  0.99170000  0.71370000  1.0 0.1190288015
C  C75  1  0.80460000  0.00240000  0.65720000  1.0 -0.0909956541
C  C76  1  0.80190000  0.94230000  0.70090000  1.0 -0.0724453553
C  C77  1  0.58760000  0.09900000  0.68340000  1.0 -0.0909956541
C  C78  1  0.59410000  0.15690000  0.63950000  1.0 -0.0724453553
C  C79  1  0.79500000  0.53320000  0.88960000  1.0 0.1103749037
C  C80  1  0.87549000  0.32069000  0.93690000  1.0 -0.0325493098
C  C81  1  0.22660000  0.46840000  0.73390000  1.0 -0.2022248782
C  C82  1  0.11190000  0.63990000  0.63770000  1.0 -0.1182492521
C  C83  1  0.28940000  0.47500000  0.69900000  1.0 -0.1182492521
C  C84  1  0.04530000  0.63410000  0.67250000  1.0 -0.2022248782
C  C85  1  0.77250000  0.43270000  0.95890000  1.0 -0.0511725737
C  C86  1  0.73260000  0.53520000  0.93290000  1.0 -0.0607810955
C  C87  1  0.94680000  0.31680000  0.90700000  1.0 -0.0724453553
C  C88  1  0.91140000  0.41880000  0.88470000  1.0 -0.0607810955
C  C89  1  0.80120000  0.98700000  0.64120000  1.0 -0.0724453553
C  C90  1  0.59820000  0.17380000  0.65410000  1.0 -0.0724453553
C  C91  1  0.59320000  0.11460000  0.69810000  1.0 -0.0968122162
C  C92  1  0.79620000  0.92780000  0.68520000  1.0 -0.0511725737
C  C93  1  0.84560000  0.44240000  0.84910000  1.0 -0.0909956541
C  C94  1  0.88500000  0.33720000  0.87110000  1.0 -0.0443948485
C  C95  1  0.77880000  0.52000000  0.94580000  1.0 -0.0607810955
C  C96  1  0.82120000  0.41080000  0.96700000  1.0 -0.0325493098
C  C97  1  0.67002000  0.79002000  0.17180000  1.0 0.5190724455
C  C98  1  0.20574000  0.91834000  0.03850000  1.0 0.5509676558
C  C99  1  0.81551000  0.75611000  0.22380000  1.0 0.5105144702
C  C100  1  0.62148000  0.93288000  0.22460000  1.0 0.5278784208
C  C101  1  0.56240000  0.23100000  0.34980000  1.0 -0.0325493098
C  C102  1  0.54871000  0.10431000  0.27730000  1.0 0.2213117353
C  C103  1  0.57120000  0.29920000  0.38810000  1.0 0.5679739885
C  C104  1  0.16810000  0.71090000  0.42700000  1.0 0.4075063787
C  C105  1  0.10987000  0.70227000  0.37430000  1.0 -0.0193902939
C  C106  1  0.99170000  0.69210000  0.28630000  1.0 0.1190288015
C  C107  1  0.00240000  0.80460000  0.34280000  1.0 -0.0909956541
C  C108  1  0.94230000  0.80190000  0.29910000  1.0 -0.0724453553
C  C109  1  0.09900000  0.58760000  0.31660000  1.0 -0.0909956541
C  C110  1  0.15690000  0.59410000  0.36050000  1.0 -0.0724453553
C  C111  1  0.53320000  0.79500000  0.11040000  1.0 0.1103749037
C  C112  1  0.32069000  0.87549000  0.06310000  1.0 -0.0325493098
C  C113  1  0.46840000  0.22660000  0.26610000  1.0 -0.2022248782
C  C114  1  0.63990000  0.11190000  0.36230000  1.0 -0.1182492521
C  C115  1  0.47500000  0.28940000  0.30100000  1.0 -0.1182492521
C  C116  1  0.63410000  0.04530000  0.32750000  1.0 -0.2022248782
C  C117  1  0.43270000  0.77250000  0.04110000  1.0 -0.0511725737
C  C118  1  0.53520000  0.73260000  0.06710000  1.0 -0.0607810955
C  C119  1  0.31680000  0.94680000  0.09300000  1.0 -0.0724453553
C  C120  1  0.41880000  0.91140000  0.11530000  1.0 -0.0607810955
C  C121  1  0.98700000  0.80120000  0.35880000  1.0 -0.0724453553
C  C122  1  0.17380000  0.59820000  0.34590000  1.0 -0.0724453553
C  C123  1  0.11460000  0.59320000  0.30190000  1.0 -0.0968122162
C  C124  1  0.92780000  0.79620000  0.31480000  1.0 -0.0511725737
C  C125  1  0.44240000  0.84560000  0.15090000  1.0 -0.0909956541
C  C126  1  0.33720000  0.88500000  0.12890000  1.0 -0.0443948485
C  C127  1  0.52000000  0.77880000  0.05420000  1.0 -0.0607810955
C  C128  1  0.41080000  0.82120000  0.03300000  1.0 -0.0325493098
N  N1  1  0.10055000  0.41815000  0.18980000  1.0 -0.5383863501
N  N2  1  0.28629000  0.21089000  0.18740000  1.0 -0.5195432432
N  N3  1  0.13581000  0.26241000  0.24390000  1.0 -0.4987173058
N  N4  1  0.25384000  0.35504000  0.13370000  1.0 -0.4465770103
N  N5  1  0.95435000  0.46315000  0.23930000  1.0 -0.3645210542
N  N6  1  0.32168000  0.06548000  0.24210000  1.0 -0.4831930079
N  N7  1  0.41815000  0.10055000  0.81020000  1.0 -0.5383863501
N  N8  1  0.21089000  0.28629000  0.81260000  1.0 -0.5195432432
N  N9  1  0.26241000  0.13581000  0.75610000  1.0 -0.4987173058
N  N10  1  0.35504000  0.25384000  0.86630000  1.0 -0.4465770103
N  N11  1  0.46315000  0.95435000  0.76070000  1.0 -0.3651656188
N  N12  1  0.06548000  0.32168000  0.75790000  1.0 -0.4831930079
N  N13  1  0.89945000  0.58185000  0.81020000  1.0 -0.5383863501
N  N14  1  0.71371000  0.78911000  0.81260000  1.0 -0.5195432432
N  N15  1  0.86419000  0.73759000  0.75610000  1.0 -0.4987173058
N  N16  1  0.74616000  0.64496000  0.86630000  1.0 -0.4465770103
N  N17  1  0.04565000  0.53685000  0.76070000  1.0 -0.3651656188
N  N18  1  0.67832000  0.93452000  0.75790000  1.0 -0.4831930079
N  N19  1  0.58185000  0.89945000  0.18980000  1.0 -0.5383863501
N  N20  1  0.78911000  0.71371000  0.18740000  1.0 -0.5195432432
N  N21  1  0.73759000  0.86419000  0.24390000  1.0 -0.4987173058
N  N22  1  0.64496000  0.74616000  0.13370000  1.0 -0.4465770103
N  N23  1  0.53685000  0.04565000  0.23930000  1.0 -0.3645210542
N  N24  1  0.93452000  0.67832000  0.24210000  1.0 -0.4831930079
O  O1  1  0.10689000  0.79749000  0.98700000  1.0 -0.5195432432
O  O2  1  0.02581000  0.87661000  0.07190000  1.0 -0.5383863501
O  O3  1  0.76264000  0.33644000  0.42320000  1.0 -0.4719915666
O  O4  1  0.37360000  0.72620000  0.44200000  1.0 -0.4070024915
O  O5  1  0.19970000  0.89370000  0.45360000  1.0 -0.3955893643
O  O6  1  0.59000000  0.51420000  0.38110000  1.0 -0.5463825144
O  O7  1  0.79749000  0.10689000  0.01300000  1.0 -0.5195432432
O  O8  1  0.87661000  0.02581000  0.92810000  1.0 -0.5383863501
O  O9  1  0.33644000  0.76264000  0.57680000  1.0 -0.4719915666
O  O10  1  0.72620000  0.37360000  0.55800000  1.0 -0.4070024915
O  O11  1  0.89370000  0.19970000  0.54640000  1.0 -0.3955893643
O  O12  1  0.51420000  0.59000000  0.61890000  1.0 -0.5463825144
O  O13  1  0.89311000  0.20251000  0.01300000  1.0 -0.5195432432
O  O14  1  0.97419000  0.12339000  0.92810000  1.0 -0.5383863501
O  O15  1  0.23736000  0.66356000  0.57680000  1.0 -0.4719915666
O  O16  1  0.62640000  0.27380000  0.55800000  1.0 -0.4070024915
O  O17  1  0.80030000  0.10630000  0.54640000  1.0 -0.3955893643
O  O18  1  0.41000000  0.48580000  0.61890000  1.0 -0.5463825144
O  O19  1  0.20251000  0.89311000  0.98700000  1.0 -0.5195432432
O  O20  1  0.12339000  0.97419000  0.07190000  1.0 -0.5383863501
O  O21  1  0.66356000  0.23736000  0.42320000  1.0 -0.4719915666
O  O22  1  0.27380000  0.62640000  0.44200000  1.0 -0.4070024915
O  O23  1  0.10630000  0.80030000  0.45360000  1.0 -0.3955893643
O  O24  1  0.48580000  0.41000000  0.38110000  1.0 -0.5463825144
O  O25  1  0.50000000  0.50000000  0.50000000  1.0 -0.7462738432
