# DDEC6 charges by PACMAN v1.1 (https://github.com/mtap-research/PACMAN-charge/)
data_ENIXUX_FSR_pacman
_chemical_formula_sum              "O26 C288 H174 Co6 N12"
_cell_length_a       16.9419
_cell_length_b       16.9419
_cell_length_c       20.627
_cell_angle_alpha    90
_cell_angle_beta     90
_cell_angle_gamma    120

_symmetry_space_group_name_H-M    "P 1"
_symmetry_Int_Tables_number       1

loop_
  _symmetry_equiv_pos_as_xyz
  'x, y, z'

loop_
  _atom_site_type_symbol
  _atom_site_label
  _atom_site_symmetry_multiplicity
  _atom_site_fract_x
  _atom_site_fract_y
  _atom_site_fract_z
  _atom_site_occupancy
 _atom_site_charge
O   O1        1.0  0.34520  0.52212  0.17885  1.0000 -0.2937505342
C   C1        1.0  0.51210  0.57210  0.07170  1.0000 -0.0052214684
C   C2        1.0  0.43510  0.51790  0.10880  1.0000 -0.0302129158
C   C3        1.0  0.37810  0.42700  0.09230  1.0000 -0.1099254661
C   C4        1.0  0.39800  0.39030  0.03870  1.0000 -0.0384674653
C   C5        1.0  0.47500  0.44450  0.00160  1.0000 0.0177435158
C   C6        1.0  0.53200  0.53540  0.01810  1.0000 0.0056093861
C   C7        1.0  0.60900  0.58960  0.98100  1.0000 -0.0384674653
C   C8        1.0  0.62890  0.55290  0.92740  1.0000 -0.0754047543
C   C9        1.0  0.57190  0.46200  0.91090  1.0000 -0.0384674653
C   C10       1.0  0.49490  0.40780  0.94800  1.0000 -0.0302129158
H   H1        1.0  0.32660  0.39071  0.11717  1.0000 0.0408692986
H   H2        1.0  0.35988  0.32949  0.02772  1.0000 0.0408692986
H   H3        1.0  0.55023  0.63287  0.08272  1.0000 0.0509155035
H   H4        1.0  0.64712  0.65039  0.99202  1.0000 0.0509155035
H   H5        1.0  0.68040  0.58918  0.90257  1.0000 0.0509155035
H   H6        1.0  0.45678  0.34701  0.93701  1.0000 0.0584377028
O   O2        1.0  0.47788  0.82308  0.17885  1.0000 -0.2937505342
C   C11       1.0  0.42790  0.94000  0.07170  1.0000 -0.0052214684
C   C12       1.0  0.48210  0.91720  0.10880  1.0000 -0.0302129158
C   C13       1.0  0.57300  0.95110  0.09230  1.0000 -0.1099254661
C   C14       1.0  0.60970  0.00770  0.03870  1.0000 -0.0384674653
C   C15       1.0  0.55550  0.03050  0.00160  1.0000 0.0177435158
C   C16       1.0  0.46460  0.99660  0.01810  1.0000 0.0056093861
C   C17       1.0  0.41040  0.01940  0.98100  1.0000 -0.0384674653
C   C18       1.0  0.44710  0.07600  0.92740  1.0000 -0.0754047543
C   C19       1.0  0.53800  0.10990  0.91090  1.0000 -0.0384674653
C   C20       1.0  0.59220  0.08710  0.94800  1.0000 -0.0302129158
H   H7        1.0  0.60929  0.93590  0.11717  1.0000 0.0408692986
H   H8        1.0  0.67051  0.03039  0.02772  1.0000 0.0408692986
H   H9        1.0  0.36713  0.91736  0.08272  1.0000 0.0509155035
H   H10       1.0  0.34961  0.99673  0.99202  1.0000 0.0509155035
H   H11       1.0  0.41082  0.09122  0.90257  1.0000 0.0509155035
H   H12       1.0  0.65299  0.10976  0.93701  1.0000 0.0584377028
O   O3        1.0  0.17692  0.65480  0.17885  1.0000 -0.2937505342
C   C21       1.0  0.06000  0.48790  0.07170  1.0000 -0.0052214684
C   C22       1.0  0.08280  0.56490  0.10880  1.0000 -0.0302129158
C   C23       1.0  0.04890  0.62190  0.09230  1.0000 -0.1099254661
C   C24       1.0  0.99230  0.60200  0.03870  1.0000 -0.0384674653
C   C25       1.0  0.96950  0.52500  0.00160  1.0000 0.0177435158
C   C26       1.0  0.00340  0.46800  0.01810  1.0000 0.0056093861
C   C27       1.0  0.98060  0.39100  0.98100  1.0000 -0.0384674653
C   C28       1.0  0.92400  0.37110  0.92740  1.0000 -0.0746287242
C   C29       1.0  0.89010  0.42810  0.91090  1.0000 -0.0384674653
C   C30       1.0  0.91290  0.50510  0.94800  1.0000 -0.0302129158
H   H13       1.0  0.06410  0.67340  0.11717  1.0000 0.0408692986
H   H14       1.0  0.96961  0.64012  0.02772  1.0000 0.0408692986
H   H15       1.0  0.08264  0.44977  0.08272  1.0000 0.0509155035
H   H16       1.0  0.00327  0.35288  0.99202  1.0000 0.0509155035
H   H17       1.0  0.90878  0.31960  0.90257  1.0000 0.0509155035
H   H18       1.0  0.89024  0.54322  0.93701  1.0000 0.0584377028
O   O4        1.0  0.65480  0.47788  0.67885  1.0000 -0.2937505342
C   C31       1.0  0.48790  0.42790  0.57170  1.0000 -0.0035653584
C   C32       1.0  0.56490  0.48210  0.60880  1.0000 -0.0302129158
C   C33       1.0  0.62190  0.57300  0.59230  1.0000 -0.1099254661
C   C34       1.0  0.60200  0.60970  0.53870  1.0000 -0.0384674653
C   C35       1.0  0.52500  0.55550  0.50160  1.0000 0.0177435158
C   C36       1.0  0.46800  0.46460  0.51810  1.0000 0.0056093861
C   C37       1.0  0.39100  0.41040  0.48100  1.0000 -0.0384674653
C   C38       1.0  0.37110  0.44710  0.42740  1.0000 -0.0746287242
C   C39       1.0  0.42810  0.53800  0.41090  1.0000 -0.0384674653
C   C40       1.0  0.50510  0.59220  0.44800  1.0000 -0.0302129158
H   H19       1.0  0.67340  0.60929  0.61717  1.0000 0.0408692986
H   H20       1.0  0.64012  0.67051  0.52772  1.0000 0.0408692986
H   H21       1.0  0.44977  0.36713  0.58272  1.0000 0.0509155035
H   H22       1.0  0.35288  0.34961  0.49202  1.0000 0.0509155035
H   H23       1.0  0.31960  0.41082  0.40257  1.0000 0.0509155035
H   H24       1.0  0.54322  0.65299  0.43701  1.0000 0.0584377028
O   O5        1.0  0.52212  0.17692  0.67885  1.0000 -0.2937505342
C   C41       1.0  0.57210  0.06000  0.57170  1.0000 -0.0035653584
C   C42       1.0  0.51790  0.08280  0.60880  1.0000 -0.0302129158
C   C43       1.0  0.42700  0.04890  0.59230  1.0000 -0.1099254661
C   C44       1.0  0.39030  0.99230  0.53870  1.0000 -0.0384674653
C   C45       1.0  0.44450  0.96950  0.50160  1.0000 0.0177435158
C   C46       1.0  0.53540  0.00340  0.51810  1.0000 0.0056093861
C   C47       1.0  0.58960  0.98060  0.48100  1.0000 -0.0384674653
C   C48       1.0  0.55290  0.92400  0.42740  1.0000 -0.0746287242
C   C49       1.0  0.46200  0.89010  0.41090  1.0000 -0.0384674653
C   C50       1.0  0.40780  0.91290  0.44800  1.0000 -0.0302129158
H   H25       1.0  0.39071  0.06410  0.61717  1.0000 0.0408692986
H   H26       1.0  0.32949  0.96961  0.52772  1.0000 0.0408692986
H   H27       1.0  0.63287  0.08264  0.58272  1.0000 0.0509155035
H   H28       1.0  0.65039  0.00327  0.49202  1.0000 0.0509155035
H   H29       1.0  0.58918  0.90878  0.40257  1.0000 0.0509155035
H   H30       1.0  0.34701  0.89024  0.43701  1.0000 0.0584377028
O   O6        1.0  0.82308  0.34520  0.67885  1.0000 -0.2937505342
C   C51       1.0  0.94000  0.51210  0.57170  1.0000 -0.0035653584
C   C52       1.0  0.91720  0.43510  0.60880  1.0000 -0.0302129158
C   C53       1.0  0.95110  0.37810  0.59230  1.0000 -0.1099254661
C   C54       1.0  0.00770  0.39800  0.53870  1.0000 -0.0384674653
C   C55       1.0  0.03050  0.47500  0.50160  1.0000 0.0177435158
C   C56       1.0  0.99660  0.53200  0.51810  1.0000 0.0056093861
C   C57       1.0  0.01940  0.60900  0.48100  1.0000 -0.0384674653
C   C58       1.0  0.07600  0.62890  0.42740  1.0000 -0.0754047543
C   C59       1.0  0.10990  0.57190  0.41090  1.0000 -0.0384674653
C   C60       1.0  0.08710  0.49490  0.44800  1.0000 -0.0302129158
H   H31       1.0  0.93590  0.32660  0.61717  1.0000 0.0408692986
H   H32       1.0  0.03039  0.35988  0.52772  1.0000 0.0408692986
H   H33       1.0  0.91736  0.55023  0.58272  1.0000 0.0509155035
H   H34       1.0  0.99673  0.64712  0.49202  1.0000 0.0509155035
H   H35       1.0  0.09122  0.68040  0.40257  1.0000 0.0509155035
H   H36       1.0  0.10976  0.45678  0.43701  1.0000 0.0584377028
O   O7        1.0  0.52212  0.34520  0.82115  1.0000 -0.2937505342
C   C61       1.0  0.57210  0.51210  0.92830  1.0000 -0.0035653584
C   C62       1.0  0.51790  0.43510  0.89120  1.0000 -0.0302129158
C   C63       1.0  0.42700  0.37810  0.90770  1.0000 -0.1099254661
C   C64       1.0  0.39030  0.39800  0.96130  1.0000 -0.0384674653
C   C65       1.0  0.44450  0.47500  0.99840  1.0000 0.0177435158
C   C66       1.0  0.53540  0.53200  0.98190  1.0000 0.0056093861
C   C67       1.0  0.58960  0.60900  0.01900  1.0000 -0.0384674653
C   C68       1.0  0.55290  0.62890  0.07260  1.0000 -0.0746287242
C   C69       1.0  0.46200  0.57190  0.08910  1.0000 -0.0384674653
C   C70       1.0  0.40780  0.49490  0.05200  1.0000 -0.0302129158
H   H37       1.0  0.39071  0.32660  0.88283  1.0000 0.0408692986
H   H38       1.0  0.32949  0.35988  0.97228  1.0000 0.0408692986
H   H39       1.0  0.63287  0.55023  0.91728  1.0000 0.0509155035
H   H40       1.0  0.65039  0.64712  0.00798  1.0000 0.0509155035
H   H41       1.0  0.58918  0.68040  0.09743  1.0000 0.0509155035
H   H42       1.0  0.34701  0.45678  0.06299  1.0000 0.0584377028
O   O8        1.0  0.82308  0.47788  0.82115  1.0000 -0.2937505342
C   C71       1.0  0.94000  0.42790  0.92830  1.0000 -0.0035653584
C   C72       1.0  0.91720  0.48210  0.89120  1.0000 -0.0302129158
C   C73       1.0  0.95110  0.57300  0.90770  1.0000 -0.1099254661
C   C74       1.0  0.00770  0.60970  0.96130  1.0000 -0.0384674653
C   C75       1.0  0.03050  0.55550  0.99840  1.0000 0.0177435158
C   C76       1.0  0.99660  0.46460  0.98190  1.0000 0.0056093861
C   C77       1.0  0.01940  0.41040  0.01900  1.0000 -0.0384674653
C   C78       1.0  0.07600  0.44710  0.07260  1.0000 -0.0754047543
C   C79       1.0  0.10990  0.53800  0.08910  1.0000 -0.0384674653
C   C80       1.0  0.08710  0.59220  0.05200  1.0000 -0.0302129158
H   H43       1.0  0.93590  0.60929  0.88283  1.0000 0.0408692986
H   H44       1.0  0.03039  0.67051  0.97228  1.0000 0.0408692986
H   H45       1.0  0.91736  0.36713  0.91728  1.0000 0.0509155035
H   H46       1.0  0.99673  0.34961  0.00798  1.0000 0.0509155035
H   H47       1.0  0.09122  0.41082  0.09743  1.0000 0.0509155035
H   H48       1.0  0.10976  0.65299  0.06299  1.0000 0.0584377028
O   O9        1.0  0.65480  0.17692  0.82115  1.0000 -0.2937505342
C   C81       1.0  0.48790  0.06000  0.92830  1.0000 -0.0035653584
C   C82       1.0  0.56490  0.08280  0.89120  1.0000 -0.0302129158
C   C83       1.0  0.62190  0.04890  0.90770  1.0000 -0.1099254661
C   C84       1.0  0.60200  0.99230  0.96130  1.0000 -0.0302129158
C   C85       1.0  0.52500  0.96950  0.99840  1.0000 0.0177435158
C   C86       1.0  0.46800  0.00340  0.98190  1.0000 0.0056093861
C   C87       1.0  0.39100  0.98060  0.01900  1.0000 -0.0384674653
C   C88       1.0  0.37110  0.92400  0.07260  1.0000 -0.0746287242
C   C89       1.0  0.42810  0.89010  0.08910  1.0000 -0.0384674653
C   C90       1.0  0.50510  0.91290  0.05200  1.0000 -0.0302129158
H   H49       1.0  0.67340  0.06410  0.88283  1.0000 0.0408692986
H   H50       1.0  0.64012  0.96961  0.97228  1.0000 0.0408692986
H   H51       1.0  0.44977  0.08264  0.91728  1.0000 0.0509155035
H   H52       1.0  0.35288  0.00327  0.00798  1.0000 0.0509155035
H   H53       1.0  0.31960  0.90878  0.09743  1.0000 0.0509155035
H   H54       1.0  0.54322  0.89024  0.06299  1.0000 0.0584377028
O   O10       1.0  0.47788  0.65480  0.32115  1.0000 -0.2937505342
C   C91       1.0  0.42790  0.48790  0.42830  1.0000 -0.0052214684
C   C92       1.0  0.48210  0.56490  0.39120  1.0000 -0.0302129158
C   C93       1.0  0.57300  0.62190  0.40770  1.0000 -0.1099254661
C   C94       1.0  0.60970  0.60200  0.46130  1.0000 -0.0384674653
C   C95       1.0  0.55550  0.52500  0.49840  1.0000 0.0177435158
C   C96       1.0  0.46460  0.46800  0.48190  1.0000 0.0056093861
C   C97       1.0  0.41040  0.39100  0.51900  1.0000 -0.0384674653
C   C98       1.0  0.44710  0.37110  0.57260  1.0000 -0.0754047543
C   C99       1.0  0.53800  0.42810  0.58910  1.0000 -0.0384674653
C   C100      1.0  0.59220  0.50510  0.55200  1.0000 -0.0302129158
H   H55       1.0  0.60929  0.67340  0.38283  1.0000 0.0408692986
H   H56       1.0  0.67051  0.64012  0.47228  1.0000 0.0408692986
H   H57       1.0  0.36713  0.44977  0.41728  1.0000 0.0509155035
H   H58       1.0  0.34961  0.35288  0.50798  1.0000 0.0509155035
H   H59       1.0  0.41082  0.31960  0.59743  1.0000 0.0509155035
H   H60       1.0  0.65299  0.54322  0.56299  1.0000 0.0584377028
O   O11       1.0  0.17692  0.52212  0.32115  1.0000 -0.2937505342
C   C101      1.0  0.06000  0.57210  0.42830  1.0000 -0.0052214684
C   C102      1.0  0.08280  0.51790  0.39120  1.0000 -0.0302129158
C   C103      1.0  0.04890  0.42700  0.40770  1.0000 -0.1099254661
C   C104      1.0  0.99230  0.39030  0.46130  1.0000 -0.0302129158
C   C105      1.0  0.96950  0.44450  0.49840  1.0000 0.0177435158
C   C106      1.0  0.00340  0.53540  0.48190  1.0000 0.0056093861
C   C107      1.0  0.98060  0.58960  0.51900  1.0000 -0.0384674653
C   C108      1.0  0.92400  0.55290  0.57260  1.0000 -0.0746287242
C   C109      1.0  0.89010  0.46200  0.58910  1.0000 -0.0384674653
C   C110      1.0  0.91290  0.40780  0.55200  1.0000 -0.0302129158
H   H61       1.0  0.06410  0.39071  0.38283  1.0000 0.0408692986
H   H62       1.0  0.96961  0.32949  0.47228  1.0000 0.0408692986
H   H63       1.0  0.08264  0.63287  0.41728  1.0000 0.0509155035
H   H64       1.0  0.00327  0.65039  0.50798  1.0000 0.0509155035
H   H65       1.0  0.90878  0.58918  0.59743  1.0000 0.0509155035
H   H66       1.0  0.89024  0.34701  0.56299  1.0000 0.0584377028
O   O12       1.0  0.34520  0.82308  0.32115  1.0000 -0.2937505342
C   C111      1.0  0.51210  0.94000  0.42830  1.0000 -0.0052214684
C   C112      1.0  0.43510  0.91720  0.39120  1.0000 -0.0302129158
C   C113      1.0  0.37810  0.95110  0.40770  1.0000 -0.1099254661
C   C114      1.0  0.39800  0.00770  0.46130  1.0000 -0.0384674653
C   C115      1.0  0.47500  0.03050  0.49840  1.0000 0.0177435158
C   C116      1.0  0.53200  0.99660  0.48190  1.0000 0.0056093861
C   C117      1.0  0.60900  0.01940  0.51900  1.0000 -0.0384674653
C   C118      1.0  0.62890  0.07600  0.57260  1.0000 -0.0754047543
C   C119      1.0  0.57190  0.10990  0.58910  1.0000 -0.0384674653
C   C120      1.0  0.49490  0.08710  0.55200  1.0000 -0.0248339043
H   H67       1.0  0.32660  0.93590  0.38283  1.0000 0.0408692986
H   H68       1.0  0.35988  0.03039  0.47228  1.0000 0.0408692986
H   H69       1.0  0.55023  0.91736  0.41728  1.0000 0.0509155035
H   H70       1.0  0.64712  0.99673  0.50798  1.0000 0.0509155035
H   H71       1.0  0.68040  0.09122  0.59743  1.0000 0.0509155035
H   H72       1.0  0.45678  0.10976  0.56299  1.0000 0.0584377028
O   O13       1.0  0.65480  0.47788  0.82115  1.0000 -0.2937505342
C   C121      1.0  0.48790  0.42790  0.92830  1.0000 -0.0035653584
C   C122      1.0  0.56490  0.48210  0.89120  1.0000 -0.0302129158
C   C123      1.0  0.62190  0.57300  0.90770  1.0000 -0.1099254661
C   C124      1.0  0.60200  0.60970  0.96130  1.0000 -0.0302129158
C   C125      1.0  0.52500  0.55550  0.99840  1.0000 0.0177435158
C   C126      1.0  0.46800  0.46460  0.98190  1.0000 0.0056093861
C   C127      1.0  0.39100  0.41040  0.01900  1.0000 -0.0384674653
C   C128      1.0  0.37110  0.44710  0.07260  1.0000 -0.0746287242
C   C129      1.0  0.42810  0.53800  0.08910  1.0000 -0.0384674653
C   C130      1.0  0.50510  0.59220  0.05200  1.0000 -0.0302129158
H   H73       1.0  0.67340  0.60929  0.88283  1.0000 0.0408692986
H   H74       1.0  0.64012  0.67051  0.97228  1.0000 0.0408692986
H   H75       1.0  0.44977  0.36713  0.91728  1.0000 0.0509155035
H   H76       1.0  0.35288  0.34961  0.00798  1.0000 0.0509155035
H   H77       1.0  0.31960  0.41082  0.09743  1.0000 0.0509155035
H   H78       1.0  0.54322  0.65299  0.06299  1.0000 0.0584377028
O   O14       1.0  0.52212  0.17692  0.82115  1.0000 -0.2937505342
C   C131      1.0  0.57210  0.06000  0.92830  1.0000 -0.0035653584
C   C132      1.0  0.51790  0.08280  0.89120  1.0000 -0.0302129158
C   C133      1.0  0.42700  0.04890  0.90770  1.0000 -0.1099254661
C   C134      1.0  0.39030  0.99230  0.96130  1.0000 -0.0302129158
C   C135      1.0  0.44450  0.96950  0.99840  1.0000 0.0177435158
C   C136      1.0  0.53540  0.00340  0.98190  1.0000 0.0056093861
C   C137      1.0  0.58960  0.98060  0.01900  1.0000 -0.0384674653
C   C138      1.0  0.55290  0.92400  0.07260  1.0000 -0.0746287242
C   C139      1.0  0.46200  0.89010  0.08910  1.0000 -0.0384674653
C   C140      1.0  0.40780  0.91290  0.05200  1.0000 -0.0302129158
H   H79       1.0  0.39071  0.06410  0.88283  1.0000 0.0408692986
H   H80       1.0  0.32949  0.96961  0.97228  1.0000 0.0408692986
H   H81       1.0  0.63287  0.08264  0.91728  1.0000 0.0509155035
H   H82       1.0  0.65039  0.00327  0.00798  1.0000 0.0509155035
H   H83       1.0  0.58918  0.90878  0.09743  1.0000 0.0509155035
H   H84       1.0  0.34701  0.89024  0.06299  1.0000 0.0584377028
O   O15       1.0  0.82308  0.34520  0.82115  1.0000 -0.2937505342
C   C141      1.0  0.94000  0.51210  0.92830  1.0000 -0.0035653584
C   C142      1.0  0.91720  0.43510  0.89120  1.0000 -0.0302129158
C   C143      1.0  0.95110  0.37810  0.90770  1.0000 -0.1099254661
C   C144      1.0  0.00770  0.39800  0.96130  1.0000 -0.0384674653
C   C145      1.0  0.03050  0.47500  0.99840  1.0000 0.0177435158
C   C146      1.0  0.99660  0.53200  0.98190  1.0000 0.0056093861
C   C147      1.0  0.01940  0.60900  0.01900  1.0000 -0.0384674653
C   C148      1.0  0.07600  0.62890  0.07260  1.0000 -0.0746287242
C   C149      1.0  0.10990  0.57190  0.08910  1.0000 -0.0384674653
C   C150      1.0  0.08710  0.49490  0.05200  1.0000 -0.0302129158
H   H85       1.0  0.93590  0.32660  0.88283  1.0000 0.0408692986
H   H86       1.0  0.03039  0.35988  0.97228  1.0000 0.0408692986
H   H87       1.0  0.91736  0.55023  0.91728  1.0000 0.0509155035
H   H88       1.0  0.99673  0.64712  0.00798  1.0000 0.0509155035
H   H89       1.0  0.09122  0.68040  0.09743  1.0000 0.0509155035
H   H90       1.0  0.10976  0.45678  0.06299  1.0000 0.0584377028
O   O16       1.0  0.34520  0.52212  0.32115  1.0000 -0.2937505342
C   C151      1.0  0.51210  0.57210  0.42830  1.0000 -0.0052214684
C   C152      1.0  0.43510  0.51790  0.39120  1.0000 -0.0302129158
C   C153      1.0  0.37810  0.42700  0.40770  1.0000 -0.1099254661
C   C154      1.0  0.39800  0.39030  0.46130  1.0000 -0.0384674653
C   C155      1.0  0.47500  0.44450  0.49840  1.0000 0.0177435158
C   C156      1.0  0.53200  0.53540  0.48190  1.0000 0.0056093861
C   C157      1.0  0.60900  0.58960  0.51900  1.0000 -0.0384674653
C   C158      1.0  0.62890  0.55290  0.57260  1.0000 -0.0746287242
C   C159      1.0  0.57190  0.46200  0.58910  1.0000 -0.0384674653
C   C160      1.0  0.49490  0.40780  0.55200  1.0000 -0.0248339043
H   H91       1.0  0.32660  0.39071  0.38283  1.0000 0.0408692986
H   H92       1.0  0.35988  0.32949  0.47228  1.0000 0.0408692986
H   H93       1.0  0.55023  0.63287  0.41728  1.0000 0.0509155035
H   H94       1.0  0.64712  0.65039  0.50798  1.0000 0.0509155035
H   H95       1.0  0.68040  0.58918  0.59743  1.0000 0.0509155035
H   H96       1.0  0.45678  0.34701  0.56299  1.0000 0.0584377028
O   O17       1.0  0.47788  0.82308  0.32115  1.0000 -0.2937505342
C   C161      1.0  0.42790  0.94000  0.42830  1.0000 -0.0052214684
C   C162      1.0  0.48210  0.91720  0.39120  1.0000 -0.0302129158
C   C163      1.0  0.57300  0.95110  0.40770  1.0000 -0.1099254661
C   C164      1.0  0.60970  0.00770  0.46130  1.0000 -0.0384674653
C   C165      1.0  0.55550  0.03050  0.49840  1.0000 0.0177435158
C   C166      1.0  0.46460  0.99660  0.48190  1.0000 0.0056093861
C   C167      1.0  0.41040  0.01940  0.51900  1.0000 -0.0384674653
C   C168      1.0  0.44710  0.07600  0.57260  1.0000 -0.0754047543
C   C169      1.0  0.53800  0.10990  0.58910  1.0000 -0.0384674653
C   C170      1.0  0.59220  0.08710  0.55200  1.0000 -0.0302129158
H   H97       1.0  0.60929  0.93590  0.38283  1.0000 0.0408692986
H   H98       1.0  0.67051  0.03039  0.47228  1.0000 0.0408692986
H   H99       1.0  0.36713  0.91736  0.41728  1.0000 0.0509155035
H   H100      1.0  0.34961  0.99673  0.50798  1.0000 0.0509155035
H   H101      1.0  0.41082  0.09122  0.59743  1.0000 0.0509155035
H   H102      1.0  0.65299  0.10976  0.56299  1.0000 0.0584377028
O   O18       1.0  0.17692  0.65480  0.32115  1.0000 -0.2937505342
C   C171      1.0  0.06000  0.48790  0.42830  1.0000 -0.0052214684
C   C172      1.0  0.08280  0.56490  0.39120  1.0000 -0.0302129158
C   C173      1.0  0.04890  0.62190  0.40770  1.0000 -0.1099254661
C   C174      1.0  0.99230  0.60200  0.46130  1.0000 -0.0384674653
C   C175      1.0  0.96950  0.52500  0.49840  1.0000 0.0177435158
C   C176      1.0  0.00340  0.46800  0.48190  1.0000 0.0056093861
C   C177      1.0  0.98060  0.39100  0.51900  1.0000 -0.0384674653
C   C178      1.0  0.92400  0.37110  0.57260  1.0000 -0.0746287242
C   C179      1.0  0.89010  0.42810  0.58910  1.0000 -0.0384674653
C   C180      1.0  0.91290  0.50510  0.55200  1.0000 -0.0248339043
H   H103      1.0  0.06410  0.67340  0.38283  1.0000 0.0408692986
H   H104      1.0  0.96961  0.64012  0.47228  1.0000 0.0408692986
H   H105      1.0  0.08264  0.44977  0.41728  1.0000 0.0509155035
H   H106      1.0  0.00327  0.35288  0.50798  1.0000 0.0509155035
H   H107      1.0  0.90878  0.31960  0.59743  1.0000 0.0509155035
H   H108      1.0  0.89024  0.54322  0.56299  1.0000 0.0584377028
O   O19       1.0  0.47788  0.65480  0.17885  1.0000 -0.2937505342
C   C181      1.0  0.42790  0.48790  0.07170  1.0000 -0.0052214684
C   C182      1.0  0.48210  0.56490  0.10880  1.0000 -0.0302129158
C   C183      1.0  0.57300  0.62190  0.09230  1.0000 -0.1099254661
C   C184      1.0  0.60970  0.60200  0.03870  1.0000 -0.0384674653
C   C185      1.0  0.55550  0.52500  0.00160  1.0000 0.0177435158
C   C186      1.0  0.46460  0.46800  0.01810  1.0000 0.0056093861
C   C187      1.0  0.41040  0.39100  0.98100  1.0000 -0.0384674653
C   C188      1.0  0.44710  0.37110  0.92740  1.0000 -0.0754047543
C   C189      1.0  0.53800  0.42810  0.91090  1.0000 -0.0384674653
C   C190      1.0  0.59220  0.50510  0.94800  1.0000 -0.0302129158
H   H109      1.0  0.60929  0.67340  0.11717  1.0000 0.0408692986
H   H110      1.0  0.67051  0.64012  0.02772  1.0000 0.0408692986
H   H111      1.0  0.36713  0.44977  0.08272  1.0000 0.0509155035
H   H112      1.0  0.34961  0.35288  0.99202  1.0000 0.0509155035
H   H113      1.0  0.41082  0.31960  0.90257  1.0000 0.0509155035
H   H114      1.0  0.65299  0.54322  0.93701  1.0000 0.0584377028
O   O20       1.0  0.17692  0.52212  0.17885  1.0000 -0.2937505342
C   C191      1.0  0.06000  0.57210  0.07170  1.0000 -0.0052214684
C   C192      1.0  0.08280  0.51790  0.10880  1.0000 -0.0302129158
C   C193      1.0  0.04890  0.42700  0.09230  1.0000 -0.1099254661
C   C194      1.0  0.99230  0.39030  0.03870  1.0000 -0.0384674653
C   C195      1.0  0.96950  0.44450  0.00160  1.0000 0.0177435158
C   C196      1.0  0.00340  0.53540  0.01810  1.0000 0.0056093861
C   C197      1.0  0.98060  0.58960  0.98100  1.0000 -0.0384674653
C   C198      1.0  0.92400  0.55290  0.92740  1.0000 -0.0746287242
C   C199      1.0  0.89010  0.46200  0.91090  1.0000 -0.0384674653
C   C200      1.0  0.91290  0.40780  0.94800  1.0000 -0.0302129158
H   H115      1.0  0.06410  0.39071  0.11717  1.0000 0.0408692986
H   H116      1.0  0.96961  0.32949  0.02772  1.0000 0.0408692986
H   H117      1.0  0.08264  0.63287  0.08272  1.0000 0.0509155035
H   H118      1.0  0.00327  0.65039  0.99202  1.0000 0.0509155035
H   H119      1.0  0.90878  0.58918  0.90257  1.0000 0.0509155035
H   H120      1.0  0.89024  0.34701  0.93701  1.0000 0.0584377028
O   O21       1.0  0.34520  0.82308  0.17885  1.0000 -0.2937505342
C   C201      1.0  0.51210  0.94000  0.07170  1.0000 -0.0052214684
C   C202      1.0  0.43510  0.91720  0.10880  1.0000 -0.0302129158
C   C203      1.0  0.37810  0.95110  0.09230  1.0000 -0.1099254661
C   C204      1.0  0.39800  0.00770  0.03870  1.0000 -0.0384674653
C   C205      1.0  0.47500  0.03050  0.00160  1.0000 0.0177435158
C   C206      1.0  0.53200  0.99660  0.01810  1.0000 0.0056093861
C   C207      1.0  0.60900  0.01940  0.98100  1.0000 -0.0384674653
C   C208      1.0  0.62890  0.07600  0.92740  1.0000 -0.0754047543
C   C209      1.0  0.57190  0.10990  0.91090  1.0000 -0.0384674653
C   C210      1.0  0.49490  0.08710  0.94800  1.0000 -0.0302129158
H   H121      1.0  0.32660  0.93590  0.11717  1.0000 0.0408692986
H   H122      1.0  0.35988  0.03039  0.02772  1.0000 0.0408692986
H   H123      1.0  0.55023  0.91736  0.08272  1.0000 0.0509155035
H   H124      1.0  0.64712  0.99673  0.99202  1.0000 0.0509155035
H   H125      1.0  0.68040  0.09122  0.90257  1.0000 0.0509155035
H   H126      1.0  0.45678  0.10976  0.93701  1.0000 0.0584377028
O   O22       1.0  0.52212  0.34520  0.67885  1.0000 -0.2937505342
C   C211      1.0  0.57210  0.51210  0.57170  1.0000 -0.0035653584
C   C212      1.0  0.51790  0.43510  0.60880  1.0000 -0.0302129158
C   C213      1.0  0.42700  0.37810  0.59230  1.0000 -0.1099254661
C   C214      1.0  0.39030  0.39800  0.53870  1.0000 -0.0384674653
C   C215      1.0  0.44450  0.47500  0.50160  1.0000 0.0177435158
C   C216      1.0  0.53540  0.53200  0.51810  1.0000 0.0056093861
C   C217      1.0  0.58960  0.60900  0.48100  1.0000 -0.0384674653
C   C218      1.0  0.55290  0.62890  0.42740  1.0000 -0.0746287242
C   C219      1.0  0.46200  0.57190  0.41090  1.0000 -0.0384674653
C   C220      1.0  0.40780  0.49490  0.44800  1.0000 -0.0302129158
H   H127      1.0  0.39071  0.32660  0.61717  1.0000 0.0408692986
H   H128      1.0  0.32949  0.35988  0.52772  1.0000 0.0408692986
H   H129      1.0  0.63287  0.55023  0.58272  1.0000 0.0509155035
H   H130      1.0  0.65039  0.64712  0.49202  1.0000 0.0509155035
H   H131      1.0  0.58918  0.68040  0.40257  1.0000 0.0509155035
H   H132      1.0  0.34701  0.45678  0.43701  1.0000 0.0584377028
O   O23       1.0  0.82308  0.47788  0.67885  1.0000 -0.2937505342
C   C221      1.0  0.94000  0.42790  0.57170  1.0000 -0.0035653584
C   C222      1.0  0.91720  0.48210  0.60880  1.0000 -0.0302129158
C   C223      1.0  0.95110  0.57300  0.59230  1.0000 -0.1099254661
C   C224      1.0  0.00770  0.60970  0.53870  1.0000 -0.0384674653
C   C225      1.0  0.03050  0.55550  0.50160  1.0000 0.0177435158
C   C226      1.0  0.99660  0.46460  0.51810  1.0000 0.0056093861
C   C227      1.0  0.01940  0.41040  0.48100  1.0000 -0.0384674653
C   C228      1.0  0.07600  0.44710  0.42740  1.0000 -0.0754047543
C   C229      1.0  0.10990  0.53800  0.41090  1.0000 -0.0384674653
C   C230      1.0  0.08710  0.59220  0.44800  1.0000 -0.0302129158
H   H133      1.0  0.93590  0.60929  0.61717  1.0000 0.0408692986
H   H134      1.0  0.03039  0.67051  0.52772  1.0000 0.0408692986
H   H135      1.0  0.91736  0.36713  0.58272  1.0000 0.0509155035
H   H136      1.0  0.99673  0.34961  0.49202  1.0000 0.0509155035
H   H137      1.0  0.09122  0.41082  0.40257  1.0000 0.0509155035
H   H138      1.0  0.10976  0.65299  0.43701  1.0000 0.0584377028
O   O24       1.0  0.65480  0.17692  0.67885  1.0000 -0.2937505342
C   C231      1.0  0.48790  0.06000  0.57170  1.0000 -0.0035653584
C   C232      1.0  0.56490  0.08280  0.60880  1.0000 -0.0302129158
C   C233      1.0  0.62190  0.04890  0.59230  1.0000 -0.1099254661
C   C234      1.0  0.60200  0.99230  0.53870  1.0000 -0.0302129158
C   C235      1.0  0.52500  0.96950  0.50160  1.0000 0.0177435158
C   C236      1.0  0.46800  0.00340  0.51810  1.0000 0.0056093861
C   C237      1.0  0.39100  0.98060  0.48100  1.0000 -0.0384674653
C   C238      1.0  0.37110  0.92400  0.42740  1.0000 -0.0746287242
C   C239      1.0  0.42810  0.89010  0.41090  1.0000 -0.0384674653
C   C240      1.0  0.50510  0.91290  0.44800  1.0000 -0.0302129158
H   H139      1.0  0.67340  0.06410  0.61717  1.0000 0.0408692986
H   H140      1.0  0.64012  0.96961  0.52772  1.0000 0.0408692986
H   H141      1.0  0.44977  0.08264  0.58272  1.0000 0.0509155035
H   H142      1.0  0.35288  0.00327  0.49202  1.0000 0.0509155035
H   H143      1.0  0.31960  0.90878  0.40257  1.0000 0.0509155035
H   H144      1.0  0.54322  0.89024  0.43701  1.0000 0.0584377028
Co  Co1       1.0  0.26438  0.52876  0.25000  1.0000 0.821110065
N   N1        1.0  0.19270  0.38540  0.25000  1.0000 -0.1888605006
C   C241      1.0  0.09675  0.19350  0.25000  1.0000 0.0898360625
C   C242      1.0  0.04745  0.09490  0.25000  1.0000 0.0738285162
N   N2        1.0  0.95330  0.90660  0.25000  1.0000 -0.2098476636
Co  Co2       1.0  0.47124  0.73562  0.25000  1.0000 0.821110065
N   N3        1.0  0.61460  0.80730  0.25000  1.0000 -0.1888605006
C   C243      1.0  0.80650  0.90325  0.25000  1.0000 0.0898360625
C   C244      1.0  0.90510  0.95255  0.25000  1.0000 0.0738285162
N   N4        1.0  0.09340  0.04670  0.25000  1.0000 -0.2098476636
Co  Co3       1.0  0.26438  0.73562  0.25000  1.0000 0.821110065
N   N5        1.0  0.19270  0.80730  0.25000  1.0000 -0.1888605006
C   C245      1.0  0.09675  0.90325  0.25000  1.0000 0.0898360625
C   C246      1.0  0.04745  0.95255  0.25000  1.0000 0.0738285162
N   N6        1.0  0.95330  0.04670  0.25000  1.0000 -0.2098476636
Co  Co4       1.0  0.73562  0.47124  0.75000  1.0000 0.821110065
N   N7        1.0  0.80730  0.61460  0.75000  1.0000 -0.1888605006
C   C247      1.0  0.90325  0.80650  0.75000  1.0000 0.0898360625
C   C248      1.0  0.95255  0.90510  0.75000  1.0000 0.0738285162
N   N8        1.0  0.04670  0.09340  0.75000  1.0000 -0.2098476636
Co  Co5       1.0  0.52876  0.26438  0.75000  1.0000 0.821110065
N   N9        1.0  0.38540  0.19270  0.75000  1.0000 -0.1888605006
C   C249      1.0  0.19350  0.09675  0.75000  1.0000 0.0898360625
C   C250      1.0  0.09490  0.04745  0.75000  1.0000 0.0738285162
N   N10       1.0  0.90660  0.95330  0.75000  1.0000 -0.2098476636
Co  Co6       1.0  0.73562  0.26438  0.75000  1.0000 0.821110065
N   N11       1.0  0.80730  0.19270  0.75000  1.0000 -0.1888605006
C   C251      1.0  0.90325  0.09675  0.75000  1.0000 0.0898360625
C   C252      1.0  0.95255  0.04745  0.75000  1.0000 0.0738285162
N   N12       1.0  0.04670  0.95330  0.75000  1.0000 -0.2098476636
H   H145      1.0  0.92158  0.07842  0.25000  1.0000 0.1016778948
H   H146      1.0  0.92158  0.84316  0.25000  1.0000 0.1016778948
H   H147      1.0  0.15684  0.07842  0.25000  1.0000 0.1016778948
H   H148      1.0  0.07842  0.92158  0.75000  1.0000 0.1016778948
H   H149      1.0  0.07842  0.15684  0.75000  1.0000 0.1016778948
H   H150      1.0  0.84316  0.92158  0.75000  1.0000 0.1016778948
O   O25       1.0  0.33333  0.66667  0.25000  1.0000 -0.4022923656
O   O26       1.0  0.66667  0.33333  0.75000  1.0000 -0.4022923656
C   C253      1.0  0.10280  0.33670  0.25000  1.0000 0.0509155035
H   H151      1.0  0.07060  0.36794  0.25000  1.0000 0.2026176952
C   C254      1.0  0.05110  0.23870  0.25000  1.0000 -0.2182654711
H   H152      1.0  0.98772  0.20774  0.25000  1.0000 0.1016778948
C   C255      1.0  0.66330  0.76610  0.25000  1.0000 0.0509155035
H   H153      1.0  0.63206  0.70266  0.25000  1.0000 0.2026176952
C   C256      1.0  0.76130  0.81240  0.25000  1.0000 -0.2182654711
H   H154      1.0  0.79226  0.77998  0.25000  1.0000 0.1016778948
C   C257      1.0  0.23390  0.89720  0.25000  1.0000 0.0509155035
H   H155      1.0  0.29734  0.92940  0.25000  1.0000 0.2026176952
C   C258      1.0  0.18760  0.94890  0.25000  1.0000 -0.2182654711
H   H156      1.0  0.22002  0.01228  0.25000  1.0000 0.1016778948
C   C259      1.0  0.89720  0.66330  0.75000  1.0000 0.0509155035
H   H157      1.0  0.92940  0.63206  0.75000  1.0000 0.2026176952
C   C260      1.0  0.94890  0.76130  0.75000  1.0000 -0.2182654711
H   H158      1.0  0.01228  0.79226  0.75000  1.0000 0.1016778948
C   C261      1.0  0.33670  0.23390  0.75000  1.0000 0.0509155035
H   H159      1.0  0.36794  0.29734  0.75000  1.0000 0.2026176952
C   C262      1.0  0.23870  0.18760  0.75000  1.0000 -0.2182654711
H   H160      1.0  0.20774  0.22002  0.75000  1.0000 0.1016778948
C   C263      1.0  0.76610  0.10280  0.75000  1.0000 0.0509155035
H   H161      1.0  0.70266  0.07061  0.75000  1.0000 0.2026176952
C   C264      1.0  0.81240  0.05110  0.75000  1.0000 -0.2182654711
H   H162      1.0  0.77998  0.98772  0.75000  1.0000 0.1016778948
C   C265      1.0  0.33670  0.10280  0.75000  1.0000 0.0509155035
H   H163      1.0  0.36794  0.07060  0.75000  1.0000 0.2026176952
C   C266      1.0  0.23870  0.05110  0.75000  1.0000 -0.2182654711
H   H164      1.0  0.20774  0.98772  0.75000  1.0000 0.1016778948
C   C267      1.0  0.76610  0.66330  0.75000  1.0000 0.0509155035
H   H165      1.0  0.70266  0.63206  0.75000  1.0000 0.2026176952
C   C268      1.0  0.81240  0.76130  0.75000  1.0000 -0.2182654711
H   H166      1.0  0.77998  0.79226  0.75000  1.0000 0.1016778948
C   C269      1.0  0.89720  0.23390  0.75000  1.0000 0.0509155035
H   H167      1.0  0.92940  0.29734  0.75000  1.0000 0.2026176952
C   C270      1.0  0.94890  0.18760  0.75000  1.0000 -0.2182654711
H   H168      1.0  0.01228  0.22002  0.75000  1.0000 0.1016778948
C   C271      1.0  0.66330  0.89720  0.25000  1.0000 0.0509155035
H   H169      1.0  0.63206  0.92940  0.25000  1.0000 0.2026176952
C   C272      1.0  0.76130  0.94890  0.25000  1.0000 -0.2182654711
H   H170      1.0  0.79226  0.01228  0.25000  1.0000 0.1016778948
C   C273      1.0  0.23390  0.33670  0.25000  1.0000 0.0509155035
H   H171      1.0  0.29734  0.36794  0.25000  1.0000 0.2026176952
C   C274      1.0  0.18760  0.23870  0.25000  1.0000 -0.2182654711
H   H172      1.0  0.22002  0.20774  0.25000  1.0000 0.1016778948
C   C275      1.0  0.10280  0.76610  0.25000  1.0000 0.0509155035
H   H173      1.0  0.07060  0.70266  0.25000  1.0000 0.2026176952
C   C276      1.0  0.05110  0.81240  0.25000  1.0000 -0.2182654711
H   H174      1.0  0.98772  0.77998  0.25000  1.0000 0.1016778948
C   C277      1.0  0.42250  0.57750  0.15840  1.0000 0.2665947678
C   C278      1.0  0.42250  0.84500  0.15840  1.0000 0.2665947678
C   C279      1.0  0.15500  0.57750  0.15840  1.0000 0.2665947678
C   C280      1.0  0.57750  0.42250  0.65840  1.0000 0.2665947678
C   C281      1.0  0.57750  0.15500  0.65840  1.0000 0.2665947678
C   C282      1.0  0.84500  0.42250  0.65840  1.0000 0.2665947678
C   C283      1.0  0.57750  0.42250  0.84160  1.0000 0.2665947678
C   C284      1.0  0.84500  0.42250  0.84160  1.0000 0.2665947678
C   C285      1.0  0.57750  0.15500  0.84160  1.0000 0.2665947678
C   C286      1.0  0.42250  0.57750  0.34160  1.0000 0.2665947678
C   C287      1.0  0.15500  0.57750  0.34160  1.0000 0.2665947678
C   C288      1.0  0.42250  0.84500  0.34160  1.0000 0.2665947678
  C   C289      1.0  0.95330  0.90660  0.25000  1.0000
  C   C290      1.0  0.09340  0.04670  0.25000  1.0000
  C   C291      1.0  0.95330  0.04670  0.25000  1.0000
  C   C292      1.0  0.04670  0.09340  0.75000  1.0000
  C   C293      1.0  0.90660  0.95330  0.75000  1.0000
  C   C294      1.0  0.04670  0.95330  0.75000  1.0000
