# DDEC6 charges by PACMAN v1.1 (https://github.com/mtap-research/PACMAN-charge/)
data_EPECOT_FSR_pacman
_symmetry_space_group_name_H-M   'P 1'
_cell_length_a   23.31000000
_cell_length_b   15.34070000
_cell_length_c   23.68400000
_cell_angle_alpha   90.00000000
_cell_angle_beta   113.84500000
_cell_angle_gamma   90.00000000
_symmetry_Int_Tables_number   1
_chemical_formula_structural   Zn8H119C160N4O35
_chemical_formula_sum   'Zn16 H238 C320 N8 O70'
_cell_volume   7746.29180484
_cell_formula_units_Z   2
loop_
 _symmetry_equiv_pos_site_id
 _symmetry_equiv_pos_as_xyz
  1  'x, y, z'
loop_
 _atom_site_type_symbol
 _atom_site_label
 _atom_site_symmetry_multiplicity
 _atom_site_fract_x
 _atom_site_fract_y
 _atom_site_fract_z
 _atom_site_occupancy
 _atom_site_charge
Zn  Zn1  1  0.65865000  0.17448000  0.49213000  1.0 0.9307787415
Zn  Zn2  1  0.34135000  0.67448000  0.50787000  1.0 0.9307787415
Zn  Zn3  1  0.60888000  0.12908000  0.35232000  1.0 0.9307787415
Zn  Zn4  1  0.39112000  0.62908000  0.64768000  1.0 0.9350809054
Zn  Zn5  1  0.16992000  0.20755000  0.99101000  1.0 0.81598105
Zn  Zn6  1  0.83008000  0.70755000  0.00899000  1.0 0.81598105
Zn  Zn7  1  0.60021000  0.32701000  0.39215000  1.0 0.9716737466
Zn  Zn8  1  0.39979000  0.82701000  0.60785000  1.0 0.9716737466
Zn  Zn9  1  0.73496000  0.23438000  0.41424000  1.0 0.9494816856
Zn  Zn10  1  0.26504000  0.73438000  0.58576000  1.0 0.9494816856
Zn  Zn11  1  0.24644000  0.23170000  0.90713000  1.0 0.8392473059
Zn  Zn12  1  0.75356000  0.73170000  0.09287000  1.0 0.8392473059
Zn  Zn13  1  0.11111000  0.30641000  0.86654000  1.0 0.9064515428
Zn  Zn14  1  0.88889000  0.80641000  0.13346000  1.0 0.9064515428
Zn  Zn15  1  0.13276000  0.09990000  0.86300000  1.0 0.867598732
Zn  Zn16  1  0.86724000  0.59990000  0.13700000  1.0 0.867598732
H  H1  1  0.75230000  0.36630000  0.52200000  1.0 0.1201633047
H  H2  1  0.24770000  0.86630000  0.47800000  1.0 0.1201633047
H  H3  1  0.72070000  0.60010000  0.44800000  1.0 0.1391893758
H  H4  1  0.27930000  0.10010000  0.55200000  1.0 0.1391893758
H  H5  1  0.67610000  0.52140000  0.41150000  1.0 0.1291077743
H  H6  1  0.32390000  0.02140000  0.58850000  1.0 0.1291077743
H  H7  1  0.67140000  0.56010000  0.47220000  1.0 0.1201633047
H  H8  1  0.32860000  0.06010000  0.52780000  1.0 0.1201633047
H  H9  1  0.80600000  0.57580000  0.49080000  1.0 0.1391893758
H  H10  1  0.19400000  0.07580000  0.50920000  1.0 0.1391893758
H  H11  1  0.83110000  0.51660000  0.55160000  1.0 0.1291077743
H  H12  1  0.16890000  0.01660000  0.44840000  1.0 0.1291077743
H  H13  1  0.83100000  0.47920000  0.48850000  1.0 0.1391893758
H  H14  1  0.16900000  0.97920000  0.51150000  1.0 0.1391893758
H  H15  1  0.58780000  0.49040000  0.46010000  1.0 0.1021270966
H  H16  1  0.41220000  0.99040000  0.53990000  1.0 0.1021270966
H  H17  1  0.42130000  0.60150000  0.39320000  1.0 0.1391893758
H  H18  1  0.57870000  0.10150000  0.60680000  1.0 0.1391893758
H  H19  1  0.43960000  0.55790000  0.34140000  1.0 0.1291077743
H  H20  1  0.56040000  0.05790000  0.65860000  1.0 0.1291077743
H  H21  1  0.42090000  0.49770000  0.38650000  1.0 0.1391893758
H  H22  1  0.57910000  0.99770000  0.61350000  1.0 0.1391893758
H  H23  1  0.48890000  0.65280000  0.46550000  1.0 0.1391893758
H  H24  1  0.51110000  0.15280000  0.53450000  1.0 0.1391893758
H  H25  1  0.53920000  0.58850000  0.51350000  1.0 0.1291077743
H  H26  1  0.46080000  0.08850000  0.48650000  1.0 0.1291077743
H  H27  1  0.55910000  0.64970000  0.46970000  1.0 0.1291077743
H  H28  1  0.44090000  0.14970000  0.53030000  1.0 0.1291077743
H  H29  1  0.23290000  0.18350000  0.11520000  1.0 0.2112581404
H  H30  1  0.76710000  0.68350000  0.88480000  1.0 0.2112581404
H  H31  1  0.22540000  0.97440000  0.19760000  1.0 0.0906251295
H  H32  1  0.77460000  0.47440000  0.80240000  1.0 0.0906251295
H  H33  1  0.16440000  0.02060000  0.14790000  1.0 0.0812781402
H  H34  1  0.83560000  0.52060000  0.85210000  1.0 0.0812781402
H  H35  1  0.21070000  0.96770000  0.12560000  1.0 0.0812781402
H  H36  1  0.78930000  0.46770000  0.87440000  1.0 0.0812781402
H  H37  1  0.29080000  0.06350000  0.24960000  1.0 0.0608011284
H  H38  1  0.70920000  0.56350000  0.75040000  1.0 0.0608011284
H  H39  1  0.31810000  0.14410000  0.22530000  1.0 0.0906251295
H  H40  1  0.68190000  0.64410000  0.77470000  1.0 0.0906251295
H  H41  1  0.25430000  0.15470000  0.23480000  1.0 0.0812781402
H  H42  1  0.74570000  0.65470000  0.76520000  1.0 0.0812781402
H  H43  1  0.55140000  0.80340000  0.55490000  1.0 0.1201633047
H  H44  1  0.44860000  0.30340000  0.44510000  1.0 0.1201633047
H  H45  1  0.61510000  0.90420000  0.53370000  1.0 0.1201633047
H  H46  1  0.38490000  0.40420000  0.46630000  1.0 0.1201633047
H  H47  1  0.34880000  0.84600000  0.39160000  1.0 0.1291077743
H  H48  1  0.65120000  0.34600000  0.60840000  1.0 0.1291077743
H  H49  1  0.47410000  0.03720000  0.34390000  1.0 0.1201633047
H  H50  1  0.52590000  0.53720000  0.65610000  1.0 0.1201633047
H  H51  1  0.41170000  0.16990000  0.35640000  1.0 0.1291077743
H  H52  1  0.58830000  0.66990000  0.64360000  1.0 0.1291077743
H  H53  1  0.33070000  0.22290000  0.37770000  1.0 0.1109509084
H  H54  1  0.66930000  0.72290000  0.62230000  1.0 0.1109509084
H  H55  1  0.26500000  0.12740000  0.40220000  1.0 0.1109509084
H  H56  1  0.73500000  0.62740000  0.59780000  1.0 0.1109509084
H  H57  1  0.27960000  0.97510000  0.40040000  1.0 0.1201633047
H  H58  1  0.72040000  0.47510000  0.59960000  1.0 0.1201633047
H  H59  1  0.44820000  0.95970000  0.23790000  1.0 0.1291077743
H  H60  1  0.55180000  0.45970000  0.76210000  1.0 0.1291077743
H  H61  1  0.38930000  0.84700000  0.16850000  1.0 0.1021270966
H  H62  1  0.61070000  0.34700000  0.83150000  1.0 0.1021270966
H  H63  1  0.32860000  0.75370000  0.19360000  1.0 0.1109509084
H  H64  1  0.67140000  0.25370000  0.80640000  1.0 0.1109509084
H  H65  1  0.31750000  0.76500000  0.28730000  1.0 0.1291077743
H  H66  1  0.68250000  0.26500000  0.71270000  1.0 0.1291077743
H  H67  1  0.48770000  0.14950000  0.17260000  1.0 0.1201633047
H  H68  1  0.51230000  0.64950000  0.82740000  1.0 0.1201633047
H  H69  1  0.41150000  0.16250000  0.07290000  1.0 0.1201633047
H  H70  1  0.58850000  0.66250000  0.92710000  1.0 0.1201633047
H  H71  1  0.43770000  0.37890000  0.28250000  1.0 0.1291077743
H  H72  1  0.56230000  0.87890000  0.71750000  1.0 0.1291077743
H  H73  1  0.27780000  0.39080000  0.08780000  1.0 0.1291077743
H  H74  1  0.72220000  0.89080000  0.91220000  1.0 0.1291077743
H  H75  1  0.30870000  0.55090000  0.07180000  1.0 0.1201633047
H  H76  1  0.69130000  0.05090000  0.92820000  1.0 0.1201633047
H  H77  1  0.37300000  0.66960000  0.11360000  1.0 0.1109509084
H  H78  1  0.62700000  0.16960000  0.88640000  1.0 0.1109509084
H  H79  1  0.45400000  0.66400000  0.20880000  1.0 0.1109509084
H  H80  1  0.54600000  0.16400000  0.79120000  1.0 0.1109509084
H  H81  1  0.47050000  0.54130000  0.27100000  1.0 0.1201633047
H  H82  1  0.52950000  0.04130000  0.72900000  1.0 0.1201633047
H  H83  1  0.19420000  0.36170000  0.13250000  1.0 0.1201633047
H  H84  1  0.80580000  0.86170000  0.86750000  1.0 0.1201633047
H  H85  1  0.17060000  0.34940000  0.22000000  1.0 0.1109509084
H  H86  1  0.82940000  0.84940000  0.78000000  1.0 0.1109509084
H  H87  1  0.25380000  0.34180000  0.31960000  1.0 0.1109509084
H  H88  1  0.74620000  0.84180000  0.68040000  1.0 0.1109509084
H  H89  1  0.35800000  0.35270000  0.33030000  1.0 0.1201633047
H  H90  1  0.64200000  0.85270000  0.66970000  1.0 0.1201633047
H  H91  1  0.81220000  0.43210000  0.35040000  1.0 0.1291077743
H  H92  1  0.18780000  0.93210000  0.64960000  1.0 0.1291077743
H  H93  1  0.84020000  0.51810000  0.28820000  1.0 0.1201633047
H  H94  1  0.15980000  0.01810000  0.71180000  1.0 0.1201633047
H  H95  1  0.59280000  0.49380000  0.29140000  1.0 0.1201633047
H  H96  1  0.40720000  0.99380000  0.70860000  1.0 0.1201633047
H  H97  1  0.65240000  0.68240000  0.17470000  1.0 0.1201633047
H  H98  1  0.34760000  0.18240000  0.82530000  1.0 0.1201633047
H  H99  1  0.57170000  0.60860000  0.06950000  1.0 0.1291077743
H  H100  1  0.42830000  0.10860000  0.93050000  1.0 0.1291077743
H  H101  1  0.49900000  0.49910000  0.02800000  1.0 0.1201633047
H  H102  1  0.50100000  0.99910000  0.97200000  1.0 0.1201633047
H  H103  1  0.47120000  0.40550000  0.08540000  1.0 0.1109509084
H  H104  1  0.52880000  0.90550000  0.91460000  1.0 0.1109509084
H  H105  1  0.51590000  0.41200000  0.19420000  1.0 0.1201633047
H  H106  1  0.48410000  0.91200000  0.80580000  1.0 0.1201633047
H  H107  1  0.62190000  0.81890000  0.22470000  1.0 0.1201633047
H  H108  1  0.37810000  0.31890000  0.77530000  1.0 0.1201633047
H  H109  1  0.58520000  0.86970000  0.29550000  1.0 0.1201633047
H  H110  1  0.41480000  0.36970000  0.70450000  1.0 0.1201633047
H  H111  1  0.55360000  0.77410000  0.35380000  1.0 0.1109509084
H  H112  1  0.44640000  0.27410000  0.64620000  1.0 0.1109509084
H  H113  1  0.56600000  0.62190000  0.34570000  1.0 0.1109509084
H  H114  1  0.43400000  0.12190000  0.65430000  1.0 0.1109509084
H  H115  1  0.98600000  0.28800000  0.66770000  1.0 0.1201633047
H  H116  1  0.01400000  0.78800000  0.33230000  1.0 0.1201633047
H  H117  1  0.89790000  0.27310000  0.57440000  1.0 0.1109509084
H  H118  1  0.10210000  0.77310000  0.42560000  1.0 0.1109509084
H  H119  1  0.95690000  0.06610000  0.79710000  1.0 0.1201633047
H  H120  1  0.04310000  0.56610000  0.20290000  1.0 0.1201633047
H  H121  1  0.77800000  0.04770000  0.61620000  1.0 0.1201633047
H  H122  1  0.22200000  0.54770000  0.38380000  1.0 0.1201633047
H  H123  1  0.70900000  0.07360000  0.67440000  1.0 0.1201633047
H  H124  1  0.29100000  0.57360000  0.32560000  1.0 0.1201633047
H  H125  1  0.70020000  0.09410000  0.76220000  1.0 0.1109509084
H  H126  1  0.29980000  0.59410000  0.23780000  1.0 0.1109509084
H  H127  1  0.78610000  0.10570000  0.85990000  1.0 0.1021270966
H  H128  1  0.21390000  0.60570000  0.14010000  1.0 0.1021270966
H  H129  1  0.89310000  0.09290000  0.86590000  1.0 0.1201633047
H  H130  1  0.10690000  0.59290000  0.13410000  1.0 0.1201633047
H  H131  1  0.80960000  0.88110000  0.60050000  1.0 0.1201633047
H  H132  1  0.19040000  0.38110000  0.39950000  1.0 0.1201633047
H  H133  1  0.87220000  0.76730000  0.63830000  1.0 0.1109509084
H  H134  1  0.12780000  0.26730000  0.36170000  1.0 0.1109509084
H  H135  1  0.96600000  0.78190000  0.73000000  1.0 0.1201633047
H  H136  1  0.03400000  0.28190000  0.27000000  1.0 0.1201633047
H  H137  1  0.98750000  0.91040000  0.78380000  1.0 0.1391893758
H  H138  1  0.01250000  0.41040000  0.21620000  1.0 0.1391893758
H  H139  1  0.05050000  0.33520000  0.06680000  1.0 0.1109509084
H  H140  1  0.94950000  0.83520000  0.93320000  1.0 0.1109509084
H  H141  1  0.98110000  0.41780000  0.09240000  1.0 0.1201633047
H  H142  1  0.01890000  0.91780000  0.90760000  1.0 0.1201633047
H  H143  1  0.09380000  0.51340000  0.92610000  1.0 0.1201633047
H  H144  1  0.90620000  0.01340000  0.07390000  1.0 0.1201633047
H  H145  1  0.97170000  0.68910000  0.98910000  1.0 0.1109509084
H  H146  1  0.02830000  0.18910000  0.01090000  1.0 0.1109509084
H  H147  1  0.06670000  0.79430000  0.04320000  1.0 0.1291077743
H  H148  1  0.93330000  0.29430000  0.95680000  1.0 0.1291077743
H  H149  1  0.17320000  0.82810000  0.07220000  1.0 0.1109509084
H  H150  1  0.82680000  0.32810000  0.92780000  1.0 0.1109509084
H  H151  1  0.23120000  0.73920000  0.02890000  1.0 0.1109509084
H  H152  1  0.76880000  0.23920000  0.97110000  1.0 0.1109509084
H  H153  1  0.19140000  0.61280000  0.97950000  1.0 0.1291077743
H  H154  1  0.80860000  0.11280000  0.02050000  1.0 0.1291077743
H  H155  1  0.89120000  0.71170000  0.87730000  1.0 0.1109509084
H  H156  1  0.10880000  0.21170000  0.12270000  1.0 0.1109509084
H  H157  1  0.85940000  0.67990000  0.77020000  1.0 0.1021270966
H  H158  1  0.14060000  0.17990000  0.22980000  1.0 0.1021270966
H  H159  1  0.92340000  0.59600000  0.73950000  1.0 0.1201633047
H  H160  1  0.07660000  0.09600000  0.26050000  1.0 0.1201633047
H  H161  1  0.01480000  0.53430000  0.81000000  1.0 0.1291077743
H  H162  1  0.98520000  0.03430000  0.19000000  1.0 0.1291077743
H  H163  1  0.20980000  0.99600000  0.98430000  1.0 0.1109509084
H  H164  1  0.79020000  0.49600000  0.01570000  1.0 0.1109509084
H  H165  1  0.38850000  0.96360000  0.02720000  1.0 0.1291077743
H  H166  1  0.61150000  0.46360000  0.97280000  1.0 0.1291077743
H  H167  1  0.34470000  0.95950000  0.95500000  1.0 0.1391893758
H  H168  1  0.65530000  0.45950000  0.04500000  1.0 0.1391893758
H  H169  1  0.36040000  0.05140000  0.98980000  1.0 0.1391893758
H  H170  1  0.63960000  0.55140000  0.01020000  1.0 0.1391893758
H  H171  1  0.35570000  0.92280000  0.08190000  1.0 0.1201633047
H  H172  1  0.64430000  0.42280000  0.91810000  1.0 0.1201633047
H  H173  1  0.30160000  0.97600000  0.09200000  1.0 0.1291077743
H  H174  1  0.69840000  0.47600000  0.90800000  1.0 0.1291077743
H  H175  1  0.28590000  0.88460000  0.05630000  1.0 0.1201633047
H  H176  1  0.71410000  0.38460000  0.94370000  1.0 0.1201633047
H  H177  1  0.98800000  0.96210000  0.29230000  1.0 0.1291077743
H  H178  1  0.01200000  0.46210000  0.70770000  1.0 0.1291077743
H  H179  1  0.03920000  0.94000000  0.39840000  1.0 0.1109509084
H  H180  1  0.96080000  0.44000000  0.60160000  1.0 0.1109509084
H  H181  1  0.00410000  0.01280000  0.46240000  1.0 0.1109509084
H  H182  1  0.99590000  0.51280000  0.53760000  1.0 0.1109509084
H  H183  1  0.94140000  0.13570000  0.43470000  1.0 0.1391893758
H  H184  1  0.05860000  0.63570000  0.56530000  1.0 0.1291077743
H  H185  1  0.89180000  0.16520000  0.14310000  1.0 0.1109509084
H  H186  1  0.10820000  0.66520000  0.85690000  1.0 0.1109509084
H  H187  1  0.89510000  0.31590000  0.13780000  1.0 0.1201633047
H  H188  1  0.10490000  0.81590000  0.86220000  1.0 0.1201633047
H  H189  1  0.86280000  0.39970000  0.20180000  1.0 0.1109509084
H  H190  1  0.13720000  0.89970000  0.79820000  1.0 0.1109509084
H  H191  1  0.84520000  0.33060000  0.28320000  1.0 0.1201633047
H  H192  1  0.15480000  0.83060000  0.71680000  1.0 0.1201633047
H  H193  1  0.88970000  0.02620000  0.20320000  1.0 0.1109509084
H  H194  1  0.11030000  0.52620000  0.79680000  1.0 0.1109509084
H  H195  1  0.83290000  0.18260000  0.33610000  1.0 0.1201633047
H  H196  1  0.16710000  0.68260000  0.66390000  1.0 0.1201633047
H  H197  1  0.17600000  0.12220000  0.09540000  1.0 0.2112581404
H  H198  1  0.82400000  0.62220000  0.90460000  1.0 0.2112581404
H  H199  1  0.33333333  0.09160000  0.23680000  1.0 0.0812781402
H  H200  1  0.66666667  0.59160000  0.76320000  1.0 0.0812781402
H  H201  1  0.33820000  0.10310000  0.17170000  1.0 0.0738484589
H  H202  1  0.66180000  0.60310000  0.82830000  1.0 0.0738484589
H  H203  1  0.31520000  0.18270000  0.20100000  1.0 0.0906251295
H  H204  1  0.68480000  0.68270000  0.79900000  1.0 0.0906251295
H  H205  1  0.26880000  0.03810000  0.24490000  1.0 0.0738484589
H  H206  1  0.73120000  0.53810000  0.75510000  1.0 0.0738484589
H  H207  1  0.21690000  0.11330000  0.22770000  1.0 0.0738484589
H  H208  1  0.78310000  0.61330000  0.77230000  1.0 0.0738484589
H  H209  1  0.19820000  0.01850000  0.19770000  1.0 0.0738484589
H  H210  1  0.80180000  0.51850000  0.80230000  1.0 0.0738484589
H  H211  1  0.85960000  0.02170000  0.24390000  1.0 0.0906251295
H  H212  1  0.14040000  0.52170000  0.75610000  1.0 0.0906251295
H  H213  1  0.82610000  0.10300000  0.30860000  1.0 0.0812781402
H  H214  1  0.17390000  0.60300000  0.69140000  1.0 0.0812781402
H  H215  1  0.67630000  0.95610000  0.07700000  1.0 0.1109509084
H  H216  1  0.32370000  0.45610000  0.92300000  1.0 0.1109509084
H  H217  1  0.60620000  0.09850000  0.20570000  1.0 0.1201633047
H  H218  1  0.39380000  0.59850000  0.79430000  1.0 0.1201633047
H  H219  1  0.49750000  0.99840000  0.16540000  1.0 0.1201633047
H  H220  1  0.50250000  0.49840000  0.83460000  1.0 0.1201633047
H  H221  1  0.47550000  0.84840000  0.14120000  1.0 0.1021270966
H  H222  1  0.52450000  0.34840000  0.85880000  1.0 0.1021270966
H  H223  1  0.50840000  0.78070000  0.07460000  1.0 0.1109509084
H  H224  1  0.49160000  0.28070000  0.92540000  1.0 0.1109509084
H  H225  1  0.59240000  0.83120000  0.05360000  1.0 0.1291077743
H  H226  1  0.40760000  0.33120000  0.94640000  1.0 0.1291077743
H  H227  1  0.56740000  0.23110000  0.13010000  1.0 0.1201633047
H  H228  1  0.43260000  0.73110000  0.86990000  1.0 0.1201633047
H  H229  1  0.56530000  0.29790000  0.03940000  1.0 0.1109509084
H  H230  1  0.43470000  0.79790000  0.96060000  1.0 0.1109509084
H  H231  1  0.59600000  0.21920000  0.97160000  1.0 0.1021270966
H  H232  1  0.40400000  0.71920000  0.02840000  1.0 0.1021270966
H  H233  1  0.66060000  0.09440000  0.00910000  1.0 0.1201633047
H  H234  1  0.33940000  0.59440000  0.99090000  1.0 0.1201633047
H  H235  1  0.68180000  0.96970000  0.13540000  1.0 0.0906251295
H  H236  1  0.31820000  0.46970000  0.86460000  1.0 0.0906251295
H  H237  1  0.64770000  0.03130000  0.20660000  1.0 0.0906251295
H  H238  1  0.35230000  0.53130000  0.79340000  1.0 0.0906251295
C  C1  1  0.72230000  0.40770000  0.49740000  1.0 0.2609747546
C  C2  1  0.27770000  0.90770000  0.50260000  1.0 0.2609747546
C  C3  1  0.69990000  0.54650000  0.45240000  1.0 -0.3509734674
C  C4  1  0.30010000  0.04650000  0.54760000  1.0 -0.3509734674
C  C5  1  0.80860000  0.51600000  0.50700000  1.0 -0.3180745495
C  C6  1  0.19140000  0.01600000  0.49300000  1.0 -0.3180745495
C  C7  1  0.54810000  0.48910000  0.42620000  1.0 0.2866036193
C  C8  1  0.45190000  0.98910000  0.57380000  1.0 0.2866036193
C  C9  1  0.44200000  0.55170000  0.38340000  1.0 -0.339778061
C  C10  1  0.55800000  0.05170000  0.61660000  1.0 -0.339778061
C  C11  1  0.52500000  0.61500000  0.47240000  1.0 -0.3509734674
C  C12  1  0.47500000  0.11500000  0.52760000  1.0 -0.3509734674
C  C13  1  0.22030000  0.12420000  0.10870000  1.0 0.0906251295
C  C14  1  0.77970000  0.62420000  0.89130000  1.0 0.0906251295
C  C15  1  0.20820000  0.00500000  0.15800000  1.0 -0.232435043
C  C16  1  0.79180000  0.50500000  0.84200000  1.0 -0.232435043
C  C17  1  0.27970000  0.11500000  0.22240000  1.0 -0.1190175889
C  C18  1  0.72030000  0.61500000  0.77760000  1.0 -0.1190175889
C  C19  1  0.47020000  0.83250000  0.48090000  1.0 -0.0615729738
C  C20  1  0.52980000  0.33250000  0.51910000  1.0 -0.0615729738
C  C21  1  0.53400000  0.83940000  0.51930000  1.0 -0.1282378747
C  C22  1  0.46600000  0.33940000  0.48070000  1.0 -0.1282378747
C  C23  1  0.57230000  0.89810000  0.50620000  1.0 -0.1282378747
C  C24  1  0.42770000  0.39810000  0.49380000  1.0 -0.1282378747
C  C25  1  0.54730000  0.94870000  0.45170000  1.0 -0.0615729738
C  C26  1  0.45270000  0.44870000  0.54830000  1.0 -0.0615729738
C  C27  1  0.48310000  0.94170000  0.41300000  1.0 0.0305024792
C  C28  1  0.51690000  0.44170000  0.58700000  1.0 0.0305024792
C  C29  1  0.44450000  0.88400000  0.42730000  1.0 0.0305024792
C  C30  1  0.55550000  0.38400000  0.57270000  1.0 0.0305024792
C  C31  1  0.37630000  0.88720000  0.38110000  1.0 -0.1190175889
C  C32  1  0.62370000  0.38720000  0.61890000  1.0 -0.1190175889
C  C33  1  0.44680000  0.99580000  0.35440000  1.0 -0.1190175889
C  C34  1  0.55320000  0.49580000  0.64560000  1.0 -0.1190175889
C  C35  1  0.35720000  0.98290000  0.38120000  1.0 0.0305024792
C  C36  1  0.64280000  0.48290000  0.61880000  1.0 0.0305024792
C  C37  1  0.39680000  0.04040000  0.36730000  1.0 0.0006899226
C  C38  1  0.60320000  0.54040000  0.63270000  1.0 0.0006899226
C  C39  1  0.38550000  0.13060000  0.36610000  1.0 -0.1679897693
C  C40  1  0.61450000  0.63060000  0.63390000  1.0 -0.1679897693
C  C41  1  0.33760000  0.16180000  0.37850000  1.0 -0.1383456765
C  C42  1  0.66240000  0.66180000  0.62150000  1.0 -0.1383456765
C  C43  1  0.29790000  0.10480000  0.39270000  1.0 -0.1190175889
C  C44  1  0.70210000  0.60480000  0.60730000  1.0 -0.1190175889
C  C45  1  0.30720000  0.01420000  0.39270000  1.0 -0.1824961966
C  C46  1  0.69280000  0.51420000  0.60730000  1.0 -0.1824961966
C  C47  1  0.37570000  0.87080000  0.31790000  1.0 0.0413109365
C  C48  1  0.62430000  0.37080000  0.68210000  1.0 0.0413109365
C  C49  1  0.41520000  0.93030000  0.30460000  1.0 0.0305024792
C  C50  1  0.58480000  0.43030000  0.69540000  1.0 0.0305024792
C  C51  1  0.42170000  0.92180000  0.24840000  1.0 -0.1824961966
C  C52  1  0.57830000  0.42180000  0.75160000  1.0 -0.1824961966
C  C53  1  0.38660000  0.85330000  0.20730000  1.0 -0.1282378747
C  C54  1  0.61340000  0.35330000  0.79270000  1.0 -0.1282378747
C  C55  1  0.35030000  0.79840000  0.22200000  1.0 -0.1096118906
C  C56  1  0.64970000  0.29840000  0.77800000  1.0 -0.1096118906
C  C57  1  0.34340000  0.80460000  0.27740000  1.0 -0.1492734645
C  C58  1  0.65660000  0.30460000  0.72260000  1.0 -0.1492734645
C  C59  1  0.43010000  0.77040000  0.50120000  1.0 0.5573353367
C  C60  1  0.56990000  0.27040000  0.49880000  1.0 0.5573353367
C  C61  1  0.58750000  0.01560000  0.43930000  1.0 0.5880792336
C  C62  1  0.41250000  0.51560000  0.56070000  1.0 0.5880792336
C  C63  1  0.45710000  0.24960000  0.21040000  1.0 -0.0678665244
C  C64  1  0.54290000  0.74960000  0.78960000  1.0 -0.0678665244
C  C65  1  0.45620000  0.19300000  0.16360000  1.0 -0.1282378747
C  C66  1  0.54380000  0.69300000  0.83640000  1.0 -0.1282378747
C  C67  1  0.41010000  0.19970000  0.10440000  1.0 -0.1096118906
C  C68  1  0.58990000  0.69970000  0.89560000  1.0 -0.1096118906
C  C69  1  0.36200000  0.25910000  0.09020000  1.0 -0.0615729738
C  C70  1  0.63800000  0.75910000  0.90980000  1.0 -0.0615729738
C  C71  1  0.36160000  0.31670000  0.13650000  1.0 0.0201973632
C  C72  1  0.63840000  0.81670000  0.86350000  1.0 0.0201973632
C  C73  1  0.41040000  0.31280000  0.19570000  1.0 0.0201973632
C  C74  1  0.58960000  0.81280000  0.80430000  1.0 0.0201973632
C  C75  1  0.40330000  0.38120000  0.24010000  1.0 -0.1190175889
C  C76  1  0.59670000  0.88120000  0.75990000  1.0 -0.1190175889
C  C77  1  0.31230000  0.38810000  0.13000000  1.0 -0.1190175889
C  C78  1  0.68770000  0.88810000  0.87000000  1.0 -0.1190175889
C  C79  1  0.39880000  0.46870000  0.20780000  1.0 0.0413109365
C  C80  1  0.60120000  0.96870000  0.79220000  1.0 0.0413109365
C  C81  1  0.35060000  0.47090000  0.14810000  1.0 0.0413109365
C  C82  1  0.64940000  0.97090000  0.85190000  1.0 0.0413109365
C  C83  1  0.34110000  0.54780000  0.11220000  1.0 -0.1612616185
C  C84  1  0.65890000  0.04780000  0.88780000  1.0 -0.1612616185
C  C85  1  0.37970000  0.61740000  0.13710000  1.0 -0.1096118906
C  C86  1  0.62030000  0.11740000  0.86290000  1.0 -0.1096118906
C  C87  1  0.42740000  0.61470000  0.19410000  1.0 -0.0923813605
C  C88  1  0.57260000  0.11470000  0.80590000  1.0 -0.0923813605
C  C89  1  0.43770000  0.54200000  0.23080000  1.0 -0.1492734645
C  C90  1  0.56230000  0.04200000  0.76920000  1.0 -0.1492734645
C  C91  1  0.33820000  0.36910000  0.23960000  1.0 0.0413109365
C  C92  1  0.66180000  0.86910000  0.76040000  1.0 0.0413109365
C  C93  1  0.28890000  0.37130000  0.18030000  1.0 0.0413109365
C  C94  1  0.71110000  0.87130000  0.81970000  1.0 0.0413109365
C  C95  1  0.22700000  0.36200000  0.17270000  1.0 -0.202908325
C  C96  1  0.77300000  0.86200000  0.82730000  1.0 -0.202908325
C  C97  1  0.21300000  0.35300000  0.22460000  1.0 -0.1383456765
C  C98  1  0.78700000  0.85300000  0.77540000  1.0 -0.1383456765
C  C99  1  0.26270000  0.34920000  0.28410000  1.0 -0.1190175889
C  C100  1  0.73730000  0.84920000  0.71590000  1.0 -0.1190175889
C  C101  1  0.32480000  0.35650000  0.29050000  1.0 -0.1679897693
C  C102  1  0.67520000  0.85650000  0.70950000  1.0 -0.1679897693
C  C103  1  0.51040000  0.23770000  0.27380000  1.0 0.5880792336
C  C104  1  0.48960000  0.73770000  0.72620000  1.0 0.5880792336
C  C105  1  0.30800000  0.25450000  0.02700000  1.0 0.5573353367
C  C106  1  0.69200000  0.75450000  0.97300000  1.0 0.5573353367
C  C107  1  0.72030000  0.46610000  0.31760000  1.0 -0.0615729738
C  C108  1  0.27970000  0.96610000  0.68240000  1.0 -0.054693128
C  C109  1  0.78140000  0.46830000  0.32120000  1.0 -0.1096118906
C  C110  1  0.21860000  0.96830000  0.67880000  1.0 -0.1096118906
C  C111  1  0.79820000  0.51980000  0.28490000  1.0 -0.1005310475
C  C112  1  0.20180000  0.01980000  0.71510000  1.0 -0.1005310475
C  C113  1  0.75390000  0.57760000  0.24090000  1.0 -0.0815009019
C  C114  1  0.24610000  0.07760000  0.75910000  1.0 -0.0815009019
C  C115  1  0.69360000  0.58040000  0.23990000  1.0 0.0413109365
C  C116  1  0.30640000  0.08040000  0.76010000  1.0 0.0490441921
C  C117  1  0.67630000  0.52350000  0.27830000  1.0 0.0305024792
C  C118  1  0.32370000  0.02350000  0.72170000  1.0 0.0305024792
C  C119  1  0.60630000  0.53430000  0.26610000  1.0 -0.1096118906
C  C120  1  0.39370000  0.03430000  0.73390000  1.0 -0.1096118906
C  C121  1  0.63960000  0.64140000  0.20030000  1.0 -0.1190175889
C  C122  1  0.36040000  0.14140000  0.79970000  1.0 -0.1190175889
C  C123  1  0.57100000  0.51990000  0.19800000  1.0 0.0413109365
C  C124  1  0.42900000  0.01990000  0.80200000  1.0 0.0413109365
C  C125  1  0.58880000  0.57690000  0.16080000  1.0 0.0490441921
C  C126  1  0.41120000  0.07690000  0.83920000  1.0 0.0490441921
C  C127  1  0.56100000  0.57010000  0.09520000  1.0 -0.1492734645
C  C128  1  0.43900000  0.07010000  0.90480000  1.0 -0.1492734645
C  C129  1  0.51830000  0.50520000  0.07160000  1.0 -0.0923813605
C  C130  1  0.48170000  0.00520000  0.92840000  1.0 -0.0923813605
C  C131  1  0.50150000  0.44910000  0.10570000  1.0 -0.1096118906
C  C132  1  0.49850000  0.94910000  0.89430000  1.0 -0.1096118906
C  C133  1  0.52730000  0.45270000  0.17030000  1.0 -0.1492734645
C  C134  1  0.47270000  0.95270000  0.82970000  1.0 -0.1492734645
C  C135  1  0.59910000  0.62980000  0.27940000  1.0 0.0413109365
C  C136  1  0.40090000  0.12980000  0.72060000  1.0 0.0413109365
C  C137  1  0.61710000  0.68720000  0.24190000  1.0 0.0413109365
C  C138  1  0.38290000  0.18720000  0.75810000  1.0 0.0413109365
C  C139  1  0.61070000  0.77870000  0.24900000  1.0 -0.1383456765
C  C140  1  0.38930000  0.27870000  0.75100000  1.0 -0.1383456765
C  C141  1  0.58840000  0.80860000  0.29080000  1.0 -0.0923813605
C  C142  1  0.41160000  0.30860000  0.70920000  1.0 -0.0923813605
C  C143  1  0.57030000  0.75210000  0.32610000  1.0 -0.1096118906
C  C144  1  0.42970000  0.25210000  0.67390000  1.0 -0.1096118906
C  C145  1  0.57700000  0.66110000  0.32060000  1.0 -0.1679897693
C  C146  1  0.42300000  0.16110000  0.67940000  1.0 -0.1679897693
C  C147  1  0.70370000  0.39720000  0.35440000  1.0 0.5815037287
C  C148  1  0.29630000  0.89720000  0.64560000  1.0 0.5815037287
C  C149  1  0.96140000  0.19260000  0.71510000  1.0 -0.0430414705
C  C150  1  0.03860000  0.69260000  0.28490000  1.0 -0.0430414705
C  C151  1  0.95460000  0.24610000  0.66420000  1.0 -0.1383456765
C  C152  1  0.04540000  0.74610000  0.33580000  1.0 -0.1383456765
C  C153  1  0.90180000  0.23740000  0.60860000  1.0 -0.1190175889
C  C154  1  0.09820000  0.73740000  0.39140000  1.0 -0.1190175889
C  C155  1  0.85490000  0.17740000  0.60240000  1.0 -0.0615729738
C  C156  1  0.14510000  0.67740000  0.39760000  1.0 -0.0615729738
C  C157  1  0.86300000  0.12410000  0.65350000  1.0 0.0413109365
C  C158  1  0.13700000  0.62410000  0.34650000  1.0 0.0413109365
C  C159  1  0.91530000  0.13120000  0.70990000  1.0 0.0305024792
C  C160  1  0.08470000  0.63120000  0.29010000  1.0 0.0305024792
C  C161  1  0.91800000  0.06200000  0.75810000  1.0 -0.1005310475
C  C162  1  0.08200000  0.56200000  0.24190000  1.0 -0.1005310475
C  C163  1  0.81690000  0.05240000  0.65510000  1.0 -0.1005310475
C  C164  1  0.18310000  0.55240000  0.34490000  1.0 -0.1005310475
C  C165  1  0.85760000  0.07520000  0.76840000  1.0 0.0608011284
C  C166  1  0.14240000  0.57520000  0.23160000  1.0 0.0608011284
C  C167  1  0.80460000  0.06990000  0.71240000  1.0 0.0305024792
C  C168  1  0.19540000  0.56990000  0.28760000  1.0 0.0305024792
C  C169  1  0.74540000  0.07730000  0.71190000  1.0 -0.1190175889
C  C170  1  0.25460000  0.57730000  0.28810000  1.0 -0.1190175889
C  C171  1  0.74120000  0.08930000  0.76320000  1.0 -0.1005310475
C  C172  1  0.25880000  0.58930000  0.23680000  1.0 -0.1005310475
C  C173  1  0.79380000  0.09630000  0.82390000  1.0 -0.0923813605
C  C174  1  0.20620000  0.59630000  0.17610000  1.0 -0.0923813605
C  C175  1  0.85670000  0.08910000  0.82840000  1.0 -0.1878550155
C  C176  1  0.14330000  0.58910000  0.17160000  1.0 -0.1878550155
C  C177  1  0.91090000  0.97450000  0.72630000  1.0 0.0413109365
C  C178  1  0.08910000  0.47450000  0.27370000  1.0 0.0413109365
C  C179  1  0.85610000  0.97090000  0.67150000  1.0 0.0305024792
C  C180  1  0.14390000  0.47090000  0.32850000  1.0 0.0305024792
C  C181  1  0.84510000  0.88690000  0.63850000  1.0 -0.1383456765
C  C182  1  0.15490000  0.38690000  0.36150000  1.0 -0.1383456765
C  C183  1  0.88200000  0.82140000  0.65960000  1.0 -0.0923813605
C  C184  1  0.11800000  0.32140000  0.34040000  1.0 -0.0923813605
C  C185  1  0.93800000  0.82970000  0.71550000  1.0 -0.1005310475
C  C186  1  0.06200000  0.32970000  0.28450000  1.0 -0.1005310475
C  C187  1  0.95060000  0.90520000  0.74680000  1.0 -0.1282378747
C  C188  1  0.04940000  0.40520000  0.25320000  1.0 -0.1282378747
C  C189  1  0.02100000  0.20330000  0.77250000  1.0 0.5815037287
C  C190  1  0.97900000  0.70330000  0.22750000  1.0 0.5815037287
C  C191  1  0.79540000  0.17940000  0.54390000  1.0 0.6000071363
C  C192  1  0.20460000  0.67940000  0.45610000  1.0 0.6000071363
C  C193  1  0.05870000  0.41950000  0.00510000  1.0 -0.0678665244
C  C194  1  0.94130000  0.91950000  0.99490000  1.0 -0.0678665244
C  C195  1  0.03750000  0.39060000  0.04810000  1.0 -0.1190175889
C  C196  1  0.96250000  0.89060000  0.95190000  1.0 -0.1190175889
C  C197  1  0.99730000  0.44090000  0.06460000  1.0 -0.0815009019
C  C198  1  0.00270000  0.94090000  0.93540000  1.0 -0.0815009019
C  C199  1  0.98040000  0.52350000  0.04160000  1.0 -0.0615729738
C  C200  1  0.01960000  0.02350000  0.95840000  1.0 -0.0615729738
C  C201  1  0.00510000  0.55820000  0.00190000  1.0 0.0305024792
C  C202  1  0.99490000  0.05820000  0.99810000  1.0 0.0305024792
C  C203  1  0.04350000  0.50620000  0.98310000  1.0 0.0305024792
C  C204  1  0.95650000  0.00620000  0.01690000  1.0 0.0305024792
C  C205  1  0.06730000  0.55170000  0.94000000  1.0 -0.1096118906
C  C206  1  0.93270000  0.05170000  0.06000000  1.0 -0.1096118906
C  C207  1  0.99840000  0.65090000  0.97540000  1.0 -0.1282378747
C  C208  1  0.00160000  0.15090000  0.02460000  1.0 -0.1282378747
C  C209  1  0.10360000  0.63270000  0.97820000  1.0 0.0413109365
C  C210  1  0.89640000  0.13270000  0.02180000  1.0 0.0413109365
C  C211  1  0.06710000  0.68480000  0.99740000  1.0 0.0413109365
C  C212  1  0.93290000  0.18480000  0.00260000  1.0 0.0413109365
C  C213  1  0.09220000  0.75760000  0.03070000  1.0 -0.1282378747
C  C214  1  0.90780000  0.25760000  0.96930000  1.0 -0.1282378747
C  C215  1  0.15440000  0.77930000  0.04680000  1.0 -0.0923813605
C  C216  1  0.84560000  0.27930000  0.95320000  1.0 -0.0923813605
C  C217  1  0.18970000  0.72290000  0.02230000  1.0 -0.1096118906
C  C218  1  0.81030000  0.22290000  0.97770000  1.0 -0.1096118906
C  C219  1  0.16650000  0.65090000  0.99180000  1.0 -0.1383456765
C  C220  1  0.83350000  0.15090000  0.00820000  1.0 -0.1383456765
C  C221  1  0.01000000  0.58650000  0.88730000  1.0 0.0490441921
C  C222  1  0.99000000  0.08650000  0.11270000  1.0 0.0490441921
C  C223  1  0.97200000  0.63970000  0.90560000  1.0 0.0490441921
C  C224  1  0.02800000  0.13970000  0.09440000  1.0 0.0490441921
C  C225  1  0.91620000  0.67570000  0.86360000  1.0 -0.2201951422
C  C226  1  0.08380000  0.17570000  0.13640000  1.0 -0.2201951422
C  C227  1  0.89750000  0.65730000  0.79990000  1.0 -0.1492734645
C  C228  1  0.10250000  0.15730000  0.20010000  1.0 -0.1492734645
C  C229  1  0.93520000  0.60680000  0.78230000  1.0 -0.1005310475
C  C230  1  0.06480000  0.10680000  0.21770000  1.0 -0.1005310475
C  C231  1  0.99030000  0.57040000  0.82420000  1.0 -0.1383456765
C  C232  1  0.00970000  0.07040000  0.17580000  1.0 -0.1383456765
C  C233  1  0.09210000  0.35940000  0.97890000  1.0 0.5880792336
C  C234  1  0.90790000  0.85940000  0.02110000  1.0 0.5880792336
C  C235  1  0.24130000  0.00830000  0.96960000  1.0 0.268264194
C  C236  1  0.75870000  0.50830000  0.03040000  1.0 0.268264194
C  C237  1  0.35220000  0.99000000  0.99380000  1.0 -0.3347160173
C  C238  1  0.64780000  0.49000000  0.00620000  1.0 -0.3347160173
C  C239  1  0.31110000  0.93800000  0.06370000  1.0 -0.3135634167
C  C240  1  0.68890000  0.43800000  0.93630000  1.0 -0.3135634167
C  C241  1  0.71350000  0.10280000  0.31660000  1.0 0.5815037287
C  C242  1  0.28650000  0.60280000  0.68340000  1.0 0.5815037287
C  C243  1  0.73570000  0.06080000  0.27200000  1.0 -0.0923813605
C  C244  1  0.26430000  0.56080000  0.72800000  1.0 -0.0923813605
C  C245  1  0.79720000  0.06640000  0.27780000  1.0 -0.0227971161
C  C246  1  0.20280000  0.56640000  0.72220000  1.0 -0.0227971161
C  C247  1  0.81710000  0.01850000  0.23870000  1.0 -0.0282801201
C  C248  1  0.18290000  0.51850000  0.76130000  1.0 -0.0282801201
C  C249  1  0.77500000  0.96620000  0.19230000  1.0 -0.0923813605
C  C250  1  0.22500000  0.46620000  0.80770000  1.0 -0.0923813605
C  C251  1  0.71150000  0.98520000  0.17540000  1.0 -0.0282801201
C  C252  1  0.28850000  0.48520000  0.82460000  1.0 -0.0282801201
C  C253  1  0.69120000  0.02630000  0.21620000  1.0 -0.0282801201
C  C254  1  0.30880000  0.52630000  0.78380000  1.0 -0.0282801201
C  C255  1  0.79530000  0.90410000  0.15490000  1.0 0.5703069763
C  C256  1  0.20470000  0.40410000  0.84510000  1.0 0.5703069763
C  C257  1  0.84470000  0.14810000  0.30660000  1.0 -0.1492734645
C  C258  1  0.15530000  0.64810000  0.69340000  1.0 -0.1492734645
C  C259  1  0.87690000  0.06010000  0.23230000  1.0 -0.1492734645
C  C260  1  0.12310000  0.56010000  0.76770000  1.0 -0.1492734645
C  C261  1  0.92610000  0.05500000  0.29850000  1.0 0.0305024792
C  C262  1  0.07390000  0.55500000  0.70150000  1.0 0.0305024792
C  C263  1  0.90650000  0.10200000  0.33900000  1.0 0.0413109365
C  C264  1  0.09350000  0.60200000  0.66100000  1.0 0.0413109365
C  C265  1  0.94490000  0.09700000  0.40520000  1.0 -0.1679897693
C  C266  1  0.05510000  0.59700000  0.59480000  1.0 -0.1679897693
C  C267  1  0.98600000  0.02900000  0.42010000  1.0 -0.1005310475
C  C268  1  0.01400000  0.52900000  0.57990000  1.0 -0.1005310475
C  C269  1  0.00600000  0.98100000  0.38200000  1.0 -0.1190175889
C  C270  1  0.99400000  0.48100000  0.61800000  1.0 -0.1190175889
C  C271  1  0.97590000  0.99400000  0.32030000  1.0 -0.1679897693
C  C272  1  0.02410000  0.49400000  0.67970000  1.0 -0.1679897693
C  C273  1  0.87280000  0.15720000  0.21850000  1.0 0.0413109365
C  C274  1  0.12720000  0.65720000  0.78150000  1.0 0.0413109365
C  C275  1  0.85430000  0.20640000  0.25920000  1.0 0.0490441921
C  C276  1  0.14570000  0.70640000  0.74080000  1.0 0.0608011284
C  C277  1  0.88380000  0.19900000  0.17260000  1.0 -0.1612616185
C  C278  1  0.11620000  0.69900000  0.82740000  1.0 -0.1612616185
C  C279  1  0.85390000  0.29610000  0.25430000  1.0 -0.1612616185
C  C280  1  0.14610000  0.79610000  0.74570000  1.0 -0.1612616185
C  C281  1  0.86600000  0.33820000  0.20660000  1.0 -0.0923813605
C  C282  1  0.13400000  0.83820000  0.79340000  1.0 -0.1005310475
C  C283  1  0.88400000  0.28900000  0.16770000  1.0 -0.1096118906
C  C284  1  0.11600000  0.78900000  0.83230000  1.0 -0.1096118906
C  C285  1  0.93180000  0.57080000  0.05780000  1.0 0.5293340878
C  C286  1  0.06820000  0.07080000  0.94220000  1.0 0.5293340878
C  C287  1  0.77420000  0.62110000  0.19520000  1.0 0.4434344219
C  C288  1  0.22580000  0.12110000  0.80480000  1.0 0.4434344219
C  C289  1  0.31440000  0.11920000  0.19610000  1.0 -0.2201951422
C  C290  1  0.68560000  0.61920000  0.80390000  1.0 -0.2201951422
C  C291  1  0.23100000  0.06300000  0.21200000  1.0 -0.1190175889
C  C292  1  0.76900000  0.56300000  0.78800000  1.0 -0.1190175889
C  C293  1  0.66100000  0.98710000  0.10540000  1.0 -0.1282378747
C  C294  1  0.33900000  0.48710000  0.89460000  1.0 -0.1282378747
C  C295  1  0.62190000  0.06700000  0.17780000  1.0 -0.1492734645
C  C296  1  0.37810000  0.56700000  0.82220000  1.0 -0.1492734645
C  C297  1  0.60530000  0.94000000  0.11070000  1.0 0.0140156895
C  C298  1  0.39470000  0.44000000  0.88930000  1.0 0.0140156895
C  C299  1  0.58400000  0.98470000  0.15140000  1.0 0.0201973632
C  C300  1  0.41600000  0.48470000  0.84860000  1.0 0.0201973632
C  C301  1  0.52190000  0.96100000  0.15190000  1.0 -0.1679897693
C  C302  1  0.47810000  0.46100000  0.84810000  1.0 -0.1679897693
C  C303  1  0.50510000  0.87800000  0.12990000  1.0 -0.1096118906
C  C304  1  0.49490000  0.37800000  0.87010000  1.0 -0.1096118906
C  C305  1  0.52820000  0.83400000  0.09280000  1.0 -0.1096118906
C  C306  1  0.47180000  0.33400000  0.90720000  1.0 -0.1096118906
C  C307  1  0.57790000  0.86170000  0.08020000  1.0 -0.1679897693
C  C308  1  0.42210000  0.36170000  0.91980000  1.0 -0.1679897693
C  C309  1  0.63720000  0.07820000  0.08250000  1.0 0.0490441921
C  C310  1  0.36280000  0.57820000  0.91750000  1.0 0.0490441921
C  C311  1  0.61490000  0.12210000  0.12240000  1.0 0.0490441921
C  C312  1  0.38510000  0.62210000  0.87760000  1.0 0.0490441921
C  C313  1  0.58510000  0.20280000  0.10530000  1.0 -0.1612616185
C  C314  1  0.41490000  0.70280000  0.89470000  1.0 -0.1612616185
C  C315  1  0.58230000  0.24100000  0.05030000  1.0 -0.1190175889
C  C316  1  0.41770000  0.74100000  0.94970000  1.0 -0.1190175889
C  C317  1  0.60400000  0.19700000  0.01140000  1.0 -0.1190175889
C  C318  1  0.39600000  0.69700000  0.98860000  1.0 -0.1190175889
C  C319  1  0.63800000  0.11850000  0.03080000  1.0 -0.1679897693
C  C320  1  0.36200000  0.61850000  0.96920000  1.0 -0.1679897693
N  N1  1  0.74770000  0.48320000  0.49060000  1.0 0.0305024792
N  N2  1  0.25230000  0.98320000  0.50940000  1.0 0.0305024792
N  N3  1  0.50740000  0.54850000  0.42690000  1.0 0.0305024792
N  N4  1  0.49260000  0.04850000  0.57310000  1.0 0.0305024792
N  N5  1  0.24620000  0.08830000  0.16270000  1.0 -0.0615729738
N  N6  1  0.75380000  0.58830000  0.83730000  1.0 -0.0615729738
N  N7  1  0.29690000  0.98110000  0.00800000  1.0 0.0140156895
N  N8  1  0.70310000  0.48110000  0.99200000  1.0 0.0140156895
O  O1  1  0.65270000  0.21550000  0.41300000  1.0 -1.0214124127
O  O2  1  0.34730000  0.71550000  0.58700000  1.0 -1.0214124127
O  O3  1  0.66880000  0.38150000  0.47850000  1.0 -0.4473233921
O  O4  1  0.33120000  0.88150000  0.52150000  1.0 -0.4473233921
O  O5  1  0.54140000  0.43390000  0.38860000  1.0 -0.3858958884
O  O6  1  0.45860000  0.93390000  0.61140000  1.0 -0.3858958884
O  O7  1  0.18830000  0.11880000  0.05460000  1.0 -0.0678665244
O  O8  1  0.81170000  0.61880000  0.94540000  1.0 -0.0678665244
O  O9  1  0.45010000  0.75940000  0.55940000  1.0 -0.5687891646
O  O10  1  0.54990000  0.25940000  0.44060000  1.0 -0.5687891646
O  O11  1  0.38310000  0.73600000  0.46190000  1.0 -0.5002382202
O  O12  1  0.61690000  0.23600000  0.53810000  1.0 -0.5002382202
O  O13  1  0.58240000  0.02610000  0.38620000  1.0 -0.5002382202
O  O14  1  0.41760000  0.52610000  0.61380000  1.0 -0.5002382202
O  O15  1  0.62570000  0.05470000  0.48740000  1.0 -0.5504715645
O  O16  1  0.37430000  0.55470000  0.51260000  1.0 -0.5504715645
O  O17  1  0.53040000  0.16100000  0.28480000  1.0 -0.5373923583
O  O18  1  0.46960000  0.66100000  0.71520000  1.0 -0.5373923583
O  O19  1  0.52920000  0.30200000  0.30770000  1.0 -0.5109119816
O  O20  1  0.47080000  0.80200000  0.69230000  1.0 -0.5109119816
O  O21  1  0.32110000  0.22500000  0.98330000  1.0 -0.520248781
O  O22  1  0.67890000  0.72500000  0.01670000  1.0 -0.520248781
O  O23  1  0.25580000  0.28480000  0.01920000  1.0 -0.5297669334
O  O24  1  0.74420000  0.78480000  0.98080000  1.0 -0.5297669334
O  O25  1  0.64880000  0.38780000  0.34720000  1.0 -0.5297669334
O  O26  1  0.35120000  0.88780000  0.65280000  1.0 -0.5297669334
O  O27  1  0.74930000  0.35080000  0.38830000  1.0 -0.5504715645
O  O28  1  0.25070000  0.85080000  0.61170000  1.0 -0.5504715645
O  O29  1  0.04920000  0.13580000  0.79440000  1.0 -0.5002382202
O  O30  1  0.95080000  0.63580000  0.20560000  1.0 -0.5002382202
O  O31  1  0.03730000  0.27730000  0.79220000  1.0 -0.5109119816
O  O32  1  0.96270000  0.77730000  0.20780000  1.0 -0.5109119816
O  O33  1  0.80260000  0.20870000  0.49440000  1.0 -0.6026212974
O  O34  1  0.19740000  0.70870000  0.50560000  1.0 -0.6026212974
O  O35  1  0.74550000  0.15890000  0.55150000  1.0 -0.5504715645
O  O36  1  0.25450000  0.65890000  0.44850000  1.0 -0.5504715645
O  O37  1  0.75040000  0.15350000  0.35610000  1.0 -0.5297669334
O  O38  1  0.24960000  0.65350000  0.64390000  1.0 -0.5297669334
O  O39  1  0.66040000  0.08310000  0.31210000  1.0 -0.5297669334
O  O40  1  0.33960000  0.58310000  0.68790000  1.0 -0.5297669334
O  O41  1  0.07970000  0.36360000  0.92260000  1.0 -0.5297669334
O  O42  1  0.92030000  0.86360000  0.07740000  1.0 -0.5297669334
O  O43  1  0.13020000  0.30620000  0.01710000  1.0 -0.5612315936
O  O44  1  0.86980000  0.80620000  0.98290000  1.0 -0.5612315936
O  O45  1  0.16460000  0.21040000  0.90700000  1.0 -0.9099101825
O  O46  1  0.83540000  0.71040000  0.09300000  1.0 -0.9099101825
O  O47  1  0.22080000  0.04420000  0.92160000  1.0 -0.4019498928
O  O48  1  0.77920000  0.54420000  0.07840000  1.0 -0.4019498928
O  O49  1  0.85230000  0.90100000  0.16450000  1.0 -0.520248781
O  O50  1  0.14770000  0.40100000  0.83550000  1.0 -0.520248781
O  O51  1  0.75310000  0.85490000  0.12090000  1.0 -0.5109119816
O  O52  1  0.24690000  0.35490000  0.87910000  1.0 -0.5109119816
O  O53  1  0.91980000  0.65090000  0.04720000  1.0 -0.1679897693
O  O54  1  0.08020000  0.15090000  0.95280000  1.0 -0.1679897693
O  O55  1  0.91760000  0.53980000  0.09940000  1.0 -0.4473233921
O  O56  1  0.08240000  0.03980000  0.90060000  1.0 -0.4473233921
O  O57  1  0.72990000  0.65300000  0.14850000  1.0 -0.245253007
O  O58  1  0.27010000  0.15300000  0.85150000  1.0 -0.2443275703
O  O59  1  0.82350000  0.58300000  0.19290000  1.0 -0.202908325
O  O60  1  0.17650000  0.08300000  0.80710000  1.0 -0.202908325
O  O61  1  0.23170000  0.15660000  0.07220000  1.0 -0.1005310475
O  O62  1  0.76830000  0.65660000  0.92780000  1.0 -0.1005310475
O  O63  1  0.89690000  0.62460000  0.01420000  1.0 -0.209560859
O  O64  1  0.10310000  0.12460000  0.98580000  1.0 -0.209560859
O  O65  1  0.90670000  0.52650000  0.08690000  1.0 -0.4624718977
O  O66  1  0.09330000  0.02650000  0.91310000  1.0 -0.4624718977
O  O67  1  0.83140000  0.63550000  0.20640000  1.0 -0.1679897693
O  O68  1  0.16860000  0.13550000  0.79360000  1.0 -0.1612616185
O  O69  1  0.73930000  0.67640000  0.15990000  1.0 -0.2201951422
O  O70  1  0.26070000  0.17640000  0.84010000  1.0 -0.2201951422
