# DDEC6 charges by PACMAN v1.1 (https://github.com/mtap-research/PACMAN-charge/)
data_EPECEJ_FSR_pacman
_symmetry_space_group_name_H-M   'P 1'
_cell_length_a   21.89800000
_cell_length_b   22.14900000
_cell_length_c   24.41090000
_cell_angle_alpha   109.73800000
_cell_angle_beta   109.10100000
_cell_angle_gamma   104.48900000
_symmetry_Int_Tables_number   1
_chemical_formula_structural   Zn8H107C141(NO12)3
_chemical_formula_sum   'Zn16 H214 C282 N6 O72'
_cell_volume   9625.69405726
_cell_formula_units_Z   2
loop_
 _symmetry_equiv_pos_site_id
 _symmetry_equiv_pos_as_xyz
  1  'x, y, z'
loop_
 _atom_site_type_symbol
 _atom_site_label
 _atom_site_symmetry_multiplicity
 _atom_site_fract_x
 _atom_site_fract_y
 _atom_site_fract_z
 _atom_site_occupancy
 _atom_site_charge
Zn  Zn1  1  0.00017000  0.55049000  0.12556000  1.0 0.9507474279
Zn  Zn2  1  0.99983000  0.44951000  0.87444000  1.0 0.9507474279
Zn  Zn3  1  0.06341000  0.48131000  0.03084000  1.0 0.978911159
Zn  Zn4  1  0.93659000  0.51869000  0.96916000  1.0 0.978911159
Zn  Zn5  1  0.43151000  0.51682000  0.48800000  1.0 0.9922734474
Zn  Zn6  1  0.56849000  0.48318000  0.51200000  1.0 0.9922734474
Zn  Zn7  1  0.39549000  0.37486000  0.36675000  1.0 0.9415986513
Zn  Zn8  1  0.60451000  0.62514000  0.63325000  1.0 0.9415986513
Zn  Zn9  1  0.42060000  0.99290000  0.96488000  1.0 0.9291673129
Zn  Zn10  1  0.57940000  0.00710000  0.03512000  1.0 0.9291673129
Zn  Zn11  1  0.44930000  0.92589000  0.05992000  1.0 0.9291673129
Zn  Zn12  1  0.55070000  0.07411000  0.94008000  1.0 0.9291673129
Zn  Zn13  1  0.14652000  0.04317000  0.51976000  1.0 0.916442511
Zn  Zn14  1  0.85348000  0.95683000  0.48024000  1.0 0.916442511
Zn  Zn15  1  0.97579000  0.02236000  0.44470000  1.0 0.8901948308
Zn  Zn16  1  0.02421000  0.97764000  0.55530000  1.0 0.8901948308
H  H1  1  0.15680000  0.69120000  0.36680000  1.0 0.1204224709
H  H2  1  0.84320000  0.30880000  0.63320000  1.0 0.1204224709
H  H3  1  0.24200000  0.77500000  0.47250000  1.0 0.1096407332
H  H4  1  0.75800000  0.22500000  0.52750000  1.0 0.1096407332
H  H5  1  0.31160000  0.74440000  0.54270000  1.0 0.1096407332
H  H6  1  0.68840000  0.25560000  0.45730000  1.0 0.1096407332
H  H7  1  0.30230000  0.62820000  0.50690000  1.0 0.0905484384
H  H8  1  0.69770000  0.37180000  0.49310000  1.0 0.0905484384
H  H9  1  0.09620000  0.56030000  0.27710000  1.0 0.1292867175
H  H10  1  0.90380000  0.43970000  0.72290000  1.0 0.1292867175
H  H11  1  0.24020000  0.49950000  0.41310000  1.0 0.1096407332
H  H12  1  0.75980000  0.50050000  0.58690000  1.0 0.1096407332
H  H13  1  0.98340000  0.46900000  0.26180000  1.0 0.1204224709
H  H14  1  0.01660000  0.53100000  0.73820000  1.0 0.1204224709
H  H15  1  0.93350000  0.38190000  0.28560000  1.0 0.099944356
H  H16  1  0.06650000  0.61810000  0.71440000  1.0 0.099944356
H  H17  1  0.00680000  0.35360000  0.35840000  1.0 0.099944356
H  H18  1  0.99320000  0.64640000  0.64160000  1.0 0.099944356
H  H19  1  0.13150000  0.40810000  0.40170000  1.0 0.1204224709
H  H20  1  0.86850000  0.59190000  0.59830000  1.0 0.1204224709
H  H21  1  0.28840000  0.43750000  0.23140000  1.0 0.1292867175
H  H22  1  0.71160000  0.56250000  0.76860000  1.0 0.1292867175
H  H23  1  0.21670000  0.46830000  0.16300000  1.0 0.1204224709
H  H24  1  0.78330000  0.53170000  0.83700000  1.0 0.1204224709
H  H25  1  0.39620000  0.53170000  0.66380000  1.0 0.1292867175
H  H26  1  0.60380000  0.46830000  0.33620000  1.0 0.1292867175
H  H27  1  0.34060000  0.56040000  0.72930000  1.0 0.1096407332
H  H28  1  0.65940000  0.43960000  0.27070000  1.0 0.1096407332
H  H29  1  0.28930000  0.47920000  0.75950000  1.0 0.099944356
H  H30  1  0.71070000  0.52080000  0.24050000  1.0 0.099944356
H  H31  1  0.29800000  0.37130000  0.72780000  1.0 0.1204224709
H  H32  1  0.70200000  0.62870000  0.27220000  1.0 0.1204224709
H  H33  1  0.43510000  0.44160000  0.60180000  1.0 0.1204224709
H  H34  1  0.56490000  0.55840000  0.39820000  1.0 0.1204224709
H  H35  1  0.34110000  0.28600000  0.66620000  1.0 0.1096407332
H  H36  1  0.65890000  0.71400000  0.33380000  1.0 0.1096407332
H  H37  1  0.46220000  0.27950000  0.71800000  1.0 0.1096407332
H  H38  1  0.53780000  0.72050000  0.28200000  1.0 0.1096407332
H  H39  1  0.58160000  0.31770000  0.74270000  1.0 0.1096407332
H  H40  1  0.41840000  0.68230000  0.25730000  1.0 0.1096407332
H  H41  1  0.63260000  0.40410000  0.71800000  1.0 0.099944356
H  H42  1  0.36740000  0.59590000  0.28200000  1.0 0.099944356
H  H43  1  0.56030000  0.44610000  0.65960000  1.0 0.1204224709
H  H44  1  0.43970000  0.55390000  0.34040000  1.0 0.1204224709
H  H45  1  0.21400000  0.16020000  0.43500000  1.0 0.1204224709
H  H46  1  0.78600000  0.83980000  0.56500000  1.0 0.1204224709
H  H47  1  0.26340000  0.23680000  0.40100000  1.0 0.1292867175
H  H48  1  0.73660000  0.76320000  0.59900000  1.0 0.1204224709
H  H49  1  0.53410000  0.21180000  0.41690000  1.0 0.1096407332
H  H50  1  0.46590000  0.78820000  0.58310000  1.0 0.1096407332
H  H51  1  0.51590000  0.10750000  0.42460000  1.0 0.1096407332
H  H52  1  0.48410000  0.89250000  0.57540000  1.0 0.1096407332
H  H53  1  0.50590000  0.00810000  0.34300000  1.0 0.1096407332
H  H54  1  0.49410000  0.99190000  0.65700000  1.0 0.1096407332
H  H55  1  0.51600000  0.01200000  0.25270000  1.0 0.1292867175
H  H56  1  0.48400000  0.98800000  0.74730000  1.0 0.1292867175
H  H57  1  0.55830000  0.28030000  0.35490000  1.0 0.1096407332
H  H58  1  0.44170000  0.71970000  0.64510000  1.0 0.1096407332
H  H59  1  0.54140000  0.08570000  0.19380000  1.0 0.1204224709
H  H60  1  0.45860000  0.91430000  0.80620000  1.0 0.1204224709
H  H61  1  0.68660000  0.35140000  0.38040000  1.0 0.1096407332
H  H62  1  0.31340000  0.64860000  0.61960000  1.0 0.1096407332
H  H63  1  0.78380000  0.35280000  0.35820000  1.0 0.1096407332
H  H64  1  0.21620000  0.64720000  0.64180000  1.0 0.1096407332
H  H65  1  0.77450000  0.25350000  0.27730000  1.0 0.099944356
H  H66  1  0.22550000  0.74650000  0.72270000  1.0 0.099944356
H  H67  1  0.66760000  0.15220000  0.21410000  1.0 0.1204224709
H  H68  1  0.33240000  0.84780000  0.78590000  1.0 0.1204224709
H  H69  1  0.34660000  0.13380000  0.08460000  1.0 0.1204224709
H  H70  1  0.65340000  0.86620000  0.91540000  1.0 0.1204224709
H  H71  1  0.35250000  0.22830000  0.16760000  1.0 0.1292867175
H  H72  1  0.64750000  0.77170000  0.83240000  1.0 0.1292867175
H  H73  1  0.45670000  0.62040000  0.94990000  1.0 0.1204224709
H  H74  1  0.54330000  0.37960000  0.05010000  1.0 0.1204224709
H  H75  1  0.47320000  0.52390000  0.96170000  1.0 0.1096407332
H  H76  1  0.52680000  0.47610000  0.03830000  1.0 0.1096407332
H  H77  1  0.38060000  0.43310000  0.94790000  1.0 0.1096407332
H  H78  1  0.61940000  0.56690000  0.05210000  1.0 0.1096407332
H  H79  1  0.26770000  0.43390000  0.92070000  1.0 0.1204224709
H  H80  1  0.73230000  0.56610000  0.07930000  1.0 0.1204224709
H  H81  1  0.37040000  0.68160000  0.92550000  1.0 0.1204224709
H  H82  1  0.62960000  0.31840000  0.07450000  1.0 0.1204224709
H  H83  1  0.18570000  0.49680000  0.89320000  1.0 0.1204224709
H  H84  1  0.81430000  0.50320000  0.10680000  1.0 0.1204224709
H  H85  1  0.11280000  0.46990000  0.77380000  1.0 0.1292867175
H  H86  1  0.88720000  0.53010000  0.22620000  1.0 0.1292867175
H  H87  1  0.10780000  0.49630000  0.68820000  1.0 0.1096407332
H  H88  1  0.89220000  0.50370000  0.31180000  1.0 0.1096407332
H  H89  1  0.20080000  0.59040000  0.70470000  1.0 0.099944356
H  H90  1  0.79920000  0.40960000  0.29530000  1.0 0.099944356
H  H91  1  0.30170000  0.65950000  0.80710000  1.0 0.1204224709
H  H92  1  0.69830000  0.34050000  0.19290000  1.0 0.1204224709
H  H93  1  0.20030000  0.69110000  0.06320000  1.0 0.1096407332
H  H94  1  0.79970000  0.30890000  0.93680000  1.0 0.1096407332
H  H95  1  0.29400000  0.78610000  0.08120000  1.0 0.1204224709
H  H96  1  0.70600000  0.21390000  0.91880000  1.0 0.1204224709
H  H97  1  0.30990000  0.25560000  0.73560000  1.0 0.1292867175
H  H98  1  0.69010000  0.74440000  0.26440000  1.0 0.1292867175
H  H99  1  0.36820000  0.35780000  0.83610000  1.0 0.1096407332
H  H100  1  0.63180000  0.64220000  0.16390000  1.0 0.1096407332
H  H101  1  0.45280000  0.36400000  0.92710000  1.0 0.099944356
H  H102  1  0.54720000  0.63600000  0.07290000  1.0 0.099944356
H  H103  1  0.48730000  0.27000000  0.91880000  1.0 0.1292867175
H  H104  1  0.51270000  0.73000000  0.08120000  1.0 0.1292867175
H  H105  1  0.30197000  0.13287000  0.66666667  1.0 0.1204224709
H  H106  1  0.69803000  0.86713000  0.33333333  1.0 0.1204224709
H  H107  1  0.47350000  0.14570000  0.84560000  1.0 0.1204224709
H  H108  1  0.52650000  0.85430000  0.15440000  1.0 0.1204224709
H  H109  1  0.37750000  0.12100000  0.60670000  1.0 0.1292867175
H  H110  1  0.62250000  0.87900000  0.39330000  1.0 0.1292867175
H  H111  1  0.48700000  0.12320000  0.61070000  1.0 0.1096407332
H  H112  1  0.51300000  0.87680000  0.38930000  1.0 0.1096407332
H  H113  1  0.57590000  0.13520000  0.70290000  1.0 0.1096407332
H  H114  1  0.42410000  0.86480000  0.29710000  1.0 0.1204224709
H  H115  1  0.55530000  0.14040000  0.79240000  1.0 0.1292867175
H  H116  1  0.44470000  0.85960000  0.20760000  1.0 0.1292867175
H  H117  1  0.26420000  0.95380000  0.78770000  1.0 0.1096407332
H  H118  1  0.73580000  0.04620000  0.21230000  1.0 0.1096407332
H  H119  1  0.17610000  0.94890000  0.69880000  1.0 0.1096407332
H  H120  1  0.82390000  0.05110000  0.30120000  1.0 0.1096407332
H  H121  1  0.78310000  0.70090000  0.06850000  1.0 0.1096407332
H  H122  1  0.21690000  0.29910000  0.93150000  1.0 0.1096407332
H  H123  1  0.69160000  0.73210000  0.07920000  1.0 0.1096407332
H  H124  1  0.30840000  0.26790000  0.92080000  1.0 0.1096407332
H  H125  1  0.71830000  0.83790000  0.16400000  1.0 0.099944356
H  H126  1  0.28170000  0.16210000  0.83600000  1.0 0.099944356
H  H127  1  0.83640000  0.91560000  0.23910000  1.0 0.1204224709
H  H128  1  0.16360000  0.08440000  0.76090000  1.0 0.1204224709
H  H129  1  0.91960000  0.73340000  0.11250000  1.0 0.1096407332
H  H130  1  0.08040000  0.26660000  0.88750000  1.0 0.1096407332
H  H131  1  0.97140000  0.94350000  0.27820000  1.0 0.1204224709
H  H132  1  0.02860000  0.05650000  0.72180000  1.0 0.1204224709
H  H133  1  0.04530000  0.01170000  0.23750000  1.0 0.1204224709
H  H134  1  0.95470000  0.98830000  0.76250000  1.0 0.1204224709
H  H135  1  0.08560000  0.00660000  0.16040000  1.0 0.1096407332
H  H136  1  0.91440000  0.99340000  0.83960000  1.0 0.1096407332
H  H137  1  0.05650000  0.90020000  0.07560000  1.0 0.1096407332
H  H138  1  0.94350000  0.09980000  0.92440000  1.0 0.1096407332
H  H139  1  0.98980000  0.79530000  0.06810000  1.0 0.1096407332
H  H140  1  0.01020000  0.20470000  0.93190000  1.0 0.1096407332
H  H141  1  0.07920000  0.82800000  0.38880000  1.0 0.1096407332
H  H142  1  0.92080000  0.17200000  0.61120000  1.0 0.1096407332
H  H143  1  0.04710000  0.71960000  0.30470000  1.0 0.1204224709
H  H144  1  0.95290000  0.28040000  0.69530000  1.0 0.1204224709
H  H145  1  0.25400000  0.91610000  0.87450000  1.0 0.1096407332
H  H146  1  0.74600000  0.08390000  0.12550000  1.0 0.1096407332
H  H147  1  0.11740000  0.74800000  0.80600000  1.0 0.1381792863
H  H148  1  0.88260000  0.25200000  0.19400000  1.0 0.1381792863
H  H149  1  0.14110000  0.80180000  0.77910000  1.0 0.1292867175
H  H150  1  0.85890000  0.19820000  0.22090000  1.0 0.1292867175
H  H151  1  0.12370000  0.82660000  0.83970000  1.0 0.1292867175
H  H152  1  0.87630000  0.17340000  0.16030000  1.0 0.1292867175
H  H153  1  0.19060000  0.72490000  0.85400000  1.0 0.1292867175
H  H154  1  0.80940000  0.27510000  0.14600000  1.0 0.1292867175
H  H155  1  0.25110000  0.78420000  0.92470000  1.0 0.1381792863
H  H156  1  0.74890000  0.21580000  0.07530000  1.0 0.1381792863
H  H157  1  0.26970000  0.76020000  0.86480000  1.0 0.1292867175
H  H158  1  0.73030000  0.23980000  0.13520000  1.0 0.1292867175
H  H159  1  0.97110000  0.32190000  0.98350000  1.0 0.099944356
H  H160  1  0.02890000  0.67810000  0.01650000  1.0 0.099944356
H  H161  1  0.91360000  0.30750000  0.11640000  1.0 0.1292867175
H  H162  1  0.08640000  0.69250000  0.88360000  1.0 0.1292867175
H  H163  1  0.91460000  0.37430000  0.10420000  1.0 0.1481767571
H  H164  1  0.08540000  0.62570000  0.89580000  1.0 0.1481767571
H  H165  1  0.98740000  0.37050000  0.14240000  1.0 0.1481767571
H  H166  1  0.01260000  0.62950000  0.85760000  1.0 0.1481767571
H  H167  1  0.88380000  0.21400000  0.03400000  1.0 0.1381792863
H  H168  1  0.11620000  0.78600000  0.96600000  1.0 0.1381792863
H  H169  1  0.93800000  0.21300000  0.00320000  1.0 0.1292867175
H  H170  1  0.06200000  0.78700000  0.99680000  1.0 0.1292867175
H  H171  1  0.86640000  0.22000000  0.96750000  1.0 0.1292867175
H  H172  1  0.13360000  0.78000000  0.03250000  1.0 0.1292867175
H  H173  1  0.15490000  0.42960000  0.02350000  1.0 0.390102086
H  H174  1  0.84510000  0.57040000  0.97650000  1.0 0.390102086
H  H175  1  0.09560000  0.39330000  0.95850000  1.0 0.3804413316
H  H176  1  0.90440000  0.60670000  0.04150000  1.0 0.3804413316
H  H177  1  0.48950000  0.49090000  0.41160000  1.0 0.3804413316
H  H178  1  0.51050000  0.50910000  0.58840000  1.0 0.3804413316
H  H179  1  0.35340000  0.54620000  0.53790000  1.0 0.3693381225
H  H180  1  0.64660000  0.45380000  0.46210000  1.0 0.3693381225
H  H181  1  0.39590000  0.60990000  0.54200000  1.0 0.346926955
H  H182  1  0.60410000  0.39010000  0.45800000  1.0 0.346926955
H  H183  1  0.06450000  0.14870000  0.44430000  1.0 0.3033791011
H  H184  1  0.93550000  0.85130000  0.55570000  1.0 0.3033791011
H  H185  1  0.01070000  0.09700000  0.37020000  1.0 0.3804413316
H  H186  1  0.98930000  0.90300000  0.62980000  1.0 0.3804413316
H  H187  1  0.38750000  0.61100000  0.44400000  1.0 0.0846871262
H  H188  1  0.61250000  0.38900000  0.55600000  1.0 0.0846871262
H  H189  1  0.53950000  0.78650000  0.48930000  1.0 0.1292867175
H  H190  1  0.46050000  0.21350000  0.51070000  1.0 0.1292867175
H  H191  1  0.55340000  0.71660000  0.46640000  1.0 0.1292867175
H  H192  1  0.44660000  0.28340000  0.53360000  1.0 0.1292867175
H  H193  1  0.55760000  0.75210000  0.53730000  1.0 0.1381792863
H  H194  1  0.44240000  0.24790000  0.46270000  1.0 0.1381792863
H  H195  1  0.43070000  0.76970000  0.43850000  1.0 0.1381792863
H  H196  1  0.56930000  0.23030000  0.56150000  1.0 0.1381792863
H  H197  1  0.37370000  0.72380000  0.45200000  1.0 0.1204224709
H  H198  1  0.62630000  0.27620000  0.54800000  1.0 0.1204224709
H  H199  1  0.38020000  0.68980000  0.38610000  1.0 0.1292867175
H  H200  1  0.61980000  0.31020000  0.61390000  1.0 0.1292867175
H  H201  1  0.92310000  0.11260000  0.48540000  1.0 0.1892003095
H  H202  1  0.07690000  0.88740000  0.51460000  1.0 0.1892003095
H  H203  1  0.99780000  0.15060000  0.51920000  1.0 0.182367274
H  H204  1  0.00220000  0.84940000  0.48080000  1.0 0.182367274
H  H205  1  0.53200000  0.09700000  0.03800000  1.0 0.3804413316
H  H206  1  0.46800000  0.90300000  0.96200000  1.0 0.3804413316
H  H207  1  0.08200000  0.09700000  0.55700000  1.0 0.346926955
H  H208  1  0.91800000  0.90300000  0.44300000  1.0 0.346926955
H  H209  1  0.05300000  0.60600000  0.06100000  1.0 0.3562085306
H  H210  1  0.94700000  0.39400000  0.93900000  1.0 0.3562085306
H  H211  1  0.03060000  0.14320000  0.49880000  1.0 0.1481767571
H  H212  1  0.96940000  0.85680000  0.50120000  1.0 0.1481767571
H  H213  1  0.96010000  0.12240000  0.49200000  1.0 0.182367274
H  H214  1  0.03990000  0.87760000  0.50800000  1.0 0.182367274
C  C1  1  0.18590000  0.67780000  0.39460000  1.0 -0.159941029
C  C2  1  0.81410000  0.32220000  0.60540000  1.0 -0.159941029
C  C3  1  0.23650000  0.72760000  0.45790000  1.0 -0.1111188048
C  C4  1  0.76350000  0.27240000  0.54210000  1.0 -0.1111188048
C  C5  1  0.27850000  0.70970000  0.49950000  1.0 -0.1111188048
C  C6  1  0.72150000  0.29030000  0.50050000  1.0 -0.1111188048
C  C7  1  0.27260000  0.64050000  0.47840000  1.0 -0.1867311919
C  C8  1  0.72740000  0.35950000  0.52160000  1.0 -0.1867311919
C  C9  1  0.22240000  0.58930000  0.41470000  1.0 0.0465921754
C  C10  1  0.77760000  0.41070000  0.58530000  1.0 0.0465921754
C  C11  1  0.17868000  0.60828000  0.37278000  1.0 0.0403261386
C  C12  1  0.82132000  0.39172000  0.62722000  1.0 0.0403261386
C  C13  1  0.12713000  0.54673000  0.30673000  1.0 -0.1188907996
C  C14  1  0.87287000  0.45327000  0.69327000  1.0 -0.1188907996
C  C15  1  0.20906000  0.51296000  0.38346000  1.0 -0.1111188048
C  C16  1  0.79094000  0.48704000  0.61654000  1.0 -0.1111188048
C  C17  1  0.08570000  0.49010000  0.31750000  1.0 0.0465921754
C  C18  1  0.91430000  0.50990000  0.68250000  1.0 0.0465921754
C  C19  1  0.01280000  0.45650000  0.29030000  1.0 -0.149888161
C  C20  1  0.98720000  0.54350000  0.70970000  1.0 -0.149888161
C  C21  1  0.98340000  0.40540000  0.30450000  1.0 -0.1425851692
C  C22  1  0.01660000  0.59460000  0.69550000  1.0 -0.1425851692
C  C23  1  0.02720000  0.38790000  0.34720000  1.0 -0.1188907996
C  C24  1  0.97280000  0.61210000  0.65280000  1.0 -0.1188907996
C  C25  1  0.10170000  0.42110000  0.37390000  1.0 -0.149888161
C  C26  1  0.89830000  0.57890000  0.62610000  1.0 -0.149888161
C  C27  1  0.12970000  0.47140000  0.35900000  1.0 0.0403261386
C  C28  1  0.87030000  0.52860000  0.64100000  1.0 0.0403261386
C  C29  1  0.17240000  0.51720000  0.27997000  1.0 0.030976968
C  C30  1  0.82760000  0.48280000  0.72003000  1.0 0.030976968
C  C31  1  0.21764000  0.49961000  0.32167000  1.0 0.030976968
C  C32  1  0.78236000  0.50039000  0.67833000  1.0 0.030976968
C  C33  1  0.26165000  0.47065000  0.30478000  1.0 -0.0786786849
C  C34  1  0.73835000  0.52935000  0.69522000  1.0 -0.0786786849
C  C35  1  0.25942000  0.45849000  0.24455000  1.0 -0.1188907996
C  C36  1  0.74058000  0.54151000  0.75545000  1.0 -0.1188907996
C  C37  1  0.21620000  0.47614000  0.20355000  1.0 -0.1297175854
C  C38  1  0.78380000  0.52386000  0.79645000  1.0 -0.1297175854
C  C39  1  0.17137000  0.50538000  0.22031000  1.0 -0.067396005
C  C40  1  0.82863000  0.49462000  0.77969000  1.0 -0.067396005
C  C41  1  0.12281000  0.51909000  0.17102000  1.0 0.5889457142
C  C42  1  0.87719000  0.48091000  0.82898000  1.0 0.5889457142
C  C43  1  0.31270000  0.45336000  0.34741000  1.0 0.5889457142
C  C44  1  0.68730000  0.54664000  0.65259000  1.0 0.5889457142
C  C45  1  0.38088000  0.43542000  0.65858000  1.0 0.0465921754
C  C46  1  0.61912000  0.56458000  0.34142000  1.0 0.0465921754
C  C47  1  0.37650000  0.49930000  0.67720000  1.0 -0.1297175854
C  C48  1  0.62350000  0.50070000  0.32280000  1.0 -0.1297175854
C  C49  1  0.34320000  0.51590000  0.71540000  1.0 -0.1111188048
C  C50  1  0.65680000  0.48410000  0.28460000  1.0 -0.1111188048
C  C51  1  0.31310000  0.46790000  0.73380000  1.0 -0.1111188048
C  C52  1  0.68690000  0.53210000  0.26620000  1.0 -0.1111188048
C  C53  1  0.31810000  0.40400000  0.71490000  1.0 -0.1425851692
C  C54  1  0.68190000  0.59600000  0.28510000  1.0 -0.1425851692
C  C55  1  0.35201000  0.38766000  0.67731000  1.0 0.0465921754
C  C56  1  0.64799000  0.61234000  0.32269000  1.0 0.0465921754
C  C57  1  0.41428000  0.40749000  0.61584000  1.0 -0.1111188048
C  C58  1  0.58572000  0.59251000  0.38416000  1.0 -0.1111188048
C  C59  1  0.36144000  0.31957000  0.65143000  1.0 -0.1188907996
C  C60  1  0.63856000  0.68043000  0.34857000  1.0 -0.1188907996
C  C61  1  0.46865000  0.38774000  0.65467000  1.0 0.0403261386
C  C62  1  0.53135000  0.61226000  0.34533000  1.0 0.0403261386
C  C63  1  0.43945000  0.33913000  0.67284000  1.0 0.0403261386
C  C64  1  0.56055000  0.66087000  0.32716000  1.0 0.0403261386
C  C65  1  0.48192000  0.31322000  0.70592000  1.0 -0.149888161
C  C66  1  0.51808000  0.68678000  0.29408000  1.0 -0.149888161
C  C67  1  0.55310000  0.33660000  0.72120000  1.0 -0.1111188048
C  C68  1  0.44690000  0.66340000  0.27880000  1.0 -0.1111188048
C  C69  1  0.58330000  0.38680000  0.70560000  1.0 -0.1111188048
C  C70  1  0.41670000  0.61320000  0.29440000  1.0 -0.1111188048
C  C71  1  0.54037000  0.41217000  0.67137000  1.0 -0.1425851692
C  C72  1  0.45963000  0.58783000  0.32863000  1.0 -0.1425851692
C  C73  1  0.35528000  0.33769000  0.55778000  1.0 0.030976968
C  C74  1  0.64472000  0.66231000  0.44222000  1.0 0.030976968
C  C75  1  0.32555000  0.29050000  0.57765000  1.0 0.030976968
C  C76  1  0.67445000  0.70950000  0.42235000  1.0 0.030976968
C  C77  1  0.27260000  0.22370000  0.53220000  1.0 -0.0615586446
C  C78  1  0.72740000  0.77630000  0.46780000  1.0 -0.0615586446
C  C79  1  0.25010000  0.20530000  0.46660000  1.0 -0.1297175854
C  C80  1  0.74990000  0.79470000  0.53340000  1.0 -0.1297175854
C  C81  1  0.27910000  0.25090000  0.44630000  1.0 -0.1188907996
C  C82  1  0.72090000  0.74910000  0.55370000  1.0 -0.1188907996
C  C83  1  0.33126000  0.31782000  0.49196000  1.0 -0.067396005
C  C84  1  0.66874000  0.68218000  0.50804000  1.0 -0.067396005
C  C85  1  0.36068000  0.36437000  0.46641000  1.0 0.5999217804
C  C86  1  0.63932000  0.63563000  0.53359000  1.0 0.5999217804
C  C87  1  0.23670000  0.17100000  0.54960000  1.0 0.556404767
C  C88  1  0.76330000  0.82900000  0.45040000  1.0 0.556404767
C  C89  1  0.54118000  0.17460000  0.33178000  1.0 0.0403261386
C  C90  1  0.45882000  0.82540000  0.66822000  1.0 0.0403261386
C  C91  1  0.53220000  0.17190000  0.38420000  1.0 -0.149888161
C  C92  1  0.46780000  0.82810000  0.61580000  1.0 -0.149888161
C  C93  1  0.52030000  0.10980000  0.38780000  1.0 -0.1188907996
C  C94  1  0.47970000  0.89020000  0.61220000  1.0 -0.1188907996
C  C95  1  0.51450000  0.05050000  0.33940000  1.0 -0.1025382007
C  C96  1  0.48550000  0.94950000  0.66060000  1.0 -0.1025382007
C  C97  1  0.52120000  0.05290000  0.28670000  1.0 -0.1297175854
C  C98  1  0.47880000  0.94710000  0.71330000  1.0 -0.1297175854
C  C99  1  0.53560000  0.11505000  0.28310000  1.0 0.0403261386
C  C100  1  0.46440000  0.88495000  0.71690000  1.0 0.0403261386
C  C101  1  0.55483000  0.23814000  0.31953000  1.0 -0.1111188048
C  C102  1  0.44517000  0.76186000  0.68047000  1.0 -0.1111188048
C  C103  1  0.54426000  0.12790000  0.22872000  1.0 -0.1111188048
C  C104  1  0.45574000  0.87210000  0.77128000  1.0 -0.1111188048
C  C105  1  0.62143000  0.25019000  0.31113000  1.0 0.0465921754
C  C106  1  0.37857000  0.74981000  0.68887000  1.0 0.0465921754
C  C107  1  0.68337000  0.31107000  0.34727000  1.0 -0.149888161
C  C108  1  0.31663000  0.68893000  0.65273000  1.0 -0.149888161
C  C109  1  0.74100000  0.31190000  0.33400000  1.0 -0.1111188048
C  C110  1  0.25900000  0.68810000  0.66600000  1.0 -0.1111188048
C  C111  1  0.73510000  0.25310000  0.28580000  1.0 -0.1188907996
C  C112  1  0.26490000  0.74690000  0.71420000  1.0 -0.1188907996
C  C113  1  0.67150000  0.19200000  0.24840000  1.0 -0.149888161
C  C114  1  0.32850000  0.80800000  0.75160000  1.0 -0.149888161
C  C115  1  0.61546000  0.19086000  0.26226000  1.0 0.0403261386
C  C116  1  0.38454000  0.80914000  0.73774000  1.0 0.0403261386
C  C117  1  0.49295000  0.21314000  0.25303000  1.0 0.030976968
C  C118  1  0.50705000  0.78686000  0.74697000  1.0 0.030976968
C  C119  1  0.48664000  0.15290000  0.20370000  1.0 0.0403261386
C  C120  1  0.51336000  0.84710000  0.79630000  1.0 0.0403261386
C  C121  1  0.43138000  0.12212000  0.14056000  1.0 -0.0786786849
C  C122  1  0.56862000  0.87788000  0.85944000  1.0 -0.0786786849
C  C123  1  0.38293000  0.15291000  0.12769000  1.0 -0.1188907996
C  C124  1  0.61707000  0.84709000  0.87231000  1.0 -0.1188907996
C  C125  1  0.38749000  0.20999000  0.17640000  1.0 -0.1111188048
C  C126  1  0.61251000  0.79001000  0.82360000  1.0 -0.1111188048
C  C127  1  0.44415000  0.24204000  0.23999000  1.0 -0.0534140753
C  C128  1  0.55585000  0.75796000  0.76001000  1.0 -0.0534140753
C  C129  1  0.44928000  0.30552000  0.29198000  1.0 0.5727423405
C  C130  1  0.55072000  0.69448000  0.70802000  1.0 0.5727423405
C  C131  1  0.42299000  0.05872000  0.08650000  1.0 0.5889457142
C  C132  1  0.57701000  0.94128000  0.91350000  1.0 0.5889457142
C  C133  1  0.35240000  0.58472000  0.92903000  1.0 0.0403261386
C  C134  1  0.64760000  0.41528000  0.07097000  1.0 0.0403261386
C  C135  1  0.41854000  0.58304000  0.94424000  1.0 -0.149888161
C  C136  1  0.58146000  0.41696000  0.05576000  1.0 -0.149888161
C  C137  1  0.42809000  0.52559000  0.95109000  1.0 -0.1188907996
C  C138  1  0.57191000  0.47441000  0.04891000  1.0 -0.1188907996
C  C139  1  0.37285000  0.47155000  0.94265000  1.0 -0.1111188048
C  C140  1  0.62715000  0.52845000  0.05735000  1.0 -0.1111188048
C  C141  1  0.30545000  0.47170000  0.92645000  1.0 -0.149888161
C  C142  1  0.69455000  0.52830000  0.07355000  1.0 -0.149888161
C  C143  1  0.29501000  0.52850000  0.91900000  1.0 0.0403261386
C  C144  1  0.70499000  0.47150000  0.08100000  1.0 0.0403261386
C  C145  1  0.33061000  0.64144000  0.91900000  1.0 -0.1111188048
C  C146  1  0.66939000  0.35856000  0.08100000  1.0 -0.1111188048
C  C147  1  0.22560000  0.53677000  0.89968000  1.0 -0.1111188048
C  C148  1  0.77440000  0.46323000  0.10032000  1.0 -0.1111188048
C  C149  1  0.26860000  0.60446000  0.85041000  1.0 0.030976968
C  C150  1  0.73140000  0.39554000  0.14959000  1.0 0.030976968
C  C151  1  0.21212000  0.54759000  0.83960000  1.0 0.0403261386
C  C152  1  0.78788000  0.45241000  0.16040000  1.0 0.0403261386
C  C153  1  0.15096000  0.50736000  0.77956000  1.0 -0.149888161
C  C154  1  0.84904000  0.49264000  0.22044000  1.0 -0.149888161
C  C155  1  0.14799000  0.52339000  0.72969000  1.0 -0.1111188048
C  C156  1  0.85201000  0.47661000  0.27031000  1.0 -0.1188907996
C  C157  1  0.20360000  0.57950000  0.73970000  1.0 -0.1188907996
C  C158  1  0.79640000  0.42050000  0.26030000  1.0 -0.1188907996
C  C159  1  0.26437000  0.62080000  0.80080000  1.0 -0.159941029
C  C160  1  0.73563000  0.37920000  0.19920000  1.0 -0.159941029
C  C161  1  0.31857000  0.73120000  0.01271000  1.0 -0.0615586446
C  C162  1  0.68143000  0.26880000  0.98729000  1.0 -0.0615586446
C  C163  1  0.29858000  0.66360000  0.96509000  1.0 0.030976968
C  C164  1  0.70142000  0.33640000  0.03491000  1.0 0.030976968
C  C165  1  0.24084000  0.60735000  0.95303000  1.0 0.0238967718
C  C166  1  0.75916000  0.39265000  0.04697000  1.0 0.0238967718
C  C167  1  0.20375000  0.61732000  0.98820000  1.0 -0.0615586446
C  C168  1  0.79625000  0.38268000  0.01180000  1.0 -0.0615586446
C  C169  1  0.22462000  0.68407000  0.03731000  1.0 -0.1297175854
C  C170  1  0.77538000  0.31593000  0.96269000  1.0 -0.1297175854
C  C171  1  0.28106000  0.74047000  0.04845000  1.0 -0.1297175854
C  C172  1  0.71894000  0.25953000  0.95155000  1.0 -0.1297175854
C  C173  1  0.37822000  0.79521000  0.02777000  1.0 0.5467714047
C  C174  1  0.62178000  0.20479000  0.97223000  1.0 0.5467714047
C  C175  1  0.13797000  0.55909000  0.97216000  1.0 0.5889457142
C  C176  1  0.86203000  0.44091000  0.02784000  1.0 0.5889457142
C  C177  1  0.36674000  0.20384000  0.76709000  1.0 0.0403261386
C  C178  1  0.63326000  0.79616000  0.23291000  1.0 0.0403261386
C  C179  1  0.34618000  0.25861000  0.77208000  1.0 -0.1425851692
C  C180  1  0.65382000  0.74139000  0.22792000  1.0 -0.1425851692
C  C181  1  0.38034000  0.31886000  0.83234000  1.0 -0.1111188048
C  C182  1  0.61966000  0.68114000  0.16766000  1.0 -0.1111188048
C  C183  1  0.43141000  0.32301000  0.88641000  1.0 -0.1111188048
C  C184  1  0.56859000  0.67699000  0.11359000  1.0 -0.1111188048
C  C185  1  0.45190000  0.26742000  0.88182000  1.0 -0.1425851692
C  C186  1  0.54810000  0.73258000  0.11818000  1.0 -0.1425851692
C  C187  1  0.41929000  0.20820000  0.82185000  1.0 0.0403261386
C  C188  1  0.58071000  0.79180000  0.17815000  1.0 0.0403261386
C  C189  1  0.33843000  0.13527000  0.70579000  1.0 -0.1188907996
C  C190  1  0.66157000  0.86473000  0.29421000  1.0 -0.1188907996
C  C191  1  0.43616000  0.14293000  0.80683000  1.0 -0.1111188048
C  C192  1  0.56384000  0.85707000  0.19317000  1.0 -0.1111188048
C  C193  1  0.40360000  0.13118000  0.69830000  1.0 0.0403261386
C  C194  1  0.59640000  0.86882000  0.30170000  1.0 0.0403261386
C  C195  1  0.41360000  0.12560000  0.64450000  1.0 -0.1425851692
C  C196  1  0.58640000  0.87440000  0.35550000  1.0 -0.1425851692
C  C197  1  0.47870000  0.12680000  0.64730000  1.0 -0.1111188048
C  C198  1  0.52130000  0.87320000  0.35270000  1.0 -0.1111188048
C  C199  1  0.53170000  0.13340000  0.70200000  1.0 -0.1188907996
C  C200  1  0.46830000  0.86660000  0.29800000  1.0 -0.1188907996
C  C201  1  0.52000000  0.13720000  0.75500000  1.0 -0.149888161
C  C202  1  0.48000000  0.86280000  0.24500000  1.0 -0.149888161
C  C203  1  0.45560000  0.13620000  0.75240000  1.0 0.0403261386
C  C204  1  0.54440000  0.86380000  0.24760000  1.0 0.0403261386
C  C205  1  0.31110000  0.07724000  0.72232000  1.0 0.030976968
C  C206  1  0.68890000  0.92276000  0.27768000  1.0 0.030976968
C  C207  1  0.36412000  0.08089000  0.77731000  1.0 0.030976968
C  C208  1  0.63588000  0.91911000  0.22269000  1.0 0.030976968
C  C209  1  0.34660000  0.03342000  0.79989000  1.0 -0.067396005
C  C210  1  0.65340000  0.96658000  0.20011000  1.0 -0.067396005
C  C211  1  0.27624000  0.98520000  0.77061000  1.0 -0.1188907996
C  C212  1  0.72376000  0.01480000  0.22939000  1.0 -0.1188907996
C  C213  1  0.22354000  0.98172000  0.71755000  1.0 -0.1297175854
C  C214  1  0.77646000  0.01828000  0.28245000  1.0 -0.1297175854
C  C215  1  0.24172000  0.02755000  0.69224000  1.0 -0.0534140753
C  C216  1  0.75828000  0.97245000  0.30776000  1.0 -0.0534140753
C  C217  1  0.18309000  0.01969000  0.63259000  1.0 0.5800966596
C  C218  1  0.81691000  0.98031000  0.36741000  1.0 0.5800966596
C  C219  1  0.40128000  0.03069000  0.85514000  1.0 0.5999217804
C  C220  1  0.59872000  0.96931000  0.14486000  1.0 0.5999217804
C  C221  1  0.86366000  0.79008000  0.14756000  1.0 0.0465921754
C  C222  1  0.13634000  0.20992000  0.85244000  1.0 0.0465921754
C  C223  1  0.79351000  0.74431000  0.10291000  1.0 -0.159941029
C  C224  1  0.20649000  0.25569000  0.89709000  1.0 -0.159941029
C  C225  1  0.73950000  0.76270000  0.10930000  1.0 -0.1111188048
C  C226  1  0.26050000  0.23730000  0.89070000  1.0 -0.1111188048
C  C227  1  0.75550000  0.82550000  0.15950000  1.0 -0.1025382007
C  C228  1  0.24450000  0.17450000  0.84050000  1.0 -0.1025382007
C  C229  1  0.82630000  0.87220000  0.20480000  1.0 -0.1425851692
C  C230  1  0.17370000  0.12780000  0.79520000  1.0 -0.1425851692
C  C231  1  0.88051000  0.85417000  0.19871000  1.0 0.0465921754
C  C232  1  0.11949000  0.14583000  0.80129000  1.0 0.0465921754
C  C233  1  0.93038000  0.77899000  0.14888000  1.0 -0.1111188048
C  C234  1  0.06962000  0.22101000  0.85112000  1.0 -0.1111188048
C  C235  1  0.96037000  0.89748000  0.24227000  1.0 -0.1111188048
C  C236  1  0.03963000  0.10252000  0.75773000  1.0 -0.1111188048
C  C237  1  0.97530000  0.84110000  0.14760000  1.0 0.0403261386
C  C238  1  0.02470000  0.15890000  0.85240000  1.0 0.0403261386
C  C239  1  0.99240000  0.90590000  0.19820000  1.0 0.0465921754
C  C240  1  0.00760000  0.09410000  0.80180000  1.0 0.0465921754
C  C241  1  0.03360000  0.96770000  0.20300000  1.0 -0.159941029
C  C242  1  0.96640000  0.03230000  0.79700000  1.0 -0.159941029
C  C243  1  0.05700000  0.96440000  0.15750000  1.0 -0.1111188048
C  C244  1  0.94300000  0.03560000  0.84250000  1.0 -0.1111188048
C  C245  1  0.04020000  0.90110000  0.10740000  1.0 -0.1188907996
C  C246  1  0.95980000  0.09890000  0.89260000  1.0 -0.1188907996
C  C247  1  0.00020000  0.83900000  0.10230000  1.0 -0.159941029
C  C248  1  0.99980000  0.16100000  0.89770000  1.0 -0.159941029
C  C249  1  0.97074000  0.78517000  0.21649000  1.0 0.0403261386
C  C250  1  0.02926000  0.21483000  0.78351000  1.0 0.0403261386
C  C251  1  0.98820000  0.85102000  0.26762000  1.0 0.030976968
C  C252  1  0.01180000  0.14898000  0.73238000  1.0 0.030976968
C  C253  1  0.02790000  0.86699000  0.33190000  1.0 -0.0615586446
C  C254  1  0.97210000  0.13301000  0.66810000  1.0 -0.0615586446
C  C255  1  0.05076000  0.81716000  0.34506000  1.0 -0.1425851692
C  C256  1  0.94924000  0.18284000  0.65494000  1.0 -0.1425851692
C  C257  1  0.03218000  0.75308000  0.29498000  1.0 -0.1297175854
C  C258  1  0.96782000  0.24692000  0.70502000  1.0 -0.1188907996
C  C259  1  0.99140000  0.73599000  0.22962000  1.0 -0.0615586446
C  C260  1  0.00860000  0.26401000  0.77038000  1.0 -0.0615586446
C  C261  1  0.97289000  0.66461000  0.17820000  1.0 0.5727423405
C  C262  1  0.02711000  0.33539000  0.82180000  1.0 0.5727423405
C  C263  1  0.04717000  0.93397000  0.38892000  1.0 0.5999217804
C  C264  1  0.95283000  0.06603000  0.61108000  1.0 0.5999217804
C  C265  1  0.26770000  0.88370000  0.88740000  1.0 0.1892003095
C  C266  1  0.73230000  0.11630000  0.11260000  1.0 0.1956305032
C  C267  1  0.14400000  0.79720000  0.81830000  1.0 -0.351657703
C  C268  1  0.85600000  0.20280000  0.18170000  1.0 -0.351657703
C  C269  1  0.23340000  0.76850000  0.87770000  1.0 -0.302417698
C  C270  1  0.76660000  0.23150000  0.12230000  1.0 -0.302417698
C  C271  1  0.97140000  0.34680000  0.02390000  1.0 0.2396934604
C  C272  1  0.02860000  0.65320000  0.97610000  1.0 0.2396934604
C  C273  1  0.93890000  0.34310000  0.10720000  1.0 -0.3322466562
C  C274  1  0.06110000  0.65690000  0.89280000  1.0 -0.3322466562
C  C275  1  0.90410000  0.23270000  0.00990000  1.0 -0.351657703
C  C276  1  0.09590000  0.76730000  0.99010000  1.0 -0.3556339467
C  C277  1  0.43699000  0.63739000  0.46299000  1.0 0.2660661911
C  C278  1  0.56301000  0.36261000  0.53701000  1.0 0.2660661911
C  C279  1  0.53330000  0.74210000  0.49160000  1.0 -0.3322466562
C  C280  1  0.46670000  0.25790000  0.50840000  1.0 -0.3322466562
C  C281  1  0.40660000  0.72280000  0.43280000  1.0 -0.351657703
C  C282  1  0.59340000  0.27720000  0.56720000  1.0 -0.351657703
N  N1  1  0.94060000  0.30970000  0.04750000  1.0 0.030976968
N  N2  1  0.05940000  0.69030000  0.95250000  1.0 0.030976968
N  N3  1  0.21780000  0.81960000  0.86310000  1.0 0.0238967718
N  N4  1  0.78220000  0.18040000  0.13690000  1.0 0.0238967718
N  N5  1  0.45904000  0.70017000  0.46524000  1.0 0.0123469861
N  N6  1  0.54096000  0.29983000  0.53476000  1.0 0.0123469861
O  O1  1  0.07201000  0.52990000  0.17931000  1.0 -0.541380835
O  O2  1  0.92799000  0.47010000  0.82069000  1.0 -0.541380835
O  O3  1  0.13639000  0.51952000  0.12606000  1.0 -0.5314712847
O  O4  1  0.86361000  0.48048000  0.87394000  1.0 -0.5314712847
O  O5  1  0.32794000  0.40430000  0.31841000  1.0 -0.541380835
O  O6  1  0.67206000  0.59570000  0.68159000  1.0 -0.541380835
O  O7  1  0.33873000  0.48811000  0.40766000  1.0 -0.5844760562
O  O8  1  0.66127000  0.51189000  0.59234000  1.0 -0.5844760562
O  O9  1  0.02194000  0.55755000  0.05804000  1.0 -0.8904430891
O  O10  1  0.97806000  0.44245000  0.94196000  1.0 -0.8904430891
O  O11  1  0.13135000  0.55350000  0.01863000  1.0 -0.541380835
O  O12  1  0.86865000  0.44650000  0.98137000  1.0 -0.541380835
O  O13  1  0.10727000  0.40962000  0.00140000  1.0 -0.7066651011
O  O14  1  0.89273000  0.59038000  0.99860000  1.0 -0.7066651011
O  O15  1  0.47529000  0.46388000  0.43418000  1.0 -0.8666036153
O  O16  1  0.52471000  0.53612000  0.56582000  1.0 -0.8666036153
O  O17  1  0.35619000  0.33154000  0.41073000  1.0 -0.541380835
O  O18  1  0.64381000  0.66846000  0.58927000  1.0 -0.541380835
O  O19  1  0.38531000  0.42908000  0.49911000  1.0 -0.5607474471
O  O20  1  0.61469000  0.57092000  0.50089000  1.0 -0.5607474471
O  O21  1  0.39660000  0.57256000  0.54739000  1.0 -0.6727622772
O  O22  1  0.60340000  0.42744000  0.45261000  1.0 -0.6727622772
O  O23  1  0.39262000  0.29858000  0.29777000  1.0 -0.5607474471
O  O24  1  0.60738000  0.70142000  0.70223000  1.0 -0.5607474471
O  O25  1  0.50563000  0.35939000  0.32565000  1.0 -0.5607474471
O  O26  1  0.49437000  0.64061000  0.67435000  1.0 -0.5607474471
O  O27  1  0.40160000  0.05492000  0.03124000  1.0 -0.5314712847
O  O28  1  0.59840000  0.94508000  0.96876000  1.0 -0.5314712847
O  O29  1  0.43758000  0.01312000  0.10040000  1.0 -0.5505483771
O  O30  1  0.56242000  0.98688000  0.89960000  1.0 -0.5505483771
O  O31  1  0.23668000  0.18854000  0.60251000  1.0 -0.5198338056
O  O32  1  0.76332000  0.81146000  0.39749000  1.0 -0.5198338056
O  O33  1  0.20424000  0.10793000  0.50415000  1.0 -0.567113849
O  O34  1  0.79576000  0.89207000  0.49585000  1.0 -0.567113849
O  O35  1  0.52756000  0.06379000  0.00656000  1.0 -0.828338402
O  O36  1  0.47244000  0.93621000  0.99344000  1.0 -0.828338402
O  O37  1  0.37951000  0.00661000  0.88751000  1.0 -0.5505483771
O  O38  1  0.62049000  0.99339000  0.11249000  1.0 -0.5505483771
O  O39  1  0.36954000  0.85230000  0.04768000  1.0 -0.5607474471
O  O40  1  0.63046000  0.14770000  0.95232000  1.0 -0.5607474471
O  O41  1  0.43119000  0.79209000  0.02120000  1.0 -0.541380835
O  O42  1  0.56881000  0.20791000  0.97880000  1.0 -0.541380835
O  O43  1  0.46404000  0.05096000  0.86344000  1.0 -0.5314712847
O  O44  1  0.53596000  0.94904000  0.13656000  1.0 -0.5314712847
O  O45  1  0.20046000  0.02640000  0.59040000  1.0 -0.5314712847
O  O46  1  0.79954000  0.97360000  0.40960000  1.0 -0.5314712847
O  O47  1  0.12257000  0.00601000  0.62913000  1.0 -0.567113849
O  O48  1  0.87743000  0.99399000  0.37087000  1.0 -0.567113849
O  O49  1  0.06517000  0.05316000  0.53017000  1.0 -0.828338402
O  O50  1  0.93483000  0.94684000  0.46983000  1.0 -0.828338402
O  O51  1  0.10522000  0.95568000  0.43916000  1.0 -0.541380835
O  O52  1  0.89478000  0.04432000  0.56084000  1.0 -0.541380835
O  O53  1  0.00437000  0.96299000  0.38458000  1.0 -0.5505483771
O  O54  1  0.99563000  0.03701000  0.61542000  1.0 -0.5505483771
O  O55  1  0.02520000  0.10280000  0.41480000  1.0 -0.4747804428
O  O56  1  0.97480000  0.89720000  0.58520000  1.0 -0.4747804428
O  O57  1  0.91885000  0.63651000  0.12497000  1.0 -0.5607474471
O  O58  1  0.08115000  0.36349000  0.87503000  1.0 -0.5607474471
O  O59  1  0.01640000  0.63738000  0.19404000  1.0 -0.5607474471
O  O60  1  0.98360000  0.36262000  0.80596000  1.0 -0.5607474471
O  O61  1  0.09466000  0.52095000  0.91231000  1.0 -0.5505483771
O  O62  1  0.90534000  0.47905000  0.08769000  1.0 -0.5505483771
O  O63  1  0.32793000  0.90270000  0.92408000  1.0 -0.4222898508
O  O64  1  0.67207000  0.09730000  0.07592000  1.0 -0.4222898508
O  O65  1  0.99970000  0.40987000  0.05029000  1.0 -0.4339147831
O  O66  1  0.00030000  0.59013000  0.94971000  1.0 -0.4339147831
O  O67  1  0.47701000  0.61137000  0.48409000  1.0 -0.4526177073
O  O68  1  0.52299000  0.38863000  0.51591000  1.0 -0.4526177073
O  O69  1  0.96310000  0.11180000  0.50720000  1.0 -0.149888161
O  O70  1  0.03690000  0.88820000  0.49280000  1.0 -0.149888161
O  O71  1  0.98610000  0.11440000  0.47170000  1.0 -0.0615586446
O  O72  1  0.01390000  0.88560000  0.52830000  1.0 -0.0615586446
