# DDEC6 charges by PACMAN v1.1 (https://github.com/mtap-research/PACMAN-charge/)
data_EPECUZ_ASR_pacman
_symmetry_space_group_name_H-M   'P 1'
_cell_length_a   25.50200000
_cell_length_b   25.50200000
_cell_length_c   50.46900000
_cell_angle_alpha   90.00000000
_cell_angle_beta   90.00000000
_cell_angle_gamma   90.00000000
_symmetry_Int_Tables_number   1
_chemical_formula_structural   Zn8H119C161(N3O17)2
_chemical_formula_sum   'Zn64 H952 C1288 N48 O272'
_cell_volume   32822.61528988
_cell_formula_units_Z   8
loop_
 _symmetry_equiv_pos_site_id
 _symmetry_equiv_pos_as_xyz
  1  'x, y, z'
loop_
 _atom_site_type_symbol
 _atom_site_label
 _atom_site_symmetry_multiplicity
 _atom_site_fract_x
 _atom_site_fract_y
 _atom_site_fract_z
 _atom_site_occupancy
 _atom_site_charge
Zn  Zn1  1  0.00534000  0.99588000  0.10254000  1.0 0.9072268556
Zn  Zn2  1  0.99466000  0.00412000  0.60254000  1.0 0.9072268556
Zn  Zn3  1  0.50412000  0.50534000  0.85254000  1.0 0.901341596
Zn  Zn4  1  0.49588000  0.49466000  0.35254000  1.0 0.9072268556
Zn  Zn5  1  0.49466000  0.49588000  0.64746000  1.0 0.9072268556
Zn  Zn6  1  0.50534000  0.50412000  0.14746000  1.0 0.9072268556
Zn  Zn7  1  0.99588000  0.00534000  0.89746000  1.0 0.9072268556
Zn  Zn8  1  0.00412000  0.99466000  0.39746000  1.0 0.901341596
Zn  Zn9  1  0.09023000  0.50034000  0.08396000  1.0 0.8652385381
Zn  Zn10  1  0.90977000  0.49966000  0.58396000  1.0 0.8652385381
Zn  Zn11  1  0.99966000  0.59023000  0.83396000  1.0 0.8652385381
Zn  Zn12  1  0.00034000  0.40977000  0.33396000  1.0 0.8647366074
Zn  Zn13  1  0.40977000  0.00034000  0.66604000  1.0 0.8647366074
Zn  Zn14  1  0.59023000  0.99966000  0.16604000  1.0 0.8652385381
Zn  Zn15  1  0.50034000  0.09023000  0.91604000  1.0 0.8647366074
Zn  Zn16  1  0.49966000  0.90977000  0.41604000  1.0 0.8652385381
Zn  Zn17  1  0.58904000  0.92384000  0.11431000  1.0 0.9324175326
Zn  Zn18  1  0.41096000  0.07616000  0.61431000  1.0 0.9324175326
Zn  Zn19  1  0.57616000  0.08904000  0.86431000  1.0 0.9324175326
Zn  Zn20  1  0.42384000  0.91096000  0.36431000  1.0 0.9324175326
Zn  Zn21  1  0.91096000  0.42384000  0.63569000  1.0 0.9324175326
Zn  Zn22  1  0.08904000  0.57616000  0.13569000  1.0 0.9324175326
Zn  Zn23  1  0.92384000  0.58904000  0.88569000  1.0 0.9324175326
Zn  Zn24  1  0.07616000  0.41096000  0.38569000  1.0 0.9324175326
Zn  Zn25  1  0.99774000  0.57689000  0.09562000  1.0 0.9072268556
Zn  Zn26  1  0.00226000  0.42311000  0.59562000  1.0 0.9072268556
Zn  Zn27  1  0.92311000  0.49774000  0.84562000  1.0 0.9072268556
Zn  Zn28  1  0.07689000  0.50226000  0.34562000  1.0 0.9072268556
Zn  Zn29  1  0.50226000  0.07689000  0.65438000  1.0 0.9072268556
Zn  Zn30  1  0.49774000  0.92311000  0.15438000  1.0 0.9072268556
Zn  Zn31  1  0.57689000  0.99774000  0.90438000  1.0 0.9072268556
Zn  Zn32  1  0.42311000  0.00226000  0.40438000  1.0 0.9072268556
Zn  Zn33  1  0.07732000  0.99186000  0.15241000  1.0 0.7996012775
Zn  Zn34  1  0.92268000  0.00814000  0.65241000  1.0 0.7996012775
Zn  Zn35  1  0.50814000  0.57732000  0.90241000  1.0 0.7996012775
Zn  Zn36  1  0.49186000  0.42268000  0.40241000  1.0 0.7996012775
Zn  Zn37  1  0.42268000  0.49186000  0.59759000  1.0 0.7996012775
Zn  Zn38  1  0.57732000  0.50814000  0.09759000  1.0 0.7996012775
Zn  Zn39  1  0.99186000  0.07732000  0.84759000  1.0 0.7996012775
Zn  Zn40  1  0.00814000  0.92268000  0.34759000  1.0 0.7996012775
Zn  Zn41  1  0.09810000  0.07209000  0.10779000  1.0 0.901341596
Zn  Zn42  1  0.90190000  0.92791000  0.60779000  1.0 0.901341596
Zn  Zn43  1  0.42791000  0.59810000  0.85779000  1.0 0.901341596
Zn  Zn44  1  0.57209000  0.40190000  0.35779000  1.0 0.901341596
Zn  Zn45  1  0.40190000  0.57209000  0.64221000  1.0 0.901341596
Zn  Zn46  1  0.59810000  0.42791000  0.14221000  1.0 0.901341596
Zn  Zn47  1  0.07209000  0.09810000  0.89221000  1.0 0.901341596
Zn  Zn48  1  0.92791000  0.90190000  0.39221000  1.0 0.901341596
Zn  Zn49  1  0.00916000  0.48154000  0.13226000  1.0 0.9519468305
Zn  Zn50  1  0.99084000  0.51846000  0.63226000  1.0 0.9519468305
Zn  Zn51  1  0.01846000  0.50916000  0.88226000  1.0 0.9519468305
Zn  Zn52  1  0.98154000  0.49084000  0.38226000  1.0 0.9519468305
Zn  Zn53  1  0.49084000  0.98154000  0.61774000  1.0 0.9519468305
Zn  Zn54  1  0.50916000  0.01846000  0.11774000  1.0 0.9519468305
Zn  Zn55  1  0.48154000  0.00916000  0.86774000  1.0 0.9519468305
Zn  Zn56  1  0.51846000  0.99084000  0.36774000  1.0 0.9519468305
Zn  Zn57  1  0.99316000  0.08850000  0.14271000  1.0 0.8054898289
Zn  Zn58  1  0.00684000  0.91150000  0.64271000  1.0 0.8054898289
Zn  Zn59  1  0.41150000  0.49316000  0.89271000  1.0 0.8054898289
Zn  Zn60  1  0.58850000  0.50684000  0.39271000  1.0 0.8054898289
Zn  Zn61  1  0.50684000  0.58850000  0.60729000  1.0 0.8054898289
Zn  Zn62  1  0.49316000  0.41150000  0.10729000  1.0 0.8054898289
Zn  Zn63  1  0.08850000  0.99316000  0.85729000  1.0 0.8054898289
Zn  Zn64  1  0.91150000  0.00684000  0.35729000  1.0 0.8054898289
H  H1  1  0.95150000  0.18990000  0.16810000  1.0 0.1105766568
H  H2  1  0.04850000  0.81010000  0.66810000  1.0 0.1105766568
H  H3  1  0.31010000  0.45150000  0.91810000  1.0 0.1105766568
H  H4  1  0.68990000  0.54850000  0.41810000  1.0 0.1105766568
H  H5  1  0.54850000  0.68990000  0.58190000  1.0 0.1105766568
H  H6  1  0.45150000  0.31010000  0.08190000  1.0 0.1105766568
H  H7  1  0.18990000  0.95150000  0.83190000  1.0 0.1198285536
H  H8  1  0.81010000  0.04850000  0.33190000  1.0 0.1105766568
H  H9  1  0.79710000  0.18760000  0.15960000  1.0 0.1105766568
H  H10  1  0.20290000  0.81240000  0.65960000  1.0 0.1105766568
H  H11  1  0.31240000  0.29710000  0.90960000  1.0 0.1105766568
H  H12  1  0.68760000  0.70290000  0.40960000  1.0 0.1105766568
H  H13  1  0.70290000  0.68760000  0.59040000  1.0 0.1105766568
H  H14  1  0.29710000  0.31240000  0.09040000  1.0 0.1105766568
H  H15  1  0.18760000  0.79710000  0.84040000  1.0 0.1105766568
H  H16  1  0.81240000  0.20290000  0.34040000  1.0 0.1105766568
H  H17  1  0.82480000  0.13140000  0.15980000  1.0 -0.018809588
H  H18  1  0.17520000  0.86860000  0.65980000  1.0 -0.018809588
H  H19  1  0.36860000  0.32480000  0.90980000  1.0 -0.018809588
H  H20  1  0.63140000  0.67520000  0.40980000  1.0 -0.018809588
H  H21  1  0.67520000  0.63140000  0.59020000  1.0 -0.018809588
H  H22  1  0.32480000  0.36860000  0.09020000  1.0 -0.018809588
H  H23  1  0.13140000  0.82480000  0.84020000  1.0 -0.018809588
H  H24  1  0.86860000  0.17520000  0.34020000  1.0 -0.018809588
H  H25  1  0.83330000  0.17000000  0.13530000  1.0 0.0709797896
H  H26  1  0.16670000  0.83000000  0.63530000  1.0 0.0709797896
H  H27  1  0.33000000  0.33333333  0.88530000  1.0 0.0709797896
H  H28  1  0.67000000  0.66666667  0.38530000  1.0 0.0709797896
H  H29  1  0.66666667  0.67000000  0.61470000  1.0 0.0709797896
H  H30  1  0.33333333  0.33000000  0.11470000  1.0 0.0709797896
H  H31  1  0.17000000  0.83330000  0.86470000  1.0 0.0709797896
H  H32  1  0.83000000  0.16670000  0.36470000  1.0 0.0709797896
H  H33  1  0.82220000  0.23790000  0.18280000  1.0 0.0784959451
H  H34  1  0.17780000  0.76210000  0.68280000  1.0 0.0784959451
H  H35  1  0.26210000  0.32220000  0.93280000  1.0 0.0784959451
H  H36  1  0.73790000  0.67780000  0.43280000  1.0 0.0784959451
H  H37  1  0.67780000  0.73790000  0.56720000  1.0 0.0784959451
H  H38  1  0.32220000  0.26210000  0.06720000  1.0 0.0784959451
H  H39  1  0.23790000  0.82220000  0.81720000  1.0 0.0784959451
H  H40  1  0.76210000  0.17780000  0.31720000  1.0 0.0784959451
H  H41  1  0.87870000  0.26340000  0.17790000  1.0 0.0784959451
H  H42  1  0.12130000  0.73660000  0.67790000  1.0 0.0784959451
H  H43  1  0.23660000  0.37870000  0.92790000  1.0 0.0784959451
H  H44  1  0.76340000  0.62130000  0.42790000  1.0 0.0784959451
H  H45  1  0.62130000  0.76340000  0.57210000  1.0 0.0784959451
H  H46  1  0.37870000  0.23660000  0.07210000  1.0 0.0784959451
H  H47  1  0.26340000  0.87870000  0.82210000  1.0 0.0784959451
H  H48  1  0.73660000  0.12130000  0.32210000  1.0 0.0784959451
H  H49  1  0.87010000  0.22340000  0.20200000  1.0 0.0709797896
H  H50  1  0.12990000  0.77660000  0.70200000  1.0 0.0709797896
H  H51  1  0.27660000  0.37010000  0.95200000  1.0 0.0709797896
H  H52  1  0.72340000  0.62990000  0.45200000  1.0 0.0709797896
H  H53  1  0.62990000  0.72340000  0.54800000  1.0 0.0709797896
H  H54  1  0.37010000  0.27660000  0.04800000  1.0 0.0709797896
H  H55  1  0.22340000  0.87010000  0.79800000  1.0 0.0709797896
H  H56  1  0.77660000  0.12990000  0.29800000  1.0 0.0709797896
H  H57  1  0.97950000  0.32490000  0.10540000  1.0 0.1198285536
H  H58  1  0.02050000  0.67510000  0.60540000  1.0 0.1198285536
H  H59  1  0.17510000  0.47950000  0.85540000  1.0 0.1198285536
H  H60  1  0.82490000  0.52050000  0.35540000  1.0 0.1198285536
H  H61  1  0.52050000  0.82490000  0.64460000  1.0 0.1198285536
H  H62  1  0.47950000  0.17510000  0.14460000  1.0 0.1198285536
H  H63  1  0.32490000  0.97950000  0.89460000  1.0 0.1198285536
H  H64  1  0.67510000  0.02050000  0.39460000  1.0 0.1198285536
H  H65  1  0.98520000  0.23730000  0.11640000  1.0 0.1020986464
H  H66  1  0.01480000  0.76270000  0.61640000  1.0 0.1020986464
H  H67  1  0.26270000  0.48520000  0.86640000  1.0 0.1020986464
H  H68  1  0.73730000  0.51480000  0.36640000  1.0 0.1020986464
H  H69  1  0.51480000  0.73730000  0.63360000  1.0 0.1105766568
H  H70  1  0.48520000  0.26270000  0.13360000  1.0 0.1020986464
H  H71  1  0.23730000  0.98520000  0.88360000  1.0 0.1020986464
H  H72  1  0.76270000  0.01480000  0.38360000  1.0 0.1020986464
H  H73  1  0.16970000  0.20130000  0.11200000  1.0 0.1198285536
H  H74  1  0.83030000  0.79870000  0.61200000  1.0 0.1198285536
H  H75  1  0.29870000  0.66970000  0.86200000  1.0 0.1198285536
H  H76  1  0.70130000  0.33030000  0.36200000  1.0 0.1198285536
H  H77  1  0.33030000  0.70130000  0.63800000  1.0 0.1198285536
H  H78  1  0.66970000  0.29870000  0.13800000  1.0 0.1198285536
H  H79  1  0.20130000  0.16970000  0.88800000  1.0 0.1198285536
H  H80  1  0.79870000  0.83030000  0.38800000  1.0 0.1198285536
H  H81  1  0.15640000  0.37580000  0.09100000  1.0 0.1198285536
H  H82  1  0.84360000  0.62420000  0.59100000  1.0 0.1198285536
H  H83  1  0.12420000  0.65640000  0.84100000  1.0 0.1198285536
H  H84  1  0.87580000  0.34360000  0.34100000  1.0 0.1198285536
H  H85  1  0.34360000  0.87580000  0.65900000  1.0 0.1198285536
H  H86  1  0.65640000  0.12420000  0.15900000  1.0 0.1198285536
H  H87  1  0.37580000  0.15640000  0.90900000  1.0 0.1198285536
H  H88  1  0.62420000  0.84360000  0.40900000  1.0 0.1198285536
H  H89  1  0.21490000  0.40430000  0.13030000  1.0 0.1198285536
H  H90  1  0.78510000  0.59570000  0.63030000  1.0 0.1198285536
H  H91  1  0.09570000  0.71490000  0.88030000  1.0 0.1198285536
H  H92  1  0.90430000  0.28510000  0.38030000  1.0 0.1198285536
H  H93  1  0.28510000  0.90430000  0.61970000  1.0 0.1198285536
H  H94  1  0.71490000  0.09570000  0.11970000  1.0 0.1198285536
H  H95  1  0.40430000  0.21490000  0.86970000  1.0 0.1198285536
H  H96  1  0.59570000  0.78510000  0.36970000  1.0 0.1198285536
H  H97  1  0.26370000  0.37340000  0.16820000  1.0 0.1105766568
H  H98  1  0.73630000  0.62660000  0.66820000  1.0 0.1105766568
H  H99  1  0.12660000  0.76370000  0.91820000  1.0 0.1105766568
H  H100  1  0.87340000  0.23630000  0.41820000  1.0 0.1105766568
H  H101  1  0.23630000  0.87340000  0.58180000  1.0 0.1105766568
H  H102  1  0.76370000  0.12660000  0.08180000  1.0 0.1105766568
H  H103  1  0.37340000  0.26370000  0.83180000  1.0 0.1105766568
H  H104  1  0.62660000  0.73630000  0.33180000  1.0 0.1105766568
H  H105  1  0.26320000  0.29060000  0.18040000  1.0 0.1198285536
H  H106  1  0.73680000  0.70940000  0.68040000  1.0 0.1198285536
H  H107  1  0.20940000  0.76320000  0.93040000  1.0 0.1198285536
H  H108  1  0.79060000  0.23680000  0.43040000  1.0 0.1198285536
H  H109  1  0.23680000  0.79060000  0.56960000  1.0 0.1198285536
H  H110  1  0.76320000  0.20940000  0.06960000  1.0 0.1198285536
H  H111  1  0.29060000  0.26320000  0.81960000  1.0 0.1198285536
H  H112  1  0.70940000  0.73680000  0.31960000  1.0 0.1198285536
H  H113  1  0.22230000  0.22600000  0.15480000  1.0 0.1267981334
H  H114  1  0.77770000  0.77400000  0.65480000  1.0 0.1267981334
H  H115  1  0.27400000  0.72230000  0.90480000  1.0 0.1267981334
H  H116  1  0.72600000  0.27770000  0.40480000  1.0 0.1267981334
H  H117  1  0.27770000  0.72600000  0.59520000  1.0 0.1198285536
H  H118  1  0.72230000  0.27400000  0.09520000  1.0 0.1198285536
H  H119  1  0.22600000  0.22230000  0.84520000  1.0 0.1198285536
H  H120  1  0.77400000  0.77770000  0.34520000  1.0 0.1267981334
H  H121  1  0.19940000  0.35900000  0.04480000  1.0 0.1105766568
H  H122  1  0.80060000  0.64100000  0.54480000  1.0 0.1105766568
H  H123  1  0.14100000  0.69940000  0.79480000  1.0 0.1105766568
H  H124  1  0.85900000  0.30060000  0.29480000  1.0 0.1105766568
H  H125  1  0.30060000  0.85900000  0.70520000  1.0 0.1105766568
H  H126  1  0.69940000  0.14100000  0.20520000  1.0 0.1105766568
H  H127  1  0.35900000  0.19940000  0.95520000  1.0 0.1105766568
H  H128  1  0.64100000  0.80060000  0.45520000  1.0 0.1105766568
H  H129  1  0.23930000  0.29680000  0.01580000  1.0 0.1198285536
H  H130  1  0.76070000  0.70320000  0.51580000  1.0 0.1105766568
H  H131  1  0.20320000  0.73930000  0.76580000  1.0 0.1198285536
H  H132  1  0.79680000  0.26070000  0.26580000  1.0 0.1198285536
H  H133  1  0.26070000  0.79680000  0.73420000  1.0 0.1105766568
H  H134  1  0.73930000  0.20320000  0.23420000  1.0 0.1198285536
H  H135  1  0.29680000  0.23930000  0.98420000  1.0 0.1198285536
H  H136  1  0.70320000  0.76070000  0.48420000  1.0 0.1105766568
H  H137  1  0.24660000  0.21110000  0.02820000  1.0 0.1105766568
H  H138  1  0.75340000  0.78890000  0.52820000  1.0 0.1105766568
H  H139  1  0.28890000  0.74660000  0.77820000  1.0 0.1105766568
H  H140  1  0.71110000  0.25340000  0.27820000  1.0 0.1105766568
H  H141  1  0.25340000  0.71110000  0.72180000  1.0 0.1105766568
H  H142  1  0.74660000  0.28890000  0.22180000  1.0 0.1105766568
H  H143  1  0.21110000  0.24660000  0.97180000  1.0 0.1105766568
H  H144  1  0.78890000  0.75340000  0.47180000  1.0 0.1105766568
H  H145  1  0.22020000  0.18350000  0.06950000  1.0 0.1198285536
H  H146  1  0.77980000  0.81650000  0.56950000  1.0 0.1198285536
H  H147  1  0.31650000  0.72020000  0.81950000  1.0 0.1198285536
H  H148  1  0.68350000  0.27980000  0.31950000  1.0 0.1198285536
H  H149  1  0.27980000  0.68350000  0.68050000  1.0 0.1198285536
H  H150  1  0.72020000  0.31650000  0.18050000  1.0 0.1198285536
H  H151  1  0.18350000  0.22020000  0.93050000  1.0 0.1198285536
H  H152  1  0.81650000  0.77980000  0.43050000  1.0 0.1198285536
H  H153  1  0.75520000  0.00670000  0.16250000  1.0 0.1105766568
H  H154  1  0.24480000  0.99330000  0.66250000  1.0 0.1105766568
H  H155  1  0.49330000  0.25520000  0.91250000  1.0 0.1105766568
H  H156  1  0.50670000  0.74480000  0.41250000  1.0 0.1105766568
H  H157  1  0.74480000  0.50670000  0.58750000  1.0 0.1105766568
H  H158  1  0.25520000  0.49330000  0.08750000  1.0 0.1105766568
H  H159  1  0.00670000  0.75520000  0.83750000  1.0 0.1105766568
H  H160  1  0.99330000  0.24480000  0.33750000  1.0 0.1105766568
H  H161  1  0.84180000  0.02060000  0.15870000  1.0 0.1105766568
H  H162  1  0.15820000  0.97940000  0.65870000  1.0 0.1105766568
H  H163  1  0.47940000  0.34180000  0.90870000  1.0 0.1105766568
H  H164  1  0.52060000  0.65820000  0.40870000  1.0 0.1105766568
H  H165  1  0.65820000  0.52060000  0.59130000  1.0 0.1105766568
H  H166  1  0.34180000  0.47940000  0.09130000  1.0 0.1105766568
H  H167  1  0.02060000  0.84180000  0.84130000  1.0 0.1105766568
H  H168  1  0.97940000  0.15820000  0.34130000  1.0 0.1105766568
H  H169  1  0.87240000  0.99840000  0.06510000  1.0 0.1198285536
H  H170  1  0.12760000  0.00160000  0.56510000  1.0 0.1198285536
H  H171  1  0.50160000  0.37240000  0.81510000  1.0 0.1198285536
H  H172  1  0.49840000  0.62760000  0.31510000  1.0 0.1198285536
H  H173  1  0.62760000  0.49840000  0.68490000  1.0 0.1198285536
H  H174  1  0.37240000  0.50160000  0.18490000  1.0 0.1198285536
H  H175  1  0.99840000  0.87240000  0.93490000  1.0 0.1198285536
H  H176  1  0.00160000  0.12760000  0.43490000  1.0 0.1198285536
H  H177  1  0.69710000  0.96680000  0.07510000  1.0 0.1198285536
H  H178  1  0.30290000  0.03320000  0.57510000  1.0 0.1198285536
H  H179  1  0.53320000  0.19710000  0.82510000  1.0 0.1198285536
H  H180  1  0.46680000  0.80290000  0.32510000  1.0 0.1198285536
H  H181  1  0.80290000  0.46680000  0.67490000  1.0 0.1198285536
H  H182  1  0.19710000  0.53320000  0.17490000  1.0 0.1198285536
H  H183  1  0.96680000  0.69710000  0.92490000  1.0 0.1198285536
H  H184  1  0.03320000  0.30290000  0.42490000  1.0 0.1198285536
H  H185  1  0.66940000  0.04540000  0.04640000  1.0 0.1198285536
H  H186  1  0.33060000  0.95460000  0.54640000  1.0 0.1198285536
H  H187  1  0.45460000  0.16940000  0.79640000  1.0 0.1198285536
H  H188  1  0.54540000  0.83060000  0.29640000  1.0 0.1198285536
H  H189  1  0.83060000  0.54540000  0.70360000  1.0 0.1198285536
H  H190  1  0.16940000  0.45460000  0.20360000  1.0 0.1198285536
H  H191  1  0.04540000  0.66940000  0.95360000  1.0 0.1198285536
H  H192  1  0.95460000  0.33060000  0.45360000  1.0 0.1198285536
H  H193  1  0.70080000  0.11340000  0.01810000  1.0 0.1198285536
H  H194  1  0.29920000  0.88660000  0.51810000  1.0 0.1198285536
H  H195  1  0.38660000  0.20080000  0.76810000  1.0 0.1198285536
H  H196  1  0.61340000  0.79920000  0.26810000  1.0 0.1198285536
H  H197  1  0.79920000  0.61340000  0.73190000  1.0 0.1198285536
H  H198  1  0.20080000  0.38660000  0.23190000  1.0 0.1198285536
H  H199  1  0.11340000  0.70080000  0.98190000  1.0 0.1198285536
H  H200  1  0.88660000  0.29920000  0.48190000  1.0 0.1198285536
H  H201  1  0.78550000  0.12630000  0.01050000  1.0 0.1105766568
H  H202  1  0.21450000  0.87370000  0.51050000  1.0 0.1105766568
H  H203  1  0.37370000  0.28550000  0.76050000  1.0 0.1105766568
H  H204  1  0.62630000  0.71450000  0.26050000  1.0 0.1105766568
H  H205  1  0.71450000  0.62630000  0.73950000  1.0 0.1105766568
H  H206  1  0.28550000  0.37370000  0.23950000  1.0 0.1105766568
H  H207  1  0.12630000  0.78550000  0.98950000  1.0 0.1105766568
H  H208  1  0.87370000  0.21450000  0.48950000  1.0 0.1105766568
H  H209  1  0.84860000  0.07680000  0.03290000  1.0 0.1198285536
H  H210  1  0.15140000  0.92320000  0.53290000  1.0 0.1198285536
H  H211  1  0.42320000  0.34860000  0.78290000  1.0 0.1198285536
H  H212  1  0.57680000  0.65140000  0.28290000  1.0 0.1198285536
H  H213  1  0.65140000  0.57680000  0.71710000  1.0 0.1198285536
H  H214  1  0.34860000  0.42320000  0.21710000  1.0 0.1198285536
H  H215  1  0.07680000  0.84860000  0.96710000  1.0 0.1198285536
H  H216  1  0.92320000  0.15140000  0.46710000  1.0 0.1198285536
H  H217  1  0.70790000  0.87050000  0.05780000  1.0 0.1267981334
H  H218  1  0.29210000  0.12950000  0.55780000  1.0 0.1267981334
H  H219  1  0.62950000  0.20790000  0.80780000  1.0 0.1267981334
H  H220  1  0.37050000  0.79210000  0.30780000  1.0 0.1267981334
H  H221  1  0.79210000  0.37050000  0.69220000  1.0 0.1198285536
H  H222  1  0.20790000  0.62950000  0.19220000  1.0 0.1267981334
H  H223  1  0.87050000  0.70790000  0.94220000  1.0 0.1267981334
H  H224  1  0.12950000  0.29210000  0.44220000  1.0 0.1267981334
H  H225  1  0.76560000  0.80980000  0.03430000  1.0 0.1105766568
H  H226  1  0.23440000  0.19020000  0.53430000  1.0 0.1198285536
H  H227  1  0.69020000  0.26560000  0.78430000  1.0 0.1105766568
H  H228  1  0.30980000  0.73440000  0.28430000  1.0 0.1105766568
H  H229  1  0.73440000  0.30980000  0.71570000  1.0 0.1198285536
H  H230  1  0.26560000  0.69020000  0.21570000  1.0 0.1105766568
H  H231  1  0.80980000  0.76560000  0.96570000  1.0 0.1105766568
H  H232  1  0.19020000  0.23440000  0.46570000  1.0 0.1105766568
H  H233  1  0.85070000  0.83150000  0.02970000  1.0 0.1105766568
H  H234  1  0.14930000  0.16850000  0.52970000  1.0 0.1105766568
H  H235  1  0.66850000  0.35070000  0.77970000  1.0 0.1105766568
H  H236  1  0.33150000  0.64930000  0.27970000  1.0 0.1105766568
H  H237  1  0.64930000  0.33150000  0.72030000  1.0 0.1105766568
H  H238  1  0.35070000  0.66850000  0.22030000  1.0 0.1105766568
H  H239  1  0.83150000  0.85070000  0.97030000  1.0 0.1105766568
H  H240  1  0.16850000  0.14930000  0.47030000  1.0 0.1105766568
H  H241  1  0.88540000  0.90980000  0.04470000  1.0 0.1198285536
H  H242  1  0.11460000  0.09020000  0.54470000  1.0 0.1198285536
H  H243  1  0.59020000  0.38540000  0.79470000  1.0 0.1198285536
H  H244  1  0.40980000  0.61460000  0.29470000  1.0 0.1198285536
H  H245  1  0.61460000  0.40980000  0.70530000  1.0 0.1198285536
H  H246  1  0.38540000  0.59020000  0.20530000  1.0 0.1198285536
H  H247  1  0.90980000  0.88540000  0.95530000  1.0 0.1198285536
H  H248  1  0.09020000  0.11460000  0.45530000  1.0 0.1198285536
H  H249  1  0.96650000  0.61320000  0.01320000  1.0 0.1198285536
H  H250  1  0.03350000  0.38680000  0.51320000  1.0 0.1198285536
H  H251  1  0.88680000  0.46650000  0.76320000  1.0 0.1198285536
H  H252  1  0.11320000  0.53350000  0.26320000  1.0 0.1198285536
H  H253  1  0.53350000  0.11320000  0.73680000  1.0 0.1198285536
H  H254  1  0.46650000  0.88680000  0.23680000  1.0 0.1198285536
H  H255  1  0.61320000  0.96650000  0.98680000  1.0 0.1198285536
H  H256  1  0.38680000  0.03350000  0.48680000  1.0 0.1198285536
H  H257  1  0.96330000  0.61580000  0.96810000  1.0 0.1198285536
H  H258  1  0.03670000  0.38420000  0.46810000  1.0 0.1198285536
H  H259  1  0.88420000  0.46330000  0.71810000  1.0 0.1198285536
H  H260  1  0.11580000  0.53670000  0.21810000  1.0 0.1198285536
H  H261  1  0.53670000  0.11580000  0.78190000  1.0 0.1198285536
H  H262  1  0.46330000  0.88420000  0.28190000  1.0 0.1198285536
H  H263  1  0.61580000  0.96330000  0.03190000  1.0 0.1198285536
H  H264  1  0.38420000  0.03670000  0.53190000  1.0 0.1198285536
H  H265  1  0.99080000  0.43800000  0.94160000  1.0 0.1267981334
H  H266  1  0.00920000  0.56200000  0.44160000  1.0 0.1267981334
H  H267  1  0.06200000  0.49080000  0.69160000  1.0 0.1267981334
H  H268  1  0.93800000  0.50920000  0.19160000  1.0 0.1267981334
H  H269  1  0.50920000  0.93800000  0.80840000  1.0 0.1267981334
H  H270  1  0.49080000  0.06200000  0.30840000  1.0 0.1267981334
H  H271  1  0.43800000  0.99080000  0.05840000  1.0 0.1267981334
H  H272  1  0.56200000  0.00920000  0.55840000  1.0 0.1267981334
H  H273  1  0.02220000  0.43670000  0.03010000  1.0 0.1198285536
H  H274  1  0.97780000  0.56330000  0.53010000  1.0 0.1198285536
H  H275  1  0.06330000  0.52220000  0.78010000  1.0 0.1198285536
H  H276  1  0.93670000  0.47780000  0.28010000  1.0 0.1198285536
H  H277  1  0.47780000  0.93670000  0.71990000  1.0 0.1198285536
H  H278  1  0.52220000  0.06330000  0.21990000  1.0 0.1198285536
H  H279  1  0.43670000  0.02220000  0.96990000  1.0 0.1198285536
H  H280  1  0.56330000  0.97780000  0.46990000  1.0 0.1198285536
H  H281  1  0.95700000  0.36080000  0.03860000  1.0 0.1267981334
H  H282  1  0.04300000  0.63920000  0.53860000  1.0 0.1267981334
H  H283  1  0.13920000  0.45700000  0.78860000  1.0 0.1267981334
H  H284  1  0.86080000  0.54300000  0.28860000  1.0 0.1267981334
H  H285  1  0.54300000  0.86080000  0.71140000  1.0 0.1267981334
H  H286  1  0.45700000  0.13920000  0.21140000  1.0 0.1267981334
H  H287  1  0.36080000  0.95700000  0.96140000  1.0 0.1267981334
H  H288  1  0.63920000  0.04300000  0.46140000  1.0 0.1267981334
H  H289  1  0.89780000  0.30230000  0.01670000  1.0 0.1198285536
H  H290  1  0.10220000  0.69770000  0.51670000  1.0 0.1198285536
H  H291  1  0.19770000  0.39780000  0.76670000  1.0 0.1198285536
H  H292  1  0.80230000  0.60220000  0.26670000  1.0 0.1198285536
H  H293  1  0.60220000  0.80230000  0.73330000  1.0 0.1198285536
H  H294  1  0.39780000  0.19770000  0.23330000  1.0 0.1198285536
H  H295  1  0.30230000  0.89780000  0.98330000  1.0 0.1198285536
H  H296  1  0.69770000  0.10220000  0.48330000  1.0 0.1198285536
H  H297  1  0.86350000  0.32190000  0.97670000  1.0 0.1198285536
H  H298  1  0.13650000  0.67810000  0.47670000  1.0 0.1198285536
H  H299  1  0.17810000  0.36350000  0.72670000  1.0 0.1198285536
H  H300  1  0.82190000  0.63650000  0.22670000  1.0 0.1198285536
H  H301  1  0.63650000  0.82190000  0.77330000  1.0 0.1198285536
H  H302  1  0.36350000  0.17810000  0.27330000  1.0 0.1198285536
H  H303  1  0.32190000  0.86350000  0.02330000  1.0 0.1198285536
H  H304  1  0.67810000  0.13650000  0.52330000  1.0 0.1198285536
H  H305  1  0.92620000  0.36000000  0.94910000  1.0 0.1400382986
H  H306  1  0.07380000  0.64000000  0.44910000  1.0 0.1400382986
H  H307  1  0.14000000  0.42620000  0.69910000  1.0 0.1400382986
H  H308  1  0.86000000  0.57380000  0.19910000  1.0 0.1400382986
H  H309  1  0.57380000  0.86000000  0.80090000  1.0 0.1400382986
H  H310  1  0.42620000  0.14000000  0.30090000  1.0 0.1400382986
H  H311  1  0.36000000  0.92620000  0.05090000  1.0 0.1400382986
H  H312  1  0.64000000  0.07380000  0.55090000  1.0 0.1400382986
H  H313  1  0.11830000  0.40460000  0.02320000  1.0 0.1020986464
H  H314  1  0.88170000  0.59540000  0.52320000  1.0 0.1020986464
H  H315  1  0.09540000  0.61830000  0.77320000  1.0 0.1020986464
H  H316  1  0.90460000  0.38170000  0.27320000  1.0 0.1020986464
H  H317  1  0.38170000  0.90460000  0.72680000  1.0 0.1020986464
H  H318  1  0.61830000  0.09540000  0.22680000  1.0 0.1020986464
H  H319  1  0.40460000  0.11830000  0.97680000  1.0 0.1020986464
H  H320  1  0.59540000  0.88170000  0.47680000  1.0 0.1020986464
H  H321  1  0.18560000  0.39330000  0.99100000  1.0 0.1105766568
H  H322  1  0.81440000  0.60670000  0.49100000  1.0 0.1105766568
H  H323  1  0.10670000  0.68560000  0.74100000  1.0 0.1105766568
H  H324  1  0.89330000  0.31440000  0.24100000  1.0 0.1105766568
H  H325  1  0.31440000  0.89330000  0.75900000  1.0 0.1105766568
H  H326  1  0.68560000  0.10670000  0.25900000  1.0 0.1105766568
H  H327  1  0.39330000  0.18560000  0.00900000  1.0 0.1105766568
H  H328  1  0.60670000  0.81440000  0.50900000  1.0 0.1105766568
H  H329  1  0.16270000  0.37630000  0.94790000  1.0 0.1105766568
H  H330  1  0.83730000  0.62370000  0.44790000  1.0 0.1105766568
H  H331  1  0.12370000  0.66270000  0.69790000  1.0 0.1105766568
H  H332  1  0.87630000  0.33730000  0.19790000  1.0 0.1105766568
H  H333  1  0.33730000  0.87630000  0.80210000  1.0 0.1105766568
H  H334  1  0.66270000  0.12370000  0.30210000  1.0 0.1105766568
H  H335  1  0.37630000  0.16270000  0.05210000  1.0 0.1105766568
H  H336  1  0.62370000  0.83730000  0.55210000  1.0 0.1105766568
H  H337  1  0.08250000  0.40670000  0.93230000  1.0 0.1267981334
H  H338  1  0.91750000  0.59330000  0.43230000  1.0 0.1267981334
H  H339  1  0.09330000  0.58250000  0.68230000  1.0 0.1267981334
H  H340  1  0.90670000  0.41750000  0.18230000  1.0 0.1267981334
H  H341  1  0.41750000  0.90670000  0.81770000  1.0 0.1267981334
H  H342  1  0.58250000  0.09330000  0.31770000  1.0 0.1267981334
H  H343  1  0.40670000  0.08250000  0.06770000  1.0 0.1267981334
H  H344  1  0.59330000  0.91750000  0.56770000  1.0 0.1267981334
H  H345  1  0.09230000  0.73590000  0.14780000  1.0 0.1198285536
H  H346  1  0.90770000  0.26410000  0.64780000  1.0 0.1198285536
H  H347  1  0.76410000  0.59230000  0.89780000  1.0 0.1198285536
H  H348  1  0.23590000  0.40770000  0.39780000  1.0 0.1198285536
H  H349  1  0.40770000  0.23590000  0.60220000  1.0 0.1198285536
H  H350  1  0.59230000  0.76410000  0.10220000  1.0 0.1198285536
H  H351  1  0.73590000  0.09230000  0.85220000  1.0 0.1198285536
H  H352  1  0.26410000  0.90770000  0.35220000  1.0 0.1198285536
H  H353  1  0.09750000  0.82470000  0.15070000  1.0 0.1267981334
H  H354  1  0.90250000  0.17530000  0.65070000  1.0 0.1267981334
H  H355  1  0.67530000  0.59750000  0.90070000  1.0 0.1267981334
H  H356  1  0.32470000  0.40250000  0.40070000  1.0 0.1267981334
H  H357  1  0.40250000  0.32470000  0.59930000  1.0 0.1267981334
H  H358  1  0.59750000  0.67530000  0.09930000  1.0 0.1267981334
H  H359  1  0.82470000  0.09750000  0.84930000  1.0 0.1267981334
H  H360  1  0.17530000  0.90250000  0.34930000  1.0 0.1267981334
H  H361  1  0.96190000  0.88120000  0.09040000  1.0 0.1198285536
H  H362  1  0.03810000  0.11880000  0.59040000  1.0 0.1198285536
H  H363  1  0.61880000  0.46190000  0.84040000  1.0 0.1198285536
H  H364  1  0.38120000  0.53810000  0.34040000  1.0 0.1198285536
H  H365  1  0.53810000  0.38120000  0.65960000  1.0 0.1198285536
H  H366  1  0.46190000  0.61880000  0.15960000  1.0 0.1198285536
H  H367  1  0.88120000  0.96190000  0.90960000  1.0 0.1198285536
H  H368  1  0.11880000  0.03810000  0.40960000  1.0 0.1198285536
H  H369  1  0.94090000  0.70430000  0.09500000  1.0 0.1198285536
H  H370  1  0.05910000  0.29570000  0.59500000  1.0 0.1198285536
H  H371  1  0.79570000  0.44090000  0.84500000  1.0 0.1198285536
H  H372  1  0.20430000  0.55910000  0.34500000  1.0 0.1198285536
H  H373  1  0.55910000  0.20430000  0.65500000  1.0 0.1198285536
H  H374  1  0.44090000  0.79570000  0.15500000  1.0 0.1198285536
H  H375  1  0.70430000  0.94090000  0.90500000  1.0 0.1198285536
H  H376  1  0.29570000  0.05910000  0.40500000  1.0 0.1198285536
H  H377  1  0.84960000  0.71130000  0.11700000  1.0 0.1020986464
H  H378  1  0.15040000  0.28870000  0.61700000  1.0 0.1020986464
H  H379  1  0.78870000  0.34960000  0.86700000  1.0 0.1020986464
H  H380  1  0.21130000  0.65040000  0.36700000  1.0 0.1020986464
H  H381  1  0.65040000  0.21130000  0.63300000  1.0 0.1020986464
H  H382  1  0.34960000  0.78870000  0.13300000  1.0 0.1020986464
H  H383  1  0.71130000  0.84960000  0.88300000  1.0 0.1020986464
H  H384  1  0.28870000  0.15040000  0.38300000  1.0 0.1020986464
H  H385  1  0.78940000  0.77130000  0.13610000  1.0 0.1198285536
H  H386  1  0.21060000  0.22870000  0.63610000  1.0 0.1198285536
H  H387  1  0.72870000  0.28940000  0.88610000  1.0 0.1198285536
H  H388  1  0.27130000  0.71060000  0.38610000  1.0 0.1198285536
H  H389  1  0.71060000  0.27130000  0.61390000  1.0 0.1198285536
H  H390  1  0.28940000  0.72870000  0.11390000  1.0 0.1198285536
H  H391  1  0.77130000  0.78940000  0.86390000  1.0 0.1198285536
H  H392  1  0.22870000  0.21060000  0.36390000  1.0 0.1198285536
H  H393  1  0.78710000  0.85590000  0.12480000  1.0 0.1198285536
H  H394  1  0.21290000  0.14410000  0.62480000  1.0 0.1198285536
H  H395  1  0.64410000  0.28710000  0.87480000  1.0 0.1198285536
H  H396  1  0.35590000  0.71290000  0.37480000  1.0 0.1198285536
H  H397  1  0.71290000  0.35590000  0.62520000  1.0 0.1198285536
H  H398  1  0.28710000  0.64410000  0.12520000  1.0 0.1198285536
H  H399  1  0.85590000  0.78710000  0.87520000  1.0 0.1198285536
H  H400  1  0.14410000  0.21290000  0.37520000  1.0 0.1198285536
H  H401  1  0.86680000  0.89460000  0.11020000  1.0 0.1198285536
H  H402  1  0.13320000  0.10540000  0.61020000  1.0 0.1198285536
H  H403  1  0.60540000  0.36680000  0.86020000  1.0 0.1198285536
H  H404  1  0.39460000  0.63320000  0.36020000  1.0 0.1198285536
H  H405  1  0.63320000  0.39460000  0.63980000  1.0 0.1198285536
H  H406  1  0.36680000  0.60540000  0.13980000  1.0 0.1198285536
H  H407  1  0.89460000  0.86680000  0.88980000  1.0 0.1198285536
H  H408  1  0.10540000  0.13320000  0.38980000  1.0 0.1198285536
H  H409  1  0.95290000  0.69680000  0.04260000  1.0 0.1267981334
H  H410  1  0.04710000  0.30320000  0.54260000  1.0 0.1267981334
H  H411  1  0.80320000  0.45290000  0.79260000  1.0 0.1267981334
H  H412  1  0.19680000  0.54710000  0.29260000  1.0 0.1267981334
H  H413  1  0.54710000  0.19680000  0.70740000  1.0 0.1267981334
H  H414  1  0.45290000  0.80320000  0.20740000  1.0 0.1267981334
H  H415  1  0.69680000  0.95290000  0.95740000  1.0 0.1267981334
H  H416  1  0.30320000  0.04710000  0.45740000  1.0 0.1267981334
H  H417  1  0.96460000  0.74390000  0.00240000  1.0 0.1105766568
H  H418  1  0.03540000  0.25610000  0.50240000  1.0 0.1105766568
H  H419  1  0.75610000  0.46460000  0.75240000  1.0 0.1105766568
H  H420  1  0.24390000  0.53540000  0.25240000  1.0 0.1105766568
H  H421  1  0.53540000  0.24390000  0.74760000  1.0 0.1105766568
H  H422  1  0.46460000  0.75610000  0.24760000  1.0 0.1105766568
H  H423  1  0.74390000  0.96460000  0.99760000  1.0 0.1105766568
H  H424  1  0.25610000  0.03540000  0.49760000  1.0 0.1105766568
H  H425  1  0.99460000  0.82880000  0.00440000  1.0 0.1105766568
H  H426  1  0.00540000  0.17120000  0.50440000  1.0 0.1105766568
H  H427  1  0.67120000  0.49460000  0.75440000  1.0 0.1105766568
H  H428  1  0.32880000  0.50540000  0.25440000  1.0 0.1105766568
H  H429  1  0.50540000  0.32880000  0.74560000  1.0 0.1105766568
H  H430  1  0.49460000  0.67120000  0.24560000  1.0 0.1105766568
H  H431  1  0.82880000  0.99460000  0.99560000  1.0 0.1105766568
H  H432  1  0.17120000  0.00540000  0.49560000  1.0 0.1105766568
H  H433  1  0.97110000  0.87800000  0.04120000  1.0 0.1267981334
H  H434  1  0.02890000  0.12200000  0.54120000  1.0 0.1267981334
H  H435  1  0.62200000  0.47110000  0.79120000  1.0 0.1267981334
H  H436  1  0.37800000  0.52890000  0.29120000  1.0 0.1267981334
H  H437  1  0.52890000  0.37800000  0.70880000  1.0 0.1267981334
H  H438  1  0.47110000  0.62200000  0.20880000  1.0 0.1267981334
H  H439  1  0.87800000  0.97110000  0.95880000  1.0 0.1267981334
H  H440  1  0.12200000  0.02890000  0.45880000  1.0 0.1267981334
H  H441  1  0.34310000  0.02210000  0.09600000  1.0 0.1267981334
H  H442  1  0.65690000  0.97790000  0.59600000  1.0 0.1267981334
H  H443  1  0.47790000  0.84310000  0.84600000  1.0 0.1198285536
H  H444  1  0.52210000  0.15690000  0.34600000  1.0 0.1267981334
H  H445  1  0.15690000  0.52210000  0.65400000  1.0 0.1267981334
H  H446  1  0.84310000  0.47790000  0.15400000  1.0 0.1267981334
H  H447  1  0.02210000  0.34310000  0.90400000  1.0 0.1267981334
H  H448  1  0.97790000  0.65690000  0.40400000  1.0 0.1267981334
H  H449  1  0.25460000  0.03170000  0.09560000  1.0 0.1198285536
H  H450  1  0.74540000  0.96830000  0.59560000  1.0 0.1198285536
H  H451  1  0.46830000  0.75460000  0.84560000  1.0 0.1198285536
H  H452  1  0.53170000  0.24540000  0.34560000  1.0 0.1198285536
H  H453  1  0.24540000  0.53170000  0.65440000  1.0 0.1198285536
H  H454  1  0.75460000  0.46830000  0.15440000  1.0 0.1198285536
H  H455  1  0.03170000  0.25460000  0.90440000  1.0 0.1198285536
H  H456  1  0.96830000  0.74540000  0.40440000  1.0 0.1198285536
H  H457  1  0.20030000  0.96660000  0.18040000  1.0 0.1198285536
H  H458  1  0.79970000  0.03340000  0.68040000  1.0 0.1198285536
H  H459  1  0.53340000  0.70030000  0.93040000  1.0 0.1198285536
H  H460  1  0.46660000  0.29970000  0.43040000  1.0 0.1198285536
H  H461  1  0.29970000  0.46660000  0.56960000  1.0 0.1198285536
H  H462  1  0.70030000  0.53340000  0.06960000  1.0 0.1198285536
H  H463  1  0.96660000  0.20030000  0.81960000  1.0 0.1198285536
H  H464  1  0.03340000  0.79970000  0.31960000  1.0 0.1198285536
H  H465  1  0.37790000  0.94770000  0.18050000  1.0 0.1267981334
H  H466  1  0.62210000  0.05230000  0.68050000  1.0 0.1267981334
H  H467  1  0.55230000  0.87790000  0.93050000  1.0 0.1267981334
H  H468  1  0.44770000  0.12210000  0.43050000  1.0 0.1267981334
H  H469  1  0.12210000  0.44770000  0.56950000  1.0 0.1267981334
H  H470  1  0.87790000  0.55230000  0.06950000  1.0 0.1267981334
H  H471  1  0.94770000  0.37790000  0.81950000  1.0 0.1267981334
H  H472  1  0.05230000  0.62210000  0.31950000  1.0 0.1267981334
H  H473  1  0.39020000  0.01380000  0.21990000  1.0 0.1198285536
H  H474  1  0.60980000  0.98620000  0.71990000  1.0 0.1198285536
H  H475  1  0.48620000  0.89020000  0.96990000  1.0 0.1198285536
H  H476  1  0.51380000  0.10980000  0.46990000  1.0 0.1198285536
H  H477  1  0.10980000  0.51380000  0.53010000  1.0 0.1198285536
H  H478  1  0.89020000  0.48620000  0.03010000  1.0 0.1198285536
H  H479  1  0.01380000  0.39020000  0.78010000  1.0 0.1198285536
H  H480  1  0.98620000  0.60980000  0.28010000  1.0 0.1198285536
H  H481  1  0.34590000  0.06060000  0.25390000  1.0 0.1198285536
H  H482  1  0.65410000  0.93940000  0.75390000  1.0 0.1198285536
H  H483  1  0.43940000  0.84590000  0.00390000  1.0 0.1198285536
H  H484  1  0.56060000  0.15410000  0.50390000  1.0 0.1198285536
H  H485  1  0.15410000  0.56060000  0.49610000  1.0 0.1198285536
H  H486  1  0.84590000  0.43940000  0.99610000  1.0 0.1198285536
H  H487  1  0.06060000  0.34590000  0.74610000  1.0 0.1198285536
H  H488  1  0.93940000  0.65410000  0.24610000  1.0 0.1198285536
H  H489  1  0.25970000  0.07500000  0.25250000  1.0 0.1198285536
H  H490  1  0.74030000  0.92500000  0.75250000  1.0 0.1198285536
H  H491  1  0.42500000  0.75970000  0.00250000  1.0 0.1198285536
H  H492  1  0.57500000  0.24030000  0.50250000  1.0 0.1198285536
H  H493  1  0.24030000  0.57500000  0.49750000  1.0 0.1198285536
H  H494  1  0.75970000  0.42500000  0.99750000  1.0 0.1198285536
H  H495  1  0.07500000  0.25970000  0.74750000  1.0 0.1198285536
H  H496  1  0.92500000  0.74030000  0.24750000  1.0 0.1198285536
H  H497  1  0.20830000  0.03200000  0.22030000  1.0 0.1198285536
H  H498  1  0.79170000  0.96800000  0.72030000  1.0 0.1198285536
H  H499  1  0.46800000  0.70830000  0.97030000  1.0 0.1198285536
H  H500  1  0.53200000  0.29170000  0.47030000  1.0 0.1198285536
H  H501  1  0.29170000  0.53200000  0.52970000  1.0 0.1198285536
H  H502  1  0.70830000  0.46800000  0.02970000  1.0 0.1198285536
H  H503  1  0.03200000  0.20830000  0.77970000  1.0 0.1198285536
H  H504  1  0.96800000  0.79170000  0.27970000  1.0 0.1198285536
H  H505  1  0.36940000  0.84810000  0.18680000  1.0 0.1198285536
H  H506  1  0.63060000  0.15190000  0.68680000  1.0 0.1198285536
H  H507  1  0.65190000  0.86940000  0.93680000  1.0 0.1198285536
H  H508  1  0.34810000  0.13060000  0.43680000  1.0 0.1198285536
H  H509  1  0.13060000  0.34810000  0.56320000  1.0 0.1198285536
H  H510  1  0.86940000  0.65190000  0.06320000  1.0 0.1198285536
H  H511  1  0.84810000  0.36940000  0.81320000  1.0 0.1198285536
H  H512  1  0.15190000  0.63060000  0.31320000  1.0 0.1198285536
H  H513  1  0.31330000  0.77220000  0.18860000  1.0 0.1105766568
H  H514  1  0.68670000  0.22780000  0.68860000  1.0 0.1105766568
H  H515  1  0.72780000  0.81330000  0.93860000  1.0 0.1105766568
H  H516  1  0.27220000  0.18670000  0.43860000  1.0 0.1105766568
H  H517  1  0.18670000  0.27220000  0.56140000  1.0 0.1105766568
H  H518  1  0.81330000  0.72780000  0.06140000  1.0 0.1105766568
H  H519  1  0.77220000  0.31330000  0.81140000  1.0 0.1105766568
H  H520  1  0.22780000  0.68670000  0.31140000  1.0 0.1105766568
H  H521  1  0.22360000  0.78530000  0.19020000  1.0 0.1105766568
H  H522  1  0.77640000  0.21470000  0.69020000  1.0 0.1105766568
H  H523  1  0.71470000  0.72360000  0.94020000  1.0 0.1105766568
H  H524  1  0.28530000  0.27640000  0.44020000  1.0 0.1105766568
H  H525  1  0.27640000  0.28530000  0.55980000  1.0 0.1105766568
H  H526  1  0.72360000  0.71470000  0.05980000  1.0 0.1105766568
H  H527  1  0.78530000  0.22360000  0.80980000  1.0 0.1105766568
H  H528  1  0.21470000  0.77640000  0.30980000  1.0 0.1105766568
H  H529  1  0.18970000  0.86950000  0.19040000  1.0 0.1198285536
H  H530  1  0.81030000  0.13050000  0.69040000  1.0 0.1198285536
H  H531  1  0.63050000  0.68970000  0.94040000  1.0 0.1198285536
H  H532  1  0.36950000  0.31030000  0.44040000  1.0 0.1198285536
H  H533  1  0.31030000  0.36950000  0.55960000  1.0 0.1198285536
H  H534  1  0.68970000  0.63050000  0.05960000  1.0 0.1198285536
H  H535  1  0.86950000  0.18970000  0.80960000  1.0 0.1198285536
H  H536  1  0.13050000  0.81030000  0.30960000  1.0 0.1198285536
H  H537  1  0.00120000  0.98820000  0.02180000  1.0 0.1198285536
H  H538  1  0.99880000  0.01180000  0.52180000  1.0 0.1198285536
H  H539  1  0.51180000  0.50120000  0.77180000  1.0 0.1198285536
H  H540  1  0.48820000  0.49880000  0.27180000  1.0 0.1198285536
H  H541  1  0.49880000  0.48820000  0.72820000  1.0 0.1198285536
H  H542  1  0.50120000  0.51180000  0.22820000  1.0 0.1198285536
H  H543  1  0.98820000  0.00120000  0.97820000  1.0 0.1198285536
H  H544  1  0.01180000  0.99880000  0.47820000  1.0 0.1198285536
H  H545  1  0.12620000  0.12020000  0.04530000  1.0 0.1105766568
H  H546  1  0.87380000  0.87980000  0.54530000  1.0 0.1105766568
H  H547  1  0.37980000  0.62620000  0.79530000  1.0 0.1020986464
H  H548  1  0.62020000  0.37380000  0.29530000  1.0 0.1105766568
H  H549  1  0.37380000  0.62020000  0.70470000  1.0 0.1020986464
H  H550  1  0.62620000  0.37980000  0.20470000  1.0 0.1105766568
H  H551  1  0.12020000  0.12620000  0.95470000  1.0 0.1020986464
H  H552  1  0.87980000  0.87380000  0.45470000  1.0 0.1105766568
H  H553  1  0.22160000  0.08870000  0.04530000  1.0 0.1198285536
H  H554  1  0.77840000  0.91130000  0.54530000  1.0 0.1198285536
H  H555  1  0.41130000  0.72160000  0.79530000  1.0 0.1198285536
H  H556  1  0.58870000  0.27840000  0.29530000  1.0 0.1198285536
H  H557  1  0.27840000  0.58870000  0.70470000  1.0 0.1198285536
H  H558  1  0.72160000  0.41130000  0.20470000  1.0 0.1198285536
H  H559  1  0.08870000  0.22160000  0.95470000  1.0 0.1198285536
H  H560  1  0.91130000  0.77840000  0.45470000  1.0 0.1198285536
H  H561  1  0.09780000  0.21760000  0.04850000  1.0 0.1105766568
H  H562  1  0.90220000  0.78240000  0.54850000  1.0 0.1105766568
H  H563  1  0.28240000  0.59780000  0.79850000  1.0 0.1105766568
H  H564  1  0.71760000  0.40220000  0.29850000  1.0 0.1105766568
H  H565  1  0.40220000  0.71760000  0.70150000  1.0 0.1105766568
H  H566  1  0.59780000  0.28240000  0.20150000  1.0 0.1105766568
H  H567  1  0.21760000  0.09780000  0.95150000  1.0 0.1105766568
H  H568  1  0.78240000  0.90220000  0.45150000  1.0 0.1105766568
H  H569  1  0.29560000  0.06530000  0.02050000  1.0 0.1105766568
H  H570  1  0.70440000  0.93470000  0.52050000  1.0 0.1105766568
H  H571  1  0.43470000  0.79560000  0.77050000  1.0 0.1105766568
H  H572  1  0.56530000  0.20440000  0.27050000  1.0 0.1105766568
H  H573  1  0.20440000  0.56530000  0.72950000  1.0 0.1105766568
H  H574  1  0.79560000  0.43470000  0.22950000  1.0 0.1105766568
H  H575  1  0.06530000  0.29560000  0.97950000  1.0 0.1105766568
H  H576  1  0.93470000  0.70440000  0.47950000  1.0 0.1105766568
H  H577  1  0.07720000  0.29800000  0.02520000  1.0 0.1020986464
H  H578  1  0.92280000  0.70200000  0.52520000  1.0 0.1020986464
H  H579  1  0.20200000  0.57720000  0.77520000  1.0 0.1020986464
H  H580  1  0.79800000  0.42280000  0.27520000  1.0 0.1020986464
H  H581  1  0.42280000  0.79800000  0.72480000  1.0 0.1105766568
H  H582  1  0.57720000  0.20200000  0.22480000  1.0 0.1020986464
H  H583  1  0.29800000  0.07720000  0.97480000  1.0 0.1020986464
H  H584  1  0.70200000  0.92280000  0.47480000  1.0 0.1020986464
H  H585  1  0.94290000  0.11490000  0.21060000  1.0 0.0491849555
H  H586  1  0.05710000  0.88510000  0.71060000  1.0 0.0491849555
H  H587  1  0.38510000  0.44290000  0.96060000  1.0 0.0491849555
H  H588  1  0.61490000  0.55710000  0.46060000  1.0 0.0491849555
H  H589  1  0.55710000  0.61490000  0.53940000  1.0 0.0491849555
H  H590  1  0.44290000  0.38510000  0.03940000  1.0 0.0491849555
H  H591  1  0.11490000  0.94290000  0.78940000  1.0 0.0491849555
H  H592  1  0.88510000  0.05710000  0.28940000  1.0 0.0491849555
H  H593  1  0.85340000  0.08840000  0.19670000  1.0 0.0491849555
H  H594  1  0.14660000  0.91160000  0.69670000  1.0 0.0491849555
H  H595  1  0.41160000  0.35340000  0.94670000  1.0 0.0491849555
H  H596  1  0.58840000  0.64660000  0.44670000  1.0 0.0491849555
H  H597  1  0.64660000  0.58840000  0.55330000  1.0 0.0491849555
H  H598  1  0.35340000  0.41160000  0.05330000  1.0 0.0491849555
H  H599  1  0.08840000  0.85340000  0.80330000  1.0 0.0491849555
H  H600  1  0.91160000  0.14660000  0.30330000  1.0 0.0491849555
H  H601  1  0.96800000  0.17840000  0.21620000  1.0 0.0620813593
H  H602  1  0.03200000  0.82160000  0.71620000  1.0 0.0620813593
H  H603  1  0.32160000  0.46800000  0.96620000  1.0 0.0620813593
H  H604  1  0.67840000  0.53200000  0.46620000  1.0 0.0620813593
H  H605  1  0.53200000  0.67840000  0.53380000  1.0 0.0620813593
H  H606  1  0.46800000  0.32160000  0.03380000  1.0 0.0620813593
H  H607  1  0.17840000  0.96800000  0.78380000  1.0 0.0620813593
H  H608  1  0.82160000  0.03200000  0.28380000  1.0 0.0620813593
H  H609  1  0.92830000  0.09900000  0.20690000  1.0 0.0491849555
H  H610  1  0.07170000  0.90100000  0.70690000  1.0 0.0491849555
H  H611  1  0.40100000  0.42830000  0.95690000  1.0 0.0491849555
H  H612  1  0.59900000  0.57170000  0.45690000  1.0 0.0491849555
H  H613  1  0.57170000  0.59900000  0.54310000  1.0 0.0491849555
H  H614  1  0.42830000  0.40100000  0.04310000  1.0 0.0491849555
H  H615  1  0.09900000  0.92830000  0.79310000  1.0 0.0491849555
H  H616  1  0.90100000  0.07170000  0.29310000  1.0 0.0491849555
H  H617  1  0.89270000  0.13380000  0.14110000  1.0 0.1569808927
H  H618  1  0.10730000  0.86620000  0.64110000  1.0 0.1569808927
H  H619  1  0.36620000  0.39270000  0.89110000  1.0 0.1569808927
H  H620  1  0.63380000  0.60730000  0.39110000  1.0 0.1569808927
H  H621  1  0.60730000  0.63380000  0.60890000  1.0 0.1569808927
H  H622  1  0.39270000  0.36620000  0.10890000  1.0 0.1569808927
H  H623  1  0.13380000  0.89270000  0.85890000  1.0 0.1569808927
H  H624  1  0.86620000  0.10730000  0.35890000  1.0 0.1569808927
H  H625  1  0.93580000  0.22400000  0.18310000  1.0 0.008996277
H  H626  1  0.06420000  0.77600000  0.68310000  1.0 0.008996277
H  H627  1  0.27600000  0.43580000  0.93310000  1.0 0.008996277
H  H628  1  0.72400000  0.56420000  0.43310000  1.0 0.008996277
H  H629  1  0.56420000  0.72400000  0.56690000  1.0 0.008996277
H  H630  1  0.43580000  0.27600000  0.06690000  1.0 0.008996277
H  H631  1  0.22400000  0.93580000  0.81690000  1.0 0.008996277
H  H632  1  0.77600000  0.06420000  0.31690000  1.0 0.008996277
H  H633  1  0.88010000  0.23440000  0.19670000  1.0 0.0709797896
H  H634  1  0.11990000  0.76560000  0.69670000  1.0 0.0709797896
H  H635  1  0.26560000  0.38010000  0.94670000  1.0 0.0709797896
H  H636  1  0.73440000  0.61990000  0.44670000  1.0 0.0709797896
H  H637  1  0.61990000  0.73440000  0.55330000  1.0 0.0709797896
H  H638  1  0.38010000  0.26560000  0.05330000  1.0 0.0709797896
H  H639  1  0.23440000  0.88010000  0.80330000  1.0 0.0709797896
H  H640  1  0.76560000  0.11990000  0.30330000  1.0 0.0709797896
H  H641  1  0.89790000  0.26870000  0.17170000  1.0 0.0709797896
H  H642  1  0.10210000  0.73130000  0.67170000  1.0 0.0709797896
H  H643  1  0.23130000  0.39790000  0.92170000  1.0 0.0709797896
H  H644  1  0.76870000  0.60210000  0.42170000  1.0 0.0709797896
H  H645  1  0.60210000  0.76870000  0.57830000  1.0 0.0709797896
H  H646  1  0.39790000  0.23130000  0.07830000  1.0 0.0709797896
H  H647  1  0.26870000  0.89790000  0.82830000  1.0 0.0709797896
H  H648  1  0.73130000  0.10210000  0.32830000  1.0 0.0709797896
H  H649  1  0.81800000  0.24470000  0.16230000  1.0 0.0709797896
H  H650  1  0.18200000  0.75530000  0.66230000  1.0 0.0709797896
H  H651  1  0.25530000  0.31800000  0.91230000  1.0 0.0709797896
H  H652  1  0.74470000  0.68200000  0.41230000  1.0 0.0709797896
H  H653  1  0.68200000  0.74470000  0.58770000  1.0 0.0709797896
H  H654  1  0.31800000  0.25530000  0.08770000  1.0 0.0709797896
H  H655  1  0.24470000  0.81800000  0.83770000  1.0 0.0709797896
H  H656  1  0.75530000  0.18200000  0.33770000  1.0 0.0709797896
H  H657  1  0.80100000  0.18470000  0.15870000  1.0 0.1105766568
H  H658  1  0.19900000  0.81530000  0.65870000  1.0 0.1105766568
H  H659  1  0.31530000  0.30100000  0.90870000  1.0 0.1105766568
H  H660  1  0.68470000  0.69900000  0.40870000  1.0 0.1105766568
H  H661  1  0.69900000  0.68470000  0.59130000  1.0 0.1105766568
H  H662  1  0.30100000  0.31530000  0.09130000  1.0 0.1105766568
H  H663  1  0.18470000  0.80100000  0.84130000  1.0 0.1105766568
H  H664  1  0.81530000  0.19900000  0.34130000  1.0 0.1105766568
H  H665  1  0.82730000  0.21580000  0.13450000  1.0 0.0709797896
H  H666  1  0.17270000  0.78420000  0.63450000  1.0 0.0709797896
H  H667  1  0.28420000  0.32730000  0.88450000  1.0 0.0709797896
H  H668  1  0.71580000  0.67270000  0.38450000  1.0 0.0709797896
H  H669  1  0.67270000  0.71580000  0.61550000  1.0 0.0709797896
H  H670  1  0.32730000  0.28420000  0.11550000  1.0 0.0709797896
H  H671  1  0.21580000  0.82730000  0.86550000  1.0 0.0709797896
H  H672  1  0.78420000  0.17270000  0.36550000  1.0 0.0709797896
H  H673  1  0.18080000  0.52300000  0.05790000  1.0 0.2144960222
H  H674  1  0.81920000  0.47700000  0.55790000  1.0 0.2144960222
H  H675  1  0.97700000  0.68080000  0.80790000  1.0 0.2144960222
H  H676  1  0.02300000  0.31920000  0.30790000  1.0 0.2144960222
H  H677  1  0.31920000  0.02300000  0.69210000  1.0 0.2144960222
H  H678  1  0.68080000  0.97700000  0.19210000  1.0 0.2144960222
H  H679  1  0.52300000  0.18080000  0.94210000  1.0 0.2144960222
H  H680  1  0.47700000  0.81920000  0.44210000  1.0 0.2144960222
H  H681  1  0.15750000  0.56840000  0.98390000  1.0 0.1105766568
H  H682  1  0.84250000  0.43160000  0.48390000  1.0 0.1105766568
H  H683  1  0.93160000  0.65750000  0.73390000  1.0 0.1105766568
H  H684  1  0.06840000  0.34250000  0.23390000  1.0 0.1105766568
H  H685  1  0.34250000  0.06840000  0.76610000  1.0 0.1105766568
H  H686  1  0.65750000  0.93160000  0.26610000  1.0 0.1105766568
H  H687  1  0.56840000  0.15750000  0.01610000  1.0 0.1105766568
H  H688  1  0.43160000  0.84250000  0.51610000  1.0 0.1105766568
H  H689  1  0.11020000  0.57140000  0.00470000  1.0 0.1198285536
H  H690  1  0.88980000  0.42860000  0.50470000  1.0 0.1198285536
H  H691  1  0.92860000  0.61020000  0.75470000  1.0 0.1198285536
H  H692  1  0.07140000  0.38980000  0.25470000  1.0 0.1198285536
H  H693  1  0.38980000  0.07140000  0.74530000  1.0 0.1198285536
H  H694  1  0.61020000  0.92860000  0.24530000  1.0 0.1105766568
H  H695  1  0.57140000  0.11020000  0.99530000  1.0 0.1198285536
H  H696  1  0.42860000  0.88980000  0.49530000  1.0 0.1198285536
H  H697  1  0.12610000  0.51630000  0.99180000  1.0 0.0892106128
H  H698  1  0.87390000  0.48370000  0.49180000  1.0 0.0892106128
H  H699  1  0.98370000  0.62610000  0.74180000  1.0 0.0892106128
H  H700  1  0.01630000  0.37390000  0.24180000  1.0 0.0892106128
H  H701  1  0.37390000  0.01630000  0.75820000  1.0 0.0892106128
H  H702  1  0.62610000  0.98370000  0.25820000  1.0 0.0892106128
H  H703  1  0.51630000  0.12610000  0.00820000  1.0 0.0892106128
H  H704  1  0.48370000  0.87390000  0.50820000  1.0 0.0892106128
H  H705  1  0.22930000  0.55150000  0.99370000  1.0 0.0892106128
H  H706  1  0.77070000  0.44850000  0.49370000  1.0 0.0892106128
H  H707  1  0.94850000  0.72930000  0.74370000  1.0 0.0892106128
H  H708  1  0.05150000  0.27070000  0.24370000  1.0 0.0892106128
H  H709  1  0.27070000  0.05150000  0.75630000  1.0 0.0892106128
H  H710  1  0.72930000  0.94850000  0.25630000  1.0 0.0892106128
H  H711  1  0.55150000  0.22930000  0.00630000  1.0 0.0892106128
H  H712  1  0.44850000  0.77070000  0.50630000  1.0 0.0892106128
H  H713  1  0.24550000  0.51310000  0.01740000  1.0 0.0709797896
H  H714  1  0.75450000  0.48690000  0.51740000  1.0 0.0709797896
H  H715  1  0.98690000  0.74550000  0.76740000  1.0 0.0709797896
H  H716  1  0.01310000  0.25450000  0.26740000  1.0 0.0709797896
H  H717  1  0.25450000  0.01310000  0.73260000  1.0 0.0709797896
H  H718  1  0.74550000  0.98690000  0.23260000  1.0 0.0709797896
H  H719  1  0.51310000  0.24550000  0.98260000  1.0 0.0709797896
H  H720  1  0.48690000  0.75450000  0.48260000  1.0 0.0709797896
H  H721  1  0.24240000  0.57500000  0.02240000  1.0 0.0892106128
H  H722  1  0.75760000  0.42500000  0.52240000  1.0 0.0892106128
H  H723  1  0.92500000  0.74240000  0.77240000  1.0 0.0892106128
H  H724  1  0.07500000  0.25760000  0.27240000  1.0 0.0892106128
H  H725  1  0.25760000  0.07500000  0.72760000  1.0 0.0892106128
H  H726  1  0.74240000  0.92500000  0.22760000  1.0 0.0892106128
H  H727  1  0.57500000  0.24240000  0.97760000  1.0 0.0892106128
H  H728  1  0.42500000  0.75760000  0.47760000  1.0 0.0892106128
H  H729  1  0.13340000  0.47560000  0.02480000  1.0 0.1267981334
H  H730  1  0.86660000  0.52440000  0.52480000  1.0 0.1267981334
H  H731  1  0.02440000  0.63340000  0.77480000  1.0 0.1267981334
H  H732  1  0.97560000  0.36660000  0.27480000  1.0 0.1267981334
H  H733  1  0.36660000  0.97560000  0.72520000  1.0 0.1267981334
H  H734  1  0.63340000  0.02440000  0.22520000  1.0 0.1267981334
H  H735  1  0.47560000  0.13340000  0.97520000  1.0 0.1267981334
H  H736  1  0.52440000  0.86660000  0.47520000  1.0 0.1267981334
H  H737  1  0.15260000  0.57100000  0.97850000  1.0 0.0892106128
H  H738  1  0.84740000  0.42900000  0.47850000  1.0 0.0892106128
H  H739  1  0.92900000  0.65260000  0.72850000  1.0 0.0892106128
H  H740  1  0.07100000  0.34740000  0.22850000  1.0 0.0892106128
H  H741  1  0.34740000  0.07100000  0.77150000  1.0 0.0892106128
H  H742  1  0.65260000  0.92900000  0.27150000  1.0 0.0892106128
H  H743  1  0.57100000  0.15260000  0.02150000  1.0 0.0892106128
H  H744  1  0.42900000  0.84740000  0.52150000  1.0 0.0892106128
H  H745  1  0.11360000  0.52350000  0.98490000  1.0 0.0892106128
H  H746  1  0.88640000  0.47650000  0.48490000  1.0 0.0892106128
H  H747  1  0.97650000  0.61360000  0.73490000  1.0 0.0892106128
H  H748  1  0.02350000  0.38640000  0.23490000  1.0 0.0892106128
H  H749  1  0.38640000  0.02350000  0.76510000  1.0 0.0892106128
H  H750  1  0.61360000  0.97650000  0.26510000  1.0 0.0892106128
H  H751  1  0.52350000  0.11360000  0.01510000  1.0 0.0892106128
H  H752  1  0.47650000  0.88640000  0.51510000  1.0 0.0892106128
H  H753  1  0.17520000  0.51280000  0.98180000  1.0 0.0620813593
H  H754  1  0.82480000  0.48720000  0.48180000  1.0 0.0620813593
H  H755  1  0.98720000  0.67520000  0.73180000  1.0 0.0620813593
H  H756  1  0.01280000  0.32480000  0.23180000  1.0 0.0620813593
H  H757  1  0.32480000  0.01280000  0.76820000  1.0 0.0709797896
H  H758  1  0.67520000  0.98720000  0.26820000  1.0 0.0709797896
H  H759  1  0.51280000  0.17520000  0.01820000  1.0 0.0620813593
H  H760  1  0.48720000  0.82480000  0.51820000  1.0 0.0620813593
H  H761  1  0.17360000  0.61670000  0.00540000  1.0 0.0620813593
H  H762  1  0.82640000  0.38330000  0.50540000  1.0 0.0620813593
H  H763  1  0.88330000  0.67360000  0.75540000  1.0 0.0620813593
H  H764  1  0.11670000  0.32640000  0.25540000  1.0 0.0620813593
H  H765  1  0.32640000  0.11670000  0.74460000  1.0 0.0620813593
H  H766  1  0.67360000  0.88330000  0.24460000  1.0 0.0620813593
H  H767  1  0.61670000  0.17360000  0.99460000  1.0 0.0620813593
H  H768  1  0.38330000  0.82640000  0.49460000  1.0 0.0620813593
H  H769  1  0.20180000  0.59750000  0.03200000  1.0 0.0784959451
H  H770  1  0.79820000  0.40250000  0.53200000  1.0 0.0784959451
H  H771  1  0.90250000  0.70180000  0.78200000  1.0 0.0784959451
H  H772  1  0.09750000  0.29820000  0.28200000  1.0 0.0784959451
H  H773  1  0.29820000  0.09750000  0.71800000  1.0 0.0784959451
H  H774  1  0.70180000  0.90250000  0.21800000  1.0 0.0784959451
H  H775  1  0.59750000  0.20180000  0.96800000  1.0 0.0784959451
H  H776  1  0.40250000  0.79820000  0.46800000  1.0 0.0784959451
H  H777  1  0.14110000  0.61330000  0.03240000  1.0 0.0892106128
H  H778  1  0.85890000  0.38670000  0.53240000  1.0 0.0892106128
H  H779  1  0.88670000  0.64110000  0.78240000  1.0 0.0892106128
H  H780  1  0.11330000  0.35890000  0.28240000  1.0 0.0892106128
H  H781  1  0.35890000  0.11330000  0.71760000  1.0 0.0892106128
H  H782  1  0.64110000  0.88670000  0.21760000  1.0 0.0892106128
H  H783  1  0.61330000  0.14110000  0.96760000  1.0 0.0892106128
H  H784  1  0.38670000  0.85890000  0.46760000  1.0 0.0892106128
H  H785  1  0.00630000  0.93140000  0.23070000  1.0 0.1105766568
H  H786  1  0.99370000  0.06860000  0.73070000  1.0 0.1105766568
H  H787  1  0.56860000  0.50630000  0.98070000  1.0 0.1105766568
H  H788  1  0.43140000  0.49370000  0.48070000  1.0 0.1105766568
H  H789  1  0.49370000  0.43140000  0.51930000  1.0 0.1105766568
H  H790  1  0.50630000  0.56860000  0.01930000  1.0 0.1105766568
H  H791  1  0.93140000  0.00630000  0.76930000  1.0 0.1105766568
H  H792  1  0.06860000  0.99370000  0.26930000  1.0 0.1105766568
H  H793  1  0.91340000  0.63000000  0.14760000  1.0 0.0620813593
H  H794  1  0.08660000  0.37000000  0.64760000  1.0 0.0620813593
H  H795  1  0.87000000  0.41340000  0.89760000  1.0 0.0620813593
H  H796  1  0.13000000  0.58660000  0.39760000  1.0 0.0620813593
H  H797  1  0.58660000  0.13000000  0.60240000  1.0 0.0620813593
H  H798  1  0.41340000  0.87000000  0.10240000  1.0 0.0620813593
H  H799  1  0.63000000  0.91340000  0.85240000  1.0 0.0620813593
H  H800  1  0.37000000  0.08660000  0.35240000  1.0 0.0620813593
H  H801  1  0.99400000  0.68800000  0.20760000  1.0 0.1105766568
H  H802  1  0.00600000  0.31200000  0.70760000  1.0 0.1105766568
H  H803  1  0.81200000  0.49400000  0.95760000  1.0 0.1105766568
H  H804  1  0.18800000  0.50600000  0.45760000  1.0 0.1105766568
H  H805  1  0.50600000  0.18800000  0.54240000  1.0 0.1105766568
H  H806  1  0.49400000  0.81200000  0.04240000  1.0 0.1105766568
H  H807  1  0.68800000  0.99400000  0.79240000  1.0 0.1105766568
H  H808  1  0.31200000  0.00600000  0.29240000  1.0 0.1105766568
H  H809  1  0.02840000  0.67870000  0.18150000  1.0 0.1267981334
H  H810  1  0.97160000  0.32130000  0.68150000  1.0 0.1267981334
H  H811  1  0.82130000  0.52840000  0.93150000  1.0 0.1267981334
H  H812  1  0.17870000  0.47160000  0.43150000  1.0 0.1267981334
H  H813  1  0.47160000  0.17870000  0.56850000  1.0 0.1267981334
H  H814  1  0.52840000  0.82130000  0.06850000  1.0 0.1267981334
H  H815  1  0.67870000  0.02840000  0.81850000  1.0 0.1267981334
H  H816  1  0.32130000  0.97160000  0.31850000  1.0 0.1267981334
H  H817  1  0.00370000  0.62980000  0.19690000  1.0 0.1267981334
H  H818  1  0.99630000  0.37020000  0.69690000  1.0 0.1267981334
H  H819  1  0.87020000  0.50370000  0.94690000  1.0 0.1267981334
H  H820  1  0.12980000  0.49630000  0.44690000  1.0 0.1267981334
H  H821  1  0.49630000  0.12980000  0.55310000  1.0 0.1267981334
H  H822  1  0.50370000  0.87020000  0.05310000  1.0 0.1267981334
H  H823  1  0.62980000  0.00370000  0.80310000  1.0 0.1267981334
H  H824  1  0.37020000  0.99630000  0.30310000  1.0 0.1267981334
H  H825  1  0.92460000  0.72460000  0.19790000  1.0 0.0620813593
H  H826  1  0.07540000  0.27540000  0.69790000  1.0 0.0620813593
H  H827  1  0.77540000  0.42460000  0.94790000  1.0 0.0620813593
H  H828  1  0.22460000  0.57540000  0.44790000  1.0 0.0620813593
H  H829  1  0.57540000  0.22460000  0.55210000  1.0 0.0620813593
H  H830  1  0.42460000  0.77540000  0.05210000  1.0 0.0620813593
H  H831  1  0.72460000  0.92460000  0.80210000  1.0 0.0620813593
H  H832  1  0.27540000  0.07540000  0.30210000  1.0 0.0620813593
H  H833  1  0.89030000  0.71330000  0.17190000  1.0 0.1020986464
H  H834  1  0.10970000  0.28670000  0.67190000  1.0 0.1020986464
H  H835  1  0.78670000  0.39030000  0.92190000  1.0 0.1020986464
H  H836  1  0.21330000  0.60970000  0.42190000  1.0 0.1020986464
H  H837  1  0.60970000  0.21330000  0.57810000  1.0 0.1020986464
H  H838  1  0.39030000  0.78670000  0.07810000  1.0 0.1020986464
H  H839  1  0.71330000  0.89030000  0.82810000  1.0 0.1020986464
H  H840  1  0.28670000  0.10970000  0.32810000  1.0 0.1020986464
H  H841  1  0.94480000  0.74390000  0.16950000  1.0 0.0709797896
H  H842  1  0.05520000  0.25610000  0.66950000  1.0 0.0709797896
H  H843  1  0.75610000  0.44480000  0.91950000  1.0 0.0709797896
H  H844  1  0.24390000  0.55520000  0.41950000  1.0 0.0709797896
H  H845  1  0.55520000  0.24390000  0.58050000  1.0 0.0709797896
H  H846  1  0.44480000  0.75610000  0.08050000  1.0 0.0709797896
H  H847  1  0.74390000  0.94480000  0.83050000  1.0 0.0709797896
H  H848  1  0.25610000  0.05520000  0.33050000  1.0 0.0709797896
H  H849  1  0.80390000  0.69410000  0.19540000  1.0 0.0709797896
H  H850  1  0.19610000  0.30590000  0.69540000  1.0 0.0709797896
H  H851  1  0.80590000  0.30390000  0.94540000  1.0 0.0709797896
H  H852  1  0.19410000  0.69610000  0.44540000  1.0 0.0709797896
H  H853  1  0.69610000  0.19410000  0.55460000  1.0 0.0709797896
H  H854  1  0.30390000  0.80590000  0.05460000  1.0 0.0709797896
H  H855  1  0.69410000  0.80390000  0.80460000  1.0 0.0709797896
H  H856  1  0.30590000  0.19610000  0.30460000  1.0 0.0709797896
H  H857  1  0.91550000  0.67290000  0.14420000  1.0 0.0709797896
H  H858  1  0.08450000  0.32710000  0.64420000  1.0 0.0709797896
H  H859  1  0.82710000  0.41550000  0.89420000  1.0 0.0709797896
H  H860  1  0.17290000  0.58450000  0.39420000  1.0 0.0709797896
H  H861  1  0.58450000  0.17290000  0.60580000  1.0 0.0709797896
H  H862  1  0.41550000  0.82710000  0.10580000  1.0 0.0709797896
H  H863  1  0.67290000  0.91550000  0.85580000  1.0 0.0709797896
H  H864  1  0.32710000  0.08450000  0.35580000  1.0 0.0709797896
H  H865  1  0.87930000  0.71930000  0.13310000  1.0 0.0784959451
H  H866  1  0.12070000  0.28070000  0.63310000  1.0 0.0784959451
H  H867  1  0.78070000  0.37930000  0.88310000  1.0 0.0784959451
H  H868  1  0.21930000  0.62070000  0.38310000  1.0 0.0784959451
H  H869  1  0.62070000  0.21930000  0.61690000  1.0 0.0784959451
H  H870  1  0.37930000  0.78070000  0.11690000  1.0 0.0784959451
H  H871  1  0.71930000  0.87930000  0.86690000  1.0 0.0784959451
H  H872  1  0.28070000  0.12070000  0.36690000  1.0 0.0784959451
H  H873  1  0.85560000  0.66160000  0.13650000  1.0 0.1105766568
H  H874  1  0.14440000  0.33840000  0.63650000  1.0 0.1105766568
H  H875  1  0.83840000  0.35560000  0.88650000  1.0 0.1105766568
H  H876  1  0.16160000  0.64440000  0.38650000  1.0 0.1105766568
H  H877  1  0.64440000  0.16160000  0.61350000  1.0 0.1105766568
H  H878  1  0.35560000  0.83840000  0.11350000  1.0 0.1105766568
H  H879  1  0.66160000  0.85560000  0.86350000  1.0 0.1105766568
H  H880  1  0.33840000  0.14440000  0.36350000  1.0 0.1105766568
H  H881  1  0.93630000  0.70940000  0.18050000  1.0 0.0892106128
H  H882  1  0.06370000  0.29060000  0.68050000  1.0 0.0892106128
H  H883  1  0.79060000  0.43630000  0.93050000  1.0 0.0892106128
H  H884  1  0.20940000  0.56370000  0.43050000  1.0 0.0892106128
H  H885  1  0.56370000  0.20940000  0.56950000  1.0 0.0892106128
H  H886  1  0.43630000  0.79060000  0.06950000  1.0 0.0892106128
H  H887  1  0.70940000  0.93630000  0.81950000  1.0 0.0892106128
H  H888  1  0.29060000  0.06370000  0.31950000  1.0 0.0892106128
H  H889  1  0.89480000  0.72690000  0.20250000  1.0 0.0892106128
H  H890  1  0.10520000  0.27310000  0.70250000  1.0 0.0892106128
H  H891  1  0.77310000  0.39480000  0.95250000  1.0 0.0892106128
H  H892  1  0.22690000  0.60520000  0.45250000  1.0 0.0892106128
H  H893  1  0.60520000  0.22690000  0.54750000  1.0 0.0892106128
H  H894  1  0.39480000  0.77310000  0.04750000  1.0 0.0892106128
H  H895  1  0.72690000  0.89480000  0.79750000  1.0 0.0892106128
H  H896  1  0.27310000  0.10520000  0.29750000  1.0 0.0892106128
H  H897  1  0.90400000  0.76270000  0.17690000  1.0 0.0491849555
H  H898  1  0.09600000  0.23730000  0.67690000  1.0 0.0491849555
H  H899  1  0.73730000  0.40400000  0.92690000  1.0 0.0491849555
H  H900  1  0.26270000  0.59600000  0.42690000  1.0 0.0491849555
H  H901  1  0.59600000  0.26270000  0.57310000  1.0 0.0491849555
H  H902  1  0.40400000  0.73730000  0.07310000  1.0 0.0491849555
H  H903  1  0.76270000  0.90400000  0.82310000  1.0 0.0491849555
H  H904  1  0.23730000  0.09600000  0.32310000  1.0 0.0491849555
H  H905  1  0.78130000  0.08710000  0.21540000  1.0 0.0784959451
H  H906  1  0.21870000  0.91290000  0.71540000  1.0 0.0784959451
H  H907  1  0.41290000  0.28130000  0.96540000  1.0 0.0784959451
H  H908  1  0.58710000  0.71870000  0.46540000  1.0 0.0784959451
H  H909  1  0.71870000  0.58710000  0.53460000  1.0 0.0784959451
H  H910  1  0.28130000  0.41290000  0.03460000  1.0 0.0784959451
H  H911  1  0.08710000  0.78130000  0.78460000  1.0 0.0784959451
H  H912  1  0.91290000  0.21870000  0.28460000  1.0 0.0784959451
H  H913  1  0.83280000  0.07630000  0.19660000  1.0 0.0784959451
H  H914  1  0.16720000  0.92370000  0.69660000  1.0 0.0784959451
H  H915  1  0.42370000  0.33280000  0.94660000  1.0 0.0784959451
H  H916  1  0.57630000  0.66720000  0.44660000  1.0 0.0784959451
H  H917  1  0.66720000  0.57630000  0.55340000  1.0 0.0784959451
H  H918  1  0.33280000  0.42370000  0.05340000  1.0 0.0784959451
H  H919  1  0.07630000  0.83280000  0.80340000  1.0 0.0784959451
H  H920  1  0.92370000  0.16720000  0.30340000  1.0 0.0784959451
H  H921  1  0.97510000  0.25590000  0.24060000  1.0 0.0620813593
H  H922  1  0.02490000  0.74410000  0.74060000  1.0 0.0620813593
H  H923  1  0.24410000  0.47510000  0.99060000  1.0 0.0620813593
H  H924  1  0.75590000  0.52490000  0.49060000  1.0 0.0620813593
H  H925  1  0.52490000  0.75590000  0.50940000  1.0 0.0620813593
H  H926  1  0.47510000  0.24410000  0.00940000  1.0 0.0620813593
H  H927  1  0.25590000  0.97510000  0.75940000  1.0 0.0620813593
H  H928  1  0.74410000  0.02490000  0.25940000  1.0 0.0620813593
H  H929  1  0.72750000  0.02860000  0.23760000  1.0 0.0395605579
H  H930  1  0.27250000  0.97140000  0.73760000  1.0 0.0395605579
H  H931  1  0.47140000  0.22750000  0.98760000  1.0 0.0395605579
H  H932  1  0.52860000  0.77250000  0.48760000  1.0 0.0395605579
H  H933  1  0.77250000  0.52860000  0.51240000  1.0 0.0395605579
H  H934  1  0.22750000  0.47140000  0.01240000  1.0 0.0395605579
H  H935  1  0.02860000  0.72750000  0.76240000  1.0 0.0395605579
H  H936  1  0.97140000  0.27250000  0.26240000  1.0 0.0395605579
H  H937  1  0.93760000  0.20520000  0.22390000  1.0 0.0709797896
H  H938  1  0.06240000  0.79480000  0.72390000  1.0 0.0709797896
H  H939  1  0.29480000  0.43760000  0.97390000  1.0 0.0709797896
H  H940  1  0.70520000  0.56240000  0.47390000  1.0 0.0709797896
H  H941  1  0.56240000  0.70520000  0.52610000  1.0 0.0709797896
H  H942  1  0.43760000  0.29480000  0.02610000  1.0 0.0709797896
H  H943  1  0.20520000  0.93760000  0.77610000  1.0 0.0709797896
H  H944  1  0.79480000  0.06240000  0.27610000  1.0 0.0709797896
H  H945  1  0.74700000  0.04170000  0.21240000  1.0 0.0620813593
H  H946  1  0.25300000  0.95830000  0.71240000  1.0 0.0620813593
H  H947  1  0.45830000  0.24700000  0.96240000  1.0 0.0620813593
H  H948  1  0.54170000  0.75300000  0.46240000  1.0 0.0620813593
H  H949  1  0.75300000  0.54170000  0.53760000  1.0 0.0620813593
H  H950  1  0.24700000  0.45830000  0.03760000  1.0 0.0620813593
H  H951  1  0.04170000  0.74700000  0.78760000  1.0 0.0620813593
H  H952  1  0.95830000  0.25300000  0.28760000  1.0 0.0620813593
C  C1  1  0.92150000  0.17260000  0.16130000  1.0 0.2299946781
C  C2  1  0.07850000  0.82740000  0.66130000  1.0 0.2299946781
C  C3  1  0.32740000  0.42150000  0.91130000  1.0 0.2299946781
C  C4  1  0.67260000  0.57850000  0.41130000  1.0 0.2299946781
C  C5  1  0.57850000  0.67260000  0.58870000  1.0 0.2299946781
C  C6  1  0.42150000  0.32740000  0.08870000  1.0 0.2299946781
C  C7  1  0.17260000  0.92150000  0.83870000  1.0 0.2299946781
C  C8  1  0.82740000  0.07850000  0.33870000  1.0 0.2299946781
C  C9  1  0.82860000  0.16810000  0.15450000  1.0 -0.1391422032
C  C10  1  0.17140000  0.83190000  0.65450000  1.0 -0.1391422032
C  C11  1  0.33190000  0.32860000  0.90450000  1.0 -0.1391422032
C  C12  1  0.66810000  0.67140000  0.40450000  1.0 -0.1391422032
C  C13  1  0.67140000  0.66810000  0.59550000  1.0 -0.1391422032
C  C14  1  0.32860000  0.33190000  0.09550000  1.0 -0.1391422032
C  C15  1  0.16810000  0.82860000  0.84550000  1.0 -0.1391422032
C  C16  1  0.83190000  0.17140000  0.34550000  1.0 -0.1391422032
C  C17  1  0.86010000  0.23180000  0.18370000  1.0 -0.1012699921
C  C18  1  0.13990000  0.76820000  0.68370000  1.0 -0.1012699921
C  C19  1  0.26820000  0.36010000  0.93370000  1.0 -0.1012699921
C  C20  1  0.73180000  0.63990000  0.43370000  1.0 -0.1012699921
C  C21  1  0.63990000  0.73180000  0.56630000  1.0 -0.1012699921
C  C22  1  0.36010000  0.26820000  0.06630000  1.0 -0.1012699921
C  C23  1  0.23180000  0.86010000  0.81630000  1.0 -0.1012699921
C  C24  1  0.76820000  0.13990000  0.31630000  1.0 -0.1012699921
C  C25  1  0.05240000  0.39620000  0.09920000  1.0 0.596113315
C  C26  1  0.94760000  0.60380000  0.59920000  1.0 0.596113315
C  C27  1  0.10380000  0.55240000  0.84920000  1.0 0.596113315
C  C28  1  0.89620000  0.44760000  0.34920000  1.0 0.596113315
C  C29  1  0.44760000  0.89620000  0.65080000  1.0 0.596113315
C  C30  1  0.55240000  0.10380000  0.15080000  1.0 0.596113315
C  C31  1  0.39620000  0.05240000  0.90080000  1.0 0.596113315
C  C32  1  0.60380000  0.94760000  0.40080000  1.0 0.596113315
C  C33  1  0.06480000  0.17290000  0.11760000  1.0 0.5714297464
C  C34  1  0.93520000  0.82710000  0.61760000  1.0 0.5714297464
C  C35  1  0.32710000  0.56480000  0.86760000  1.0 0.5714297464
C  C36  1  0.67290000  0.43520000  0.36760000  1.0 0.5714297464
C  C37  1  0.43520000  0.67290000  0.63240000  1.0 0.5714297464
C  C38  1  0.56480000  0.32710000  0.13240000  1.0 0.5714297464
C  C39  1  0.17290000  0.06480000  0.88240000  1.0 0.5714297464
C  C40  1  0.82710000  0.93520000  0.38240000  1.0 0.5714297464
C  C41  1  0.05790000  0.33830000  0.10170000  1.0 -0.0700895303
C  C42  1  0.94210000  0.66170000  0.60170000  1.0 -0.0700895303
C  C43  1  0.16170000  0.55790000  0.85170000  1.0 -0.0700895303
C  C44  1  0.83830000  0.44210000  0.35170000  1.0 -0.0700895303
C  C45  1  0.44210000  0.83830000  0.64830000  1.0 -0.0700895303
C  C46  1  0.55790000  0.16170000  0.14830000  1.0 -0.0700895303
C  C47  1  0.33830000  0.05790000  0.89830000  1.0 -0.0700895303
C  C48  1  0.66170000  0.94210000  0.39830000  1.0 -0.0700895303
C  C49  1  0.01290000  0.30860000  0.10630000  1.0 -0.1101629671
C  C50  1  0.98710000  0.69140000  0.60630000  1.0 -0.1101629671
C  C51  1  0.19140000  0.51290000  0.85630000  1.0 -0.1101629671
C  C52  1  0.80860000  0.48710000  0.35630000  1.0 -0.1101629671
C  C53  1  0.48710000  0.80860000  0.64370000  1.0 -0.1101629671
C  C54  1  0.51290000  0.19140000  0.14370000  1.0 -0.1101629671
C  C55  1  0.30860000  0.01290000  0.89370000  1.0 -0.1101629671
C  C56  1  0.69140000  0.98710000  0.39370000  1.0 -0.1101629671
C  C57  1  0.01610000  0.25620000  0.11210000  1.0 -0.1311117104
C  C58  1  0.98390000  0.74380000  0.61210000  1.0 -0.1311117104
C  C59  1  0.24380000  0.51610000  0.86210000  1.0 -0.1311117104
C  C60  1  0.75620000  0.48390000  0.36210000  1.0 -0.1311117104
C  C61  1  0.48390000  0.75620000  0.63790000  1.0 -0.1311117104
C  C62  1  0.51610000  0.24380000  0.13790000  1.0 -0.1311117104
C  C63  1  0.25620000  0.01610000  0.88790000  1.0 -0.1311117104
C  C64  1  0.74380000  0.98390000  0.38790000  1.0 -0.1311117104
C  C65  1  0.06450000  0.23020000  0.11160000  1.0 -0.0603687692
C  C66  1  0.93550000  0.76980000  0.61160000  1.0 -0.0603687692
C  C67  1  0.26980000  0.56450000  0.86160000  1.0 -0.0603687692
C  C68  1  0.73020000  0.43550000  0.36160000  1.0 -0.0603687692
C  C69  1  0.43550000  0.73020000  0.63840000  1.0 -0.0603687692
C  C70  1  0.56450000  0.26980000  0.13840000  1.0 -0.0603687692
C  C71  1  0.23020000  0.06450000  0.88840000  1.0 -0.0603687692
C  C72  1  0.76980000  0.93550000  0.38840000  1.0 -0.0603687692
C  C73  1  0.11040000  0.25850000  0.10660000  1.0 0.0395605579
C  C74  1  0.88960000  0.74150000  0.60660000  1.0 0.0395605579
C  C75  1  0.24150000  0.61040000  0.85660000  1.0 0.0395605579
C  C76  1  0.75850000  0.38960000  0.35660000  1.0 0.0395605579
C  C77  1  0.38960000  0.75850000  0.64340000  1.0 0.0395605579
C  C78  1  0.61040000  0.24150000  0.14340000  1.0 0.0395605579
C  C79  1  0.25850000  0.11040000  0.89340000  1.0 0.0395605579
C  C80  1  0.74150000  0.88960000  0.39340000  1.0 0.0395605579
C  C81  1  0.10580000  0.31220000  0.09990000  1.0 0.0323317731
C  C82  1  0.89420000  0.68780000  0.59990000  1.0 0.0323317731
C  C83  1  0.18780000  0.60580000  0.84990000  1.0 0.0323317731
C  C84  1  0.81220000  0.39420000  0.34990000  1.0 0.0323317731
C  C85  1  0.39420000  0.81220000  0.65010000  1.0 0.0323317731
C  C86  1  0.60580000  0.18780000  0.15010000  1.0 0.0323317731
C  C87  1  0.31220000  0.10580000  0.90010000  1.0 0.0323317731
C  C88  1  0.68780000  0.89420000  0.40010000  1.0 0.0323317731
C  C89  1  0.16700000  0.23940000  0.10759000  1.0 -0.1101629671
C  C90  1  0.83300000  0.76060000  0.60759000  1.0 -0.1101629671
C  C91  1  0.26060000  0.66700000  0.85759000  1.0 -0.1101629671
C  C92  1  0.73940000  0.33300000  0.35759000  1.0 -0.1101629671
C  C93  1  0.33300000  0.73940000  0.64241000  1.0 -0.1101629671
C  C94  1  0.66700000  0.26060000  0.14241000  1.0 -0.1101629671
C  C95  1  0.23940000  0.16700000  0.89241000  1.0 -0.1101629671
C  C96  1  0.76060000  0.83300000  0.39241000  1.0 -0.1101629671
C  C97  1  0.15910000  0.33780000  0.09576000  1.0 -0.1215150859
C  C98  1  0.84090000  0.66220000  0.59576000  1.0 -0.1215150859
C  C99  1  0.16220000  0.65910000  0.84576000  1.0 -0.1215150859
C  C100  1  0.83780000  0.34090000  0.34576000  1.0 -0.1215150859
C  C101  1  0.34090000  0.83780000  0.65424000  1.0 -0.1215150859
C  C102  1  0.65910000  0.16220000  0.15424000  1.0 -0.1215150859
C  C103  1  0.33780000  0.15910000  0.90424000  1.0 -0.1215150859
C  C104  1  0.66220000  0.84090000  0.40424000  1.0 -0.1215150859
C  C105  1  0.19550000  0.27460000  0.12790000  1.0 0.0323317731
C  C106  1  0.80450000  0.72540000  0.62790000  1.0 0.0323317731
C  C107  1  0.22540000  0.69550000  0.87790000  1.0 0.0323317731
C  C108  1  0.77460000  0.30450000  0.37790000  1.0 0.0323317731
C  C109  1  0.30450000  0.77460000  0.62210000  1.0 0.0323317731
C  C110  1  0.69550000  0.22540000  0.12210000  1.0 0.0323317731
C  C111  1  0.27460000  0.19550000  0.87210000  1.0 0.0323317731
C  C112  1  0.72540000  0.80450000  0.37210000  1.0 0.0323317731
C  C113  1  0.19130000  0.32870000  0.12060000  1.0 0.0208796028
C  C114  1  0.80870000  0.67130000  0.62060000  1.0 0.0208796028
C  C115  1  0.17130000  0.69130000  0.87060000  1.0 0.0208796028
C  C116  1  0.82870000  0.30870000  0.37060000  1.0 0.0208796028
C  C117  1  0.30870000  0.82870000  0.62940000  1.0 0.0208796028
C  C118  1  0.69130000  0.17130000  0.12940000  1.0 0.0208796028
C  C119  1  0.32870000  0.19130000  0.87940000  1.0 0.0208796028
C  C120  1  0.67130000  0.80870000  0.37940000  1.0 0.0208796028
C  C121  1  0.21640000  0.36830000  0.13510000  1.0 -0.188773807
C  C122  1  0.78360000  0.63170000  0.63510000  1.0 -0.188773807
C  C123  1  0.13170000  0.71640000  0.88510000  1.0 -0.188773807
C  C124  1  0.86830000  0.28360000  0.38510000  1.0 -0.188773807
C  C125  1  0.28360000  0.86830000  0.61490000  1.0 -0.188773807
C  C126  1  0.71640000  0.13170000  0.11490000  1.0 -0.188773807
C  C127  1  0.36830000  0.21640000  0.86490000  1.0 -0.188773807
C  C128  1  0.63170000  0.78360000  0.36490000  1.0 -0.188773807
C  C129  1  0.24460000  0.34900000  0.15780000  1.0 -0.1101629671
C  C130  1  0.75540000  0.65100000  0.65780000  1.0 -0.1101629671
C  C131  1  0.15100000  0.74460000  0.90780000  1.0 -0.1101629671
C  C132  1  0.84900000  0.25540000  0.40780000  1.0 -0.1101629671
C  C133  1  0.25540000  0.84900000  0.59220000  1.0 -0.1101629671
C  C134  1  0.74460000  0.15100000  0.09220000  1.0 -0.1101629671
C  C135  1  0.34900000  0.24460000  0.84220000  1.0 -0.1101629671
C  C136  1  0.65100000  0.75540000  0.34220000  1.0 -0.1101629671
C  C137  1  0.24540000  0.30040000  0.16460000  1.0 -0.1215150859
C  C138  1  0.75460000  0.69960000  0.66460000  1.0 -0.1215150859
C  C139  1  0.19960000  0.74540000  0.91460000  1.0 -0.1215150859
C  C140  1  0.80040000  0.25460000  0.41460000  1.0 -0.1215150859
C  C141  1  0.25460000  0.80040000  0.58540000  1.0 -0.1215150859
C  C142  1  0.74540000  0.19960000  0.08540000  1.0 -0.1215150859
C  C143  1  0.30040000  0.24540000  0.83540000  1.0 -0.1215150859
C  C144  1  0.69960000  0.75460000  0.33540000  1.0 -0.1215150859
C  C145  1  0.22070000  0.26170000  0.14950000  1.0 -0.1391422032
C  C146  1  0.77930000  0.73830000  0.64950000  1.0 -0.1391422032
C  C147  1  0.23830000  0.72070000  0.89950000  1.0 -0.1391422032
C  C148  1  0.76170000  0.27930000  0.39950000  1.0 -0.1391422032
C  C149  1  0.27930000  0.76170000  0.60050000  1.0 -0.1391422032
C  C150  1  0.72070000  0.23830000  0.10050000  1.0 -0.1391422032
C  C151  1  0.26170000  0.22070000  0.85050000  1.0 -0.1391422032
C  C152  1  0.73830000  0.77930000  0.35050000  1.0 -0.1391422032
C  C153  1  0.18980000  0.25210000  0.08080000  1.0 0.0395605579
C  C154  1  0.81020000  0.74790000  0.58080000  1.0 0.0395605579
C  C155  1  0.24790000  0.68980000  0.83080000  1.0 0.0395605579
C  C156  1  0.75210000  0.31020000  0.33080000  1.0 0.0395605579
C  C157  1  0.31020000  0.75210000  0.66920000  1.0 0.0395605579
C  C158  1  0.68980000  0.24790000  0.16920000  1.0 0.0395605579
C  C159  1  0.25210000  0.18980000  0.91920000  1.0 0.0395605579
C  C160  1  0.74790000  0.81020000  0.41920000  1.0 0.0395605579
C  C161  1  0.18460000  0.30600000  0.07450000  1.0 0.0037249179
C  C162  1  0.81540000  0.69400000  0.57450000  1.0 0.0037249179
C  C163  1  0.19400000  0.68460000  0.82450000  1.0 0.0037249179
C  C164  1  0.80600000  0.31540000  0.32450000  1.0 0.0037249179
C  C165  1  0.31540000  0.80600000  0.67550000  1.0 0.0037249179
C  C166  1  0.68460000  0.19400000  0.17550000  1.0 0.0037249179
C  C167  1  0.30600000  0.18460000  0.92550000  1.0 0.0037249179
C  C168  1  0.69400000  0.81540000  0.42550000  1.0 0.0037249179
C  C169  1  0.20280000  0.32330000  0.04990000  1.0 -0.2995603512
C  C170  1  0.79720000  0.67670000  0.54990000  1.0 -0.2995603512
C  C171  1  0.17670000  0.70280000  0.79990000  1.0 -0.2995603512
C  C172  1  0.82330000  0.29720000  0.29990000  1.0 -0.2995603512
C  C173  1  0.29720000  0.82330000  0.70010000  1.0 -0.2995603512
C  C174  1  0.70280000  0.17670000  0.20010000  1.0 -0.2995603512
C  C175  1  0.32330000  0.20280000  0.95010000  1.0 -0.2995603512
C  C176  1  0.67670000  0.79720000  0.45010000  1.0 -0.2995603512
C  C177  1  0.22670000  0.28600000  0.03260000  1.0 -0.2126460596
C  C178  1  0.77330000  0.71400000  0.53260000  1.0 -0.2126460596
C  C179  1  0.21400000  0.72670000  0.78260000  1.0 -0.2126460596
C  C180  1  0.78600000  0.27330000  0.28260000  1.0 -0.2126460596
C  C181  1  0.27330000  0.78600000  0.71740000  1.0 -0.2126460596
C  C182  1  0.72670000  0.21400000  0.21740000  1.0 -0.2126460596
C  C183  1  0.28600000  0.22670000  0.96740000  1.0 -0.2126460596
C  C184  1  0.71400000  0.77330000  0.46740000  1.0 -0.2126460596
C  C185  1  0.23130000  0.23560000  0.04010000  1.0 -0.1215150859
C  C186  1  0.76870000  0.76440000  0.54010000  1.0 -0.1215150859
C  C187  1  0.26440000  0.73130000  0.79010000  1.0 -0.1215150859
C  C188  1  0.73560000  0.26870000  0.29010000  1.0 -0.1215150859
C  C189  1  0.26870000  0.73560000  0.70990000  1.0 -0.1215150859
C  C190  1  0.73130000  0.26440000  0.20990000  1.0 -0.1215150859
C  C191  1  0.23560000  0.23130000  0.95990000  1.0 -0.1215150859
C  C192  1  0.76440000  0.76870000  0.45990000  1.0 -0.1215150859
C  C193  1  0.21450000  0.21880000  0.06430000  1.0 -0.1311117104
C  C194  1  0.78550000  0.78120000  0.56430000  1.0 -0.1391422032
C  C195  1  0.28120000  0.71450000  0.81430000  1.0 -0.1311117104
C  C196  1  0.71880000  0.28550000  0.31430000  1.0 -0.1391422032
C  C197  1  0.28550000  0.71880000  0.68570000  1.0 -0.1391422032
C  C198  1  0.71450000  0.28120000  0.18570000  1.0 -0.1311117104
C  C199  1  0.21880000  0.21450000  0.93570000  1.0 -0.1391422032
C  C200  1  0.78120000  0.78550000  0.43570000  1.0 -0.1391422032
C  C201  1  0.68300000  0.97560000  0.12920000  1.0 0.588788869
C  C202  1  0.31700000  0.02440000  0.62920000  1.0 0.588788869
C  C203  1  0.52440000  0.18300000  0.87920000  1.0 0.588788869
C  C204  1  0.47560000  0.81700000  0.37920000  1.0 0.588788869
C  C205  1  0.81700000  0.47560000  0.62080000  1.0 0.588788869
C  C206  1  0.18300000  0.52440000  0.12080000  1.0 0.588788869
C  C207  1  0.97560000  0.68300000  0.87080000  1.0 0.588788869
C  C208  1  0.02440000  0.31700000  0.37080000  1.0 0.588788869
C  C209  1  0.90550000  0.01400000  0.11800000  1.0 0.5403265265
C  C210  1  0.09450000  0.98600000  0.61800000  1.0 0.5403265265
C  C211  1  0.48600000  0.40550000  0.86800000  1.0 0.5403265265
C  C212  1  0.51400000  0.59450000  0.36800000  1.0 0.5403265265
C  C213  1  0.59450000  0.51400000  0.63200000  1.0 0.5403265265
C  C214  1  0.40550000  0.48600000  0.13200000  1.0 0.5403265265
C  C215  1  0.01400000  0.90550000  0.88200000  1.0 0.5403265265
C  C216  1  0.98600000  0.09450000  0.38200000  1.0 0.5403265265
C  C217  1  0.73920000  0.98770000  0.12446000  1.0 -0.0700895303
C  C218  1  0.26080000  0.01230000  0.62446000  1.0 -0.0700895303
C  C219  1  0.51230000  0.23920000  0.87446000  1.0 -0.0700895303
C  C220  1  0.48770000  0.76080000  0.37446000  1.0 -0.0700895303
C  C221  1  0.76080000  0.48770000  0.62554000  1.0 -0.0700895303
C  C222  1  0.23920000  0.51230000  0.12554000  1.0 -0.0700895303
C  C223  1  0.98770000  0.73920000  0.87554000  1.0 -0.0700895303
C  C224  1  0.01230000  0.26080000  0.37554000  1.0 -0.0700895303
C  C225  1  0.77100000  0.00270000  0.14560000  1.0 -0.1694716516
C  C226  1  0.22900000  0.99730000  0.64560000  1.0 -0.1694716516
C  C227  1  0.49730000  0.27100000  0.89560000  1.0 -0.1694716516
C  C228  1  0.50270000  0.72900000  0.39560000  1.0 -0.1694716516
C  C229  1  0.72900000  0.50270000  0.60440000  1.0 -0.1694716516
C  C230  1  0.27100000  0.49730000  0.10440000  1.0 -0.1694716516
C  C231  1  0.00270000  0.77100000  0.85440000  1.0 -0.1694716516
C  C232  1  0.99730000  0.22900000  0.35440000  1.0 -0.1694716516
C  C233  1  0.82200000  0.01180000  0.14340000  1.0 -0.1800400589
C  C234  1  0.17800000  0.98820000  0.64340000  1.0 -0.1800400589
C  C235  1  0.48820000  0.32200000  0.89340000  1.0 -0.1800400589
C  C236  1  0.51180000  0.67800000  0.39340000  1.0 -0.1800400589
C  C237  1  0.67800000  0.51180000  0.60660000  1.0 -0.1800400589
C  C238  1  0.32200000  0.48820000  0.10660000  1.0 -0.1800400589
C  C239  1  0.01180000  0.82200000  0.85660000  1.0 -0.1800400589
C  C240  1  0.98820000  0.17800000  0.35660000  1.0 -0.1800400589
C  C241  1  0.84700000  0.00860000  0.11850000  1.0 -0.0603687692
C  C242  1  0.15300000  0.99140000  0.61850000  1.0 -0.0603687692
C  C243  1  0.49140000  0.34700000  0.86850000  1.0 -0.0603687692
C  C244  1  0.50860000  0.65300000  0.36850000  1.0 -0.0603687692
C  C245  1  0.65300000  0.50860000  0.63150000  1.0 -0.0603687692
C  C246  1  0.34700000  0.49140000  0.13150000  1.0 -0.0603687692
C  C247  1  0.00860000  0.84700000  0.88150000  1.0 -0.0603687692
C  C248  1  0.99140000  0.15300000  0.38150000  1.0 -0.0603687692
C  C249  1  0.81620000  0.99600000  0.09640000  1.0 0.0395605579
C  C250  1  0.18380000  0.00400000  0.59640000  1.0 0.0395605579
C  C251  1  0.50400000  0.31620000  0.84640000  1.0 0.0323317731
C  C252  1  0.49600000  0.68380000  0.34640000  1.0 0.0395605579
C  C253  1  0.68380000  0.49600000  0.65360000  1.0 0.0395605579
C  C254  1  0.31620000  0.50400000  0.15360000  1.0 0.0395605579
C  C255  1  0.99600000  0.81620000  0.90360000  1.0 0.0395605579
C  C256  1  0.00400000  0.18380000  0.40360000  1.0 0.0323317731
C  C257  1  0.76250000  0.98380000  0.09986000  1.0 0.0395605579
C  C258  1  0.23750000  0.01620000  0.59986000  1.0 0.0395605579
C  C259  1  0.51620000  0.26250000  0.84986000  1.0 0.0395605579
C  C260  1  0.48380000  0.73750000  0.34986000  1.0 0.0395605579
C  C261  1  0.73750000  0.48380000  0.65014000  1.0 0.0395605579
C  C262  1  0.26250000  0.51620000  0.15014000  1.0 0.0395605579
C  C263  1  0.98380000  0.76250000  0.90014000  1.0 0.0395605579
C  C264  1  0.01620000  0.23750000  0.40014000  1.0 0.0395605579
C  C265  1  0.83400000  0.99190000  0.06742000  1.0 -0.1101629671
C  C266  1  0.16600000  0.00810000  0.56742000  1.0 -0.1101629671
C  C267  1  0.50810000  0.33400000  0.81742000  1.0 -0.1101629671
C  C268  1  0.49190000  0.66600000  0.31742000  1.0 -0.1101629671
C  C269  1  0.66600000  0.49190000  0.68258000  1.0 -0.1101629671
C  C270  1  0.33400000  0.50810000  0.18258000  1.0 -0.1101629671
C  C271  1  0.99190000  0.83400000  0.93258000  1.0 -0.1101629671
C  C272  1  0.00810000  0.16600000  0.43258000  1.0 -0.1101629671
C  C273  1  0.73540000  0.97390000  0.07295000  1.0 -0.1101629671
C  C274  1  0.26460000  0.02610000  0.57295000  1.0 -0.1101629671
C  C275  1  0.52610000  0.23540000  0.82295000  1.0 -0.1101629671
C  C276  1  0.47390000  0.76460000  0.32295000  1.0 -0.1101629671
C  C277  1  0.76460000  0.47390000  0.67705000  1.0 -0.1101629671
C  C278  1  0.23540000  0.52610000  0.17705000  1.0 -0.1101629671
C  C279  1  0.97390000  0.73540000  0.92705000  1.0 -0.1101629671
C  C280  1  0.02610000  0.26460000  0.42705000  1.0 -0.1101629671
C  C281  1  0.79910000  0.03180000  0.05190000  1.0 0.0323317731
C  C282  1  0.20090000  0.96820000  0.55190000  1.0 0.0395605579
C  C283  1  0.46820000  0.29910000  0.80190000  1.0 0.0323317731
C  C284  1  0.53180000  0.70090000  0.30190000  1.0 0.0323317731
C  C285  1  0.70090000  0.53180000  0.69810000  1.0 0.0323317731
C  C286  1  0.29910000  0.46820000  0.19810000  1.0 0.0323317731
C  C287  1  0.03180000  0.79910000  0.94810000  1.0 0.0323317731
C  C288  1  0.96820000  0.20090000  0.44810000  1.0 0.0323317731
C  C289  1  0.74500000  0.01970000  0.05520000  1.0 0.0323317731
C  C290  1  0.25500000  0.98030000  0.55520000  1.0 0.0323317731
C  C291  1  0.48030000  0.24500000  0.80520000  1.0 0.0323317731
C  C292  1  0.51970000  0.75500000  0.30520000  1.0 0.0323317731
C  C293  1  0.75500000  0.51970000  0.69480000  1.0 0.0323317731
C  C294  1  0.24500000  0.48030000  0.19480000  1.0 0.0323317731
C  C295  1  0.01970000  0.74500000  0.94480000  1.0 0.0323317731
C  C296  1  0.98030000  0.25500000  0.44480000  1.0 0.0323317731
C  C297  1  0.70580000  0.05090000  0.04350000  1.0 -0.1694716516
C  C298  1  0.29420000  0.94910000  0.54350000  1.0 -0.1694716516
C  C299  1  0.44910000  0.20580000  0.79350000  1.0 -0.1694716516
C  C300  1  0.55090000  0.79420000  0.29350000  1.0 -0.1694716516
C  C301  1  0.79420000  0.55090000  0.70650000  1.0 -0.1694716516
C  C302  1  0.20580000  0.44910000  0.20650000  1.0 -0.1694716516
C  C303  1  0.05090000  0.70580000  0.95650000  1.0 -0.1694716516
C  C304  1  0.94910000  0.29420000  0.45650000  1.0 -0.1694716516
C  C305  1  0.72540000  0.09130000  0.02670000  1.0 -0.1311117104
C  C306  1  0.27460000  0.90870000  0.52670000  1.0 -0.1311117104
C  C307  1  0.40870000  0.22540000  0.77670000  1.0 -0.1311117104
C  C308  1  0.59130000  0.77460000  0.27670000  1.0 -0.1311117104
C  C309  1  0.77460000  0.59130000  0.72330000  1.0 -0.1311117104
C  C310  1  0.22540000  0.40870000  0.22330000  1.0 -0.1311117104
C  C311  1  0.09130000  0.72540000  0.97330000  1.0 -0.1311117104
C  C312  1  0.90870000  0.27460000  0.47330000  1.0 -0.1311117104
C  C313  1  0.77490000  0.09970000  0.02250000  1.0 -0.1012699921
C  C314  1  0.22510000  0.90030000  0.52250000  1.0 -0.1012699921
C  C315  1  0.40030000  0.27490000  0.77250000  1.0 -0.1012699921
C  C316  1  0.59970000  0.72510000  0.27250000  1.0 -0.1012699921
C  C317  1  0.72510000  0.59970000  0.72750000  1.0 -0.1012699921
C  C318  1  0.27490000  0.40030000  0.22750000  1.0 -0.1012699921
C  C319  1  0.09970000  0.77490000  0.97750000  1.0 -0.1012699921
C  C320  1  0.90030000  0.22510000  0.47750000  1.0 -0.1012699921
C  C321  1  0.81250000  0.06960000  0.03570000  1.0 -0.1511918713
C  C322  1  0.18750000  0.93040000  0.53570000  1.0 -0.1511918713
C  C323  1  0.43040000  0.31250000  0.78570000  1.0 -0.1511918713
C  C324  1  0.56960000  0.68750000  0.28570000  1.0 -0.1511918713
C  C325  1  0.68750000  0.56960000  0.71430000  1.0 -0.1511918713
C  C326  1  0.31250000  0.43040000  0.21430000  1.0 -0.1511918713
C  C327  1  0.06960000  0.81250000  0.96430000  1.0 -0.1511918713
C  C328  1  0.93040000  0.18750000  0.46430000  1.0 -0.1511918713
C  C329  1  0.81770000  0.93810000  0.05844000  1.0 0.0323317731
C  C330  1  0.18230000  0.06190000  0.55844000  1.0 0.0323317731
C  C331  1  0.56190000  0.31770000  0.80844000  1.0 0.0323317731
C  C332  1  0.43810000  0.68230000  0.30844000  1.0 0.0323317731
C  C333  1  0.68230000  0.43810000  0.69156000  1.0 0.0323317731
C  C334  1  0.31770000  0.56190000  0.19156000  1.0 0.0323317731
C  C335  1  0.93810000  0.81770000  0.94156000  1.0 0.0323317731
C  C336  1  0.06190000  0.18230000  0.44156000  1.0 0.0323317731
C  C337  1  0.76330000  0.92850000  0.06120000  1.0 0.0395605579
C  C338  1  0.23670000  0.07150000  0.56120000  1.0 0.0395605579
C  C339  1  0.57150000  0.26330000  0.81120000  1.0 0.0395605579
C  C340  1  0.42850000  0.73670000  0.31120000  1.0 0.0395605579
C  C341  1  0.73670000  0.42850000  0.68880000  1.0 0.0395605579
C  C342  1  0.26330000  0.57150000  0.18880000  1.0 0.0395605579
C  C343  1  0.92850000  0.76330000  0.93880000  1.0 0.0395605579
C  C344  1  0.07150000  0.23670000  0.43880000  1.0 0.0395605579
C  C345  1  0.74330000  0.87950000  0.05410000  1.0 -0.1600984936
C  C346  1  0.25670000  0.12050000  0.55410000  1.0 -0.1600984936
C  C347  1  0.62050000  0.24330000  0.80410000  1.0 -0.1600984936
C  C348  1  0.37950000  0.75670000  0.30410000  1.0 -0.1600984936
C  C349  1  0.75670000  0.37950000  0.69590000  1.0 -0.1600984936
C  C350  1  0.24330000  0.62050000  0.19590000  1.0 -0.1600984936
C  C351  1  0.87950000  0.74330000  0.94590000  1.0 -0.1600984936
C  C352  1  0.12050000  0.25670000  0.44590000  1.0 -0.1600984936
C  C353  1  0.77820000  0.84230000  0.04080000  1.0 -0.1101629671
C  C354  1  0.22180000  0.15770000  0.54080000  1.0 -0.1101629671
C  C355  1  0.65770000  0.27820000  0.79080000  1.0 -0.1101629671
C  C356  1  0.34230000  0.72180000  0.29080000  1.0 -0.1101629671
C  C357  1  0.72180000  0.34230000  0.70920000  1.0 -0.1101629671
C  C358  1  0.27820000  0.65770000  0.20920000  1.0 -0.1101629671
C  C359  1  0.84230000  0.77820000  0.95920000  1.0 -0.1101629671
C  C360  1  0.15770000  0.22180000  0.45920000  1.0 -0.1101629671
C  C361  1  0.82790000  0.85570000  0.03810000  1.0 -0.1012699921
C  C362  1  0.17210000  0.14430000  0.53810000  1.0 -0.1012699921
C  C363  1  0.64430000  0.32790000  0.78810000  1.0 -0.1012699921
C  C364  1  0.35570000  0.67210000  0.28810000  1.0 -0.1012699921
C  C365  1  0.67210000  0.35570000  0.71190000  1.0 -0.1012699921
C  C366  1  0.32790000  0.64430000  0.21190000  1.0 -0.1012699921
C  C367  1  0.85570000  0.82790000  0.96190000  1.0 -0.1012699921
C  C368  1  0.14430000  0.17210000  0.46190000  1.0 -0.1012699921
C  C369  1  0.84910000  0.90280000  0.04690000  1.0 -0.1391422032
C  C370  1  0.15090000  0.09720000  0.54690000  1.0 -0.1391422032
C  C371  1  0.59720000  0.34910000  0.79690000  1.0 -0.1391422032
C  C372  1  0.40280000  0.65090000  0.29690000  1.0 -0.1391422032
C  C373  1  0.65090000  0.40280000  0.70310000  1.0 -0.1391422032
C  C374  1  0.34910000  0.59720000  0.20310000  1.0 -0.1391422032
C  C375  1  0.90280000  0.84910000  0.95310000  1.0 -0.1391422032
C  C376  1  0.09720000  0.15090000  0.45310000  1.0 -0.1391422032
C  C377  1  0.00280000  0.54110000  0.04489000  1.0 0.5546660331
C  C378  1  0.99720000  0.45890000  0.54489000  1.0 0.5550255683
C  C379  1  0.95890000  0.50280000  0.79489000  1.0 0.5546660331
C  C380  1  0.04110000  0.49720000  0.29489000  1.0 0.5546660331
C  C381  1  0.49720000  0.04110000  0.70511000  1.0 0.5546660331
C  C382  1  0.50280000  0.95890000  0.20511000  1.0 0.5546660331
C  C383  1  0.54110000  0.00280000  0.95511000  1.0 0.5546660331
C  C384  1  0.45890000  0.99720000  0.45511000  1.0 0.5546660331
C  C385  1  0.96900000  0.54450000  0.93211000  1.0 0.5815726911
C  C386  1  0.03100000  0.45550000  0.43211000  1.0 0.5815726911
C  C387  1  0.95550000  0.46900000  0.68211000  1.0 0.5815726911
C  C388  1  0.04450000  0.53100000  0.18211000  1.0 0.5815726911
C  C389  1  0.53100000  0.04450000  0.81789000  1.0 0.5815726911
C  C390  1  0.46900000  0.95550000  0.31789000  1.0 0.5815726911
C  C391  1  0.54450000  0.96900000  0.06789000  1.0 0.5815726911
C  C392  1  0.45550000  0.03100000  0.56789000  1.0 0.5815726911
C  C393  1  0.99280000  0.53670000  0.01597000  1.0 -0.0899115117
C  C394  1  0.00720000  0.46330000  0.51597000  1.0 -0.0899115117
C  C395  1  0.96330000  0.49280000  0.76597000  1.0 -0.0899115117
C  C396  1  0.03670000  0.50720000  0.26597000  1.0 -0.0899115117
C  C397  1  0.50720000  0.03670000  0.73403000  1.0 -0.0899115117
C  C398  1  0.49280000  0.96330000  0.23403000  1.0 -0.0899115117
C  C399  1  0.53670000  0.99280000  0.98403000  1.0 -0.0899115117
C  C400  1  0.46330000  0.00720000  0.48403000  1.0 -0.0899115117
C  C401  1  0.97480000  0.58290000  0.00311000  1.0 -0.1311117104
C  C402  1  0.02520000  0.41710000  0.50311000  1.0 -0.1311117104
C  C403  1  0.91710000  0.47480000  0.75311000  1.0 -0.1311117104
C  C404  1  0.08290000  0.52520000  0.25311000  1.0 -0.1311117104
C  C405  1  0.52520000  0.08290000  0.74689000  1.0 -0.1311117104
C  C406  1  0.47480000  0.91710000  0.24689000  1.0 -0.1311117104
C  C407  1  0.58290000  0.97480000  0.99689000  1.0 -0.1311117104
C  C408  1  0.41710000  0.02520000  0.49689000  1.0 -0.1311117104
C  C409  1  0.96970000  0.58330000  0.97674000  1.0 -0.1215150859
C  C410  1  0.03030000  0.41670000  0.47674000  1.0 -0.1215150859
C  C411  1  0.91670000  0.46970000  0.72674000  1.0 -0.1215150859
C  C412  1  0.08330000  0.53030000  0.22674000  1.0 -0.1215150859
C  C413  1  0.53030000  0.08330000  0.77326000  1.0 -0.1215150859
C  C414  1  0.46970000  0.91670000  0.27326000  1.0 -0.1215150859
C  C415  1  0.58330000  0.96970000  0.02326000  1.0 -0.1215150859
C  C416  1  0.41670000  0.03030000  0.52326000  1.0 -0.1215150859
C  C417  1  0.97320000  0.53870000  0.96162000  1.0 -0.0603687692
C  C418  1  0.02680000  0.46130000  0.46162000  1.0 -0.0603687692
C  C419  1  0.96130000  0.47320000  0.71162000  1.0 -0.0603687692
C  C420  1  0.03870000  0.52680000  0.21162000  1.0 -0.0603687692
C  C421  1  0.52680000  0.03870000  0.78838000  1.0 -0.0603687692
C  C422  1  0.47320000  0.96130000  0.28838000  1.0 -0.0603687692
C  C423  1  0.53870000  0.97320000  0.03838000  1.0 -0.0603687692
C  C424  1  0.46130000  0.02680000  0.53838000  1.0 -0.0603687692
C  C425  1  0.99010000  0.49210000  0.97357000  1.0 0.0208796028
C  C426  1  0.00990000  0.50790000  0.47357000  1.0 0.0323317731
C  C427  1  0.00790000  0.49010000  0.72357000  1.0 0.0208796028
C  C428  1  0.99210000  0.50990000  0.22357000  1.0 0.0323317731
C  C429  1  0.50990000  0.99210000  0.77643000  1.0 0.0208796028
C  C430  1  0.49010000  0.00790000  0.27643000  1.0 0.0323317731
C  C431  1  0.49210000  0.99010000  0.02643000  1.0 0.0323317731
C  C432  1  0.50790000  0.00990000  0.52643000  1.0 0.0323317731
C  C433  1  0.99930000  0.49180000  0.00119000  1.0 0.008996277
C  C434  1  0.00070000  0.50820000  0.50119000  1.0 0.008996277
C  C435  1  0.00820000  0.49930000  0.75119000  1.0 0.008996277
C  C436  1  0.99180000  0.50070000  0.25119000  1.0 0.008996277
C  C437  1  0.50070000  0.99180000  0.74881000  1.0 0.008996277
C  C438  1  0.49930000  0.00820000  0.24881000  1.0 0.008996277
C  C439  1  0.49180000  0.99930000  0.99881000  1.0 0.008996277
C  C440  1  0.50820000  0.00070000  0.49881000  1.0 0.008996277
C  C441  1  0.99760000  0.43800000  0.96110000  1.0 -0.1101629671
C  C442  1  0.00240000  0.56200000  0.46110000  1.0 -0.1215150859
C  C443  1  0.06200000  0.49760000  0.71110000  1.0 -0.1101629671
C  C444  1  0.93800000  0.50240000  0.21110000  1.0 -0.1101629671
C  C445  1  0.50240000  0.93800000  0.78890000  1.0 -0.1101629671
C  C446  1  0.49760000  0.06200000  0.28890000  1.0 -0.1101629671
C  C447  1  0.43800000  0.99760000  0.03890000  1.0 -0.1101629671
C  C448  1  0.56200000  0.00240000  0.53890000  1.0 -0.1101629671
C  C449  1  0.01560000  0.43720000  0.01060000  1.0 -0.1215150859
C  C450  1  0.98440000  0.56280000  0.51060000  1.0 -0.1215150859
C  C451  1  0.06280000  0.51560000  0.76060000  1.0 -0.1215150859
C  C452  1  0.93720000  0.48440000  0.26060000  1.0 -0.1215150859
C  C453  1  0.48440000  0.93720000  0.73940000  1.0 -0.1215150859
C  C454  1  0.51560000  0.06280000  0.23940000  1.0 -0.1215150859
C  C455  1  0.43720000  0.01560000  0.98940000  1.0 -0.1215150859
C  C456  1  0.56280000  0.98440000  0.48940000  1.0 -0.1215150859
C  C457  1  0.96160000  0.39970000  0.97640000  1.0 0.0323317731
C  C458  1  0.03840000  0.60030000  0.47640000  1.0 0.0323317731
C  C459  1  0.10030000  0.46160000  0.72640000  1.0 0.0323317731
C  C460  1  0.89970000  0.53840000  0.22640000  1.0 0.0323317731
C  C461  1  0.53840000  0.89970000  0.77360000  1.0 0.0323317731
C  C462  1  0.46160000  0.10030000  0.27360000  1.0 0.0323317731
C  C463  1  0.39970000  0.96160000  0.02360000  1.0 0.0323317731
C  C464  1  0.60030000  0.03840000  0.52360000  1.0 0.0323317731
C  C465  1  0.97300000  0.39950000  0.00310000  1.0 0.0208796028
C  C466  1  0.02700000  0.60050000  0.50310000  1.0 0.0208796028
C  C467  1  0.10050000  0.47300000  0.75310000  1.0 0.0208796028
C  C468  1  0.89950000  0.52700000  0.25310000  1.0 0.0208796028
C  C469  1  0.52700000  0.89950000  0.74690000  1.0 0.0208796028
C  C470  1  0.47300000  0.10050000  0.24690000  1.0 0.0208796028
C  C471  1  0.39950000  0.97300000  0.99690000  1.0 0.0208796028
C  C472  1  0.60050000  0.02700000  0.49690000  1.0 0.0208796028
C  C473  1  0.94920000  0.36340000  0.02020000  1.0 -0.1391422032
C  C474  1  0.05080000  0.63660000  0.52020000  1.0 -0.1391422032
C  C475  1  0.13660000  0.44920000  0.77020000  1.0 -0.1391422032
C  C476  1  0.86340000  0.55080000  0.27020000  1.0 -0.1391422032
C  C477  1  0.55080000  0.86340000  0.72980000  1.0 -0.1391422032
C  C478  1  0.44920000  0.13660000  0.22980000  1.0 -0.1391422032
C  C479  1  0.36340000  0.94920000  0.97980000  1.0 -0.1391422032
C  C480  1  0.63660000  0.05080000  0.47980000  1.0 -0.1391422032
C  C481  1  0.91180000  0.33080000  0.00690000  1.0 -0.1311117104
C  C482  1  0.08820000  0.66920000  0.50690000  1.0 -0.1311117104
C  C483  1  0.16920000  0.41180000  0.75690000  1.0 -0.1311117104
C  C484  1  0.83080000  0.58820000  0.25690000  1.0 -0.1311117104
C  C485  1  0.58820000  0.83080000  0.74310000  1.0 -0.1311117104
C  C486  1  0.41180000  0.16920000  0.24310000  1.0 -0.1311117104
C  C487  1  0.33080000  0.91180000  0.99310000  1.0 -0.1311117104
C  C488  1  0.66920000  0.08820000  0.49310000  1.0 -0.1311117104
C  C489  1  0.89540000  0.33650000  0.98300000  1.0 -0.1012699921
C  C490  1  0.10460000  0.66350000  0.48300000  1.0 -0.1012699921
C  C491  1  0.16350000  0.39540000  0.73300000  1.0 -0.1012699921
C  C492  1  0.83650000  0.60460000  0.23300000  1.0 -0.1012699921
C  C493  1  0.60460000  0.83650000  0.76700000  1.0 -0.1012699921
C  C494  1  0.39540000  0.16350000  0.26700000  1.0 -0.1012699921
C  C495  1  0.33650000  0.89540000  0.01700000  1.0 -0.1012699921
C  C496  1  0.66350000  0.10460000  0.51700000  1.0 -0.1012699921
C  C497  1  0.92800000  0.36530000  0.96770000  1.0 -0.1600984936
C  C498  1  0.07200000  0.63470000  0.46770000  1.0 -0.1600984936
C  C499  1  0.13470000  0.42800000  0.71770000  1.0 -0.1600984936
C  C500  1  0.86530000  0.57200000  0.21770000  1.0 -0.1600984936
C  C501  1  0.57200000  0.86530000  0.78230000  1.0 -0.1600984936
C  C502  1  0.42800000  0.13470000  0.28230000  1.0 -0.1600984936
C  C503  1  0.36530000  0.92800000  0.03230000  1.0 -0.1600984936
C  C504  1  0.63470000  0.07200000  0.53230000  1.0 -0.1600984936
C  C505  1  0.05260000  0.42340000  0.96780000  1.0 0.0395605579
C  C506  1  0.94740000  0.57660000  0.46780000  1.0 0.0395605579
C  C507  1  0.07660000  0.55260000  0.71780000  1.0 0.0395605579
C  C508  1  0.92340000  0.44740000  0.21780000  1.0 0.0395605579
C  C509  1  0.44740000  0.92340000  0.78220000  1.0 0.0395605579
C  C510  1  0.55260000  0.07660000  0.28220000  1.0 0.0395605579
C  C511  1  0.42340000  0.05260000  0.03220000  1.0 0.0395605579
C  C512  1  0.57660000  0.94740000  0.53220000  1.0 0.0395605579
C  C513  1  0.06230000  0.42200000  0.99570000  1.0 0.0323317731
C  C514  1  0.93770000  0.57800000  0.49570000  1.0 0.0323317731
C  C515  1  0.07800000  0.56230000  0.74570000  1.0 0.0323317731
C  C516  1  0.92200000  0.43770000  0.24570000  1.0 0.0323317731
C  C517  1  0.43770000  0.92200000  0.75430000  1.0 0.0323317731
C  C518  1  0.56230000  0.07800000  0.25430000  1.0 0.0323317731
C  C519  1  0.42200000  0.06230000  0.00430000  1.0 0.0323317731
C  C520  1  0.57800000  0.93770000  0.50430000  1.0 0.0208796028
C  C521  1  0.11110000  0.40740000  0.00480000  1.0 -0.2680720443
C  C522  1  0.88890000  0.59260000  0.50480000  1.0 -0.2680720443
C  C523  1  0.09260000  0.61110000  0.75480000  1.0 -0.2680720443
C  C524  1  0.90740000  0.38890000  0.25480000  1.0 -0.2680720443
C  C525  1  0.38890000  0.90740000  0.74520000  1.0 -0.2680720443
C  C526  1  0.61110000  0.09260000  0.24520000  1.0 -0.2680720443
C  C527  1  0.40740000  0.11110000  0.99520000  1.0 -0.2680720443
C  C528  1  0.59260000  0.88890000  0.49520000  1.0 -0.2680720443
C  C529  1  0.15010000  0.39670000  0.98560000  1.0 -0.2599345947
C  C530  1  0.84990000  0.60330000  0.48560000  1.0 -0.2599345947
C  C531  1  0.10330000  0.65010000  0.73560000  1.0 -0.2599345947
C  C532  1  0.89670000  0.34990000  0.23560000  1.0 -0.2599345947
C  C533  1  0.34990000  0.89670000  0.76440000  1.0 -0.2599345947
C  C534  1  0.65010000  0.10330000  0.26440000  1.0 -0.2599345947
C  C535  1  0.39670000  0.15010000  0.01440000  1.0 -0.2599345947
C  C536  1  0.60330000  0.84990000  0.51440000  1.0 -0.2599345947
C  C537  1  0.13800000  0.39120000  0.95980000  1.0 -0.1800400589
C  C538  1  0.86200000  0.60880000  0.45980000  1.0 -0.1800400589
C  C539  1  0.10880000  0.63800000  0.70980000  1.0 -0.1800400589
C  C540  1  0.89120000  0.36200000  0.20980000  1.0 -0.1800400589
C  C541  1  0.36200000  0.89120000  0.79020000  1.0 -0.1800400589
C  C542  1  0.63800000  0.10880000  0.29020000  1.0 -0.1800400589
C  C543  1  0.39120000  0.13800000  0.04020000  1.0 -0.1800400589
C  C544  1  0.60880000  0.86200000  0.54020000  1.0 -0.1800400589
C  C545  1  0.08970000  0.40720000  0.95080000  1.0 -0.1215150859
C  C546  1  0.91030000  0.59280000  0.45080000  1.0 -0.1215150859
C  C547  1  0.09280000  0.58970000  0.70080000  1.0 -0.1215150859
C  C548  1  0.90720000  0.41030000  0.20080000  1.0 -0.1215150859
C  C549  1  0.41030000  0.90720000  0.79920000  1.0 -0.1215150859
C  C550  1  0.58970000  0.09280000  0.29920000  1.0 -0.1215150859
C  C551  1  0.40720000  0.08970000  0.04920000  1.0 -0.1215150859
C  C552  1  0.59280000  0.91030000  0.54920000  1.0 -0.1215150859
C  C553  1  0.03410000  0.67120000  0.12160000  1.0 0.5714297464
C  C554  1  0.96590000  0.32880000  0.62160000  1.0 0.5714297464
C  C555  1  0.82880000  0.53410000  0.87160000  1.0 0.5714297464
C  C556  1  0.17120000  0.46590000  0.37160000  1.0 0.5714297464
C  C557  1  0.46590000  0.17120000  0.62840000  1.0 0.5714297464
C  C558  1  0.53410000  0.82880000  0.12840000  1.0 0.5714297464
C  C559  1  0.67120000  0.03410000  0.87840000  1.0 0.5714297464
C  C560  1  0.32880000  0.96590000  0.37840000  1.0 0.5714297464
C  C561  1  0.04250000  0.89810000  0.12580000  1.0 0.5815726911
C  C562  1  0.95750000  0.10190000  0.62580000  1.0 0.5815726911
C  C563  1  0.60190000  0.54250000  0.87580000  1.0 0.5815726911
C  C564  1  0.39810000  0.45750000  0.37580000  1.0 0.5815726911
C  C565  1  0.45750000  0.39810000  0.62420000  1.0 0.5815726911
C  C566  1  0.54250000  0.60190000  0.12420000  1.0 0.5815726911
C  C567  1  0.89810000  0.04250000  0.87420000  1.0 0.5815726911
C  C568  1  0.10190000  0.95750000  0.37420000  1.0 0.5815726911
C  C569  1  0.03000000  0.73000000  0.12280000  1.0 -0.0603687692
C  C570  1  0.97000000  0.27000000  0.62280000  1.0 -0.0603687692
C  C571  1  0.77000000  0.53000000  0.87280000  1.0 -0.0603687692
C  C572  1  0.23000000  0.47000000  0.37280000  1.0 -0.0603687692
C  C573  1  0.47000000  0.23000000  0.62720000  1.0 -0.0603687692
C  C574  1  0.53000000  0.77000000  0.12720000  1.0 -0.0603687692
C  C575  1  0.73000000  0.03000000  0.87720000  1.0 -0.0603687692
C  C576  1  0.27000000  0.97000000  0.37720000  1.0 -0.0603687692
C  C577  1  0.06790000  0.75650000  0.13810000  1.0 -0.1215150859
C  C578  1  0.93210000  0.24350000  0.63810000  1.0 -0.1215150859
C  C579  1  0.74350000  0.56790000  0.88810000  1.0 -0.1215150859
C  C580  1  0.25650000  0.43210000  0.38810000  1.0 -0.1215150859
C  C581  1  0.43210000  0.25650000  0.61190000  1.0 -0.1215150859
C  C582  1  0.56790000  0.74350000  0.11190000  1.0 -0.1215150859
C  C583  1  0.75650000  0.06790000  0.86190000  1.0 -0.1215150859
C  C584  1  0.24350000  0.93210000  0.36190000  1.0 -0.1215150859
C  C585  1  0.07160000  0.80870000  0.13980000  1.0 -0.1215150859
C  C586  1  0.92840000  0.19130000  0.63980000  1.0 -0.1215150859
C  C587  1  0.69130000  0.57160000  0.88980000  1.0 -0.1215150859
C  C588  1  0.30870000  0.42840000  0.38980000  1.0 -0.1215150859
C  C589  1  0.42840000  0.30870000  0.61020000  1.0 -0.1215150859
C  C590  1  0.57160000  0.69130000  0.11020000  1.0 -0.1215150859
C  C591  1  0.80870000  0.07160000  0.86020000  1.0 -0.1215150859
C  C592  1  0.19130000  0.92840000  0.36020000  1.0 -0.1215150859
C  C593  1  0.03570000  0.83940000  0.12500000  1.0 -0.0603687692
C  C594  1  0.96430000  0.16060000  0.62500000  1.0 -0.0603687692
C  C595  1  0.66060000  0.53570000  0.87500000  1.0 -0.0603687692
C  C596  1  0.33940000  0.46430000  0.37500000  1.0 -0.0603687692
C  C597  1  0.46430000  0.33940000  0.62500000  1.0 -0.0603687692
C  C598  1  0.53570000  0.66060000  0.12500000  1.0 -0.0603687692
C  C599  1  0.83940000  0.03570000  0.87500000  1.0 -0.0603687692
C  C600  1  0.16060000  0.96430000  0.37500000  1.0 -0.0603687692
C  C601  1  0.99690000  0.81620000  0.10950000  1.0 0.0395605579
C  C602  1  0.00310000  0.18380000  0.60950000  1.0 0.0395605579
C  C603  1  0.68380000  0.49690000  0.85950000  1.0 0.0395605579
C  C604  1  0.31620000  0.50310000  0.35950000  1.0 0.0395605579
C  C605  1  0.50310000  0.31620000  0.64050000  1.0 0.0395605579
C  C606  1  0.49690000  0.68380000  0.14050000  1.0 0.0395605579
C  C607  1  0.81620000  0.99690000  0.89050000  1.0 0.0395605579
C  C608  1  0.18380000  0.00310000  0.39050000  1.0 0.0395605579
C  C609  1  0.99410000  0.76030000  0.10950000  1.0 0.0395605579
C  C610  1  0.00590000  0.23970000  0.60950000  1.0 0.0395605579
C  C611  1  0.73970000  0.49410000  0.85950000  1.0 0.0395605579
C  C612  1  0.26030000  0.50590000  0.35950000  1.0 0.0395605579
C  C613  1  0.50590000  0.26030000  0.64050000  1.0 0.0395605579
C  C614  1  0.49410000  0.73970000  0.14050000  1.0 0.0395605579
C  C615  1  0.76030000  0.99410000  0.89050000  1.0 0.0395605579
C  C616  1  0.23970000  0.00590000  0.39050000  1.0 0.0395605579
C  C617  1  0.95670000  0.84240000  0.09170000  1.0 -0.1101629671
C  C618  1  0.04330000  0.15760000  0.59170000  1.0 -0.1101629671
C  C619  1  0.65760000  0.45670000  0.84170000  1.0 -0.1101629671
C  C620  1  0.34240000  0.54330000  0.34170000  1.0 -0.1101629671
C  C621  1  0.54330000  0.34240000  0.65830000  1.0 -0.1101629671
C  C622  1  0.45670000  0.65760000  0.15830000  1.0 -0.1101629671
C  C623  1  0.84240000  0.95670000  0.90830000  1.0 -0.1101629671
C  C624  1  0.15760000  0.04330000  0.40830000  1.0 -0.1101629671
C  C625  1  0.94570000  0.74320000  0.09410000  1.0 -0.1311117104
C  C626  1  0.05430000  0.25680000  0.59410000  1.0 -0.1311117104
C  C627  1  0.75680000  0.44570000  0.84410000  1.0 -0.1311117104
C  C628  1  0.24320000  0.55430000  0.34410000  1.0 -0.1311117104
C  C629  1  0.55430000  0.24320000  0.65590000  1.0 -0.1311117104
C  C630  1  0.44570000  0.75680000  0.15590000  1.0 -0.1311117104
C  C631  1  0.74320000  0.94570000  0.90590000  1.0 -0.1311117104
C  C632  1  0.25680000  0.05430000  0.40590000  1.0 -0.1311117104
C  C633  1  0.90170000  0.82730000  0.10310000  1.0 0.0395605579
C  C634  1  0.09830000  0.17270000  0.60310000  1.0 0.0395605579
C  C635  1  0.67270000  0.40170000  0.85310000  1.0 0.0395605579
C  C636  1  0.32730000  0.59830000  0.35310000  1.0 0.0395605579
C  C637  1  0.59830000  0.32730000  0.64690000  1.0 0.0395605579
C  C638  1  0.40170000  0.67270000  0.14690000  1.0 0.0395605579
C  C639  1  0.82730000  0.90170000  0.89690000  1.0 0.0395605579
C  C640  1  0.17270000  0.09830000  0.39690000  1.0 0.0395605579
C  C641  1  0.89870000  0.77140000  0.10510000  1.0 -0.0097360927
C  C642  1  0.10130000  0.22860000  0.60510000  1.0 -0.0097360927
C  C643  1  0.72860000  0.39870000  0.85510000  1.0 -0.0097360927
C  C644  1  0.27140000  0.60130000  0.35510000  1.0 -0.0097360927
C  C645  1  0.60130000  0.27140000  0.64490000  1.0 -0.0097360927
C  C646  1  0.39870000  0.72860000  0.14490000  1.0 -0.0097360927
C  C647  1  0.77140000  0.89870000  0.89490000  1.0 -0.0097360927
C  C648  1  0.22860000  0.10130000  0.39490000  1.0 -0.0097360927
C  C649  1  0.85440000  0.74820000  0.11600000  1.0 -0.188773807
C  C650  1  0.14560000  0.25180000  0.61600000  1.0 -0.188773807
C  C651  1  0.75180000  0.35440000  0.86600000  1.0 -0.188773807
C  C652  1  0.24820000  0.64560000  0.36600000  1.0 -0.188773807
C  C653  1  0.64560000  0.24820000  0.63400000  1.0 -0.188773807
C  C654  1  0.35440000  0.75180000  0.13400000  1.0 -0.188773807
C  C655  1  0.74820000  0.85440000  0.88400000  1.0 -0.188773807
C  C656  1  0.25180000  0.14560000  0.38400000  1.0 -0.188773807
C  C657  1  0.81720000  0.78480000  0.12550000  1.0 -0.1101629671
C  C658  1  0.18280000  0.21520000  0.62550000  1.0 -0.1101629671
C  C659  1  0.71520000  0.31720000  0.87550000  1.0 -0.1101629671
C  C660  1  0.28480000  0.68280000  0.37550000  1.0 -0.1101629671
C  C661  1  0.68280000  0.28480000  0.62450000  1.0 -0.1101629671
C  C662  1  0.31720000  0.71520000  0.12450000  1.0 -0.1101629671
C  C663  1  0.78480000  0.81720000  0.87450000  1.0 -0.1101629671
C  C664  1  0.21520000  0.18280000  0.37450000  1.0 -0.1101629671
C  C665  1  0.81720000  0.83510000  0.12130000  1.0 -0.1101629671
C  C666  1  0.18280000  0.16490000  0.62130000  1.0 -0.1101629671
C  C667  1  0.66490000  0.31720000  0.87130000  1.0 -0.1101629671
C  C668  1  0.33510000  0.68280000  0.37130000  1.0 -0.1101629671
C  C669  1  0.68280000  0.33510000  0.62870000  1.0 -0.1101629671
C  C670  1  0.31720000  0.66490000  0.12870000  1.0 -0.1101629671
C  C671  1  0.83510000  0.81720000  0.87870000  1.0 -0.1101629671
C  C672  1  0.16490000  0.18280000  0.37870000  1.0 -0.1101629671
C  C673  1  0.86340000  0.85760000  0.11120000  1.0 -0.1391422032
C  C674  1  0.13660000  0.14240000  0.61120000  1.0 -0.1311117104
C  C675  1  0.64240000  0.36340000  0.86120000  1.0 -0.1311117104
C  C676  1  0.35760000  0.63660000  0.36120000  1.0 -0.1311117104
C  C677  1  0.63660000  0.35760000  0.63880000  1.0 -0.1311117104
C  C678  1  0.36340000  0.64240000  0.13880000  1.0 -0.1311117104
C  C679  1  0.85760000  0.86340000  0.88880000  1.0 -0.1311117104
C  C680  1  0.14240000  0.13660000  0.38880000  1.0 -0.1311117104
C  C681  1  0.96240000  0.81560000  0.06540000  1.0 0.0395605579
C  C682  1  0.03760000  0.18440000  0.56540000  1.0 0.0395605579
C  C683  1  0.68440000  0.46240000  0.81540000  1.0 0.0395605579
C  C684  1  0.31560000  0.53760000  0.31540000  1.0 0.0395605579
C  C685  1  0.53760000  0.31560000  0.68460000  1.0 0.0395605579
C  C686  1  0.46240000  0.68440000  0.18460000  1.0 0.0395605579
C  C687  1  0.81560000  0.96240000  0.93460000  1.0 0.0395605579
C  C688  1  0.18440000  0.03760000  0.43460000  1.0 0.0395605579
C  C689  1  0.95260000  0.76090000  0.06640000  1.0 0.0395605579
C  C690  1  0.04740000  0.23910000  0.56640000  1.0 0.0395605579
C  C691  1  0.73910000  0.45260000  0.81640000  1.0 0.0395605579
C  C692  1  0.26090000  0.54740000  0.31640000  1.0 0.0395605579
C  C693  1  0.54740000  0.26090000  0.68360000  1.0 0.0491849555
C  C694  1  0.45260000  0.73910000  0.18360000  1.0 0.0395605579
C  C695  1  0.76090000  0.95260000  0.93360000  1.0 0.0395605579
C  C696  1  0.23910000  0.04740000  0.43360000  1.0 0.0491849555
C  C697  1  0.95680000  0.73380000  0.04280000  1.0 -0.1391422032
C  C698  1  0.04320000  0.26620000  0.54280000  1.0 -0.1391422032
C  C699  1  0.76620000  0.45680000  0.79280000  1.0 -0.1391422032
C  C700  1  0.23380000  0.54320000  0.29280000  1.0 -0.1391422032
C  C701  1  0.54320000  0.23380000  0.70720000  1.0 -0.1391422032
C  C702  1  0.45680000  0.76620000  0.20720000  1.0 -0.1391422032
C  C703  1  0.73380000  0.95680000  0.95720000  1.0 -0.1391422032
C  C704  1  0.26620000  0.04320000  0.45720000  1.0 -0.1391422032
C  C705  1  0.96690000  0.76160000  0.01890000  1.0 -0.1101629671
C  C706  1  0.03310000  0.23840000  0.51890000  1.0 -0.1101629671
C  C707  1  0.73840000  0.46690000  0.76890000  1.0 -0.1101629671
C  C708  1  0.26160000  0.53310000  0.26890000  1.0 -0.1101629671
C  C709  1  0.53310000  0.26160000  0.73110000  1.0 -0.1101629671
C  C710  1  0.46690000  0.73840000  0.23110000  1.0 -0.1101629671
C  C711  1  0.76160000  0.96690000  0.98110000  1.0 -0.1101629671
C  C712  1  0.23840000  0.03310000  0.48110000  1.0 -0.1101629671
C  C713  1  0.97960000  0.81250000  0.01950000  1.0 -0.1012699921
C  C714  1  0.02040000  0.18750000  0.51950000  1.0 -0.1012699921
C  C715  1  0.68750000  0.47960000  0.76950000  1.0 -0.1012699921
C  C716  1  0.31250000  0.52040000  0.26950000  1.0 -0.1012699921
C  C717  1  0.52040000  0.31250000  0.73050000  1.0 -0.1012699921
C  C718  1  0.47960000  0.68750000  0.23050000  1.0 -0.1012699921
C  C719  1  0.81250000  0.97960000  0.98050000  1.0 -0.1012699921
C  C720  1  0.18750000  0.02040000  0.48050000  1.0 -0.1012699921
C  C721  1  0.97100000  0.84080000  0.04190000  1.0 -0.1511918713
C  C722  1  0.02900000  0.15920000  0.54190000  1.0 -0.1511918713
C  C723  1  0.65920000  0.47100000  0.79190000  1.0 -0.1511918713
C  C724  1  0.34080000  0.52900000  0.29190000  1.0 -0.1511918713
C  C725  1  0.52900000  0.34080000  0.70810000  1.0 -0.1511918713
C  C726  1  0.47100000  0.65920000  0.20810000  1.0 -0.1511918713
C  C727  1  0.84080000  0.97100000  0.95810000  1.0 -0.1511918713
C  C728  1  0.15920000  0.02900000  0.45810000  1.0 -0.1511918713
C  C729  1  0.40720000  0.98340000  0.13170000  1.0 0.5815726911
C  C730  1  0.59280000  0.01660000  0.63170000  1.0 0.5815726911
C  C731  1  0.51660000  0.90720000  0.88170000  1.0 0.5815726911
C  C732  1  0.48340000  0.09280000  0.38170000  1.0 0.5815726911
C  C733  1  0.09280000  0.48340000  0.61830000  1.0 0.5815726911
C  C734  1  0.90720000  0.51660000  0.11830000  1.0 0.5815726911
C  C735  1  0.98340000  0.40720000  0.86830000  1.0 0.5815726911
C  C736  1  0.01660000  0.59280000  0.36830000  1.0 0.5815726911
C  C737  1  0.18280000  0.01520000  0.13210000  1.0 0.588788869
C  C738  1  0.81720000  0.98480000  0.63210000  1.0 0.588788869
C  C739  1  0.48480000  0.68280000  0.88210000  1.0 0.588788869
C  C740  1  0.51520000  0.31720000  0.38210000  1.0 0.588788869
C  C741  1  0.31720000  0.51520000  0.61790000  1.0 0.588788869
C  C742  1  0.68280000  0.48480000  0.11790000  1.0 0.588788869
C  C743  1  0.01520000  0.18280000  0.86790000  1.0 0.588788869
C  C744  1  0.98480000  0.81720000  0.36790000  1.0 0.588788869
C  C745  1  0.34910000  0.98980000  0.13290000  1.0 -0.0603687692
C  C746  1  0.65090000  0.01020000  0.63290000  1.0 -0.0603687692
C  C747  1  0.51020000  0.84910000  0.88290000  1.0 -0.0603687692
C  C748  1  0.48980000  0.15090000  0.38290000  1.0 -0.0603687692
C  C749  1  0.15090000  0.48980000  0.61710000  1.0 -0.0603687692
C  C750  1  0.84910000  0.51020000  0.11710000  1.0 -0.0603687692
C  C751  1  0.98980000  0.34910000  0.86710000  1.0 -0.0603687692
C  C752  1  0.01020000  0.65090000  0.36710000  1.0 -0.0603687692
C  C753  1  0.32330000  0.01170000  0.11100000  1.0 -0.1101629671
C  C754  1  0.67670000  0.98830000  0.61100000  1.0 -0.1101629671
C  C755  1  0.48830000  0.82330000  0.86100000  1.0 -0.1101629671
C  C756  1  0.51170000  0.17670000  0.36100000  1.0 -0.1101629671
C  C757  1  0.17670000  0.51170000  0.63900000  1.0 -0.1101629671
C  C758  1  0.82330000  0.48830000  0.13900000  1.0 -0.1101629671
C  C759  1  0.01170000  0.32330000  0.88900000  1.0 -0.1101629671
C  C760  1  0.98830000  0.67670000  0.38900000  1.0 -0.1101629671
C  C761  1  0.27130000  0.01820000  0.11100000  1.0 -0.1012699921
C  C762  1  0.72870000  0.98180000  0.61100000  1.0 -0.1012699921
C  C763  1  0.48180000  0.77130000  0.86100000  1.0 -0.1012699921
C  C764  1  0.51820000  0.22870000  0.36100000  1.0 -0.1012699921
C  C765  1  0.22870000  0.51820000  0.63900000  1.0 -0.1012699921
C  C766  1  0.77130000  0.48180000  0.13900000  1.0 -0.1012699921
C  C767  1  0.01820000  0.27130000  0.88900000  1.0 -0.1012699921
C  C768  1  0.98180000  0.72870000  0.38900000  1.0 -0.1012699921
C  C769  1  0.24110000  0.00540000  0.13320000  1.0 -0.0603687692
C  C770  1  0.75890000  0.99460000  0.63320000  1.0 -0.0603687692
C  C771  1  0.49460000  0.74110000  0.88320000  1.0 -0.0603687692
C  C772  1  0.50540000  0.25890000  0.38320000  1.0 -0.0603687692
C  C773  1  0.25890000  0.50540000  0.61680000  1.0 -0.0603687692
C  C774  1  0.74110000  0.49460000  0.11680000  1.0 -0.0603687692
C  C775  1  0.00540000  0.24110000  0.86680000  1.0 -0.0603687692
C  C776  1  0.99460000  0.75890000  0.36680000  1.0 -0.0603687692
C  C777  1  0.26420000  0.98250000  0.15545000  1.0 0.0323317731
C  C778  1  0.73580000  0.01750000  0.65545000  1.0 0.0323317731
C  C779  1  0.51750000  0.76420000  0.90545000  1.0 0.0323317731
C  C780  1  0.48250000  0.23580000  0.40545000  1.0 0.0323317731
C  C781  1  0.23580000  0.48250000  0.59455000  1.0 0.0323317731
C  C782  1  0.76420000  0.51750000  0.09455000  1.0 0.0323317731
C  C783  1  0.98250000  0.26420000  0.84455000  1.0 0.0323317731
C  C784  1  0.01750000  0.73580000  0.34455000  1.0 0.0323317731
C  C785  1  0.31960000  0.97410000  0.15460000  1.0 0.0491849555
C  C786  1  0.68040000  0.02590000  0.65460000  1.0 0.0491849555
C  C787  1  0.52590000  0.81960000  0.90460000  1.0 0.0491849555
C  C788  1  0.47410000  0.18040000  0.40460000  1.0 0.0491849555
C  C789  1  0.18040000  0.47410000  0.59540000  1.0 0.0491849555
C  C790  1  0.81960000  0.52590000  0.09540000  1.0 0.0491849555
C  C791  1  0.97410000  0.31960000  0.84540000  1.0 0.0491849555
C  C792  1  0.02590000  0.68040000  0.34540000  1.0 0.0491849555
C  C793  1  0.23930000  0.96310000  0.18050000  1.0 -0.1101629671
C  C794  1  0.76070000  0.03690000  0.68050000  1.0 -0.1101629671
C  C795  1  0.53690000  0.73930000  0.93050000  1.0 -0.1101629671
C  C796  1  0.46310000  0.26070000  0.43050000  1.0 -0.1101629671
C  C797  1  0.26070000  0.46310000  0.56950000  1.0 -0.1101629671
C  C798  1  0.73930000  0.53690000  0.06950000  1.0 -0.1101629671
C  C799  1  0.96310000  0.23930000  0.81950000  1.0 -0.1101629671
C  C800  1  0.03690000  0.76070000  0.31950000  1.0 -0.1101629671
C  C801  1  0.33900000  0.95220000  0.18060000  1.0 -0.1215150859
C  C802  1  0.66100000  0.04780000  0.68060000  1.0 -0.1215150859
C  C803  1  0.54780000  0.83900000  0.93060000  1.0 -0.1215150859
C  C804  1  0.45220000  0.16100000  0.43060000  1.0 -0.1215150859
C  C805  1  0.16100000  0.45220000  0.56940000  1.0 -0.1215150859
C  C806  1  0.83900000  0.54780000  0.06940000  1.0 -0.1215150859
C  C807  1  0.95220000  0.33900000  0.81940000  1.0 -0.1215150859
C  C808  1  0.04780000  0.66100000  0.31940000  1.0 -0.1215150859
C  C809  1  0.26530000  0.99400000  0.20370000  1.0 0.0395605579
C  C810  1  0.73470000  0.00600000  0.70370000  1.0 0.0395605579
C  C811  1  0.50600000  0.76530000  0.95370000  1.0 0.0395605579
C  C812  1  0.49400000  0.23470000  0.45370000  1.0 0.0395605579
C  C813  1  0.23470000  0.49400000  0.54630000  1.0 0.0395605579
C  C814  1  0.76530000  0.50600000  0.04630000  1.0 0.0395605579
C  C815  1  0.99400000  0.26530000  0.79630000  1.0 0.0395605579
C  C816  1  0.00600000  0.73470000  0.29630000  1.0 0.0395605579
C  C817  1  0.32170000  0.98900000  0.20220000  1.0 0.0395605579
C  C818  1  0.67830000  0.01100000  0.70220000  1.0 0.0395605579
C  C819  1  0.51100000  0.82170000  0.95220000  1.0 0.0395605579
C  C820  1  0.48900000  0.17830000  0.45220000  1.0 0.0395605579
C  C821  1  0.17830000  0.48900000  0.54780000  1.0 0.0395605579
C  C822  1  0.82170000  0.51100000  0.04780000  1.0 0.0395605579
C  C823  1  0.98900000  0.32170000  0.79780000  1.0 0.0395605579
C  C824  1  0.01100000  0.67830000  0.29780000  1.0 0.0395605579
C  C825  1  0.35300000  0.01550000  0.22050000  1.0 -0.1600984936
C  C826  1  0.64700000  0.98450000  0.72050000  1.0 -0.1600984936
C  C827  1  0.48450000  0.85300000  0.97050000  1.0 -0.1600984936
C  C828  1  0.51550000  0.14700000  0.47050000  1.0 -0.1600984936
C  C829  1  0.14700000  0.51550000  0.52950000  1.0 -0.1600984936
C  C830  1  0.85300000  0.48450000  0.02950000  1.0 -0.1600984936
C  C831  1  0.01550000  0.35300000  0.77950000  1.0 -0.1600984936
C  C832  1  0.98450000  0.64700000  0.27950000  1.0 -0.1600984936
C  C833  1  0.32600000  0.04520000  0.24000000  1.0 -0.1101629671
C  C834  1  0.67400000  0.95480000  0.74000000  1.0 -0.1101629671
C  C835  1  0.45480000  0.82600000  0.99000000  1.0 -0.1101629671
C  C836  1  0.54520000  0.17400000  0.49000000  1.0 -0.1101629671
C  C837  1  0.17400000  0.54520000  0.51000000  1.0 -0.1101629671
C  C838  1  0.82600000  0.45480000  0.01000000  1.0 -0.1101629671
C  C839  1  0.04520000  0.32600000  0.76000000  1.0 -0.1101629671
C  C840  1  0.95480000  0.67400000  0.26000000  1.0 -0.1101629671
C  C841  1  0.27570000  0.05240000  0.23990000  1.0 -0.1101629671
C  C842  1  0.72430000  0.94760000  0.73990000  1.0 -0.1101629671
C  C843  1  0.44760000  0.77570000  0.98990000  1.0 -0.1101629671
C  C844  1  0.55240000  0.22430000  0.48990000  1.0 -0.1101629671
C  C845  1  0.22430000  0.55240000  0.51010000  1.0 -0.1101629671
C  C846  1  0.77570000  0.44760000  0.01010000  1.0 -0.1101629671
C  C847  1  0.05240000  0.27570000  0.76010000  1.0 -0.1101629671
C  C848  1  0.94760000  0.72430000  0.26010000  1.0 -0.1101629671
C  C849  1  0.24500000  0.02600000  0.22070000  1.0 -0.1311117104
C  C850  1  0.75500000  0.97400000  0.72070000  1.0 -0.1311117104
C  C851  1  0.47400000  0.74500000  0.97070000  1.0 -0.1311117104
C  C852  1  0.52600000  0.25500000  0.47070000  1.0 -0.1311117104
C  C853  1  0.25500000  0.52600000  0.52930000  1.0 -0.1311117104
C  C854  1  0.74500000  0.47400000  0.02930000  1.0 -0.1311117104
C  C855  1  0.02600000  0.24500000  0.77930000  1.0 -0.1311117104
C  C856  1  0.97400000  0.75500000  0.27930000  1.0 -0.1311117104
C  C857  1  0.25710000  0.90700000  0.18360000  1.0 0.0395605579
C  C858  1  0.74290000  0.09300000  0.68360000  1.0 0.0395605579
C  C859  1  0.59300000  0.75710000  0.93360000  1.0 0.0395605579
C  C860  1  0.40700000  0.24290000  0.43360000  1.0 0.0395605579
C  C861  1  0.24290000  0.40700000  0.56640000  1.0 0.0395605579
C  C862  1  0.75710000  0.59300000  0.06640000  1.0 0.0395605579
C  C863  1  0.90700000  0.25710000  0.81640000  1.0 0.0395605579
C  C864  1  0.09300000  0.74290000  0.31640000  1.0 0.0395605579
C  C865  1  0.31200000  0.90160000  0.18450000  1.0 0.0491849555
C  C866  1  0.68800000  0.09840000  0.68450000  1.0 0.0491849555
C  C867  1  0.59840000  0.81200000  0.93450000  1.0 0.0491849555
C  C868  1  0.40160000  0.18800000  0.43450000  1.0 0.0491849555
C  C869  1  0.18800000  0.40160000  0.56550000  1.0 0.0491849555
C  C870  1  0.81200000  0.59840000  0.06550000  1.0 0.0491849555
C  C871  1  0.90160000  0.31200000  0.81550000  1.0 0.0491849555
C  C872  1  0.09840000  0.68800000  0.31550000  1.0 0.0491849555
C  C873  1  0.33240000  0.85240000  0.18640000  1.0 -0.1391422032
C  C874  1  0.66760000  0.14760000  0.68640000  1.0 -0.1391422032
C  C875  1  0.64760000  0.83240000  0.93640000  1.0 -0.1391422032
C  C876  1  0.35240000  0.16760000  0.43640000  1.0 -0.1391422032
C  C877  1  0.16760000  0.35240000  0.56360000  1.0 -0.1391422032
C  C878  1  0.83240000  0.64760000  0.06360000  1.0 -0.1391422032
C  C879  1  0.85240000  0.33240000  0.81360000  1.0 -0.1391422032
C  C880  1  0.14760000  0.66760000  0.31360000  1.0 -0.1391422032
C  C881  1  0.29900000  0.80650000  0.18810000  1.0 -0.1101629671
C  C882  1  0.70100000  0.19350000  0.68810000  1.0 -0.1101629671
C  C883  1  0.69350000  0.79900000  0.93810000  1.0 -0.1101629671
C  C884  1  0.30650000  0.20100000  0.43810000  1.0 -0.1012699921
C  C885  1  0.20100000  0.30650000  0.56190000  1.0 -0.1012699921
C  C886  1  0.79900000  0.69350000  0.06190000  1.0 -0.1012699921
C  C887  1  0.80650000  0.29900000  0.81190000  1.0 -0.1012699921
C  C888  1  0.19350000  0.70100000  0.31190000  1.0 -0.1101629671
C  C889  1  0.24660000  0.81450000  0.18890000  1.0 -0.1101629671
C  C890  1  0.75340000  0.18550000  0.68890000  1.0 -0.1101629671
C  C891  1  0.68550000  0.74660000  0.93890000  1.0 -0.1101629671
C  C892  1  0.31450000  0.25340000  0.43890000  1.0 -0.1101629671
C  C893  1  0.25340000  0.31450000  0.56110000  1.0 -0.1101629671
C  C894  1  0.74660000  0.68550000  0.06110000  1.0 -0.1101629671
C  C895  1  0.81450000  0.24660000  0.81110000  1.0 -0.1101629671
C  C896  1  0.18550000  0.75340000  0.31110000  1.0 -0.1101629671
C  C897  1  0.22630000  0.86460000  0.18800000  1.0 -0.1391422032
C  C898  1  0.77370000  0.13540000  0.68800000  1.0 -0.1391422032
C  C899  1  0.63540000  0.72630000  0.93800000  1.0 -0.1391422032
C  C900  1  0.36460000  0.27370000  0.43800000  1.0 -0.1391422032
C  C901  1  0.27370000  0.36460000  0.56200000  1.0 -0.1391422032
C  C902  1  0.72630000  0.63540000  0.06200000  1.0 -0.1391422032
C  C903  1  0.86460000  0.22630000  0.81200000  1.0 -0.1391422032
C  C904  1  0.13540000  0.77370000  0.31200000  1.0 -0.1391422032
C  C905  1  0.05730000  0.03950000  0.05670000  1.0 0.5815726911
C  C906  1  0.94270000  0.96050000  0.55670000  1.0 0.5815726911
C  C907  1  0.46050000  0.55730000  0.80670000  1.0 0.5815726911
C  C908  1  0.53950000  0.44270000  0.30670000  1.0 0.5815726911
C  C909  1  0.44270000  0.53950000  0.69330000  1.0 0.5815726911
C  C910  1  0.55730000  0.46050000  0.19330000  1.0 0.5815726911
C  C911  1  0.03950000  0.05730000  0.94330000  1.0 0.5815726911
C  C912  1  0.96050000  0.94270000  0.44330000  1.0 0.5815726911
C  C913  1  0.05190000  0.04940000  0.02840000  1.0 -0.1012699921
C  C914  1  0.94810000  0.95060000  0.52840000  1.0 -0.1012699921
C  C915  1  0.45060000  0.55190000  0.77840000  1.0 -0.1012699921
C  C916  1  0.54940000  0.44810000  0.27840000  1.0 -0.1012699921
C  C917  1  0.44810000  0.54940000  0.72160000  1.0 -0.1012699921
C  C918  1  0.55190000  0.45060000  0.22160000  1.0 -0.1012699921
C  C919  1  0.04940000  0.05190000  0.97160000  1.0 -0.1012699921
C  C920  1  0.95060000  0.94810000  0.47160000  1.0 -0.1012699921
C  C921  1  0.02000000  0.01530000  0.01310000  1.0 -0.1101629671
C  C922  1  0.98000000  0.98470000  0.51310000  1.0 -0.1101629671
C  C923  1  0.48470000  0.52000000  0.76310000  1.0 -0.1101629671
C  C924  1  0.51530000  0.48000000  0.26310000  1.0 -0.1101629671
C  C925  1  0.48000000  0.51530000  0.73690000  1.0 -0.1101629671
C  C926  1  0.52000000  0.48470000  0.23690000  1.0 -0.1101629671
C  C927  1  0.01530000  0.02000000  0.98690000  1.0 -0.1101629671
C  C928  1  0.98470000  0.98000000  0.48690000  1.0 -0.1101629671
C  C929  1  0.08560000  0.08270000  0.01340000  1.0 0.0323317731
C  C930  1  0.91440000  0.91730000  0.51340000  1.0 0.0323317731
C  C931  1  0.41730000  0.58560000  0.76340000  1.0 0.0323317731
C  C932  1  0.58270000  0.41440000  0.26340000  1.0 0.0323317731
C  C933  1  0.41440000  0.58270000  0.73660000  1.0 0.0323317731
C  C934  1  0.58560000  0.41730000  0.23660000  1.0 0.0323317731
C  C935  1  0.08270000  0.08560000  0.98660000  1.0 0.0323317731
C  C936  1  0.91730000  0.91440000  0.48660000  1.0 0.0323317731
C  C937  1  0.12500000  0.12170000  0.02550000  1.0 -0.0899115117
C  C938  1  0.87500000  0.87830000  0.52550000  1.0 -0.1012699921
C  C939  1  0.37830000  0.62500000  0.77550000  1.0 -0.0899115117
C  C940  1  0.62170000  0.37500000  0.27550000  1.0 -0.1012699921
C  C941  1  0.37500000  0.62170000  0.72450000  1.0 -0.0899115117
C  C942  1  0.62500000  0.37830000  0.22450000  1.0 -0.1012699921
C  C943  1  0.12170000  0.12500000  0.97450000  1.0 -0.0899115117
C  C944  1  0.87830000  0.87500000  0.47450000  1.0 -0.0899115117
C  C945  1  0.17840000  0.10780000  0.01231000  1.0 0.0323317731
C  C946  1  0.82160000  0.89220000  0.51231000  1.0 0.0323317731
C  C947  1  0.39220000  0.67840000  0.76231000  1.0 0.0323317731
C  C948  1  0.60780000  0.32160000  0.26231000  1.0 0.0395605579
C  C949  1  0.32160000  0.60780000  0.73769000  1.0 0.0323317731
C  C950  1  0.67840000  0.39220000  0.23769000  1.0 0.0323317731
C  C951  1  0.10780000  0.17840000  0.98769000  1.0 0.0323317731
C  C952  1  0.89220000  0.82160000  0.48769000  1.0 0.0323317731
C  C953  1  0.22180000  0.09100000  0.02660000  1.0 -0.1511918713
C  C954  1  0.77820000  0.90900000  0.52660000  1.0 -0.1511918713
C  C955  1  0.40900000  0.72180000  0.77660000  1.0 -0.1511918713
C  C956  1  0.59100000  0.27820000  0.27660000  1.0 -0.1511918713
C  C957  1  0.27820000  0.59100000  0.72340000  1.0 -0.1511918713
C  C958  1  0.72180000  0.40900000  0.22340000  1.0 -0.1511918713
C  C959  1  0.09100000  0.22180000  0.97340000  1.0 -0.1511918713
C  C960  1  0.90900000  0.77820000  0.47340000  1.0 -0.1511918713
C  C961  1  0.10610000  0.17690000  0.01460000  1.0 0.0395605579
C  C962  1  0.89390000  0.82310000  0.51460000  1.0 0.0395605579
C  C963  1  0.32310000  0.60610000  0.76460000  1.0 0.0395605579
C  C964  1  0.67690000  0.39390000  0.26460000  1.0 0.0395605579
C  C965  1  0.39390000  0.67690000  0.73540000  1.0 0.0395605579
C  C966  1  0.60610000  0.32310000  0.23540000  1.0 0.0395605579
C  C967  1  0.17690000  0.10610000  0.98540000  1.0 0.0395605579
C  C968  1  0.82310000  0.89390000  0.48540000  1.0 0.0395605579
C  C969  1  0.09610000  0.21900000  0.02970000  1.0 -0.1391422032
C  C970  1  0.90390000  0.78100000  0.52970000  1.0 -0.1391422032
C  C971  1  0.28100000  0.59610000  0.77970000  1.0 -0.1391422032
C  C972  1  0.71900000  0.40390000  0.27970000  1.0 -0.1391422032
C  C973  1  0.40390000  0.71900000  0.72030000  1.0 -0.1391422032
C  C974  1  0.59610000  0.28100000  0.22030000  1.0 -0.1391422032
C  C975  1  0.21900000  0.09610000  0.97030000  1.0 -0.1391422032
C  C976  1  0.78100000  0.90390000  0.47030000  1.0 -0.1391422032
C  C977  1  0.26520000  0.07800000  0.01170000  1.0 -0.1012699921
C  C978  1  0.73480000  0.92200000  0.51170000  1.0 -0.1012699921
C  C979  1  0.42200000  0.76520000  0.76170000  1.0 -0.1012699921
C  C980  1  0.57800000  0.23480000  0.26170000  1.0 -0.1012699921
C  C981  1  0.23480000  0.57800000  0.73830000  1.0 -0.1012699921
C  C982  1  0.76520000  0.42200000  0.23830000  1.0 -0.1012699921
C  C983  1  0.07800000  0.26520000  0.98830000  1.0 -0.1012699921
C  C984  1  0.92200000  0.73480000  0.48830000  1.0 -0.1012699921
C  C985  1  0.08270000  0.26630000  0.01580000  1.0 -0.0899115117
C  C986  1  0.91730000  0.73370000  0.51580000  1.0 -0.0899115117
C  C987  1  0.23370000  0.58270000  0.76580000  1.0 -0.0899115117
C  C988  1  0.76630000  0.41730000  0.26580000  1.0 -0.0899115117
C  C989  1  0.41730000  0.76630000  0.73420000  1.0 -0.0899115117
C  C990  1  0.58270000  0.23370000  0.23420000  1.0 -0.0899115117
C  C991  1  0.26630000  0.08270000  0.98420000  1.0 -0.0899115117
C  C992  1  0.73370000  0.91730000  0.48420000  1.0 -0.0899115117
C  C993  1  0.01180000  0.02960000  0.22270000  1.0 0.0323317731
C  C994  1  0.98820000  0.97040000  0.72270000  1.0 0.0323317731
C  C995  1  0.47040000  0.51180000  0.97270000  1.0 0.0323317731
C  C996  1  0.52960000  0.48820000  0.47270000  1.0 0.0323317731
C  C997  1  0.48820000  0.52960000  0.52730000  1.0 0.0323317731
C  C998  1  0.51180000  0.47040000  0.02730000  1.0 0.0323317731
C  C999  1  0.02960000  0.01180000  0.77730000  1.0 0.0395605579
C  C1000  1  0.97040000  0.98820000  0.27730000  1.0 0.0395605579
C  C1001  1  0.02080000  0.03660000  0.19400000  1.0 0.2775361632
C  C1002  1  0.97920000  0.96340000  0.69400000  1.0 0.2775361632
C  C1003  1  0.46340000  0.52080000  0.94400000  1.0 0.2775361632
C  C1004  1  0.53660000  0.47920000  0.44400000  1.0 0.2775361632
C  C1005  1  0.47920000  0.53660000  0.55600000  1.0 0.2775361632
C  C1006  1  0.52080000  0.46340000  0.05600000  1.0 0.2775361632
C  C1007  1  0.03660000  0.02080000  0.80600000  1.0 0.2775361632
C  C1008  1  0.96340000  0.97920000  0.30600000  1.0 0.2775361632
C  C1009  1  0.00900000  0.96700000  0.23590000  1.0 -0.0899115117
C  C1010  1  0.99100000  0.03300000  0.73590000  1.0 -0.0899115117
C  C1011  1  0.53300000  0.50900000  0.98590000  1.0 -0.0899115117
C  C1012  1  0.46700000  0.49100000  0.48590000  1.0 -0.0899115117
C  C1013  1  0.49100000  0.46700000  0.51410000  1.0 -0.0899115117
C  C1014  1  0.50900000  0.53300000  0.01410000  1.0 -0.0899115117
C  C1015  1  0.96700000  0.00900000  0.76410000  1.0 -0.0899115117
C  C1016  1  0.03300000  0.99100000  0.26410000  1.0 -0.0899115117
C  C1017  1  0.93770000  0.10100000  0.22900000  1.0 -0.050074734
C  C1018  1  0.06230000  0.89900000  0.72900000  1.0 -0.050074734
C  C1019  1  0.39900000  0.43770000  0.97900000  1.0 -0.050074734
C  C1020  1  0.60100000  0.56230000  0.47900000  1.0 -0.050074734
C  C1021  1  0.56230000  0.60100000  0.52100000  1.0 -0.050074734
C  C1022  1  0.43770000  0.39900000  0.02100000  1.0 -0.050074734
C  C1023  1  0.10100000  0.93770000  0.77100000  1.0 -0.050074734
C  C1024  1  0.89900000  0.06230000  0.27100000  1.0 -0.050074734
C  C1025  1  0.89150000  0.06130000  0.22990000  1.0 0.0208796028
C  C1026  1  0.10850000  0.93870000  0.72990000  1.0 0.0208796028
C  C1027  1  0.43870000  0.39150000  0.97990000  1.0 0.0208796028
C  C1028  1  0.56130000  0.60850000  0.47990000  1.0 0.0208796028
C  C1029  1  0.60850000  0.56130000  0.52010000  1.0 0.0208796028
C  C1030  1  0.39150000  0.43870000  0.02010000  1.0 0.0208796028
C  C1031  1  0.06130000  0.89150000  0.77010000  1.0 0.0208796028
C  C1032  1  0.93870000  0.10850000  0.27010000  1.0 0.0208796028
C  C1033  1  0.84960000  0.07400000  0.21390000  1.0 -0.0899115117
C  C1034  1  0.15040000  0.92600000  0.71390000  1.0 -0.0899115117
C  C1035  1  0.42600000  0.34960000  0.96390000  1.0 -0.0899115117
C  C1036  1  0.57400000  0.65040000  0.46390000  1.0 -0.0899115117
C  C1037  1  0.65040000  0.57400000  0.53610000  1.0 -0.0899115117
C  C1038  1  0.34960000  0.42600000  0.03610000  1.0 -0.0899115117
C  C1039  1  0.07400000  0.84960000  0.78610000  1.0 -0.0899115117
C  C1040  1  0.92600000  0.15040000  0.28610000  1.0 -0.0899115117
C  C1041  1  0.80110000  0.06200000  0.22510000  1.0 0.0208796028
C  C1042  1  0.19890000  0.93800000  0.72510000  1.0 0.0208796028
C  C1043  1  0.43800000  0.30110000  0.97510000  1.0 0.0208796028
C  C1044  1  0.56200000  0.69890000  0.47510000  1.0 0.0208796028
C  C1045  1  0.69890000  0.56200000  0.52490000  1.0 0.0208796028
C  C1046  1  0.30110000  0.43800000  0.02490000  1.0 0.0208796028
C  C1047  1  0.06200000  0.80110000  0.77490000  1.0 0.0208796028
C  C1048  1  0.93800000  0.19890000  0.27490000  1.0 0.0208796028
C  C1049  1  0.95300000  0.03890000  0.23410000  1.0 0.0208796028
C  C1050  1  0.04700000  0.96110000  0.73410000  1.0 0.0208796028
C  C1051  1  0.46110000  0.45300000  0.98410000  1.0 0.0208796028
C  C1052  1  0.53890000  0.54700000  0.48410000  1.0 0.0208796028
C  C1053  1  0.54700000  0.53890000  0.51590000  1.0 0.0208796028
C  C1054  1  0.45300000  0.46110000  0.01590000  1.0 0.0208796028
C  C1055  1  0.03890000  0.95300000  0.76590000  1.0 0.0208796028
C  C1056  1  0.96110000  0.04700000  0.26590000  1.0 0.0208796028
C  C1057  1  0.96000000  0.17830000  0.23450000  1.0 -0.1511918713
C  C1058  1  0.04000000  0.82170000  0.73450000  1.0 -0.1511918713
C  C1059  1  0.32170000  0.46000000  0.98450000  1.0 -0.1511918713
C  C1060  1  0.67830000  0.54000000  0.48450000  1.0 -0.1511918713
C  C1061  1  0.54000000  0.67830000  0.51550000  1.0 -0.1511918713
C  C1062  1  0.46000000  0.32170000  0.01550000  1.0 -0.1511918713
C  C1063  1  0.17830000  0.96000000  0.76550000  1.0 -0.1511918713
C  C1064  1  0.82170000  0.04000000  0.26550000  1.0 -0.1511918713
C  C1065  1  0.96400000  0.22430000  0.24900000  1.0 -0.018809588
C  C1066  1  0.03600000  0.77570000  0.74900000  1.0 -0.018809588
C  C1067  1  0.27570000  0.46400000  0.99900000  1.0 -0.018809588
C  C1068  1  0.72430000  0.53600000  0.49900000  1.0 -0.018809588
C  C1069  1  0.53600000  0.72430000  0.50100000  1.0 -0.018809588
C  C1070  1  0.46400000  0.27570000  0.00100000  1.0 -0.018809588
C  C1071  1  0.22430000  0.96400000  0.75100000  1.0 -0.018809588
C  C1072  1  0.77570000  0.03600000  0.25100000  1.0 -0.018809588
C  C1073  1  0.94300000  0.13270000  0.24610000  1.0 0.008996277
C  C1074  1  0.05700000  0.86730000  0.74610000  1.0 0.008996277
C  C1075  1  0.36730000  0.44300000  0.99610000  1.0 0.008996277
C  C1076  1  0.63270000  0.55700000  0.49610000  1.0 0.008996277
C  C1077  1  0.55700000  0.63270000  0.50390000  1.0 0.008996277
C  C1078  1  0.44300000  0.36730000  0.00390000  1.0 0.008996277
C  C1079  1  0.13270000  0.94300000  0.75390000  1.0 0.008996277
C  C1080  1  0.86730000  0.05700000  0.25390000  1.0 0.008996277
C  C1081  1  0.92310000  0.08920000  0.22590000  1.0 -0.050074734
C  C1082  1  0.07690000  0.91080000  0.72590000  1.0 -0.050074734
C  C1083  1  0.41080000  0.42310000  0.97590000  1.0 -0.050074734
C  C1084  1  0.58920000  0.57690000  0.47590000  1.0 -0.050074734
C  C1085  1  0.57690000  0.58920000  0.52410000  1.0 -0.050074734
C  C1086  1  0.42310000  0.41080000  0.02410000  1.0 -0.050074734
C  C1087  1  0.08920000  0.92310000  0.77410000  1.0 -0.050074734
C  C1088  1  0.91080000  0.07690000  0.27410000  1.0 -0.050074734
C  C1089  1  0.98580000  0.06840000  0.23800000  1.0 -0.1012699921
C  C1090  1  0.01420000  0.93160000  0.73800000  1.0 -0.1012699921
C  C1091  1  0.43160000  0.48580000  0.98800000  1.0 -0.1012699921
C  C1092  1  0.56840000  0.51420000  0.48800000  1.0 -0.1012699921
C  C1093  1  0.51420000  0.56840000  0.51200000  1.0 -0.1012699921
C  C1094  1  0.48580000  0.43160000  0.01200000  1.0 -0.1012699921
C  C1095  1  0.06840000  0.98580000  0.76200000  1.0 -0.1012699921
C  C1096  1  0.93160000  0.01420000  0.26200000  1.0 -0.1012699921
C  C1097  1  0.90640000  0.15720000  0.15400000  1.0 0.2299946781
C  C1098  1  0.09360000  0.84280000  0.65400000  1.0 0.2299946781
C  C1099  1  0.34280000  0.40640000  0.90400000  1.0 0.2299946781
C  C1100  1  0.65720000  0.59360000  0.40400000  1.0 0.2299946781
C  C1101  1  0.59360000  0.65720000  0.59600000  1.0 0.2299946781
C  C1102  1  0.40640000  0.34280000  0.09600000  1.0 0.2299946781
C  C1103  1  0.15720000  0.90640000  0.84600000  1.0 0.2299946781
C  C1104  1  0.84280000  0.09360000  0.34600000  1.0 0.2299946781
C  C1105  1  0.89900000  0.23400000  0.17990000  1.0 -0.1511918713
C  C1106  1  0.10100000  0.76600000  0.67990000  1.0 -0.1511918713
C  C1107  1  0.26600000  0.39900000  0.92990000  1.0 -0.1511918713
C  C1108  1  0.73400000  0.60100000  0.42990000  1.0 -0.1511918713
C  C1109  1  0.60100000  0.73400000  0.57010000  1.0 -0.1511918713
C  C1110  1  0.39900000  0.26600000  0.07010000  1.0 -0.1511918713
C  C1111  1  0.23400000  0.89900000  0.82010000  1.0 -0.1511918713
C  C1112  1  0.76600000  0.10100000  0.32010000  1.0 -0.1511918713
C  C1113  1  0.82700000  0.21130000  0.15380000  1.0 -0.0899115117
C  C1114  1  0.17300000  0.78870000  0.65380000  1.0 -0.0899115117
C  C1115  1  0.28870000  0.32700000  0.90380000  1.0 -0.0899115117
C  C1116  1  0.71130000  0.67300000  0.40380000  1.0 -0.0899115117
C  C1117  1  0.67300000  0.71130000  0.59620000  1.0 -0.0899115117
C  C1118  1  0.32700000  0.28870000  0.09620000  1.0 -0.0899115117
C  C1119  1  0.21130000  0.82700000  0.84620000  1.0 -0.0899115117
C  C1120  1  0.78870000  0.17300000  0.34620000  1.0 -0.0899115117
C  C1121  1  0.15670000  0.52700000  0.04370000  1.0 0.1933075164
C  C1122  1  0.84330000  0.47300000  0.54370000  1.0 0.1933075164
C  C1123  1  0.97300000  0.65670000  0.79370000  1.0 0.1933075164
C  C1124  1  0.02700000  0.34330000  0.29370000  1.0 0.1933075164
C  C1125  1  0.34330000  0.02700000  0.70630000  1.0 0.1933075164
C  C1126  1  0.65670000  0.97300000  0.20630000  1.0 0.1933075164
C  C1127  1  0.52700000  0.15670000  0.95630000  1.0 0.1933075164
C  C1128  1  0.47300000  0.84330000  0.45630000  1.0 0.1933075164
C  C1129  1  0.13950000  0.54990000  0.99830000  1.0 -0.0700895303
C  C1130  1  0.86050000  0.45010000  0.49830000  1.0 -0.0700895303
C  C1131  1  0.95010000  0.63950000  0.74830000  1.0 -0.0700895303
C  C1132  1  0.04990000  0.36050000  0.24830000  1.0 -0.0700895303
C  C1133  1  0.36050000  0.04990000  0.75170000  1.0 -0.0700895303
C  C1134  1  0.63950000  0.95010000  0.25170000  1.0 -0.0700895303
C  C1135  1  0.54990000  0.13950000  0.00170000  1.0 -0.0700895303
C  C1136  1  0.45010000  0.86050000  0.50170000  1.0 -0.0700895303
C  C1137  1  0.22680000  0.54540000  0.01280000  1.0 -0.3720115943
C  C1138  1  0.77320000  0.45460000  0.51280000  1.0 -0.3720115943
C  C1139  1  0.95460000  0.72680000  0.76280000  1.0 -0.3720115943
C  C1140  1  0.04540000  0.27320000  0.26280000  1.0 -0.3720115943
C  C1141  1  0.27320000  0.04540000  0.73720000  1.0 -0.3720115943
C  C1142  1  0.72680000  0.95460000  0.23720000  1.0 -0.3720115943
C  C1143  1  0.54540000  0.22680000  0.98720000  1.0 -0.3720115943
C  C1144  1  0.45460000  0.77320000  0.48720000  1.0 -0.3720115943
C  C1145  1  0.14520000  0.50700000  0.03290000  1.0 0.1528194654
C  C1146  1  0.85480000  0.49300000  0.53290000  1.0 0.1569808927
C  C1147  1  0.99300000  0.64520000  0.78290000  1.0 0.1528194654
C  C1148  1  0.00700000  0.35480000  0.28290000  1.0 0.1569808927
C  C1149  1  0.35480000  0.00700000  0.71710000  1.0 0.1528194654
C  C1150  1  0.64520000  0.99300000  0.21710000  1.0 0.1528194654
C  C1151  1  0.50700000  0.14520000  0.96710000  1.0 0.1569808927
C  C1152  1  0.49300000  0.85480000  0.46710000  1.0 0.1569808927
C  C1153  1  0.14900000  0.53800000  0.98810000  1.0 -0.1800400589
C  C1154  1  0.85100000  0.46200000  0.48810000  1.0 -0.1800400589
C  C1155  1  0.96200000  0.64900000  0.73810000  1.0 -0.1800400589
C  C1156  1  0.03800000  0.35100000  0.23810000  1.0 -0.1800400589
C  C1157  1  0.35100000  0.03800000  0.76190000  1.0 -0.1800400589
C  C1158  1  0.64900000  0.96200000  0.26190000  1.0 -0.1800400589
C  C1159  1  0.53800000  0.14900000  0.01190000  1.0 -0.1800400589
C  C1160  1  0.46200000  0.85100000  0.51190000  1.0 -0.1800400589
C  C1161  1  0.16900000  0.59700000  0.02190000  1.0 -0.200408073
C  C1162  1  0.83100000  0.40300000  0.52190000  1.0 -0.200408073
C  C1163  1  0.90300000  0.66900000  0.77190000  1.0 -0.200408073
C  C1164  1  0.09700000  0.33100000  0.27190000  1.0 -0.200408073
C  C1165  1  0.33100000  0.09700000  0.72810000  1.0 -0.200408073
C  C1166  1  0.66900000  0.90300000  0.22810000  1.0 -0.200408073
C  C1167  1  0.59700000  0.16900000  0.97810000  1.0 -0.200408073
C  C1168  1  0.40300000  0.83100000  0.47810000  1.0 -0.200408073
C  C1169  1  0.01040000  0.02160000  0.19410000  1.0 0.2617358325
C  C1170  1  0.98960000  0.97840000  0.69410000  1.0 0.2617358325
C  C1171  1  0.47840000  0.51040000  0.94410000  1.0 0.2617358325
C  C1172  1  0.52160000  0.48960000  0.44410000  1.0 0.2617358325
C  C1173  1  0.48960000  0.52160000  0.55590000  1.0 0.2617358325
C  C1174  1  0.51040000  0.47840000  0.05590000  1.0 0.2617358325
C  C1175  1  0.02160000  0.01040000  0.80590000  1.0 0.2617358325
C  C1176  1  0.97840000  0.98960000  0.30590000  1.0 0.2617358325
C  C1177  1  0.94330000  0.63010000  0.15880000  1.0 0.1958696325
C  C1178  1  0.05670000  0.36990000  0.65880000  1.0 0.1958696325
C  C1179  1  0.86990000  0.44330000  0.90880000  1.0 0.1958696325
C  C1180  1  0.13010000  0.55670000  0.40880000  1.0 0.1933075164
C  C1181  1  0.55670000  0.13010000  0.59120000  1.0 0.1958696325
C  C1182  1  0.44330000  0.86990000  0.09120000  1.0 0.1958696325
C  C1183  1  0.63010000  0.94330000  0.84120000  1.0 0.1958696325
C  C1184  1  0.36990000  0.05670000  0.34120000  1.0 0.1958696325
C  C1185  1  0.99810000  0.66600000  0.19170000  1.0 -0.333266979
C  C1186  1  0.00190000  0.33400000  0.69170000  1.0 -0.333266979
C  C1187  1  0.83400000  0.49810000  0.94170000  1.0 -0.333266979
C  C1188  1  0.16600000  0.50190000  0.44170000  1.0 -0.333266979
C  C1189  1  0.50190000  0.16600000  0.55830000  1.0 -0.333266979
C  C1190  1  0.49810000  0.83400000  0.05830000  1.0 -0.333266979
C  C1191  1  0.66600000  0.99810000  0.80830000  1.0 -0.333266979
C  C1192  1  0.33400000  0.00190000  0.30830000  1.0 -0.333266979
C  C1193  1  0.92600000  0.71610000  0.17890000  1.0 -0.050074734
C  C1194  1  0.07400000  0.28390000  0.67890000  1.0 -0.050074734
C  C1195  1  0.78390000  0.42600000  0.92890000  1.0 -0.050074734
C  C1196  1  0.21610000  0.57400000  0.42890000  1.0 -0.050074734
C  C1197  1  0.57400000  0.21610000  0.57110000  1.0 -0.050074734
C  C1198  1  0.42600000  0.78390000  0.07110000  1.0 -0.050074734
C  C1199  1  0.71610000  0.92600000  0.82110000  1.0 -0.050074734
C  C1200  1  0.28390000  0.07400000  0.32110000  1.0 -0.050074734
C  C1201  1  0.81510000  0.68630000  0.17790000  1.0 0.0892106128
C  C1202  1  0.18490000  0.31370000  0.67790000  1.0 0.0892106128
C  C1203  1  0.81370000  0.31510000  0.92790000  1.0 0.0892106128
C  C1204  1  0.18630000  0.68490000  0.42790000  1.0 0.0892106128
C  C1205  1  0.68490000  0.18630000  0.57210000  1.0 0.0892106128
C  C1206  1  0.31510000  0.81370000  0.07210000  1.0 0.0892106128
C  C1207  1  0.68630000  0.81510000  0.82210000  1.0 0.0784959451
C  C1208  1  0.31370000  0.18490000  0.32210000  1.0 0.0784959451
C  C1209  1  0.88000000  0.68700000  0.14400000  1.0 -0.3720115943
C  C1210  1  0.12000000  0.31300000  0.64400000  1.0 -0.3720115943
C  C1211  1  0.81300000  0.38000000  0.89400000  1.0 -0.3720115943
C  C1212  1  0.18700000  0.62000000  0.39400000  1.0 -0.3720115943
C  C1213  1  0.62000000  0.18700000  0.60600000  1.0 -0.3720115943
C  C1214  1  0.38000000  0.81300000  0.10600000  1.0 -0.3720115943
C  C1215  1  0.68700000  0.88000000  0.85600000  1.0 -0.3720115943
C  C1216  1  0.31300000  0.12000000  0.35600000  1.0 -0.3720115943
C  C1217  1  0.90250000  0.72700000  0.18350000  1.0 -0.1600984936
C  C1218  1  0.09750000  0.27300000  0.68350000  1.0 -0.1600984936
C  C1219  1  0.77300000  0.40250000  0.93350000  1.0 -0.1600984936
C  C1220  1  0.22700000  0.59750000  0.43350000  1.0 -0.1600984936
C  C1221  1  0.59750000  0.22700000  0.56650000  1.0 -0.1600984936
C  C1222  1  0.40250000  0.77300000  0.06650000  1.0 -0.1600984936
C  C1223  1  0.72700000  0.90250000  0.81650000  1.0 -0.1600984936
C  C1224  1  0.27300000  0.09750000  0.31650000  1.0 -0.1600984936
C  C1225  1  0.99400000  0.01150000  0.22170000  1.0 0.0395605579
C  C1226  1  0.00600000  0.98850000  0.72170000  1.0 0.0395605579
C  C1227  1  0.48850000  0.49400000  0.97170000  1.0 0.0395605579
C  C1228  1  0.51150000  0.50600000  0.47170000  1.0 0.0395605579
C  C1229  1  0.50600000  0.51150000  0.52830000  1.0 0.0395605579
C  C1230  1  0.49400000  0.48850000  0.02830000  1.0 0.0395605579
C  C1231  1  0.01150000  0.99400000  0.77830000  1.0 0.0395605579
C  C1232  1  0.98850000  0.00600000  0.27830000  1.0 0.0395605579
C  C1233  1  0.04720000  0.00470000  0.23910000  1.0 -0.1600984936
C  C1234  1  0.95280000  0.99530000  0.73910000  1.0 -0.1600984936
C  C1235  1  0.49530000  0.54720000  0.98910000  1.0 -0.1694716516
C  C1236  1  0.50470000  0.45280000  0.48910000  1.0 -0.1694716516
C  C1237  1  0.45280000  0.50470000  0.51090000  1.0 -0.1694716516
C  C1238  1  0.54720000  0.49530000  0.01090000  1.0 -0.1600984936
C  C1239  1  0.00470000  0.04720000  0.76090000  1.0 -0.1600984936
C  C1240  1  0.99530000  0.95280000  0.26090000  1.0 -0.1694716516
C  C1241  1  0.86540000  0.07000000  0.23230000  1.0 0.0395605579
C  C1242  1  0.13460000  0.93000000  0.73230000  1.0 0.0395605579
C  C1243  1  0.43000000  0.36540000  0.98230000  1.0 0.0395605579
C  C1244  1  0.57000000  0.63460000  0.48230000  1.0 0.0395605579
C  C1245  1  0.63460000  0.57000000  0.51770000  1.0 0.0395605579
C  C1246  1  0.36540000  0.43000000  0.01770000  1.0 0.0395605579
C  C1247  1  0.07000000  0.86540000  0.76770000  1.0 0.0395605579
C  C1248  1  0.93000000  0.13460000  0.26770000  1.0 0.0395605579
C  C1249  1  0.82740000  0.06600000  0.21450000  1.0 -0.0700895303
C  C1250  1  0.17260000  0.93400000  0.71450000  1.0 -0.0700895303
C  C1251  1  0.43400000  0.32740000  0.96450000  1.0 -0.0700895303
C  C1252  1  0.56600000  0.67260000  0.46450000  1.0 -0.0700895303
C  C1253  1  0.67260000  0.56600000  0.53550000  1.0 -0.0700895303
C  C1254  1  0.32740000  0.43400000  0.03550000  1.0 -0.0700895303
C  C1255  1  0.06600000  0.82740000  0.78550000  1.0 -0.0700895303
C  C1256  1  0.93400000  0.17260000  0.28550000  1.0 -0.0700895303
C  C1257  1  0.93950000  0.14740000  0.25040000  1.0 0.0395605579
C  C1258  1  0.06050000  0.85260000  0.75040000  1.0 0.0395605579
C  C1259  1  0.35260000  0.43950000  0.00040000  1.0 0.0395605579
C  C1260  1  0.64740000  0.56050000  0.50040000  1.0 0.0395605579
C  C1261  1  0.56050000  0.64740000  0.49960000  1.0 0.0395605579
C  C1262  1  0.43950000  0.35260000  0.99960000  1.0 0.0395605579
C  C1263  1  0.14740000  0.93950000  0.74960000  1.0 0.0395605579
C  C1264  1  0.85260000  0.06050000  0.24960000  1.0 0.0395605579
C  C1265  1  0.94350000  0.19680000  0.24200000  1.0 -0.0097360927
C  C1266  1  0.05650000  0.80320000  0.74200000  1.0 -0.0097360927
C  C1267  1  0.30320000  0.44350000  0.99200000  1.0 -0.0097360927
C  C1268  1  0.69680000  0.55650000  0.49200000  1.0 -0.0097360927
C  C1269  1  0.55650000  0.69680000  0.50800000  1.0 -0.0097360927
C  C1270  1  0.44350000  0.30320000  0.00800000  1.0 -0.0097360927
C  C1271  1  0.19680000  0.94350000  0.75800000  1.0 -0.0097360927
C  C1272  1  0.80320000  0.05650000  0.25800000  1.0 -0.0097360927
C  C1273  1  0.95700000  0.23820000  0.26100000  1.0 -0.0899115117
C  C1274  1  0.04300000  0.76180000  0.76100000  1.0 -0.0899115117
C  C1275  1  0.26180000  0.45700000  0.01100000  1.0 -0.0899115117
C  C1276  1  0.73820000  0.54300000  0.51100000  1.0 -0.0899115117
C  C1277  1  0.54300000  0.73820000  0.48900000  1.0 -0.0899115117
C  C1278  1  0.45700000  0.26180000  0.98900000  1.0 -0.0899115117
C  C1279  1  0.23820000  0.95700000  0.73900000  1.0 -0.0899115117
C  C1280  1  0.76180000  0.04300000  0.23900000  1.0 -0.0899115117
C  C1281  1  0.77640000  0.04700000  0.22370000  1.0 -0.0784613806
C  C1282  1  0.22360000  0.95300000  0.72370000  1.0 -0.0784613806
C  C1283  1  0.45300000  0.27640000  0.97370000  1.0 -0.0784613806
C  C1284  1  0.54700000  0.72360000  0.47370000  1.0 -0.0784613806
C  C1285  1  0.72360000  0.54700000  0.52630000  1.0 -0.0784613806
C  C1286  1  0.27640000  0.45300000  0.02630000  1.0 -0.0784613806
C  C1287  1  0.04700000  0.77640000  0.77630000  1.0 -0.0784613806
C  C1288  1  0.95300000  0.22360000  0.27630000  1.0 -0.0784613806
N  N1  1  0.87320000  0.19040000  0.16740000  1.0 -0.1694716516
N  N2  1  0.12680000  0.80960000  0.66740000  1.0 -0.1694716516
N  N3  1  0.30960000  0.37320000  0.91740000  1.0 -0.1694716516
N  N4  1  0.69040000  0.62680000  0.41740000  1.0 -0.1694716516
N  N5  1  0.62680000  0.69040000  0.58260000  1.0 -0.1694716516
N  N6  1  0.37320000  0.30960000  0.08260000  1.0 -0.1694716516
N  N7  1  0.19040000  0.87320000  0.83260000  1.0 -0.1694716516
N  N8  1  0.80960000  0.12680000  0.33260000  1.0 -0.1600984936
N  N9  1  0.87520000  0.19560000  0.16210000  1.0 -0.1391422032
N  N10  1  0.12480000  0.80440000  0.66210000  1.0 -0.1391422032
N  N11  1  0.30440000  0.37520000  0.91210000  1.0 -0.1391422032
N  N12  1  0.69560000  0.62480000  0.41210000  1.0 -0.1391422032
N  N13  1  0.62480000  0.69560000  0.58790000  1.0 -0.1391422032
N  N14  1  0.37520000  0.30440000  0.08790000  1.0 -0.1391422032
N  N15  1  0.19560000  0.87520000  0.83790000  1.0 -0.1391422032
N  N16  1  0.80440000  0.12480000  0.33790000  1.0 -0.1391422032
N  N17  1  0.17600000  0.54070000  0.01980000  1.0 0.1528194654
N  N18  1  0.82400000  0.45930000  0.51980000  1.0 0.1528194654
N  N19  1  0.95930000  0.67600000  0.76980000  1.0 0.1528194654
N  N20  1  0.04070000  0.32400000  0.26980000  1.0 0.1528194654
N  N21  1  0.32400000  0.04070000  0.73020000  1.0 0.1528194654
N  N22  1  0.67600000  0.95930000  0.23020000  1.0 0.1528194654
N  N23  1  0.54070000  0.17600000  0.98020000  1.0 0.1528194654
N  N24  1  0.45930000  0.82400000  0.48020000  1.0 0.1528194654
N  N25  1  0.15570000  0.54700000  0.01620000  1.0 0.1569808927
N  N26  1  0.84430000  0.45300000  0.51620000  1.0 0.1569808927
N  N27  1  0.95300000  0.65570000  0.76620000  1.0 0.1569808927
N  N28  1  0.04700000  0.34430000  0.26620000  1.0 0.1569808927
N  N29  1  0.34430000  0.04700000  0.73380000  1.0 0.1569808927
N  N30  1  0.65570000  0.95300000  0.23380000  1.0 0.1569808927
N  N31  1  0.54700000  0.15570000  0.98380000  1.0 0.1569808927
N  N32  1  0.45300000  0.84430000  0.48380000  1.0 0.1569808927
N  N33  1  0.95120000  0.67030000  0.17550000  1.0 -0.0899115117
N  N34  1  0.04880000  0.32970000  0.67550000  1.0 -0.0899115117
N  N35  1  0.82970000  0.45120000  0.92550000  1.0 -0.0899115117
N  N36  1  0.17030000  0.54880000  0.42550000  1.0 -0.0899115117
N  N37  1  0.54880000  0.17030000  0.57450000  1.0 -0.0899115117
N  N38  1  0.45120000  0.82970000  0.07450000  1.0 -0.0899115117
N  N39  1  0.67030000  0.95120000  0.82450000  1.0 -0.0899115117
N  N40  1  0.32970000  0.04880000  0.32450000  1.0 -0.0899115117
N  N41  1  0.86430000  0.70000000  0.17060000  1.0 -0.0307290467
N  N42  1  0.13570000  0.30000000  0.67060000  1.0 -0.0307290467
N  N43  1  0.80000000  0.36430000  0.92060000  1.0 -0.0307290467
N  N44  1  0.20000000  0.63570000  0.42060000  1.0 -0.0307290467
N  N45  1  0.63570000  0.20000000  0.57940000  1.0 -0.0307290467
N  N46  1  0.36430000  0.80000000  0.07940000  1.0 -0.0307290467
N  N47  1  0.70000000  0.86430000  0.82940000  1.0 -0.0307290467
N  N48  1  0.30000000  0.13570000  0.32940000  1.0 -0.0307290467
O  O1  1  0.04370000  0.03910000  0.12815000  1.0 -0.9683678838
O  O2  1  0.95630000  0.96090000  0.62815000  1.0 -0.9683678838
O  O3  1  0.46090000  0.54370000  0.87815000  1.0 -0.9683678838
O  O4  1  0.53910000  0.45630000  0.37815000  1.0 -0.9683678838
O  O5  1  0.45630000  0.53910000  0.62185000  1.0 -0.9683678838
O  O6  1  0.54370000  0.46090000  0.12185000  1.0 -0.9683678838
O  O7  1  0.03910000  0.04370000  0.87185000  1.0 -0.9683678838
O  O8  1  0.96090000  0.95630000  0.37185000  1.0 -0.9683678838
O  O9  1  0.92710000  0.13330000  0.14660000  1.0 -0.1101629671
O  O10  1  0.07290000  0.86670000  0.64660000  1.0 -0.1012699921
O  O11  1  0.36670000  0.42710000  0.89660000  1.0 -0.1101629671
O  O12  1  0.63330000  0.57290000  0.39660000  1.0 -0.1101629671
O  O13  1  0.57290000  0.63330000  0.60340000  1.0 -0.1101629671
O  O14  1  0.42710000  0.36670000  0.10340000  1.0 -0.1101629671
O  O15  1  0.13330000  0.92710000  0.85340000  1.0 -0.1101629671
O  O16  1  0.86670000  0.07290000  0.35340000  1.0 -0.1012699921
O  O17  1  0.01660000  0.41630000  0.11380000  1.0 -0.5693271103
O  O18  1  0.98340000  0.58370000  0.61380000  1.0 -0.5693271103
O  O19  1  0.08370000  0.51660000  0.86380000  1.0 -0.5693271103
O  O20  1  0.91630000  0.48340000  0.36380000  1.0 -0.5693271103
O  O21  1  0.48340000  0.91630000  0.63620000  1.0 -0.5693271103
O  O22  1  0.51660000  0.08370000  0.13620000  1.0 -0.5693271103
O  O23  1  0.41630000  0.01660000  0.88620000  1.0 -0.5693271103
O  O24  1  0.58370000  0.98340000  0.38620000  1.0 -0.5693271103
O  O25  1  0.08130000  0.42170000  0.08408000  1.0 -0.5218141145
O  O26  1  0.91870000  0.57830000  0.58408000  1.0 -0.5218141145
O  O27  1  0.07830000  0.58130000  0.83408000  1.0 -0.5218141145
O  O28  1  0.92170000  0.41870000  0.33408000  1.0 -0.5218141145
O  O29  1  0.41870000  0.92170000  0.66592000  1.0 -0.5218141145
O  O30  1  0.58130000  0.07830000  0.16592000  1.0 -0.5218141145
O  O31  1  0.42170000  0.08130000  0.91592000  1.0 -0.5218141145
O  O32  1  0.57830000  0.91870000  0.41592000  1.0 -0.5218141145
O  O33  1  0.03230000  0.15450000  0.13240000  1.0 -0.549175294
O  O34  1  0.96770000  0.84550000  0.63240000  1.0 -0.549175294
O  O35  1  0.34550000  0.53230000  0.88240000  1.0 -0.549175294
O  O36  1  0.65450000  0.46770000  0.38240000  1.0 -0.549175294
O  O37  1  0.46770000  0.65450000  0.61760000  1.0 -0.549175294
O  O38  1  0.53230000  0.34550000  0.11760000  1.0 -0.549175294
O  O39  1  0.15450000  0.03230000  0.86760000  1.0 -0.549175294
O  O40  1  0.84550000  0.96770000  0.36760000  1.0 -0.549175294
O  O41  1  0.10030000  0.14680000  0.10700000  1.0 -0.5039377286
O  O42  1  0.89970000  0.85320000  0.60700000  1.0 -0.5039377286
O  O43  1  0.35320000  0.60030000  0.85700000  1.0 -0.5039377286
O  O44  1  0.64680000  0.39970000  0.35700000  1.0 -0.5039377286
O  O45  1  0.39970000  0.64680000  0.64300000  1.0 -0.5039377286
O  O46  1  0.60030000  0.35320000  0.14300000  1.0 -0.5039377286
O  O47  1  0.14680000  0.10030000  0.89300000  1.0 -0.5039377286
O  O48  1  0.85320000  0.89970000  0.39300000  1.0 -0.5039377286
O  O49  1  0.66050000  0.00310000  0.14680000  1.0 -0.5892338398
O  O50  1  0.33950000  0.99690000  0.64680000  1.0 -0.5892338398
O  O51  1  0.49690000  0.16050000  0.89680000  1.0 -0.5892338398
O  O52  1  0.50310000  0.83950000  0.39680000  1.0 -0.5892338398
O  O53  1  0.83950000  0.50310000  0.60320000  1.0 -0.5892338398
O  O54  1  0.16050000  0.49690000  0.10320000  1.0 -0.5892338398
O  O55  1  0.00310000  0.66050000  0.85320000  1.0 -0.5892338398
O  O56  1  0.99690000  0.33950000  0.35320000  1.0 -0.5892338398
O  O57  1  0.66420000  0.93650000  0.11713000  1.0 -0.541592401
O  O58  1  0.33580000  0.06350000  0.61713000  1.0 -0.541592401
O  O59  1  0.56350000  0.16420000  0.86713000  1.0 -0.541592401
O  O60  1  0.43650000  0.83580000  0.36713000  1.0 -0.541592401
O  O61  1  0.83580000  0.43650000  0.63287000  1.0 -0.541592401
O  O62  1  0.16420000  0.56350000  0.13287000  1.0 -0.541592401
O  O63  1  0.93650000  0.66420000  0.88287000  1.0 -0.541592401
O  O64  1  0.06350000  0.33580000  0.38287000  1.0 -0.541592401
O  O65  1  0.92780000  0.03890000  0.13370000  1.0 -0.5103857212
O  O66  1  0.07220000  0.96110000  0.63370000  1.0 -0.5218141145
O  O67  1  0.46110000  0.42780000  0.88370000  1.0 -0.5103857212
O  O68  1  0.53890000  0.57220000  0.38370000  1.0 -0.5218141145
O  O69  1  0.57220000  0.53890000  0.61630000  1.0 -0.5218141145
O  O70  1  0.42780000  0.46110000  0.11630000  1.0 -0.5218141145
O  O71  1  0.03890000  0.92780000  0.86630000  1.0 -0.5218141145
O  O72  1  0.96110000  0.07220000  0.36630000  1.0 -0.5218141145
O  O73  1  0.92950000  0.98690000  0.10080000  1.0 -0.5039377286
O  O74  1  0.07050000  0.01310000  0.60080000  1.0 -0.5039377286
O  O75  1  0.51310000  0.42950000  0.85080000  1.0 -0.5039377286
O  O76  1  0.48690000  0.57050000  0.35080000  1.0 -0.5039377286
O  O77  1  0.57050000  0.48690000  0.64920000  1.0 -0.5039377286
O  O78  1  0.42950000  0.51310000  0.14920000  1.0 -0.5039377286
O  O79  1  0.98690000  0.92950000  0.89920000  1.0 -0.5039377286
O  O80  1  0.01310000  0.07050000  0.39920000  1.0 -0.5039377286
O  O81  1  0.98380000  0.57960000  0.05738000  1.0 -0.5218141145
O  O82  1  0.01620000  0.42040000  0.55738000  1.0 -0.5218141145
O  O83  1  0.92040000  0.48380000  0.80738000  1.0 -0.5218141145
O  O84  1  0.07960000  0.51620000  0.30738000  1.0 -0.5218141145
O  O85  1  0.51620000  0.07960000  0.69262000  1.0 -0.5218141145
O  O86  1  0.48380000  0.92040000  0.19262000  1.0 -0.5218141145
O  O87  1  0.57960000  0.98380000  0.94262000  1.0 -0.5218141145
O  O88  1  0.42040000  0.01620000  0.44262000  1.0 -0.5218141145
O  O89  1  0.02330000  0.50520000  0.05710000  1.0 -0.5103857212
O  O90  1  0.97670000  0.49480000  0.55710000  1.0 -0.5103857212
O  O91  1  0.99480000  0.52330000  0.80710000  1.0 -0.5103857212
O  O92  1  0.00520000  0.47670000  0.30710000  1.0 -0.5103857212
O  O93  1  0.47670000  0.00520000  0.69290000  1.0 -0.5103857212
O  O94  1  0.52330000  0.99480000  0.19290000  1.0 -0.5103857212
O  O95  1  0.50520000  0.02330000  0.94290000  1.0 -0.5103857212
O  O96  1  0.49480000  0.97670000  0.44290000  1.0 -0.5103857212
O  O97  1  0.94240000  0.58040000  0.92374000  1.0 -0.4842760841
O  O98  1  0.05760000  0.41960000  0.42374000  1.0 -0.4842760841
O  O99  1  0.91960000  0.44240000  0.67374000  1.0 -0.4842760841
O  O100  1  0.08040000  0.55760000  0.17374000  1.0 -0.4842760841
O  O101  1  0.55760000  0.08040000  0.82626000  1.0 -0.4842760841
O  O102  1  0.44240000  0.91960000  0.32626000  1.0 -0.4842760841
O  O103  1  0.58040000  0.94240000  0.07626000  1.0 -0.4842760841
O  O104  1  0.41960000  0.05760000  0.57626000  1.0 -0.4842760841
O  O105  1  0.99520000  0.51340000  0.91880000  1.0 -0.5218141145
O  O106  1  0.00480000  0.48660000  0.41880000  1.0 -0.5218141145
O  O107  1  0.98660000  0.49520000  0.66880000  1.0 -0.5218141145
O  O108  1  0.01340000  0.50480000  0.16880000  1.0 -0.5218141145
O  O109  1  0.50480000  0.01340000  0.83120000  1.0 -0.5218141145
O  O110  1  0.49520000  0.98660000  0.33120000  1.0 -0.5218141145
O  O111  1  0.51340000  0.99520000  0.08120000  1.0 -0.5218141145
O  O112  1  0.48660000  0.00480000  0.58120000  1.0 -0.5218141145
O  O113  1  0.06960000  0.64910000  0.13500000  1.0 -0.541592401
O  O114  1  0.93040000  0.35090000  0.63500000  1.0 -0.541592401
O  O115  1  0.85090000  0.56960000  0.88500000  1.0 -0.541592401
O  O116  1  0.14910000  0.43040000  0.38500000  1.0 -0.541592401
O  O117  1  0.43040000  0.14910000  0.61500000  1.0 -0.541592401
O  O118  1  0.56960000  0.85090000  0.11500000  1.0 -0.541592401
O  O119  1  0.64910000  0.06960000  0.86500000  1.0 -0.541592401
O  O120  1  0.35090000  0.93040000  0.36500000  1.0 -0.541592401
O  O121  1  0.00260000  0.64930000  0.10600000  1.0 -0.5295897566
O  O122  1  0.99740000  0.35070000  0.60600000  1.0 -0.5295897566
O  O123  1  0.85070000  0.50260000  0.85600000  1.0 -0.5295897566
O  O124  1  0.14930000  0.49740000  0.35600000  1.0 -0.5295897566
O  O125  1  0.49740000  0.14930000  0.64400000  1.0 -0.5295897566
O  O126  1  0.50260000  0.85070000  0.14400000  1.0 -0.5295897566
O  O127  1  0.64930000  0.00260000  0.89400000  1.0 -0.5295897566
O  O128  1  0.35070000  0.99740000  0.39400000  1.0 -0.5295897566
O  O129  1  0.05950000  0.91740000  0.14622000  1.0 -0.5103857212
O  O130  1  0.94050000  0.08260000  0.64622000  1.0 -0.5103857212
O  O131  1  0.58260000  0.55950000  0.89622000  1.0 -0.5103857212
O  O132  1  0.41740000  0.44050000  0.39622000  1.0 -0.5103857212
O  O133  1  0.44050000  0.41740000  0.60378000  1.0 -0.5103857212
O  O134  1  0.55950000  0.58260000  0.10378000  1.0 -0.5103857212
O  O135  1  0.91740000  0.05950000  0.85378000  1.0 -0.5103857212
O  O136  1  0.08260000  0.94050000  0.35378000  1.0 -0.5103857212
O  O137  1  0.03410000  0.92280000  0.10462000  1.0 -0.5295897566
O  O138  1  0.96590000  0.07720000  0.60462000  1.0 -0.5295897566
O  O139  1  0.57720000  0.53410000  0.85462000  1.0 -0.5295897566
O  O140  1  0.42280000  0.46590000  0.35462000  1.0 -0.5295897566
O  O141  1  0.46590000  0.42280000  0.64538000  1.0 -0.5295897566
O  O142  1  0.53410000  0.57720000  0.14538000  1.0 -0.5295897566
O  O143  1  0.92280000  0.03410000  0.89538000  1.0 -0.5295897566
O  O144  1  0.07720000  0.96590000  0.39538000  1.0 -0.5295897566
O  O145  1  0.43250000  0.01820000  0.11946000  1.0 -0.5218141145
O  O146  1  0.56750000  0.98180000  0.61946000  1.0 -0.5218141145
O  O147  1  0.48180000  0.93250000  0.86946000  1.0 -0.5218141145
O  O148  1  0.51820000  0.06750000  0.36946000  1.0 -0.5218141145
O  O149  1  0.06750000  0.51820000  0.63054000  1.0 -0.5218141145
O  O150  1  0.93250000  0.48180000  0.13054000  1.0 -0.5218141145
O  O151  1  0.01820000  0.43250000  0.88054000  1.0 -0.5218141145
O  O152  1  0.98180000  0.56750000  0.38054000  1.0 -0.5218141145
O  O153  1  0.42610000  0.94440000  0.14309000  1.0 -0.5295897566
O  O154  1  0.57390000  0.05560000  0.64309000  1.0 -0.5295897566
O  O155  1  0.55560000  0.92610000  0.89309000  1.0 -0.5295897566
O  O156  1  0.44440000  0.07390000  0.39309000  1.0 -0.5295897566
O  O157  1  0.07390000  0.44440000  0.60691000  1.0 -0.5295897566
O  O158  1  0.92610000  0.55560000  0.10691000  1.0 -0.5295897566
O  O159  1  0.94440000  0.42610000  0.85691000  1.0 -0.5295897566
O  O160  1  0.05560000  0.57390000  0.35691000  1.0 -0.5295897566
O  O161  1  0.16810000  0.04950000  0.11671000  1.0 -0.5218141145
O  O162  1  0.83190000  0.95050000  0.61671000  1.0 -0.5218141145
O  O163  1  0.45050000  0.66810000  0.86671000  1.0 -0.5218141145
O  O164  1  0.54950000  0.33190000  0.36671000  1.0 -0.5218141145
O  O165  1  0.33190000  0.54950000  0.63329000  1.0 -0.5218141145
O  O166  1  0.66810000  0.45050000  0.13329000  1.0 -0.5218141145
O  O167  1  0.04950000  0.16810000  0.88329000  1.0 -0.5218141145
O  O168  1  0.95050000  0.83190000  0.38329000  1.0 -0.5218141145
O  O169  1  0.15270000  0.98830000  0.14640000  1.0 -0.541592401
O  O170  1  0.84730000  0.01170000  0.64640000  1.0 -0.541592401
O  O171  1  0.51170000  0.65270000  0.89640000  1.0 -0.541592401
O  O172  1  0.48830000  0.34730000  0.39640000  1.0 -0.541592401
O  O173  1  0.34730000  0.48830000  0.60360000  1.0 -0.541592401
O  O174  1  0.65270000  0.51170000  0.10360000  1.0 -0.541592401
O  O175  1  0.98830000  0.15270000  0.85360000  1.0 -0.541592401
O  O176  1  0.01170000  0.84730000  0.35360000  1.0 -0.541592401
O  O177  1  0.01810000  0.01240000  0.06578000  1.0 -0.5566074046
O  O178  1  0.98190000  0.98760000  0.56578000  1.0 -0.5566074046
O  O179  1  0.48760000  0.51810000  0.81578000  1.0 -0.5566074046
O  O180  1  0.51240000  0.48190000  0.31578000  1.0 -0.5566074046
O  O181  1  0.48190000  0.51240000  0.68422000  1.0 -0.5566074046
O  O182  1  0.51810000  0.48760000  0.18422000  1.0 -0.5566074046
O  O183  1  0.01240000  0.01810000  0.93422000  1.0 -0.5566074046
O  O184  1  0.98760000  0.98190000  0.43422000  1.0 -0.5566074046
O  O185  1  0.09260000  0.05650000  0.06963000  1.0 -0.4895541164
O  O186  1  0.90740000  0.94350000  0.56963000  1.0 -0.4895541164
O  O187  1  0.44350000  0.59260000  0.81963000  1.0 -0.4895541164
O  O188  1  0.55650000  0.40740000  0.31963000  1.0 -0.4895541164
O  O189  1  0.40740000  0.55650000  0.68037000  1.0 -0.4895541164
O  O190  1  0.59260000  0.44350000  0.18037000  1.0 -0.4895541164
O  O191  1  0.05650000  0.09260000  0.93037000  1.0 -0.4895541164
O  O192  1  0.94350000  0.90740000  0.43037000  1.0 -0.4895541164
O  O193  1  0.04840000  0.53230000  0.11246000  1.0 -1.0159507401
O  O194  1  0.95160000  0.46770000  0.61246000  1.0 -1.0159507401
O  O195  1  0.96770000  0.54840000  0.86246000  1.0 -1.0159507401
O  O196  1  0.03230000  0.45160000  0.36246000  1.0 -1.01483942
O  O197  1  0.45160000  0.03230000  0.63754000  1.0 -1.0159507401
O  O198  1  0.54840000  0.96770000  0.13754000  1.0 -1.0159507401
O  O199  1  0.53230000  0.04840000  0.88754000  1.0 -1.0159507401
O  O200  1  0.46770000  0.95160000  0.38754000  1.0 -1.0159507401
O  O201  1  0.06180000  0.00830000  0.18670000  1.0 -0.1101629671
O  O202  1  0.93820000  0.99170000  0.68670000  1.0 -0.1101629671
O  O203  1  0.49170000  0.56180000  0.93670000  1.0 -0.1012699921
O  O204  1  0.50830000  0.43820000  0.43670000  1.0 -0.1012699921
O  O205  1  0.43820000  0.50830000  0.56330000  1.0 -0.1101629671
O  O206  1  0.56180000  0.49170000  0.06330000  1.0 -0.1101629671
O  O207  1  0.00830000  0.06180000  0.81330000  1.0 -0.1101629671
O  O208  1  0.99170000  0.93820000  0.31330000  1.0 -0.1101629671
O  O209  1  0.99970000  0.07050000  0.18190000  1.0 -0.1694716516
O  O210  1  0.00030000  0.92950000  0.68190000  1.0 -0.1694716516
O  O211  1  0.42950000  0.49970000  0.93190000  1.0 -0.1694716516
O  O212  1  0.57050000  0.50030000  0.43190000  1.0 -0.1694716516
O  O213  1  0.50030000  0.57050000  0.56810000  1.0 -0.1694716516
O  O214  1  0.49970000  0.42950000  0.06810000  1.0 -0.1694716516
O  O215  1  0.07050000  0.99970000  0.81810000  1.0 -0.1694716516
O  O216  1  0.92950000  0.00030000  0.31810000  1.0 -0.1694716516
O  O217  1  0.95200000  0.14910000  0.16180000  1.0 -0.1215150859
O  O218  1  0.04800000  0.85090000  0.66180000  1.0 -0.1215150859
O  O219  1  0.35090000  0.45200000  0.91180000  1.0 -0.1215150859
O  O220  1  0.64910000  0.54800000  0.41180000  1.0 -0.1215150859
O  O221  1  0.54800000  0.64910000  0.58820000  1.0 -0.1215150859
O  O222  1  0.45200000  0.35090000  0.08820000  1.0 -0.1215150859
O  O223  1  0.14910000  0.95200000  0.83820000  1.0 -0.1215150859
O  O224  1  0.85090000  0.04800000  0.33820000  1.0 -0.1215150859
O  O225  1  0.10990000  0.51920000  0.04830000  1.0 -0.1215150859
O  O226  1  0.89010000  0.48080000  0.54830000  1.0 -0.1215150859
O  O227  1  0.98080000  0.60990000  0.79830000  1.0 -0.1215150859
O  O228  1  0.01920000  0.39010000  0.29830000  1.0 -0.1215150859
O  O229  1  0.39010000  0.01920000  0.70170000  1.0 -0.1215150859
O  O230  1  0.60990000  0.98080000  0.20170000  1.0 -0.1215150859
O  O231  1  0.51920000  0.10990000  0.95170000  1.0 -0.1215150859
O  O232  1  0.48080000  0.89010000  0.45170000  1.0 -0.1215150859
O  O233  1  0.14870000  0.50610000  0.05740000  1.0 -0.1101629671
O  O234  1  0.85130000  0.49390000  0.55740000  1.0 -0.1101629671
O  O235  1  0.99390000  0.64870000  0.80740000  1.0 -0.1101629671
O  O236  1  0.00610000  0.35130000  0.30740000  1.0 -0.1101629671
O  O237  1  0.35130000  0.00610000  0.69260000  1.0 -0.1101629671
O  O238  1  0.64870000  0.99390000  0.19260000  1.0 -0.1101629671
O  O239  1  0.50610000  0.14870000  0.94260000  1.0 -0.1101629671
O  O240  1  0.49390000  0.85130000  0.44260000  1.0 -0.1101629671
O  O241  1  0.05050000  0.99130000  0.18780000  1.0 -0.1012699921
O  O242  1  0.94950000  0.00870000  0.68780000  1.0 -0.1012699921
O  O243  1  0.50870000  0.55050000  0.93780000  1.0 -0.1101629671
O  O244  1  0.49130000  0.44950000  0.43780000  1.0 -0.1012699921
O  O245  1  0.44950000  0.49130000  0.56220000  1.0 -0.1012699921
O  O246  1  0.55050000  0.50870000  0.06220000  1.0 -0.1012699921
O  O247  1  0.99130000  0.05050000  0.81220000  1.0 -0.1101629671
O  O248  1  0.00870000  0.94950000  0.31220000  1.0 -0.1101629671
O  O249  1  0.98460000  0.04790000  0.17940000  1.0 -0.1511918713
O  O250  1  0.01540000  0.95210000  0.67940000  1.0 -0.1511918713
O  O251  1  0.45210000  0.48460000  0.92940000  1.0 -0.1600984936
O  O252  1  0.54790000  0.51540000  0.42940000  1.0 -0.1600984936
O  O253  1  0.51540000  0.54790000  0.57060000  1.0 -0.1600984936
O  O254  1  0.48460000  0.45210000  0.07060000  1.0 -0.1600984936
O  O255  1  0.04790000  0.98460000  0.82060000  1.0 -0.1511918713
O  O256  1  0.95210000  0.01540000  0.32060000  1.0 -0.1511918713
O  O257  1  0.97540000  0.59240000  0.15800000  1.0 -0.4414780828
O  O258  1  0.02460000  0.40760000  0.65800000  1.0 -0.4414780828
O  O259  1  0.90760000  0.47540000  0.90800000  1.0 -0.4414780828
O  O260  1  0.09240000  0.52460000  0.40800000  1.0 -0.4414780828
O  O261  1  0.52460000  0.09240000  0.59200000  1.0 -0.4414780828
O  O262  1  0.47540000  0.90760000  0.09200000  1.0 -0.4414780828
O  O263  1  0.59240000  0.97540000  0.84200000  1.0 -0.4414780828
O  O264  1  0.40760000  0.02460000  0.34200000  1.0 -0.4414780828
O  O265  1  0.78370000  0.66350000  0.16230000  1.0 -0.4563106539
O  O266  1  0.21630000  0.33650000  0.66230000  1.0 -0.4563106539
O  O267  1  0.83650000  0.28370000  0.91230000  1.0 -0.4563106539
O  O268  1  0.16350000  0.71630000  0.41230000  1.0 -0.4563106539
O  O269  1  0.71630000  0.16350000  0.58770000  1.0 -0.4563106539
O  O270  1  0.28370000  0.83650000  0.08770000  1.0 -0.4563106539
O  O271  1  0.66350000  0.78370000  0.83770000  1.0 -0.4563106539
O  O272  1  0.33650000  0.21630000  0.33770000  1.0 -0.4563106539
