# DDEC6 charges by PACMAN v1.1 (https://github.com/mtap-research/PACMAN-charge/)
data_EPOTAF_ASR_pacman
_symmetry_space_group_name_H-M   'P 1'
_cell_length_a   15.06830000
_cell_length_b   15.06830000
_cell_length_c   28.48700000
_cell_angle_alpha   86.89730000
_cell_angle_beta   93.10270000
_cell_angle_gamma   41.90440000
_symmetry_Int_Tables_number   1
_chemical_formula_structural   Cu2H24(C11O4)3
_chemical_formula_sum   'Cu4 H48 C66 O24'
_cell_volume   4270.18880456
_cell_formula_units_Z   2
loop_
 _symmetry_equiv_pos_site_id
 _symmetry_equiv_pos_as_xyz
  1  'x, y, z'
loop_
 _atom_site_type_symbol
 _atom_site_label
 _atom_site_symmetry_multiplicity
 _atom_site_fract_x
 _atom_site_fract_y
 _atom_site_fract_z
 _atom_site_occupancy
 _atom_site_charge
Cu  Cu1  1  0.62216000  0.41572000  0.98912000  1.0 0.8409778639
Cu  Cu2  1  0.41572000  0.62216000  0.51088000  1.0 0.8409778639
Cu  Cu3  1  0.37784000  0.58428000  0.01088000  1.0 0.8409778639
Cu  Cu4  1  0.58428000  0.37784000  0.48912000  1.0 0.8409778639
H  H1  1  0.55400000  0.67080000  0.87180000  1.0 0.1265852068
H  H2  1  0.67080000  0.55400000  0.62820000  1.0 0.1265852068
H  H3  1  0.44600000  0.32920000  0.12820000  1.0 0.1265852068
H  H4  1  0.32920000  0.44600000  0.37180000  1.0 0.1265852068
H  H5  1  0.19970000  0.91150000  0.91300000  1.0 0.1265852068
H  H6  1  0.91150000  0.19970000  0.58700000  1.0 0.1265852068
H  H7  1  0.80030000  0.08850000  0.08700000  1.0 0.1265852068
H  H8  1  0.08850000  0.80030000  0.41300000  1.0 0.1265852068
H  H9  1  0.10700000  0.10060000  0.85520000  1.0 0.1414336576
H  H10  1  0.10060000  0.10700000  0.64480000  1.0 0.1414336576
H  H11  1  0.89300000  0.89940000  0.14480000  1.0 0.1414336576
H  H12  1  0.89940000  0.89300000  0.35520000  1.0 0.1414336576
H  H13  1  0.17510000  0.30330000  0.81490000  1.0 0.0972193428
H  H14  1  0.30330000  0.17510000  0.68510000  1.0 0.0972193428
H  H15  1  0.82490000  0.69670000  0.18510000  1.0 0.0972193428
H  H16  1  0.69670000  0.82490000  0.31490000  1.0 0.0972193428
H  H17  1  0.15970000  0.39470000  0.77630000  1.0 0.0972193428
H  H18  1  0.39470000  0.15970000  0.72370000  1.0 0.0972193428
H  H19  1  0.84030000  0.60530000  0.22370000  1.0 0.0972193428
H  H20  1  0.60530000  0.84030000  0.27630000  1.0 0.0972193428
H  H21  1  0.22920000  0.49280000  0.91390000  1.0 0.1216474637
H  H22  1  0.49280000  0.22920000  0.58610000  1.0 0.1216474637
H  H23  1  0.77080000  0.50720000  0.08610000  1.0 0.1216474637
H  H24  1  0.50720000  0.77080000  0.41390000  1.0 0.1216474637
H  H25  1  0.39580000  0.03980000  0.79040000  1.0 0.0972193428
H  H26  1  0.03980000  0.39580000  0.70960000  1.0 0.0972193428
H  H27  1  0.60420000  0.96020000  0.20960000  1.0 0.0972193428
H  H28  1  0.96020000  0.60420000  0.29040000  1.0 0.0972193428
H  H29  1  0.33290000  0.02970000  0.74800000  1.0 0.0972193428
H  H30  1  0.02970000  0.33290000  0.75200000  1.0 0.0972193428
H  H31  1  0.66710000  0.97030000  0.25200000  1.0 0.0972193428
H  H32  1  0.97030000  0.66710000  0.24800000  1.0 0.0972193428
H  H33  1  0.47130000  0.84650000  0.81450000  1.0 0.1216474637
H  H34  1  0.84650000  0.47130000  0.68550000  1.0 0.1216474637
H  H35  1  0.52870000  0.15350000  0.18550000  1.0 0.1216474637
H  H36  1  0.15350000  0.52870000  0.31450000  1.0 0.1216474637
H  H37  1  0.55760000  0.15140000  0.82930000  1.0 0.1414336576
H  H38  1  0.15140000  0.55760000  0.67070000  1.0 0.1414336576
H  H39  1  0.44240000  0.84860000  0.17070000  1.0 0.1414336576
H  H40  1  0.84860000  0.44240000  0.32930000  1.0 0.1414336576
H  H41  1  0.60460000  0.22700000  0.88640000  1.0 0.1216474637
H  H42  1  0.22700000  0.60460000  0.61360000  1.0 0.1216474637
H  H43  1  0.39540000  0.77300000  0.11360000  1.0 0.1216474637
H  H44  1  0.77300000  0.39540000  0.38640000  1.0 0.1216474637
H  H45  1  0.17290000  0.43150000  0.85680000  1.0 0.1265852068
H  H46  1  0.43150000  0.17290000  0.64320000  1.0 0.1265852068
H  H47  1  0.82710000  0.56850000  0.14320000  1.0 0.1265852068
H  H48  1  0.56850000  0.82710000  0.35680000  1.0 0.1265852068
C  C1  1  0.22780000  0.22780000  0.75000000  1.0 0.0765975877
C  C2  1  0.77220000  0.77220000  0.25000000  1.0 0.0765975877
C  C3  1  0.46500000  0.75540000  0.86970000  1.0 -0.064324873
C  C4  1  0.75540000  0.46500000  0.63030000  1.0 -0.064324873
C  C5  1  0.53500000  0.24460000  0.13030000  1.0 -0.064324873
C  C6  1  0.24460000  0.53500000  0.36970000  1.0 -0.064324873
C  C7  1  0.38681000  0.77421000  0.89830000  1.0 -0.0714880152
C  C8  1  0.77421000  0.38681000  0.60170000  1.0 -0.0714880152
C  C9  1  0.61319000  0.22579000  0.10170000  1.0 -0.0714880152
C  C10  1  0.22579000  0.61319000  0.39830000  1.0 -0.0714880152
C  C11  1  0.25560000  0.89860000  0.89380000  1.0 -0.0714880152
C  C12  1  0.89860000  0.25560000  0.60620000  1.0 -0.0714880152
C  C13  1  0.74440000  0.10140000  0.10620000  1.0 -0.0714880152
C  C14  1  0.10140000  0.74440000  0.39380000  1.0 -0.0714880152
C  C15  1  0.19680000  0.01640000  0.85890000  1.0 -0.2471245662
C  C16  1  0.01640000  0.19680000  0.64110000  1.0 -0.2471245662
C  C17  1  0.80320000  0.98360000  0.14110000  1.0 -0.2471245662
C  C18  1  0.98360000  0.80320000  0.35890000  1.0 -0.2471245662
C  C19  1  0.43079000  0.66839000  0.93439000  1.0 0.5807133778
C  C20  1  0.66839000  0.43079000  0.56561000  1.0 0.5807133778
C  C21  1  0.56921000  0.33161000  0.06561000  1.0 0.5807133778
C  C22  1  0.33161000  0.56921000  0.43439000  1.0 0.5807133778
C  C23  1  0.21510000  0.30270000  0.78912000  1.0 -0.0714880152
C  C24  1  0.30270000  0.21510000  0.71088000  1.0 -0.0714880152
C  C25  1  0.78490000  0.69730000  0.21088000  1.0 -0.0714880152
C  C26  1  0.69730000  0.78490000  0.28912000  1.0 -0.0714880152
C  C27  1  0.29499000  0.42459000  0.89680000  1.0 -0.0504599442
C  C28  1  0.42459000  0.29499000  0.60320000  1.0 -0.0504599442
C  C29  1  0.70501000  0.57541000  0.10320000  1.0 -0.0504599442
C  C30  1  0.57541000  0.70501000  0.39680000  1.0 -0.0504599442
C  C31  1  0.31236000  0.08316000  0.77241000  1.0 -0.0714880152
C  C32  1  0.08316000  0.31236000  0.72759000  1.0 -0.0714880152
C  C33  1  0.68764000  0.91684000  0.22759000  1.0 -0.0714880152
C  C34  1  0.91684000  0.68764000  0.27241000  1.0 -0.0714880152
C  C35  1  0.29082000  0.98602000  0.83280000  1.0 0.2460735045
C  C36  1  0.98602000  0.29082000  0.66720000  1.0 0.2460735045
C  C37  1  0.70918000  0.01398000  0.16720000  1.0 0.2460735045
C  C38  1  0.01398000  0.70918000  0.33280000  1.0 0.2460735045
C  C39  1  0.41544000  0.86344000  0.83510000  1.0 -0.2337770299
C  C40  1  0.86344000  0.41544000  0.66490000  1.0 -0.2337770299
C  C41  1  0.58456000  0.13656000  0.16490000  1.0 -0.2337770299
C  C42  1  0.13656000  0.58456000  0.33510000  1.0 -0.2337770299
C  C43  1  0.36145000  0.28305000  0.84030000  1.0 0.2557012602
C  C44  1  0.28305000  0.36145000  0.65970000  1.0 0.2557012602
C  C45  1  0.63855000  0.71695000  0.15970000  1.0 0.2557012602
C  C46  1  0.71695000  0.63855000  0.34030000  1.0 0.2557012602
C  C47  1  0.49220000  0.21940000  0.84650000  1.0 -0.2370292977
C  C48  1  0.21940000  0.49220000  0.65350000  1.0 -0.2370292977
C  C49  1  0.50780000  0.78060000  0.15350000  1.0 -0.2370292977
C  C50  1  0.78060000  0.50780000  0.34650000  1.0 -0.2370292977
C  C51  1  0.51920000  0.26600000  0.88130000  1.0 -0.0714880152
C  C52  1  0.26600000  0.51920000  0.61870000  1.0 -0.0714880152
C  C53  1  0.48080000  0.73400000  0.11870000  1.0 -0.0714880152
C  C54  1  0.73400000  0.48080000  0.38130000  1.0 -0.0714880152
C  C55  1  0.42463000  0.36403000  0.90640000  1.0 -0.0714880152
C  C56  1  0.36403000  0.42463000  0.59360000  1.0 -0.0714880152
C  C57  1  0.57537000  0.63597000  0.09360000  1.0 -0.0714880152
C  C58  1  0.63597000  0.57537000  0.40640000  1.0 -0.0714880152
C  C59  1  0.26008000  0.38768000  0.86330000  1.0 -0.2563084201
C  C60  1  0.38768000  0.26008000  0.63670000  1.0 -0.2563084201
C  C61  1  0.73992000  0.61232000  0.13670000  1.0 -0.2563084201
C  C62  1  0.61232000  0.73992000  0.36330000  1.0 -0.2563084201
C  C63  1  0.45033000  0.41673000  0.94050000  1.0 0.5807133778
C  C64  1  0.41673000  0.45033000  0.55950000  1.0 0.5807133778
C  C65  1  0.54967000  0.58327000  0.05950000  1.0 0.5807133778
C  C66  1  0.58327000  0.54967000  0.44050000  1.0 0.5807133778
O  O1  1  0.34238000  0.70198000  0.95754000  1.0 -0.512441902
O  O2  1  0.70198000  0.34238000  0.54246000  1.0 -0.512441902
O  O3  1  0.65762000  0.29802000  0.04246000  1.0 -0.512441902
O  O4  1  0.29802000  0.65762000  0.45754000  1.0 -0.512441902
O  O5  1  0.54990000  0.55810000  0.93878000  1.0 -0.4832761125
O  O6  1  0.55810000  0.54990000  0.56122000  1.0 -0.4832761125
O  O7  1  0.45010000  0.44190000  0.06122000  1.0 -0.4832761125
O  O8  1  0.44190000  0.45010000  0.43878000  1.0 -0.4832761125
O  O9  1  0.56841000  0.36161000  0.94513000  1.0 -0.5314434604
O  O10  1  0.36161000  0.56841000  0.55487000  1.0 -0.5314434604
O  O11  1  0.43159000  0.63839000  0.05487000  1.0 -0.5314434604
O  O12  1  0.63839000  0.43159000  0.44513000  1.0 -0.5314434604
O  O13  1  0.36011000  0.50471000  0.96360000  1.0 -0.512441902
O  O14  1  0.50471000  0.36011000  0.53640000  1.0 -0.512441902
O  O15  1  0.63989000  0.49529000  0.03640000  1.0 -0.512441902
O  O16  1  0.49529000  0.63989000  0.46360000  1.0 -0.512441902
O  O17  1  0.23023000  0.09863000  0.80302000  1.0 -0.2006826387
O  O18  1  0.09863000  0.23023000  0.69698000  1.0 -0.2006826387
O  O19  1  0.76977000  0.90137000  0.19698000  1.0 -0.2006826387
O  O20  1  0.90137000  0.76977000  0.30302000  1.0 -0.2006826387
O  O21  1  0.34906000  0.23066000  0.80562000  1.0 -0.2006826387
O  O22  1  0.23066000  0.34906000  0.69438000  1.0 -0.2006826387
O  O23  1  0.65094000  0.76934000  0.19438000  1.0 -0.2006826387
O  O24  1  0.76934000  0.65094000  0.30562000  1.0 -0.2006826387
