# DDEC6 charges by PACMAN v1.1 (https://github.com/mtap-research/PACMAN-charge/)
data_EQAMUG_FSR_pacman
_symmetry_space_group_name_H-M   'P 1'
_cell_length_a   6.90700000
_cell_length_b   21.89700000
_cell_length_c   23.15100000
_cell_angle_alpha   90.00000000
_cell_angle_beta   90.00000000
_cell_angle_gamma   90.00000000
_symmetry_Int_Tables_number   1
_chemical_formula_structural   NdH3C12N2O11
_chemical_formula_sum   'Nd8 H24 C96 N16 O88'
_cell_volume   3501.41694643
_cell_formula_units_Z   8
loop_
 _symmetry_equiv_pos_site_id
 _symmetry_equiv_pos_as_xyz
  1  'x, y, z'
loop_
 _atom_site_type_symbol
 _atom_site_label
 _atom_site_symmetry_multiplicity
 _atom_site_fract_x
 _atom_site_fract_y
 _atom_site_fract_z
 _atom_site_occupancy
 _atom_site_charge
Nd  Nd1  1  0.57830000  0.26843000  0.44936000  1.0 2.0890838827
Nd  Nd2  1  0.92170000  0.73157000  0.94936000  1.0 2.0890838827
Nd  Nd3  1  0.42170000  0.76843000  0.05064000  1.0 2.0890838827
Nd  Nd4  1  0.07830000  0.23157000  0.55064000  1.0 2.0890838827
Nd  Nd5  1  0.42170000  0.73157000  0.55064000  1.0 2.0890838827
Nd  Nd6  1  0.07830000  0.26843000  0.05064000  1.0 2.0890838827
Nd  Nd7  1  0.57830000  0.23157000  0.94936000  1.0 2.0890838827
Nd  Nd8  1  0.92170000  0.76843000  0.44936000  1.0 2.0890838827
H  H1  1  0.56460000  0.15760000  0.26360000  1.0 0.1575464166
H  H2  1  0.93540000  0.84240000  0.76360000  1.0 0.1575464166
H  H3  1  0.43540000  0.65760000  0.23640000  1.0 0.1575464166
H  H4  1  0.06460000  0.34240000  0.73640000  1.0 0.1575464166
H  H5  1  0.43540000  0.84240000  0.73640000  1.0 0.1575464166
H  H6  1  0.06460000  0.15760000  0.23640000  1.0 0.1575464166
H  H7  1  0.56460000  0.34240000  0.76360000  1.0 0.1575464166
H  H8  1  0.93540000  0.65760000  0.26360000  1.0 0.1575464166
H  H9  1  0.59280000  0.33920000  0.24290000  1.0 0.1355987514
H  H10  1  0.90720000  0.66080000  0.74290000  1.0 0.1355987514
H  H11  1  0.40720000  0.83920000  0.25710000  1.0 0.1355987514
H  H12  1  0.09280000  0.16080000  0.75710000  1.0 0.1355987514
H  H13  1  0.40720000  0.66080000  0.75710000  1.0 0.1355987514
H  H14  1  0.09280000  0.33920000  0.25710000  1.0 0.1355987514
H  H15  1  0.59280000  0.16080000  0.74290000  1.0 0.1355987514
H  H16  1  0.90720000  0.83920000  0.24290000  1.0 0.1355987514
H  H17  1  0.59010000  0.32710000  0.14360000  1.0 0.1463618005
H  H18  1  0.90990000  0.67290000  0.64360000  1.0 0.1463618005
H  H19  1  0.40990000  0.82710000  0.35640000  1.0 0.1463618005
H  H20  1  0.09010000  0.17290000  0.85640000  1.0 0.1463618005
H  H21  1  0.40990000  0.67290000  0.85640000  1.0 0.1463618005
H  H22  1  0.09010000  0.32710000  0.35640000  1.0 0.1463618005
H  H23  1  0.59010000  0.17290000  0.64360000  1.0 0.1463618005
H  H24  1  0.90990000  0.82710000  0.14360000  1.0 0.1463618005
C  C1  1  0.58240000  0.25770000  0.32740000  1.0 0.5440696429
C  C2  1  0.91760000  0.74230000  0.82740000  1.0 0.5440696429
C  C3  1  0.41760000  0.75770000  0.17260000  1.0 0.5440696429
C  C4  1  0.08240000  0.24230000  0.67260000  1.0 0.5440696429
C  C5  1  0.41760000  0.74230000  0.67260000  1.0 0.5440696429
C  C6  1  0.08240000  0.25770000  0.17260000  1.0 0.5440696429
C  C7  1  0.58240000  0.24230000  0.82740000  1.0 0.5440696429
C  C8  1  0.91760000  0.75770000  0.32740000  1.0 0.5440696429
C  C9  1  0.57950000  0.24970000  0.26340000  1.0 -0.0104383582
C  C10  1  0.92050000  0.75030000  0.76340000  1.0 -0.0104383582
C  C11  1  0.42050000  0.74970000  0.23660000  1.0 -0.0104383582
C  C12  1  0.07950000  0.25030000  0.73660000  1.0 -0.0104383582
C  C13  1  0.42050000  0.75030000  0.73660000  1.0 -0.0104383582
C  C14  1  0.07950000  0.24970000  0.23660000  1.0 -0.0104383582
C  C15  1  0.57950000  0.25030000  0.76340000  1.0 -0.0104383582
C  C16  1  0.92050000  0.74970000  0.26340000  1.0 -0.0104383582
C  C17  1  0.57070000  0.19180000  0.23980000  1.0 -0.1338013088
C  C18  1  0.92930000  0.80820000  0.73980000  1.0 -0.1338013088
C  C19  1  0.42930000  0.69180000  0.26020000  1.0 -0.1338013088
C  C20  1  0.07070000  0.30820000  0.76020000  1.0 -0.1338013088
C  C21  1  0.42930000  0.80820000  0.76020000  1.0 -0.1338013088
C  C22  1  0.07070000  0.19180000  0.26020000  1.0 -0.1338013088
C  C23  1  0.57070000  0.30820000  0.73980000  1.0 -0.1338013088
C  C24  1  0.92930000  0.69180000  0.23980000  1.0 -0.1338013088
C  C25  1  0.58680000  0.30020000  0.22710000  1.0 -0.0709870846
C  C26  1  0.91320000  0.69980000  0.72710000  1.0 -0.0709870846
C  C27  1  0.41320000  0.80020000  0.27290000  1.0 -0.0709870846
C  C28  1  0.08680000  0.19980000  0.77290000  1.0 -0.0709870846
C  C29  1  0.41320000  0.69980000  0.77290000  1.0 -0.0709870846
C  C30  1  0.08680000  0.30020000  0.27290000  1.0 -0.0709870846
C  C31  1  0.58680000  0.19980000  0.72710000  1.0 -0.0709870846
C  C32  1  0.91320000  0.80020000  0.22710000  1.0 -0.0709870846
C  C33  1  0.57300000  0.23150000  0.07850000  1.0 0.6196694101
C  C34  1  0.92700000  0.76850000  0.57850000  1.0 0.6196694101
C  C35  1  0.42700000  0.73150000  0.42150000  1.0 0.6196694101
C  C36  1  0.07300000  0.26850000  0.92150000  1.0 0.6196694101
C  C37  1  0.42700000  0.76850000  0.92150000  1.0 0.6196694101
C  C38  1  0.07300000  0.23150000  0.42150000  1.0 0.6196694101
C  C39  1  0.57300000  0.26850000  0.57850000  1.0 0.6196694101
C  C40  1  0.92700000  0.73150000  0.07850000  1.0 0.6196694101
C  C41  1  0.57650000  0.23470000  0.14380000  1.0 -0.0417180949
C  C42  1  0.92350000  0.76530000  0.64380000  1.0 -0.0417180949
C  C43  1  0.42350000  0.73470000  0.35620000  1.0 -0.0417180949
C  C44  1  0.07650000  0.26530000  0.85620000  1.0 -0.0417180949
C  C45  1  0.42350000  0.76530000  0.85620000  1.0 -0.0417180949
C  C46  1  0.07650000  0.23470000  0.35620000  1.0 -0.0417180949
C  C47  1  0.57650000  0.26530000  0.64380000  1.0 -0.0417180949
C  C48  1  0.92350000  0.73470000  0.14380000  1.0 -0.0417180949
C  C49  1  0.58530000  0.29310000  0.16750000  1.0 -0.0934322023
C  C50  1  0.91470000  0.70690000  0.66750000  1.0 -0.0934322023
C  C51  1  0.41470000  0.79310000  0.33250000  1.0 -0.0934322023
C  C52  1  0.08530000  0.20690000  0.83250000  1.0 -0.0934322023
C  C53  1  0.41470000  0.70690000  0.83250000  1.0 -0.0934322023
C  C54  1  0.08530000  0.29310000  0.33250000  1.0 -0.0934322023
C  C55  1  0.58530000  0.20690000  0.66750000  1.0 -0.0934322023
C  C56  1  0.91470000  0.79310000  0.16750000  1.0 -0.0934322023
C  C57  1  0.57100000  0.18540000  0.18040000  1.0 0.0373129422
C  C58  1  0.92900000  0.81460000  0.68040000  1.0 0.0373129422
C  C59  1  0.42900000  0.68540000  0.31960000  1.0 0.0373129422
C  C60  1  0.07100000  0.31460000  0.81960000  1.0 0.0373129422
C  C61  1  0.42900000  0.81460000  0.81960000  1.0 0.0373129422
C  C62  1  0.07100000  0.18540000  0.31960000  1.0 0.0373129422
C  C63  1  0.57100000  0.31460000  0.68040000  1.0 0.0373129422
C  C64  1  0.92900000  0.68540000  0.18040000  1.0 0.0373129422
C  C65  1  0.93130000  0.36970000  0.49320000  1.0 0.6667130317
C  C66  1  0.56870000  0.63030000  0.99320000  1.0 0.6667130317
C  C67  1  0.06870000  0.86970000  0.00680000  1.0 0.6667130317
C  C68  1  0.43130000  0.13030000  0.50680000  1.0 0.6667130317
C  C69  1  0.06870000  0.63030000  0.50680000  1.0 0.6667130317
C  C70  1  0.43130000  0.36970000  0.00680000  1.0 0.6667130317
C  C71  1  0.93130000  0.13030000  0.99320000  1.0 0.6667130317
C  C72  1  0.56870000  0.86970000  0.49320000  1.0 0.6667130317
C  C73  1  0.89800000  0.47500000  0.45340000  1.0 -0.0642965858
C  C74  1  0.60200000  0.52500000  0.95340000  1.0 -0.0709870846
C  C75  1  0.10200000  0.97500000  0.04660000  1.0 -0.0709870846
C  C76  1  0.39800000  0.02500000  0.54660000  1.0 -0.0709870846
C  C77  1  0.10200000  0.52500000  0.54660000  1.0 -0.0709870846
C  C78  1  0.39800000  0.47500000  0.04660000  1.0 -0.0709870846
C  C79  1  0.89800000  0.02500000  0.95340000  1.0 -0.0709870846
C  C80  1  0.60200000  0.97500000  0.45340000  1.0 -0.0642965858
C  C81  1  0.06280000  0.46270000  0.54410000  1.0 0.0254790907
C  C82  1  0.43720000  0.53730000  0.04410000  1.0 0.0235975354
C  C83  1  0.93720000  0.96270000  0.95590000  1.0 0.0254790907
C  C84  1  0.56280000  0.03730000  0.45590000  1.0 0.0254790907
C  C85  1  0.93720000  0.53730000  0.45590000  1.0 0.0254790907
C  C86  1  0.56280000  0.46270000  0.95590000  1.0 0.0254790907
C  C87  1  0.06280000  0.03730000  0.04410000  1.0 0.0235975354
C  C88  1  0.43720000  0.96270000  0.54410000  1.0 0.0254790907
C  C89  1  0.96410000  0.43740000  0.49800000  1.0 -0.0709870846
C  C90  1  0.53590000  0.56260000  0.99800000  1.0 -0.0709870846
C  C91  1  0.03590000  0.93740000  0.00200000  1.0 -0.0709870846
C  C92  1  0.46410000  0.06260000  0.50200000  1.0 -0.0709870846
C  C93  1  0.03590000  0.56260000  0.50200000  1.0 -0.0709870846
C  C94  1  0.46410000  0.43740000  0.00200000  1.0 -0.0709870846
C  C95  1  0.96410000  0.06260000  0.99800000  1.0 -0.0709870846
C  C96  1  0.53590000  0.93740000  0.49800000  1.0 -0.0709870846
N  N1  1  0.56830000  0.12390000  0.15620000  1.0 0.5123535569
N  N2  1  0.93170000  0.87610000  0.65620000  1.0 0.5123535569
N  N3  1  0.43170000  0.62390000  0.34380000  1.0 0.5123535569
N  N4  1  0.06830000  0.37610000  0.84380000  1.0 0.5123535569
N  N5  1  0.43170000  0.87610000  0.84380000  1.0 0.5123535569
N  N6  1  0.06830000  0.12390000  0.34380000  1.0 0.5123535569
N  N7  1  0.56830000  0.37610000  0.65620000  1.0 0.5123535569
N  N8  1  0.93170000  0.62390000  0.15620000  1.0 0.5123535569
N  N9  1  0.09760000  0.43080000  0.59950000  1.0 0.5464384134
N  N10  1  0.40240000  0.56920000  0.09950000  1.0 0.5464384134
N  N11  1  0.90240000  0.93080000  0.90050000  1.0 0.5464384134
N  N12  1  0.59760000  0.06920000  0.40050000  1.0 0.5464384134
N  N13  1  0.90240000  0.56920000  0.40050000  1.0 0.5464384134
N  N14  1  0.59760000  0.43080000  0.90050000  1.0 0.5464384134
N  N15  1  0.09760000  0.06920000  0.09950000  1.0 0.5464384134
N  N16  1  0.40240000  0.93080000  0.59950000  1.0 0.5464384134
O  O1  1  0.60060000  0.31026000  0.34950000  1.0 -0.5747187411
O  O2  1  0.89940000  0.68974000  0.84950000  1.0 -0.5747187411
O  O3  1  0.39940000  0.81026000  0.15050000  1.0 -0.5761070524
O  O4  1  0.10060000  0.18974000  0.65050000  1.0 -0.5761070524
O  O5  1  0.39940000  0.68974000  0.65050000  1.0 -0.5761070524
O  O6  1  0.10060000  0.31026000  0.15050000  1.0 -0.5761070524
O  O7  1  0.60060000  0.18974000  0.84950000  1.0 -0.5747187411
O  O8  1  0.89940000  0.81026000  0.34950000  1.0 -0.5747187411
O  O9  1  0.56640000  0.21088000  0.35873000  1.0 -0.6071091063
O  O10  1  0.93360000  0.78912000  0.85873000  1.0 -0.5994402389
O  O11  1  0.43360000  0.71088000  0.14127000  1.0 -0.6071091063
O  O12  1  0.06640000  0.28912000  0.64127000  1.0 -0.6071091063
O  O13  1  0.43360000  0.78912000  0.64127000  1.0 -0.6071091063
O  O14  1  0.06640000  0.21088000  0.14127000  1.0 -0.6071091063
O  O15  1  0.56640000  0.28912000  0.85873000  1.0 -0.5994402389
O  O16  1  0.93360000  0.71088000  0.35873000  1.0 -0.5994402389
O  O17  1  0.79820000  0.35142000  0.46075000  1.0 -0.5994402389
O  O18  1  0.70180000  0.64858000  0.96075000  1.0 -0.5994402389
O  O19  1  0.20180000  0.85142000  0.03925000  1.0 -0.5994402389
O  O20  1  0.29820000  0.14858000  0.53925000  1.0 -0.5994402389
O  O21  1  0.20180000  0.64858000  0.53925000  1.0 -0.5994402389
O  O22  1  0.29820000  0.35142000  0.03925000  1.0 -0.5994402389
O  O23  1  0.79820000  0.14858000  0.96075000  1.0 -0.5994402389
O  O24  1  0.70180000  0.85142000  0.46075000  1.0 -0.5994402389
O  O25  1  0.41500000  0.22452000  0.05241000  1.0 -0.6373262678
O  O26  1  0.08500000  0.77548000  0.55241000  1.0 -0.6373262678
O  O27  1  0.58500000  0.72452000  0.44759000  1.0 -0.6373262678
O  O28  1  0.91500000  0.27548000  0.94759000  1.0 -0.6373262678
O  O29  1  0.58500000  0.77548000  0.94759000  1.0 -0.6373262678
O  O30  1  0.91500000  0.22452000  0.44759000  1.0 -0.6373262678
O  O31  1  0.41500000  0.27548000  0.55241000  1.0 -0.6373262678
O  O32  1  0.08500000  0.72452000  0.05241000  1.0 -0.6373262678
O  O33  1  0.72840000  0.23946000  0.05149000  1.0 -0.6511291538
O  O34  1  0.77160000  0.76054000  0.55149000  1.0 -0.6511291538
O  O35  1  0.27160000  0.73946000  0.44851000  1.0 -0.6511291538
O  O36  1  0.22840000  0.26054000  0.94851000  1.0 -0.6511291538
O  O37  1  0.27160000  0.76054000  0.94851000  1.0 -0.6511291538
O  O38  1  0.22840000  0.23946000  0.44851000  1.0 -0.6511291538
O  O39  1  0.72840000  0.26054000  0.55149000  1.0 -0.6511291538
O  O40  1  0.77160000  0.73946000  0.05149000  1.0 -0.6511291538
O  O41  1  0.04940000  0.33625000  0.52031000  1.0 -0.6071091063
O  O42  1  0.45060000  0.66375000  0.02031000  1.0 -0.6071091063
O  O43  1  0.95060000  0.83625000  0.97969000  1.0 -0.6071091063
O  O44  1  0.54940000  0.16375000  0.47969000  1.0 -0.6071091063
O  O45  1  0.95060000  0.66375000  0.47969000  1.0 -0.6071091063
O  O46  1  0.54940000  0.33625000  0.97969000  1.0 -0.6071091063
O  O47  1  0.04940000  0.16375000  0.02031000  1.0 -0.6071091063
O  O48  1  0.45060000  0.83625000  0.52031000  1.0 -0.6071091063
O  O49  1  0.38460000  0.36281000  0.45478000  1.0 -0.2913043548
O  O50  1  0.11540000  0.63719000  0.95478000  1.0 -0.2913043548
O  O51  1  0.61540000  0.86281000  0.04522000  1.0 -0.280756471
O  O52  1  0.88460000  0.13719000  0.54522000  1.0 -0.280756471
O  O53  1  0.61540000  0.63719000  0.54522000  1.0 -0.280756471
O  O54  1  0.88460000  0.36281000  0.04522000  1.0 -0.280756471
O  O55  1  0.38460000  0.13719000  0.95478000  1.0 -0.2913043548
O  O56  1  0.11540000  0.86281000  0.45478000  1.0 -0.2913043548
O  O57  1  0.60210000  0.11700000  0.10500000  1.0 -0.2404390648
O  O58  1  0.89790000  0.88300000  0.60500000  1.0 -0.2404390648
O  O59  1  0.39790000  0.61700000  0.39500000  1.0 -0.2404390648
O  O60  1  0.10210000  0.38300000  0.89500000  1.0 -0.2404390648
O  O61  1  0.39790000  0.88300000  0.89500000  1.0 -0.2404390648
O  O62  1  0.10210000  0.11700000  0.39500000  1.0 -0.2404390648
O  O63  1  0.60210000  0.38300000  0.60500000  1.0 -0.2404390648
O  O64  1  0.89790000  0.61700000  0.10500000  1.0 -0.2404390648
O  O65  1  0.53500000  0.08260000  0.18870000  1.0 -0.2404390648
O  O66  1  0.96500000  0.91740000  0.68870000  1.0 -0.2404390648
O  O67  1  0.46500000  0.58260000  0.31130000  1.0 -0.2404390648
O  O68  1  0.03500000  0.41740000  0.81130000  1.0 -0.2404390648
O  O69  1  0.46500000  0.91740000  0.81130000  1.0 -0.2404390648
O  O70  1  0.03500000  0.08260000  0.31130000  1.0 -0.2404390648
O  O71  1  0.53500000  0.41740000  0.68870000  1.0 -0.2404390648
O  O72  1  0.96500000  0.58260000  0.18870000  1.0 -0.2404390648
O  O73  1  0.96100000  0.41370000  0.62970000  1.0 -0.3074794051
O  O74  1  0.53900000  0.58630000  0.12970000  1.0 -0.3074794051
O  O75  1  0.03900000  0.91370000  0.87030000  1.0 -0.3074794051
O  O76  1  0.46100000  0.08630000  0.37030000  1.0 -0.3074794051
O  O77  1  0.03900000  0.58630000  0.37030000  1.0 -0.3074794051
O  O78  1  0.46100000  0.41370000  0.87030000  1.0 -0.3074794051
O  O79  1  0.96100000  0.08630000  0.12970000  1.0 -0.3074794051
O  O80  1  0.53900000  0.91370000  0.62970000  1.0 -0.3074794051
O  O81  1  0.26300000  0.42450000  0.61070000  1.0 -0.2404390648
O  O82  1  0.23700000  0.57550000  0.11070000  1.0 -0.2404390648
O  O83  1  0.73700000  0.92450000  0.88930000  1.0 -0.2404390648
O  O84  1  0.76300000  0.07550000  0.38930000  1.0 -0.2404390648
O  O85  1  0.73700000  0.57550000  0.38930000  1.0 -0.2404390648
O  O86  1  0.76300000  0.42450000  0.88930000  1.0 -0.2404390648
O  O87  1  0.26300000  0.07550000  0.11070000  1.0 -0.2404390648
O  O88  1  0.23700000  0.92450000  0.61070000  1.0 -0.2404390648
