# DDEC6 charges by PACMAN v1.1 (https://github.com/mtap-research/PACMAN-charge/)
data_EQERAU_FSR_pacman
_symmetry_space_group_name_H-M   'P 1'
_cell_length_a   13.57920000
_cell_length_b   13.89580000
_cell_length_c   20.74780000
_cell_angle_alpha   90.00000000
_cell_angle_beta   104.88200000
_cell_angle_gamma   90.00000000
_symmetry_Int_Tables_number   1
_chemical_formula_structural   Mg2PH13C21O10
_chemical_formula_sum   'Mg8 P4 H52 C84 O40'
_cell_volume   3783.66122319
_cell_formula_units_Z   4
loop_
 _symmetry_equiv_pos_site_id
 _symmetry_equiv_pos_as_xyz
  1  'x, y, z'
loop_
 _atom_site_type_symbol
 _atom_site_label
 _atom_site_symmetry_multiplicity
 _atom_site_fract_x
 _atom_site_fract_y
 _atom_site_fract_z
 _atom_site_occupancy
 _atom_site_charge
Mg  Mg1  1  0.34614000  0.13395000  0.04953000  1.0 1.4402285576
Mg  Mg2  1  0.65386000  0.63395000  0.45047000  1.0 1.4402285576
Mg  Mg3  1  0.65386000  0.86605000  0.95047000  1.0 1.4402285576
Mg  Mg4  1  0.34614000  0.36605000  0.54953000  1.0 1.4402285576
Mg  Mg5  1  0.59493000  0.04299000  0.05170000  1.0 1.4268290758
Mg  Mg6  1  0.40507000  0.54299000  0.44830000  1.0 1.4268290758
Mg  Mg7  1  0.40507000  0.95701000  0.94830000  1.0 1.4268290758
Mg  Mg8  1  0.59493000  0.45701000  0.55170000  1.0 1.4268290758
P  P1  1  0.26404000  0.03705000  0.18150000  1.0 0.8767897248
P  P2  1  0.73596000  0.53705000  0.31850000  1.0 0.8746039629
P  P3  1  0.73596000  0.96295000  0.81850000  1.0 0.8746039629
P  P4  1  0.26404000  0.46295000  0.68150000  1.0 0.8746039629
H  H1  1  0.43290000  0.97380000  0.07290000  1.0 0.3936431989
H  H2  1  0.56710000  0.47380000  0.42710000  1.0 0.3936431989
H  H3  1  0.56710000  0.02620000  0.92710000  1.0 0.3936431989
H  H4  1  0.43290000  0.52620000  0.57290000  1.0 0.3936431989
H  H5  1  0.32480000  0.23220000  0.19310000  1.0 0.1382874012
H  H6  1  0.67520000  0.73220000  0.30690000  1.0 0.1382874012
H  H7  1  0.67520000  0.76780000  0.80690000  1.0 0.1382874012
H  H8  1  0.32480000  0.26780000  0.69310000  1.0 0.1382874012
H  H9  1  0.36250000  0.34520000  0.27860000  1.0 0.1189775098
H  H10  1  0.63750000  0.84520000  0.22140000  1.0 0.1189775098
H  H11  1  0.63750000  0.65480000  0.72140000  1.0 0.1189775098
H  H12  1  0.36250000  0.15480000  0.77860000  1.0 0.1189775098
H  H13  1  0.28640000  0.15430000  0.40340000  1.0 0.1290058337
H  H14  1  0.71360000  0.65430000  0.09660000  1.0 0.1290058337
H  H15  1  0.71360000  0.84570000  0.59660000  1.0 0.1290058337
H  H16  1  0.28640000  0.34570000  0.90340000  1.0 0.1290058337
H  H17  1  0.24680000  0.04020000  0.31830000  1.0 0.1104185939
H  H18  1  0.75320000  0.54020000  0.18170000  1.0 0.1104185939
H  H19  1  0.75320000  0.95980000  0.68170000  1.0 0.1104185939
H  H20  1  0.24680000  0.45980000  0.81830000  1.0 0.1104185939
H  H21  1  0.08070000  0.13140000  0.19560000  1.0 0.1189775098
H  H22  1  0.91930000  0.63140000  0.30440000  1.0 0.1189775098
H  H23  1  0.91930000  0.86860000  0.80440000  1.0 0.1189775098
H  H24  1  0.08070000  0.36860000  0.69560000  1.0 0.1189775098
H  H25  1  0.90770000  0.11620000  0.14230000  1.0 0.1290058337
H  H26  1  0.09230000  0.61620000  0.35770000  1.0 0.1290058337
H  H27  1  0.09230000  0.88380000  0.85770000  1.0 0.1290058337
H  H28  1  0.90770000  0.38380000  0.64230000  1.0 0.1290058337
H  H29  1  0.97020000  0.89430000  0.03550000  1.0 0.1290058337
H  H30  1  0.02980000  0.39430000  0.46450000  1.0 0.1290058337
H  H31  1  0.02980000  0.10570000  0.96450000  1.0 0.1290058337
H  H32  1  0.97020000  0.60570000  0.53550000  1.0 0.1290058337
H  H33  1  0.14430000  0.91070000  0.08610000  1.0 0.1290058337
H  H34  1  0.85570000  0.41070000  0.41390000  1.0 0.1290058337
H  H35  1  0.85570000  0.08930000  0.91390000  1.0 0.1290058337
H  H36  1  0.14430000  0.58930000  0.58610000  1.0 0.1290058337
H  H37  1  0.17880000  0.86670000  0.23190000  1.0 0.1189775098
H  H38  1  0.82120000  0.36670000  0.26810000  1.0 0.1189775098
H  H39  1  0.82120000  0.13330000  0.76810000  1.0 0.1189775098
H  H40  1  0.17880000  0.63330000  0.73190000  1.0 0.1189775098
H  H41  1  0.25180000  0.73870000  0.29990000  1.0 0.1290058337
H  H42  1  0.74820000  0.23870000  0.20010000  1.0 0.1290058337
H  H43  1  0.74820000  0.26130000  0.70010000  1.0 0.1290058337
H  H44  1  0.25180000  0.76130000  0.79990000  1.0 0.1290058337
H  H45  1  0.53220000  0.83940000  0.30350000  1.0 0.1189775098
H  H46  1  0.46780000  0.33940000  0.19650000  1.0 0.1189775098
H  H47  1  0.46780000  0.16060000  0.69650000  1.0 0.1189775098
H  H48  1  0.53220000  0.66060000  0.80350000  1.0 0.1189775098
H  H49  1  0.45990000  0.96080000  0.23070000  1.0 0.1382874012
H  H50  1  0.54010000  0.46080000  0.26930000  1.0 0.1382874012
H  H51  1  0.54010000  0.03920000  0.76930000  1.0 0.1382874012
H  H52  1  0.45990000  0.53920000  0.73070000  1.0 0.1382874012
C  C1  1  0.28410000  0.12560000  0.24731000  1.0 -0.1343964576
C  C2  1  0.71590000  0.62560000  0.25269000  1.0 -0.1377123907
C  C3  1  0.71590000  0.87440000  0.75269000  1.0 -0.1343964576
C  C4  1  0.28410000  0.37440000  0.74731000  1.0 -0.1343964576
C  C5  1  0.31740000  0.21570000  0.23610000  1.0 -0.0815274041
C  C6  1  0.68260000  0.71570000  0.26390000  1.0 -0.0815274041
C  C7  1  0.68260000  0.78430000  0.76390000  1.0 -0.0815274041
C  C8  1  0.31740000  0.28430000  0.73610000  1.0 -0.0815274041
C  C9  1  0.34020000  0.28270000  0.28700000  1.0 -0.0895992492
C  C10  1  0.65980000  0.78270000  0.21300000  1.0 -0.0895992492
C  C11  1  0.65980000  0.71730000  0.71300000  1.0 -0.0895992492
C  C12  1  0.34020000  0.21730000  0.78700000  1.0 -0.0895992492
C  C13  1  0.33080000  0.25940000  0.35036000  1.0 0.0019940769
C  C14  1  0.66920000  0.75940000  0.14964000  1.0 0.0019940769
C  C15  1  0.66920000  0.74060000  0.64964000  1.0 0.0019940769
C  C16  1  0.33080000  0.24060000  0.85036000  1.0 0.0019940769
C  C17  1  0.29510000  0.17000000  0.36060000  1.0 -0.0895992492
C  C18  1  0.70490000  0.67000000  0.13940000  1.0 -0.0895992492
C  C19  1  0.70490000  0.83000000  0.63940000  1.0 -0.0895992492
C  C20  1  0.29510000  0.33000000  0.86060000  1.0 -0.0895992492
C  C21  1  0.27130000  0.10190000  0.31030000  1.0 -0.0895992492
C  C22  1  0.72870000  0.60190000  0.18970000  1.0 -0.0895992492
C  C23  1  0.72870000  0.89810000  0.68970000  1.0 -0.0895992492
C  C24  1  0.27130000  0.39810000  0.81030000  1.0 -0.0895992492
C  C25  1  0.35920000  0.33150000  0.40660000  1.0 0.5956112504
C  C26  1  0.64080000  0.83150000  0.09340000  1.0 0.5956112504
C  C27  1  0.64080000  0.66850000  0.59340000  1.0 0.5956112504
C  C28  1  0.35920000  0.16850000  0.90660000  1.0 0.5956112504
C  C29  1  0.12930000  0.02290000  0.14608000  1.0 -0.1377123907
C  C30  1  0.87070000  0.52290000  0.35392000  1.0 -0.1377123907
C  C31  1  0.87070000  0.97710000  0.85392000  1.0 -0.1377123907
C  C32  1  0.12930000  0.47710000  0.64608000  1.0 -0.1377123907
C  C33  1  0.05870000  0.08330000  0.16250000  1.0 -0.0815274041
C  C34  1  0.94130000  0.58330000  0.33750000  1.0 -0.0815274041
C  C35  1  0.94130000  0.91670000  0.83750000  1.0 -0.0815274041
C  C36  1  0.05870000  0.41670000  0.66250000  1.0 -0.0815274041
C  C37  1  0.95580000  0.07420000  0.13080000  1.0 -0.0895992492
C  C38  1  0.04420000  0.57420000  0.36920000  1.0 -0.0895992492
C  C39  1  0.04420000  0.92580000  0.86920000  1.0 -0.0895992492
C  C40  1  0.95580000  0.42580000  0.63080000  1.0 -0.0895992492
C  C41  1  0.92340000  0.00510000  0.08340000  1.0 -0.0057955841
C  C42  1  0.07660000  0.50510000  0.41660000  1.0 -0.0057955841
C  C43  1  0.07660000  0.99490000  0.91660000  1.0 -0.0057955841
C  C44  1  0.92340000  0.49490000  0.58340000  1.0 -0.0057955841
C  C45  1  0.99310000  0.94350000  0.06760000  1.0 -0.0895992492
C  C46  1  0.00690000  0.44350000  0.43240000  1.0 -0.0895992492
C  C47  1  0.00690000  0.05650000  0.93240000  1.0 -0.0895992492
C  C48  1  0.99310000  0.55650000  0.56760000  1.0 -0.0895992492
C  C49  1  0.09650000  0.95250000  0.09800000  1.0 -0.0745142042
C  C50  1  0.90350000  0.45250000  0.40200000  1.0 -0.0745142042
C  C51  1  0.90350000  0.04750000  0.90200000  1.0 -0.0745142042
C  C52  1  0.09650000  0.54750000  0.59800000  1.0 -0.0745142042
C  C53  1  0.80990000  0.99390000  0.04950000  1.0 0.5924800024
C  C54  1  0.19010000  0.49390000  0.45050000  1.0 0.5924800024
C  C55  1  0.19010000  0.00610000  0.95050000  1.0 0.5924800024
C  C56  1  0.80990000  0.50610000  0.54950000  1.0 0.5924800024
C  C57  1  0.31140000  0.92730000  0.22540000  1.0 -0.1377123907
C  C58  1  0.68860000  0.42730000  0.27460000  1.0 -0.1377123907
C  C59  1  0.68860000  0.07270000  0.77460000  1.0 -0.1343964576
C  C60  1  0.31140000  0.57270000  0.72540000  1.0 -0.1377123907
C  C61  1  0.25090000  0.86080000  0.24600000  1.0 -0.0973112598
C  C62  1  0.74910000  0.36080000  0.25400000  1.0 -0.0973112598
C  C63  1  0.74910000  0.13920000  0.75400000  1.0 -0.0973112598
C  C64  1  0.25090000  0.63920000  0.74600000  1.0 -0.0973112598
C  C65  1  0.29430000  0.78530000  0.28710000  1.0 -0.0895992492
C  C66  1  0.70570000  0.28530000  0.21290000  1.0 -0.0895992492
C  C67  1  0.70570000  0.21470000  0.71290000  1.0 -0.0895992492
C  C68  1  0.29430000  0.71470000  0.78710000  1.0 -0.0895992492
C  C69  1  0.39930000  0.77720000  0.30990000  1.0 -0.0016733757
C  C70  1  0.60070000  0.27720000  0.19010000  1.0 -0.0016733757
C  C71  1  0.60070000  0.22280000  0.69010000  1.0 -0.0016733757
C  C72  1  0.39930000  0.72280000  0.80990000  1.0 -0.0016733757
C  C73  1  0.46010000  0.84420000  0.28850000  1.0 -0.0895992492
C  C74  1  0.53990000  0.34420000  0.21150000  1.0 -0.0895992492
C  C75  1  0.53990000  0.15580000  0.71150000  1.0 -0.0895992492
C  C76  1  0.46010000  0.65580000  0.78850000  1.0 -0.0895992492
C  C77  1  0.41730000  0.91700000  0.24620000  1.0 -0.0815274041
C  C78  1  0.58270000  0.41700000  0.25380000  1.0 -0.0815274041
C  C79  1  0.58270000  0.08300000  0.75380000  1.0 -0.0815274041
C  C80  1  0.41730000  0.58300000  0.74620000  1.0 -0.0815274041
C  C81  1  0.44710000  0.69980000  0.35920000  1.0 0.5924800024
C  C82  1  0.55290000  0.19980000  0.14080000  1.0 0.5924800024
C  C83  1  0.55290000  0.30020000  0.64080000  1.0 0.5924800024
C  C84  1  0.44710000  0.80020000  0.85920000  1.0 0.5924800024
O  O1  1  0.32120000  0.06230000  0.13157000  1.0 -0.6640865892
O  O2  1  0.67880000  0.56230000  0.36843000  1.0 -0.6640865892
O  O3  1  0.67880000  0.93770000  0.86843000  1.0 -0.6640865892
O  O4  1  0.32120000  0.43770000  0.63157000  1.0 -0.6640865892
O  O5  1  0.37150000  0.41690000  0.39263000  1.0 -0.5970158889
O  O6  1  0.62850000  0.91690000  0.10737000  1.0 -0.5970158889
O  O7  1  0.62850000  0.58310000  0.60737000  1.0 -0.5970158889
O  O8  1  0.37150000  0.08310000  0.89263000  1.0 -0.5970158889
O  O9  1  0.36950000  0.29700000  0.46473000  1.0 -0.5603044271
O  O10  1  0.63050000  0.79700000  0.03527000  1.0 -0.5603044271
O  O11  1  0.63050000  0.70300000  0.53527000  1.0 -0.5603044271
O  O12  1  0.36950000  0.20300000  0.96473000  1.0 -0.5603044271
O  O13  1  0.78570000  0.92260000  0.01136000  1.0 -0.5935623884
O  O14  1  0.21430000  0.42260000  0.48864000  1.0 -0.5935623884
O  O15  1  0.21430000  0.07740000  0.98864000  1.0 -0.5935623884
O  O16  1  0.78570000  0.57740000  0.51136000  1.0 -0.5935623884
O  O17  1  0.75180000  0.05580000  0.06207000  1.0 -0.5784837991
O  O18  1  0.24820000  0.55580000  0.43793000  1.0 -0.5784837991
O  O19  1  0.24820000  0.94420000  0.93793000  1.0 -0.5784837991
O  O20  1  0.75180000  0.44420000  0.56207000  1.0 -0.5784837991
O  O21  1  0.39160000  0.62910000  0.36522000  1.0 -0.5970158889
O  O22  1  0.60840000  0.12910000  0.13478000  1.0 -0.5970158889
O  O23  1  0.60840000  0.37090000  0.63478000  1.0 -0.5970158889
O  O24  1  0.39160000  0.87090000  0.86522000  1.0 -0.5970158889
O  O25  1  0.53840000  0.71430000  0.38969000  1.0 -0.5702914238
O  O26  1  0.46160000  0.21430000  0.11031000  1.0 -0.5702914238
O  O27  1  0.46160000  0.28570000  0.61031000  1.0 -0.5702914238
O  O28  1  0.53840000  0.78570000  0.88969000  1.0 -0.5702914238
O  O29  1  0.43996000  0.02380000  0.03977000  1.0 -1.0740633547
O  O30  1  0.56004000  0.52380000  0.46023000  1.0 -1.0740633547
O  O31  1  0.56004000  0.97620000  0.96023000  1.0 -1.0740633547
O  O32  1  0.43996000  0.47620000  0.53977000  1.0 -1.0740633547
O  O33  1  0.25190000  0.24980000  0.06128000  1.0 -0.437132442
O  O34  1  0.74810000  0.74980000  0.43872000  1.0 -0.437132442
O  O35  1  0.74810000  0.75020000  0.93872000  1.0 -0.4471108556
O  O36  1  0.25190000  0.25020000  0.56128000  1.0 -0.437132442
O  O37  1  0.58320000  0.17810000  0.99885000  1.0 -0.2896489143
O  O38  1  0.41680000  0.67810000  0.50115000  1.0 -0.295076245
O  O39  1  0.41680000  0.82190000  0.00115000  1.0 -0.2896489143
O  O40  1  0.58320000  0.32190000  0.49885000  1.0 -0.2896489143
