# DDEC6 charges by PACMAN v1.1 (https://github.com/mtap-research/PACMAN-charge/)
data_EQOCOC01_ASR_pacman
_symmetry_space_group_name_H-M   'P 1'
_cell_length_a   16.54890000
_cell_length_b   16.54890000
_cell_length_c   16.54890000
_cell_angle_alpha   111.97100000
_cell_angle_beta   111.97100000
_cell_angle_gamma   104.57900000
_symmetry_Int_Tables_number   1
_chemical_formula_structural   ZnH10(C5N2)2
_chemical_formula_sum   'Zn8 H80 C80 N32'
_cell_volume   3470.04504269
_cell_formula_units_Z   8
loop_
 _symmetry_equiv_pos_site_id
 _symmetry_equiv_pos_as_xyz
  1  'x, y, z'
loop_
 _atom_site_type_symbol
 _atom_site_label
 _atom_site_symmetry_multiplicity
 _atom_site_fract_x
 _atom_site_fract_y
 _atom_site_fract_z
 _atom_site_occupancy
 _atom_site_charge
Zn  Zn1  1  0.41347000  0.58653000  0.50000000  1.0 0.5557148145
Zn  Zn2  1  0.33653000  0.33653000  0.67306000  1.0 0.5557148145
Zn  Zn3  1  0.66347000  0.66347000  0.32694000  1.0 0.5557148145
Zn  Zn4  1  0.08653000  0.91347000  0.50000000  1.0 0.5557148145
Zn  Zn5  1  0.33653000  0.66347000  0.00000000  1.0 0.5557148145
Zn  Zn6  1  0.41347000  0.91347000  0.82694000  1.0 0.5557148145
Zn  Zn7  1  0.08653000  0.58653000  0.17306000  1.0 0.5557148145
Zn  Zn8  1  0.66347000  0.33653000  0.00000000  1.0 0.5557148145
H  H1  1  0.37500000  0.51610000  0.64110000  1.0 0.0999748372
H  H2  1  0.26610000  0.12500000  0.64110000  1.0 0.0999748372
H  H3  1  0.48390000  0.62500000  0.35890000  1.0 0.0999748372
H  H4  1  0.87500000  0.73390000  0.35890000  1.0 0.0999748372
H  H5  1  0.37500000  0.73390000  0.85890000  1.0 0.0999748372
H  H6  1  0.48390000  0.12500000  0.85890000  1.0 0.0999748372
H  H7  1  0.26610000  0.62500000  0.14110000  1.0 0.0999748372
H  H8  1  0.87500000  0.51610000  0.14110000  1.0 0.0999748372
H  H9  1  0.27250000  0.66550000  0.39300000  1.0 0.0999748372
H  H10  1  0.41550000  0.52250000  0.89300000  1.0 0.0999748372
H  H11  1  0.62950000  0.52250000  0.10700000  1.0 0.0999748372
H  H12  1  0.12050000  0.72750000  0.39300000  1.0 0.0999748372
H  H13  1  0.27250000  0.87950000  0.60700000  1.0 0.0999748372
H  H14  1  0.47750000  0.58450000  0.10700000  1.0 0.0999748372
H  H15  1  0.47750000  0.37050000  0.89300000  1.0 0.0999748372
H  H16  1  0.33450000  0.72750000  0.60700000  1.0 0.0999748372
H  H17  1  0.43480000  0.38700000  0.43440000  1.0 0.0507045547
H  H18  1  0.13700000  0.20260000  0.45220000  1.0 0.0507045547
H  H19  1  0.75040000  0.68480000  0.54780000  1.0 0.0507045547
H  H20  1  0.99960000  0.04740000  0.43440000  1.0 0.0507045547
H  H21  1  0.95260000  0.00040000  0.56560000  1.0 0.0507045547
H  H22  1  0.79740000  0.86300000  0.54780000  1.0 0.0507045547
H  H23  1  0.31520000  0.24960000  0.45220000  1.0 0.0507045547
H  H24  1  0.61300000  0.56520000  0.56560000  1.0 0.0507045547
H  H25  1  0.31520000  0.86300000  0.06560000  1.0 0.0507045547
H  H26  1  0.61300000  0.04740000  0.04780000  1.0 0.0507045547
H  H27  1  0.99960000  0.56520000  0.95220000  1.0 0.0507045547
H  H28  1  0.75040000  0.20260000  0.06560000  1.0 0.0507045547
H  H29  1  0.79740000  0.24960000  0.93440000  1.0 0.0507045547
H  H30  1  0.95260000  0.38700000  0.95220000  1.0 0.0507045547
H  H31  1  0.43480000  0.00040000  0.04780000  1.0 0.0507045547
H  H32  1  0.13700000  0.68480000  0.93440000  1.0 0.0507045547
H  H33  1  0.28770000  0.42210000  0.26760000  1.0 0.0782782874
H  H34  1  0.17210000  0.40450000  0.63440000  1.0 0.0782782874
H  H35  1  0.77010000  0.53770000  0.36560000  1.0 0.0782782874
H  H36  1  0.97990000  0.84550000  0.26760000  1.0 0.0782782874
H  H37  1  0.15450000  0.02010000  0.73240000  1.0 0.0782782874
H  H38  1  0.59550000  0.82790000  0.36560000  1.0 0.0782782874
H  H39  1  0.46230000  0.22990000  0.63440000  1.0 0.0782782874
H  H40  1  0.57790000  0.71230000  0.73240000  1.0 0.0782782874
H  H41  1  0.46230000  0.82790000  0.23240000  1.0 0.0782782874
H  H42  1  0.57790000  0.84550000  0.86560000  1.0 0.0782782874
H  H43  1  0.97990000  0.71230000  0.13440000  1.0 0.0782782874
H  H44  1  0.77010000  0.40450000  0.23240000  1.0 0.0782782874
H  H45  1  0.59550000  0.22990000  0.76760000  1.0 0.0782782874
H  H46  1  0.15450000  0.42210000  0.13440000  1.0 0.0782782874
H  H47  1  0.28770000  0.02010000  0.86560000  1.0 0.0782782874
H  H48  1  0.17210000  0.53770000  0.76760000  1.0 0.0782782874
H  H49  1  0.39250000  0.27940000  0.49570000  1.0 0.0507045547
H  H50  1  0.02940000  0.03370000  0.38690000  1.0 0.0507045547
H  H51  1  0.64680000  0.64250000  0.61310000  1.0 0.0507045547
H  H52  1  0.10320000  0.21630000  0.49570000  1.0 0.0507045547
H  H53  1  0.78370000  0.89680000  0.50430000  1.0 0.0507045547
H  H54  1  0.96630000  0.97060000  0.61310000  1.0 0.0507045547
H  H55  1  0.35750000  0.35320000  0.38690000  1.0 0.0507045547
H  H56  1  0.72060000  0.60750000  0.50430000  1.0 0.0507045547
H  H57  1  0.35750000  0.97060000  0.00430000  1.0 0.0507045547
H  H58  1  0.72060000  0.21630000  0.11310000  1.0 0.0507045547
H  H59  1  0.10320000  0.60750000  0.88690000  1.0 0.0507045547
H  H60  1  0.64680000  0.03370000  0.00430000  1.0 0.0507045547
H  H61  1  0.96630000  0.35320000  0.99570000  1.0 0.0507045547
H  H62  1  0.78370000  0.27940000  0.88690000  1.0 0.0507045547
H  H63  1  0.39250000  0.89680000  0.11310000  1.0 0.0507045547
H  H64  1  0.02940000  0.64250000  0.99570000  1.0 0.0507045547
H  H65  1  0.22380000  0.39610000  0.30890000  1.0 0.0782782874
H  H66  1  0.14610000  0.33720000  0.67230000  1.0 0.0782782874
H  H67  1  0.66490000  0.47380000  0.32770000  1.0 0.0782782874
H  H68  1  0.08510000  0.91280000  0.30890000  1.0 0.0782782874
H  H69  1  0.08720000  0.91490000  0.69110000  1.0 0.0782782874
H  H70  1  0.66280000  0.85390000  0.32770000  1.0 0.0782782874
H  H71  1  0.52620000  0.33510000  0.67230000  1.0 0.0782782874
H  H72  1  0.60390000  0.77620000  0.69110000  1.0 0.0782782874
H  H73  1  0.52620000  0.85390000  0.19110000  1.0 0.0782782874
H  H74  1  0.60390000  0.91280000  0.82770000  1.0 0.0782782874
H  H75  1  0.08510000  0.77620000  0.17230000  1.0 0.0782782874
H  H76  1  0.66490000  0.33720000  0.19110000  1.0 0.0782782874
H  H77  1  0.66280000  0.33510000  0.80890000  1.0 0.0782782874
H  H78  1  0.08720000  0.39610000  0.17230000  1.0 0.0782782874
H  H79  1  0.22380000  0.91490000  0.82770000  1.0 0.0782782874
H  H80  1  0.14610000  0.47380000  0.80890000  1.0 0.0782782874
C  C1  1  0.37500000  0.46590000  0.59090000  1.0 -0.0782425342
C  C2  1  0.21590000  0.12500000  0.59090000  1.0 -0.0782425342
C  C3  1  0.53410000  0.62500000  0.40910000  1.0 -0.0782425342
C  C4  1  0.87500000  0.78410000  0.40910000  1.0 -0.0782425342
C  C5  1  0.37500000  0.78410000  0.90910000  1.0 -0.0782425342
C  C6  1  0.53410000  0.12500000  0.90910000  1.0 -0.0782425342
C  C7  1  0.21590000  0.62500000  0.09090000  1.0 -0.0782425342
C  C8  1  0.87500000  0.46590000  0.09090000  1.0 -0.0782425342
C  C9  1  0.25260000  0.60030000  0.34770000  1.0 0.0212219968
C  C10  1  0.35030000  0.50260000  0.84770000  1.0 0.0212219968
C  C11  1  0.65490000  0.50260000  0.15230000  1.0 0.0212219968
C  C12  1  0.09510000  0.74740000  0.34770000  1.0 0.0212219968
C  C13  1  0.25260000  0.90490000  0.65230000  1.0 0.0212219968
C  C14  1  0.49740000  0.64970000  0.15230000  1.0 0.0212219968
C  C15  1  0.49740000  0.34510000  0.84770000  1.0 0.0212219968
C  C16  1  0.39970000  0.74740000  0.65230000  1.0 0.0212219968
C  C17  1  0.41090000  0.39630000  0.47800000  1.0 -0.0135636278
C  C18  1  0.14630000  0.16830000  0.48540000  1.0 -0.0135636278
C  C19  1  0.68290000  0.66090000  0.51460000  1.0 -0.0135636278
C  C20  1  0.06710000  0.08170000  0.47800000  1.0 -0.0135636278
C  C21  1  0.91830000  0.93290000  0.52200000  1.0 -0.0135636278
C  C22  1  0.83170000  0.85370000  0.51460000  1.0 -0.0135636278
C  C23  1  0.33910000  0.31710000  0.48540000  1.0 -0.0135636278
C  C24  1  0.60370000  0.58910000  0.52200000  1.0 -0.0135636278
C  C25  1  0.33910000  0.85370000  0.02200000  1.0 -0.0135636278
C  C26  1  0.60370000  0.08170000  0.01460000  1.0 -0.0135636278
C  C27  1  0.06710000  0.58910000  0.98540000  1.0 -0.0135636278
C  C28  1  0.68290000  0.16830000  0.02200000  1.0 -0.0135636278
C  C29  1  0.83170000  0.31710000  0.97800000  1.0 -0.0135636278
C  C30  1  0.91830000  0.39630000  0.98540000  1.0 -0.0135636278
C  C31  1  0.41090000  0.93290000  0.01460000  1.0 -0.0135636278
C  C32  1  0.14630000  0.66090000  0.97800000  1.0 -0.0135636278
C  C33  1  0.26390000  0.46800000  0.27790000  1.0 -0.0245664002
C  C34  1  0.21800000  0.44010000  0.70410000  1.0 -0.0245664002
C  C35  1  0.73600000  0.51390000  0.29590000  1.0 -0.0245664002
C  C36  1  0.01400000  0.80990000  0.27790000  1.0 -0.0245664002
C  C37  1  0.19010000  0.98600000  0.72210000  1.0 -0.0251506515
C  C38  1  0.55990000  0.78200000  0.29590000  1.0 -0.0245664002
C  C39  1  0.48610000  0.26400000  0.70410000  1.0 -0.0245664002
C  C40  1  0.53200000  0.73610000  0.72210000  1.0 -0.0245664002
C  C41  1  0.48610000  0.78200000  0.22210000  1.0 -0.0245664002
C  C42  1  0.53200000  0.80990000  0.79590000  1.0 -0.0245664002
C  C43  1  0.01400000  0.73610000  0.20410000  1.0 -0.0245664002
C  C44  1  0.73600000  0.44010000  0.22210000  1.0 -0.0245664002
C  C45  1  0.55990000  0.26400000  0.77790000  1.0 -0.0245664002
C  C46  1  0.19010000  0.46800000  0.20410000  1.0 -0.0245664002
C  C47  1  0.26390000  0.98600000  0.79590000  1.0 -0.0251506515
C  C48  1  0.21800000  0.51390000  0.77790000  1.0 -0.0251506515
C  C49  1  0.38900000  0.33830000  0.51390000  1.0 -0.0366864275
C  C50  1  0.08830000  0.07440000  0.44930000  1.0 -0.0366864275
C  C51  1  0.62510000  0.63900000  0.55070000  1.0 -0.0366864275
C  C52  1  0.12490000  0.17560000  0.51390000  1.0 -0.0366864275
C  C53  1  0.82440000  0.87510000  0.48610000  1.0 -0.0366864275
C  C54  1  0.92560000  0.91170000  0.55070000  1.0 -0.0366864275
C  C55  1  0.36100000  0.37490000  0.44930000  1.0 -0.0366864275
C  C56  1  0.66170000  0.61100000  0.48610000  1.0 -0.0366864275
C  C57  1  0.36100000  0.91170000  0.98610000  1.0 -0.0366864275
C  C58  1  0.66170000  0.17560000  0.05070000  1.0 -0.0366864275
C  C59  1  0.12490000  0.61100000  0.94930000  1.0 -0.0366864275
C  C60  1  0.62510000  0.07440000  0.98610000  1.0 -0.0366864275
C  C61  1  0.92560000  0.37490000  0.01390000  1.0 -0.0366864275
C  C62  1  0.82440000  0.33830000  0.94930000  1.0 -0.0366864275
C  C63  1  0.38900000  0.87510000  0.05070000  1.0 -0.0366864275
C  C64  1  0.08830000  0.63900000  0.01390000  1.0 -0.0366864275
C  C65  1  0.22220000  0.45000000  0.30420000  1.0 -0.0135636278
C  C66  1  0.20000000  0.39580000  0.72780000  1.0 -0.0135636278
C  C67  1  0.66800000  0.47220000  0.27220000  1.0 -0.0135636278
C  C68  1  0.08200000  0.85420000  0.30420000  1.0 -0.0135636278
C  C69  1  0.14580000  0.91800000  0.69580000  1.0 -0.0135636278
C  C70  1  0.60420000  0.80000000  0.27220000  1.0 -0.0135636278
C  C71  1  0.52780000  0.33200000  0.72780000  1.0 -0.0135636278
C  C72  1  0.55000000  0.77780000  0.69580000  1.0 -0.0135636278
C  C73  1  0.52780000  0.80000000  0.19580000  1.0 -0.0135636278
C  C74  1  0.55000000  0.85420000  0.77220000  1.0 -0.0135636278
C  C75  1  0.08200000  0.77780000  0.22780000  1.0 -0.0135636278
C  C76  1  0.66800000  0.39580000  0.19580000  1.0 -0.0135636278
C  C77  1  0.60420000  0.33200000  0.80420000  1.0 -0.0135636278
C  C78  1  0.14580000  0.45000000  0.22780000  1.0 -0.0135636278
C  C79  1  0.22220000  0.91800000  0.77220000  1.0 -0.0135636278
C  C80  1  0.20000000  0.47220000  0.80420000  1.0 -0.0135636278
N  N1  1  0.39030000  0.47390000  0.52020000  1.0 -0.2715224394
N  N2  1  0.22390000  0.20370000  0.58360000  1.0 -0.2715224394
N  N3  1  0.62010000  0.64030000  0.41640000  1.0 -0.2715224394
N  N4  1  0.12990000  0.04630000  0.52020000  1.0 -0.2715224394
N  N5  1  0.95370000  0.87010000  0.47980000  1.0 -0.2715224394
N  N6  1  0.79630000  0.77610000  0.41640000  1.0 -0.2715224394
N  N7  1  0.35970000  0.37990000  0.58360000  1.0 -0.2715224394
N  N8  1  0.52610000  0.60970000  0.47980000  1.0 -0.2715224394
N  N9  1  0.35970000  0.77610000  0.97980000  1.0 -0.2715224394
N  N10  1  0.52610000  0.04630000  0.91640000  1.0 -0.2715224394
N  N11  1  0.12990000  0.60970000  0.08360000  1.0 -0.2715224394
N  N12  1  0.62010000  0.20370000  0.97980000  1.0 -0.2715224394
N  N13  1  0.79630000  0.37990000  0.02020000  1.0 -0.2715224394
N  N14  1  0.95370000  0.47390000  0.08360000  1.0 -0.2715224394
N  N15  1  0.39030000  0.87010000  0.91640000  1.0 -0.2715224394
N  N16  1  0.22390000  0.64030000  0.02020000  1.0 -0.2715224394
N  N17  1  0.29780000  0.55150000  0.37390000  1.0 -0.2472755903
N  N18  1  0.30150000  0.42760000  0.75370000  1.0 -0.2472755903
N  N19  1  0.67390000  0.54780000  0.24630000  1.0 -0.2472755903
N  N20  1  0.07610000  0.82240000  0.37390000  1.0 -0.2472755903
N  N21  1  0.17760000  0.92390000  0.62610000  1.0 -0.2472755903
N  N22  1  0.57240000  0.69850000  0.24630000  1.0 -0.2472755903
N  N23  1  0.45220000  0.32610000  0.75370000  1.0 -0.2472755903
N  N24  1  0.44850000  0.70220000  0.62610000  1.0 -0.2472755903
N  N25  1  0.45220000  0.69850000  0.12610000  1.0 -0.2472755903
N  N26  1  0.44850000  0.82240000  0.74630000  1.0 -0.2472755903
N  N27  1  0.07610000  0.70220000  0.25370000  1.0 -0.2472755903
N  N28  1  0.67390000  0.42760000  0.12610000  1.0 -0.2472755903
N  N29  1  0.57240000  0.32610000  0.87390000  1.0 -0.2472755903
N  N30  1  0.17760000  0.55150000  0.25370000  1.0 -0.2472755903
N  N31  1  0.29780000  0.92390000  0.74630000  1.0 -0.2472755903
N  N32  1  0.30150000  0.54780000  0.87390000  1.0 -0.2472755903
