# DDEC6 charges by PACMAN v1.1 (https://github.com/mtap-research/PACMAN-charge/)
data_EQOXIT_ASR_pacman
_symmetry_space_group_name_H-M   'P 1'
_cell_length_a   14.74090000
_cell_length_b   15.34290000
_cell_length_c   22.19240000
_cell_angle_alpha   90.00000000
_cell_angle_beta   103.71600000
_cell_angle_gamma   90.00000000
_symmetry_Int_Tables_number   1
_chemical_formula_structural   ZnH7C12N2O3
_chemical_formula_sum   'Zn12 H84 C144 N24 O36'
_cell_volume   4876.08094541
_cell_formula_units_Z   12
loop_
 _symmetry_equiv_pos_site_id
 _symmetry_equiv_pos_as_xyz
  1  'x, y, z'
loop_
 _atom_site_type_symbol
 _atom_site_label
 _atom_site_symmetry_multiplicity
 _atom_site_fract_x
 _atom_site_fract_y
 _atom_site_fract_z
 _atom_site_occupancy
 _atom_site_charge
Zn  Zn1  1  0.15394000  0.90019000  0.95404000  1.0 0.842886217
Zn  Zn2  1  0.14892000  0.63405000  0.98783000  1.0 0.8679804132
Zn  Zn3  1  0.15251000  0.69248000  0.80565000  1.0 0.883995615
Zn  Zn4  1  0.15240000  0.96121000  0.77490000  1.0 0.8991865442
Zn  Zn5  1  0.15737000  0.02231000  0.59980000  1.0 0.859932445
Zn  Zn6  1  0.15565000  0.75776000  0.62598000  1.0 0.842886217
Zn  Zn7  1  0.84606000  0.40019000  0.04596000  1.0 0.842886217
Zn  Zn8  1  0.85108000  0.13405000  0.01217000  1.0 0.8679804132
Zn  Zn9  1  0.84749000  0.19248000  0.19435000  1.0 0.883995615
Zn  Zn10  1  0.84760000  0.46121000  0.22510000  1.0 0.8991865442
Zn  Zn11  1  0.84263000  0.52231000  0.40020000  1.0 0.859932445
Zn  Zn12  1  0.84435000  0.25776000  0.37402000  1.0 0.842886217
H  H1  1  0.16630000  0.88580000  0.15940000  1.0 0.1383356005
H  H2  1  0.15670000  0.58820000  0.18710000  1.0 0.1295668401
H  H3  1  0.16560000  0.67950000  0.26830000  1.0 0.119995505
H  H4  1  0.86370000  0.72720000  0.69030000  1.0 0.1383356005
H  H5  1  0.84970000  0.67900000  0.89080000  1.0 0.119995505
H  H6  1  0.72300000  0.71900000  0.71180000  1.0 0.119995505
H  H7  1  0.26070000  0.47630000  0.05270000  1.0 0.110632849
H  H8  1  0.26630000  0.32570000  0.04510000  1.0 0.1295668401
H  H9  1  0.03600000  0.33040000  0.90540000  1.0 0.1295668401
H  H10  1  0.03040000  0.48100000  0.91300000  1.0 0.110632849
H  H11  1  0.29570000  0.05030000  0.99070000  1.0 0.119995505
H  H12  1  0.29520000  0.20110000  0.99850000  1.0 0.1295668401
H  H13  1  0.01660000  0.20270000  0.93340000  1.0 0.1295668401
H  H14  1  0.01700000  0.05190000  0.92570000  1.0 0.110632849
H  H15  1  0.45290000  0.74410000  0.72220000  1.0 0.1295668401
H  H16  1  0.58160000  0.67540000  0.89740000  1.0 0.110632849
H  H17  1  0.44230000  0.67700000  0.92520000  1.0 0.1295668401
H  H18  1  0.15880000  0.78720000  0.42550000  1.0 0.1295668401
H  H19  1  0.16580000  0.99660000  0.32200000  1.0 0.119995505
H  H20  1  0.16200000  0.08790000  0.40520000  1.0 0.1383356005
H  H21  1  0.28170000  0.39370000  0.82810000  1.0 0.1295668401
H  H22  1  0.29080000  0.53590000  0.81300000  1.0 0.110632849
H  H23  1  0.02700000  0.54480000  0.76440000  1.0 0.110632849
H  H24  1  0.01090000  0.26440000  0.74160000  1.0 0.119995505
H  H25  1  0.01290000  0.11410000  0.73780000  1.0 0.110632849
H  H26  1  0.27490000  0.25450000  0.84500000  1.0 0.1295668401
H  H27  1  0.26780000  0.10920000  0.84330000  1.0 0.110632849
H  H28  1  0.01370000  0.40440000  0.75310000  1.0 0.1295668401
H  H29  1  0.85650000  0.90100000  0.85660000  1.0 0.119995505
H  H30  1  0.72340000  0.96480000  0.68530000  1.0 0.1295668401
H  H31  1  0.85820000  0.96380000  0.65520000  1.0 0.1295668401
H  H32  1  0.44450000  0.91200000  0.89440000  1.0 0.1295668401
H  H33  1  0.58590000  0.91950000  0.86830000  1.0 0.110632849
H  H34  1  0.46190000  0.98080000  0.69400000  1.0 0.1383356005
H  H35  1  0.28180000  0.17630000  0.67130000  1.0 0.119995505
H  H36  1  0.28700000  0.32140000  0.66990000  1.0 0.1383356005
H  H37  1  0.03260000  0.32400000  0.56810000  1.0 0.1295668401
H  H38  1  0.03490000  0.17640000  0.56540000  1.0 0.119995505
H  H39  1  0.28970000  0.60890000  0.64500000  1.0 0.110632849
H  H40  1  0.29580000  0.46230000  0.65390000  1.0 0.1383356005
H  H41  1  0.02220000  0.45640000  0.59480000  1.0 0.1295668401
H  H42  1  0.02330000  0.60410000  0.59860000  1.0 0.110632849
H  H43  1  0.83370000  0.38580000  0.84060000  1.0 0.1383356005
H  H44  1  0.84330000  0.08820000  0.81290000  1.0 0.1295668401
H  H45  1  0.83440000  0.17950000  0.73170000  1.0 0.119995505
H  H46  1  0.13630000  0.22720000  0.30970000  1.0 0.1383356005
H  H47  1  0.15030000  0.17900000  0.10920000  1.0 0.119995505
H  H48  1  0.27700000  0.21900000  0.28820000  1.0 0.119995505
H  H49  1  0.73930000  0.97630000  0.94730000  1.0 0.110632849
H  H50  1  0.73370000  0.82570000  0.95490000  1.0 0.1295668401
H  H51  1  0.96400000  0.83040000  0.09460000  1.0 0.1295668401
H  H52  1  0.96960000  0.98100000  0.08700000  1.0 0.110632849
H  H53  1  0.70430000  0.55030000  0.00930000  1.0 0.119995505
H  H54  1  0.70480000  0.70110000  0.00150000  1.0 0.1295668401
H  H55  1  0.98340000  0.70270000  0.06660000  1.0 0.119995505
H  H56  1  0.98300000  0.55190000  0.07430000  1.0 0.110632849
H  H57  1  0.54710000  0.24410000  0.27780000  1.0 0.1295668401
H  H58  1  0.41840000  0.17540000  0.10260000  1.0 0.110632849
H  H59  1  0.55770000  0.17700000  0.07480000  1.0 0.1295668401
H  H60  1  0.84120000  0.28720000  0.57450000  1.0 0.1295668401
H  H61  1  0.83420000  0.49660000  0.67800000  1.0 0.119995505
H  H62  1  0.83800000  0.58790000  0.59480000  1.0 0.1383356005
H  H63  1  0.71830000  0.89370000  0.17190000  1.0 0.1295668401
H  H64  1  0.70920000  0.03590000  0.18700000  1.0 0.110632849
H  H65  1  0.97300000  0.04480000  0.23560000  1.0 0.110632849
H  H66  1  0.98910000  0.76440000  0.25840000  1.0 0.119995505
H  H67  1  0.98710000  0.61410000  0.26220000  1.0 0.110632849
H  H68  1  0.72510000  0.75450000  0.15500000  1.0 0.1295668401
H  H69  1  0.73220000  0.60920000  0.15670000  1.0 0.110632849
H  H70  1  0.98630000  0.90440000  0.24690000  1.0 0.1295668401
H  H71  1  0.14350000  0.40100000  0.14340000  1.0 0.119995505
H  H72  1  0.27660000  0.46480000  0.31470000  1.0 0.1295668401
H  H73  1  0.14180000  0.46380000  0.34480000  1.0 0.1295668401
H  H74  1  0.55550000  0.41200000  0.10560000  1.0 0.1295668401
H  H75  1  0.41410000  0.41950000  0.13170000  1.0 0.110632849
H  H76  1  0.53810000  0.48080000  0.30600000  1.0 0.1383356005
H  H77  1  0.71820000  0.67630000  0.32870000  1.0 0.119995505
H  H78  1  0.71300000  0.82140000  0.33010000  1.0 0.1383356005
H  H79  1  0.96740000  0.82400000  0.43190000  1.0 0.1295668401
H  H80  1  0.96510000  0.67640000  0.43460000  1.0 0.110632849
H  H81  1  0.71030000  0.10890000  0.35500000  1.0 0.110632849
H  H82  1  0.70420000  0.96230000  0.34610000  1.0 0.1383356005
H  H83  1  0.97780000  0.95640000  0.40520000  1.0 0.1295668401
H  H84  1  0.97670000  0.10410000  0.40140000  1.0 0.110632849
C  C1  1  0.16580000  0.82560000  0.16440000  1.0 -0.1619716907
C  C2  1  0.16680000  0.76990000  0.11310000  1.0 -0.2219931433
C  C3  1  0.16540000  0.67890000  0.11780000  1.0 0.3617336675
C  C4  1  0.16130000  0.64780000  0.18080000  1.0 -0.1891747012
C  C5  1  0.16400000  0.70190000  0.22920000  1.0 -0.1291212476
C  C6  1  0.16430000  0.79170000  0.21990000  1.0 0.1295668401
C  C7  1  0.94450000  0.70490000  0.77320000  1.0 0.3161208481
C  C8  1  0.86150000  0.71520000  0.73100000  1.0 -0.2294301101
C  C9  1  0.94340000  0.68280000  0.83510000  1.0 -0.2294301101
C  C10  1  0.85250000  0.68320000  0.84950000  1.0 -0.1494559645
C  C11  1  0.77630000  0.70960000  0.74320000  1.0 -0.1057690158
C  C12  1  0.76820000  0.68940000  0.80400000  1.0 0.1383356005
C  C13  1  0.16380000  0.81300000  0.05340000  1.0 0.5886299834
C  C14  1  0.02170000  0.67160000  0.88730000  1.0 0.5769152071
C  C15  1  0.21570000  0.44700000  0.02320000  1.0 0.0776619494
C  C16  1  0.21900000  0.35680000  0.01860000  1.0 -0.181807277
C  C17  1  0.15170000  0.31310000  0.97450000  1.0 0.110632849
C  C18  1  0.08100000  0.35960000  0.93490000  1.0 -0.1891747012
C  C19  1  0.07770000  0.44990000  0.93950000  1.0 0.089575241
C  C20  1  0.23970000  0.08090000  0.97920000  1.0 0.0717453212
C  C21  1  0.23950000  0.17120000  0.98390000  1.0 -0.1986130923
C  C22  1  0.15580000  0.21690000  0.96670000  1.0 0.1021264971
C  C23  1  0.07250000  0.17220000  0.94490000  1.0 -0.1619716907
C  C24  1  0.07270000  0.08180000  0.94030000  1.0 0.089575241
C  C25  1  0.28030000  0.75170000  0.72860000  1.0 0.5645773933
C  C26  1  0.35830000  0.70820000  0.84100000  1.0 0.3072245643
C  C27  1  0.36460000  0.72870000  0.78000000  1.0 -0.1745730564
C  C28  1  0.45000000  0.72850000  0.76220000  1.0 -0.1494559645
C  C29  1  0.53000000  0.70420000  0.80620000  1.0 0.1383356005
C  C30  1  0.52690000  0.68750000  0.86790000  1.0 -0.139675647
C  C31  1  0.44350000  0.68890000  0.88430000  1.0 -0.2070301845
C  C32  1  0.15280000  0.85200000  0.53240000  1.0 0.5769152071
C  C33  1  0.15630000  0.89470000  0.47370000  1.0 -0.1986130923
C  C34  1  0.15890000  0.84750000  0.42180000  1.0 -0.139675647
C  C35  1  0.16160000  0.88150000  0.36390000  1.0 0.1497448311
C  C36  1  0.16330000  0.97170000  0.35970000  1.0 -0.1494559645
C  C37  1  0.16150000  0.02770000  0.41020000  1.0 -0.2294301101
C  C38  1  0.15860000  0.99010000  0.47030000  1.0 0.3746786639
C  C39  1  0.22740000  0.42280000  0.80860000  1.0 -0.1986130923
C  C40  1  0.23260000  0.50900000  0.80540000  1.0 0.0556662083
C  C41  1  0.08190000  0.51250000  0.77430000  1.0 0.0776619494
C  C42  1  0.06500000  0.23370000  0.75960000  1.0 -0.181807277
C  C43  1  0.06600000  0.14380000  0.75880000  1.0 0.0475017243
C  C44  1  0.15070000  0.27950000  0.78920000  1.0 0.1021264971
C  C45  1  0.22150000  0.22780000  0.82140000  1.0 -0.1986130923
C  C46  1  0.21720000  0.14040000  0.82050000  1.0 0.089575241
C  C47  1  0.07200000  0.42950000  0.76870000  1.0 -0.2219931433
C  C48  1  0.15580000  0.37620000  0.78760000  1.0 0.1021264971
C  C49  1  0.02780000  0.90010000  0.85180000  1.0 0.5692904517
C  C50  1  0.94320000  0.91490000  0.79990000  1.0 -0.1891747012
C  C51  1  0.85740000  0.91250000  0.81560000  1.0 -0.139675647
C  C52  1  0.77220000  0.92640000  0.77280000  1.0 0.1295668401
C  C53  1  0.77800000  0.94970000  0.71400000  1.0 -0.1217595351
C  C54  1  0.85860000  0.95160000  0.69630000  1.0 -0.1891747012
C  C55  1  0.94720000  0.93450000  0.74070000  1.0 0.3161208481
C  C56  1  0.28820000  0.98580000  0.69390000  1.0 0.5769152071
C  C57  1  0.36980000  0.96210000  0.74710000  1.0 -0.1619716907
C  C58  1  0.36090000  0.94630000  0.80700000  1.0 0.3072245643
C  C59  1  0.44720000  0.92590000  0.85410000  1.0 -0.181807277
C  C60  1  0.53090000  0.92760000  0.83810000  1.0 -0.139675647
C  C61  1  0.53410000  0.94110000  0.77730000  1.0 0.1295668401
C  C62  1  0.45660000  0.96400000  0.73330000  1.0 -0.1291212476
C  C63  1  0.23060000  0.20580000  0.64750000  1.0 0.0556662083
C  C64  1  0.23310000  0.29370000  0.64820000  1.0 -0.1891747012
C  C65  1  0.16260000  0.34120000  0.61960000  1.0 0.1021264971
C  C66  1  0.08630000  0.29460000  0.58860000  1.0 -0.2070301845
C  C67  1  0.08800000  0.20520000  0.58730000  1.0 0.0717453212
C  C68  1  0.23310000  0.57910000  0.63620000  1.0 0.1021264971
C  C69  1  0.23830000  0.48870000  0.63820000  1.0 -0.2219931433
C  C70  1  0.16030000  0.43680000  0.61770000  1.0 0.110632849
C  C71  1  0.07940000  0.48510000  0.60530000  1.0 -0.1986130923
C  C72  1  0.08070000  0.57570000  0.60810000  1.0 0.0446875915
C  C73  1  0.83420000  0.32560000  0.83560000  1.0 -0.1619716907
C  C74  1  0.83320000  0.26990000  0.88690000  1.0 -0.2219931433
C  C75  1  0.83460000  0.17890000  0.88220000  1.0 0.3617336675
C  C76  1  0.83870000  0.14780000  0.81920000  1.0 -0.1891747012
C  C77  1  0.83600000  0.20190000  0.77080000  1.0 -0.1291212476
C  C78  1  0.83570000  0.29170000  0.78010000  1.0 0.1295668401
C  C79  1  0.05550000  0.20490000  0.22680000  1.0 0.3161208481
C  C80  1  0.13850000  0.21520000  0.26900000  1.0 -0.2294301101
C  C81  1  0.05660000  0.18280000  0.16490000  1.0 -0.2294301101
C  C82  1  0.14750000  0.18320000  0.15050000  1.0 -0.1494559645
C  C83  1  0.22370000  0.20960000  0.25680000  1.0 -0.1057690158
C  C84  1  0.23180000  0.18940000  0.19600000  1.0 0.1383356005
C  C85  1  0.83620000  0.31300000  0.94660000  1.0 0.5886299834
C  C86  1  0.97830000  0.17160000  0.11270000  1.0 0.5769152071
C  C87  1  0.78430000  0.94700000  0.97680000  1.0 0.0776619494
C  C88  1  0.78100000  0.85680000  0.98140000  1.0 -0.181807277
C  C89  1  0.84830000  0.81310000  0.02550000  1.0 0.110632849
C  C90  1  0.91900000  0.85960000  0.06510000  1.0 -0.1891747012
C  C91  1  0.92230000  0.94990000  0.06050000  1.0 0.089575241
C  C92  1  0.76030000  0.58090000  0.02080000  1.0 0.0717453212
C  C93  1  0.76050000  0.67120000  0.01610000  1.0 -0.1986130923
C  C94  1  0.84420000  0.71690000  0.03330000  1.0 0.1021264971
C  C95  1  0.92750000  0.67220000  0.05510000  1.0 -0.1619716907
C  C96  1  0.92730000  0.58180000  0.05970000  1.0 0.089575241
C  C97  1  0.71970000  0.25170000  0.27140000  1.0 0.5645773933
C  C98  1  0.64170000  0.20820000  0.15900000  1.0 0.3072245643
C  C99  1  0.63540000  0.22870000  0.22000000  1.0 -0.1745730564
C  C100  1  0.55000000  0.22850000  0.23780000  1.0 -0.1494559645
C  C101  1  0.47000000  0.20420000  0.19380000  1.0 0.1383356005
C  C102  1  0.47310000  0.18750000  0.13210000  1.0 -0.139675647
C  C103  1  0.55650000  0.18890000  0.11570000  1.0 -0.2070301845
C  C104  1  0.84720000  0.35200000  0.46760000  1.0 0.5769152071
C  C105  1  0.84370000  0.39470000  0.52630000  1.0 -0.1986130923
C  C106  1  0.84110000  0.34750000  0.57820000  1.0 -0.139675647
C  C107  1  0.83840000  0.38150000  0.63610000  1.0 0.1497448311
C  C108  1  0.83670000  0.47170000  0.64030000  1.0 -0.1494559645
C  C109  1  0.83850000  0.52770000  0.58980000  1.0 -0.241376919
C  C110  1  0.84140000  0.49010000  0.52970000  1.0 0.3746786639
C  C111  1  0.77260000  0.92280000  0.19140000  1.0 -0.1986130923
C  C112  1  0.76740000  0.00900000  0.19460000  1.0 0.0556662083
C  C113  1  0.91810000  0.01250000  0.22570000  1.0 0.0776619494
C  C114  1  0.93500000  0.73370000  0.24040000  1.0 -0.181807277
C  C115  1  0.93400000  0.64380000  0.24120000  1.0 0.0475017243
C  C116  1  0.84930000  0.77950000  0.21080000  1.0 0.1021264971
C  C117  1  0.77850000  0.72780000  0.17860000  1.0 -0.1986130923
C  C118  1  0.78280000  0.64040000  0.17950000  1.0 0.089575241
C  C119  1  0.92800000  0.92950000  0.23130000  1.0 -0.2219931433
C  C120  1  0.84420000  0.87620000  0.21240000  1.0 0.1021264971
C  C121  1  0.97220000  0.40010000  0.14820000  1.0 0.5692904517
C  C122  1  0.05680000  0.41490000  0.20010000  1.0 -0.1891747012
C  C123  1  0.14260000  0.41250000  0.18440000  1.0 -0.139675647
C  C124  1  0.22780000  0.42640000  0.22720000  1.0 0.1295668401
C  C125  1  0.22200000  0.44970000  0.28600000  1.0 -0.1217595351
C  C126  1  0.14140000  0.45160000  0.30370000  1.0 -0.1891747012
C  C127  1  0.05280000  0.43450000  0.25930000  1.0 0.3161208481
C  C128  1  0.71180000  0.48580000  0.30610000  1.0 0.5769152071
C  C129  1  0.63020000  0.46210000  0.25290000  1.0 -0.1619716907
C  C130  1  0.63910000  0.44630000  0.19300000  1.0 0.3072245643
C  C131  1  0.55280000  0.42590000  0.14590000  1.0 -0.181807277
C  C132  1  0.46910000  0.42760000  0.16190000  1.0 -0.139675647
C  C133  1  0.46590000  0.44110000  0.22270000  1.0 0.1295668401
C  C134  1  0.54340000  0.46400000  0.26670000  1.0 -0.1291212476
C  C135  1  0.76940000  0.70580000  0.35250000  1.0 0.0556662083
C  C136  1  0.76690000  0.79370000  0.35180000  1.0 -0.1891747012
C  C137  1  0.83740000  0.84120000  0.38040000  1.0 0.1021264971
C  C138  1  0.91370000  0.79460000  0.41140000  1.0 -0.2070301845
C  C139  1  0.91200000  0.70520000  0.41270000  1.0 0.0776619494
C  C140  1  0.76690000  0.07910000  0.36380000  1.0 0.1021264971
C  C141  1  0.76170000  0.98870000  0.36180000  1.0 -0.2219931433
C  C142  1  0.83970000  0.93680000  0.38230000  1.0 0.110632849
C  C143  1  0.92060000  0.98510000  0.39470000  1.0 -0.1986130923
C  C144  1  0.91930000  0.07570000  0.39190000  1.0 0.0475017243
N  N1  1  0.16350000  0.85220000  0.26610000  1.0 -0.1217595351
N  N2  1  0.68860000  0.68940000  0.82710000  1.0 -0.1494559645
N  N3  1  0.14500000  0.49360000  0.98360000  1.0 -0.2872929647
N  N4  1  0.15640000  0.03620000  0.95740000  1.0 -0.2687892988
N  N5  1  0.16290000  0.82590000  0.31700000  1.0 -0.1217595351
N  N6  1  0.61500000  0.70670000  0.78670000  1.0 -0.1291212476
N  N7  1  0.15690000  0.55640000  0.79160000  1.0 -0.2294301101
N  N8  1  0.14430000  0.09670000  0.78860000  1.0 -0.2527836039
N  N9  1  0.62060000  0.94040000  0.75700000  1.0 -0.1041100695
N  N10  1  0.69120000  0.92330000  0.79700000  1.0 -0.1291212476
N  N11  1  0.16010000  0.15790000  0.61510000  1.0 -0.2294301101
N  N12  1  0.15870000  0.62650000  0.62350000  1.0 -0.241376919
N  N13  1  0.83650000  0.35220000  0.73390000  1.0 -0.1217595351
N  N14  1  0.31140000  0.18940000  0.17290000  1.0 -0.1494559645
N  N15  1  0.85500000  0.99360000  0.01640000  1.0 -0.2872929647
N  N16  1  0.84360000  0.53620000  0.04260000  1.0 -0.2687892988
N  N17  1  0.83710000  0.32590000  0.68300000  1.0 -0.1217595351
N  N18  1  0.38500000  0.20670000  0.21330000  1.0 -0.1291212476
N  N19  1  0.84310000  0.05640000  0.20840000  1.0 -0.2294301101
N  N20  1  0.85570000  0.59670000  0.21140000  1.0 -0.2527836039
N  N21  1  0.37940000  0.44040000  0.24300000  1.0 -0.1041100695
N  N22  1  0.30880000  0.42330000  0.20300000  1.0 -0.1291212476
N  N23  1  0.83990000  0.65790000  0.38490000  1.0 -0.2294301101
N  N24  1  0.84130000  0.12650000  0.37650000  1.0 -0.241376919
O  O1  1  0.16460000  0.62390000  0.07600000  1.0 -0.4817380383
O  O2  1  0.02060000  0.71130000  0.75480000  1.0 -0.512104474
O  O3  1  0.16680000  0.89700000  0.04850000  1.0 -0.5279438048
O  O4  1  0.15920000  0.77130000  0.00120000  1.0 -0.5634261444
O  O5  1  0.10530000  0.68150000  0.88020000  1.0 -0.5634261444
O  O6  1  0.01080000  0.64390000  0.93910000  1.0 -0.5279438048
O  O7  1  0.27980000  0.71210000  0.86070000  1.0 -0.5279438048
O  O8  1  0.19810000  0.75450000  0.73850000  1.0 -0.5522106662
O  O9  1  0.28830000  0.76790000  0.67550000  1.0 -0.4890630717
O  O10  1  0.15150000  0.89210000  0.58330000  1.0 -0.543931432
O  O11  1  0.14580000  0.77090000  0.53200000  1.0 -0.512104474
O  O12  1  0.15270000  0.04390000  0.51260000  1.0 -0.4958961084
O  O13  1  0.27880000  0.94350000  0.82520000  1.0 -0.5799076632
O  O14  1  0.20330000  0.97680000  0.69890000  1.0 -0.5657377317
O  O15  1  0.30300000  0.01220000  0.64520000  1.0 -0.4890630717
O  O16  1  0.01910000  0.88850000  0.90540000  1.0 -0.4890630717
O  O17  1  0.10910000  0.90390000  0.84230000  1.0 -0.5279438048
O  O18  1  0.02320000  0.94290000  0.72040000  1.0 -0.5203211978
O  O19  1  0.83540000  0.12390000  0.92400000  1.0 -0.4817380383
O  O20  1  0.97940000  0.21130000  0.24520000  1.0 -0.512104474
O  O21  1  0.83320000  0.39700000  0.95150000  1.0 -0.5279438048
O  O22  1  0.84080000  0.27130000  0.99880000  1.0 -0.5634261444
O  O23  1  0.89470000  0.18150000  0.11980000  1.0 -0.5634261444
O  O24  1  0.98920000  0.14390000  0.06090000  1.0 -0.5279438048
O  O25  1  0.72020000  0.21210000  0.13930000  1.0 -0.5279438048
O  O26  1  0.80190000  0.25450000  0.26150000  1.0 -0.5522106662
O  O27  1  0.71170000  0.26790000  0.32450000  1.0 -0.4890630717
O  O28  1  0.84850000  0.39210000  0.41670000  1.0 -0.543931432
O  O29  1  0.85420000  0.27090000  0.46800000  1.0 -0.512104474
O  O30  1  0.84730000  0.54390000  0.48740000  1.0 -0.4958961084
O  O31  1  0.72120000  0.44350000  0.17480000  1.0 -0.5799076632
O  O32  1  0.79670000  0.47680000  0.30110000  1.0 -0.5657377317
O  O33  1  0.69700000  0.51220000  0.35480000  1.0 -0.4890630717
O  O34  1  0.98090000  0.38850000  0.09460000  1.0 -0.4890630717
O  O35  1  0.89090000  0.40390000  0.15770000  1.0 -0.5279438048
O  O36  1  0.97680000  0.44290000  0.27960000  1.0 -0.5203211978
