# DDEC6 charges by PACMAN v1.1 (https://github.com/mtap-research/PACMAN-charge/)
data_EQUCOI_ASR_pacman
_symmetry_space_group_name_H-M   'P 1'
_cell_length_a   8.60300000
_cell_length_b   15.47600000
_cell_length_c   16.50400000
_cell_angle_alpha   90.00000000
_cell_angle_beta   96.87700000
_cell_angle_gamma   90.00000000
_symmetry_Int_Tables_number   1
_chemical_formula_structural   Sc3P4H3O20
_chemical_formula_sum   'Sc12 P16 H12 O80'
_cell_volume   2181.53421128
_cell_formula_units_Z   4
loop_
 _symmetry_equiv_pos_site_id
 _symmetry_equiv_pos_as_xyz
  1  'x, y, z'
loop_
 _atom_site_type_symbol
 _atom_site_label
 _atom_site_symmetry_multiplicity
 _atom_site_fract_x
 _atom_site_fract_y
 _atom_site_fract_z
 _atom_site_occupancy
 _atom_site_charge
Sc  Sc1  1  0.60896000  0.82607000  0.15383000  1.0 1.9348844826
Sc  Sc2  1  0.39104000  0.17393000  0.84617000  1.0 1.9378235479
Sc  Sc3  1  0.89104000  0.32607000  0.34617000  1.0 1.9378235479
Sc  Sc4  1  0.10896000  0.67393000  0.65383000  1.0 1.9378235479
Sc  Sc5  1  0.49772000  0.87167000  0.52542000  1.0 1.8696594775
Sc  Sc6  1  0.50228000  0.12833000  0.47458000  1.0 1.8696594775
Sc  Sc7  1  0.00228000  0.37167000  0.97458000  1.0 1.8696594775
Sc  Sc8  1  0.99772000  0.62833000  0.02542000  1.0 1.8759497941
Sc  Sc9  1  0.05592000  0.74230000  0.30111000  1.0 1.8612801373
Sc  Sc10  1  0.94408000  0.25770000  0.69889000  1.0 1.8612801373
Sc  Sc11  1  0.44408000  0.24230000  0.19888000  1.0 1.8612801373
Sc  Sc12  1  0.55592000  0.75770000  0.80112000  1.0 1.8612801373
P  P1  1  0.21887000  0.78316000  0.13547000  1.0 1.5985250712
P  P2  1  0.78113000  0.21684000  0.86453000  1.0 1.5985250712
P  P3  1  0.28113000  0.28316000  0.36453000  1.0 1.5985250712
P  P4  1  0.71887000  0.71684000  0.63547000  1.0 1.5985250712
P  P5  1  0.27608000  0.70069000  0.47498000  1.0 1.5985250712
P  P6  1  0.72392000  0.29931000  0.52502000  1.0 1.5985250712
P  P7  1  0.22391000  0.20069000  0.02501000  1.0 1.5985250712
P  P8  1  0.77609000  0.79931000  0.97499000  1.0 1.5985250712
P  P9  1  0.83412000  0.60078000  0.19985000  1.0 1.5279670894
P  P10  1  0.16588000  0.39922000  0.80015000  1.0 1.5279670894
P  P11  1  0.66588000  0.10078000  0.30015000  1.0 1.5279670894
P  P12  1  0.33412000  0.89922000  0.69985000  1.0 1.5279670894
P  P13  1  0.66884000  0.79101000  0.37110000  1.0 1.5598933637
P  P14  1  0.33116000  0.20899000  0.62890000  1.0 1.5598933637
P  P15  1  0.83116000  0.29101000  0.12890000  1.0 1.5598933637
P  P16  1  0.16884000  0.70899000  0.87110000  1.0 1.5598933637
H  H1  1  0.52776000  0.68114000  0.43449000  1.0 0.4239380449
H  H2  1  0.47224000  0.31886000  0.56551000  1.0 0.4239380449
H  H3  1  0.97223000  0.18114000  0.06551000  1.0 0.4239380449
H  H4  1  0.02777000  0.81886000  0.93449000  1.0 0.4239380449
H  H5  1  0.03894000  0.85317000  0.04571000  1.0 0.425485456
H  H6  1  0.96106000  0.14683000  0.95429000  1.0 0.425485456
H  H7  1  0.46105000  0.35316000  0.45429000  1.0 0.425485456
H  H8  1  0.53895000  0.64684000  0.54571000  1.0 0.425485456
H  H9  1  0.81107000  0.47691000  0.28507000  1.0 0.4402093232
H  H10  1  0.18893000  0.52309000  0.71493000  1.0 0.4402093232
H  H11  1  0.68893000  0.97691000  0.21493000  1.0 0.4402093232
H  H12  1  0.31107000  0.02309000  0.78507000  1.0 0.4402093232
O  O1  1  0.42443000  0.99688000  0.47990000  1.0 -0.2885311753
O  O2  1  0.57557000  0.00312000  0.52010000  1.0 -0.2885311753
O  O3  1  0.07557000  0.49688000  0.02009000  1.0 -0.2885311753
O  O4  1  0.92443000  0.50312000  0.97991000  1.0 -0.2885311753
O  O5  1  0.62427000  0.86163000  0.42765000  1.0 -0.8079267402
O  O6  1  0.37573000  0.13837000  0.57235000  1.0 -0.8079267402
O  O7  1  0.87573000  0.36162000  0.07235000  1.0 -0.8079267402
O  O8  1  0.12427000  0.63838000  0.92765000  1.0 -0.8079267402
O  O9  1  0.31427000  0.79824000  0.48751000  1.0 -0.881306641
O  O10  1  0.68573000  0.20176000  0.51249000  1.0 -0.881306641
O  O11  1  0.18573000  0.29824000  0.01250000  1.0 -0.881306641
O  O12  1  0.81427000  0.70176000  0.98750000  1.0 -0.881306641
O  O13  1  0.61634000  0.80818000  0.28173000  1.0 -0.7746942699
O  O14  1  0.38366000  0.19182000  0.71827000  1.0 -0.7746942699
O  O15  1  0.88365000  0.30818000  0.21827000  1.0 -0.7746942699
O  O16  1  0.11635000  0.69182000  0.78173000  1.0 -0.7746942699
O  O17  1  0.68161000  0.83327000  0.03952000  1.0 -0.798731035
O  O18  1  0.31839000  0.16673000  0.96048000  1.0 -0.798731035
O  O19  1  0.81839000  0.33327000  0.46048000  1.0 -0.798731035
O  O20  1  0.18161000  0.66666667  0.53952000  1.0 -0.798731035
O  O21  1  0.41913000  0.92581000  0.62882000  1.0 -0.7787921637
O  O22  1  0.58087000  0.07419000  0.37118000  1.0 -0.7787921637
O  O23  1  0.08087000  0.42581000  0.87118000  1.0 -0.7787921637
O  O24  1  0.91913000  0.57419000  0.12882000  1.0 -0.7787921637
O  O25  1  0.64044000  0.79962000  0.59800000  1.0 -0.881306641
O  O26  1  0.35956000  0.20038000  0.40200000  1.0 -0.881306641
O  O27  1  0.85956000  0.29962000  0.90200000  1.0 -0.881306641
O  O28  1  0.14044000  0.70038000  0.09800000  1.0 -0.881306641
O  O29  1  0.86937000  0.79090000  0.38268000  1.0 -0.3310660109
O  O30  1  0.13063000  0.20910000  0.61732000  1.0 -0.3310660109
O  O31  1  0.63063000  0.29090000  0.11732000  1.0 -0.3310660109
O  O32  1  0.36937000  0.70910000  0.88268000  1.0 -0.3310660109
O  O33  1  0.92938000  0.85438000  0.32973000  1.0 -0.3013253942
O  O34  1  0.07062000  0.14562000  0.67027000  1.0 -0.3013253942
O  O35  1  0.57061000  0.35437000  0.17026000  1.0 -0.3013253942
O  O36  1  0.42939000  0.64563000  0.82974000  1.0 -0.3013253942
O  O37  1  0.84937000  0.76843000  0.18681000  1.0 -0.3663162499
O  O38  1  0.15063000  0.23157000  0.81319000  1.0 -0.3663162499
O  O39  1  0.65064000  0.26843000  0.31319000  1.0 -0.3641546279
O  O40  1  0.34936000  0.73157000  0.68681000  1.0 -0.3641546279
O  O41  1  0.60483000  0.94735000  0.17947000  1.0 -0.8865019341
O  O42  1  0.39517000  0.05265000  0.82053000  1.0 -0.8865019341
O  O43  1  0.89518000  0.44734000  0.32053000  1.0 -0.8865019341
O  O44  1  0.10482000  0.55266000  0.67947000  1.0 -0.881306641
O  O45  1  0.94977000  0.62815000  0.27252000  1.0 -0.7861724108
O  O46  1  0.05023000  0.37185000  0.72748000  1.0 -0.7861724108
O  O47  1  0.55023000  0.12815000  0.22748000  1.0 -0.7861724108
O  O48  1  0.44977000  0.87185000  0.77252000  1.0 -0.7861724108
O  O49  1  0.19237000  0.68737000  0.38863000  1.0 -0.8079267402
O  O50  1  0.80763000  0.31263000  0.61137000  1.0 -0.8079267402
O  O51  1  0.30763000  0.18737000  0.11137000  1.0 -0.8079267402
O  O52  1  0.69237000  0.81263000  0.88863000  1.0 -0.8079267402
O  O53  1  0.39216000  0.78021000  0.12337000  1.0 -0.8079267402
O  O54  1  0.60784000  0.21979000  0.87663000  1.0 -0.8079267402
O  O55  1  0.10784000  0.28021000  0.37663000  1.0 -0.8079267402
O  O56  1  0.89216000  0.71979000  0.62337000  1.0 -0.8079267402
O  O57  1  0.43694000  0.65270000  0.47777000  1.0 -0.62113498
O  O58  1  0.56306000  0.34730000  0.52223000  1.0 -0.62113498
O  O59  1  0.06305000  0.15270000  0.02223000  1.0 -0.62113498
O  O60  1  0.93695000  0.84730000  0.97777000  1.0 -0.62113498
O  O61  1  0.63826000  0.69943000  0.39841000  1.0 -0.62113498
O  O62  1  0.36174000  0.30057000  0.60159000  1.0 -0.62113498
O  O63  1  0.86175000  0.19942000  0.10160000  1.0 -0.62113498
O  O64  1  0.13825000  0.80058000  0.89840000  1.0 -0.62113498
O  O65  1  0.74707000  0.69878000  0.17098000  1.0 -0.4148771822
O  O66  1  0.25293000  0.30122000  0.82902000  1.0 -0.4184584677
O  O67  1  0.75291000  0.19878000  0.32901000  1.0 -0.4184584677
O  O68  1  0.24709000  0.80122000  0.67099000  1.0 -0.4184584677
O  O69  1  0.20377000  0.78659000  0.22815000  1.0 -0.825731954
O  O70  1  0.79623000  0.21341000  0.77185000  1.0 -0.825731954
O  O71  1  0.29622000  0.28658000  0.27185000  1.0 -0.825731954
O  O72  1  0.70378000  0.71342000  0.72815000  1.0 -0.825731954
O  O73  1  0.13569000  0.86194000  0.09244000  1.0 -0.6312174112
O  O74  1  0.86431000  0.13806000  0.90756000  1.0 -0.6312174112
O  O75  1  0.36432000  0.36194000  0.40756000  1.0 -0.6312174112
O  O76  1  0.63568000  0.63806000  0.59244000  1.0 -0.6312174112
O  O77  1  0.69380000  0.55077000  0.21618000  1.0 -0.6312174112
O  O78  1  0.30620000  0.44923000  0.78382000  1.0 -0.6312174112
O  O79  1  0.80620000  0.05077000  0.28382000  1.0 -0.6312174112
O  O80  1  0.19380000  0.94923000  0.71618000  1.0 -0.6312174112
