# DDEC6 charges by PACMAN v1.1 (https://github.com/mtap-research/PACMAN-charge/)
data_ERAHOV_FSR_pacman
_symmetry_space_group_name_H-M   'P 1'
_cell_length_a   11.45000000
_cell_length_b   11.46700000
_cell_length_c   20.94400000
_cell_angle_alpha   90.00000000
_cell_angle_beta   90.00000000
_cell_angle_gamma   90.00000000
_symmetry_Int_Tables_number   1
_chemical_formula_structural   CoH16Au3C26(Br3N5)2
_chemical_formula_sum   'Co2 H32 Au6 C52 Br12 N20'
_cell_volume   2749.88750960
_cell_formula_units_Z   2
loop_
 _symmetry_equiv_pos_site_id
 _symmetry_equiv_pos_as_xyz
  1  'x, y, z'
loop_
 _atom_site_type_symbol
 _atom_site_label
 _atom_site_symmetry_multiplicity
 _atom_site_fract_x
 _atom_site_fract_y
 _atom_site_fract_z
 _atom_site_occupancy
 _atom_site_charge
Co  Co1  1  0.00000000  0.00000000  0.75000000  1.0 0.6728004263
Co  Co2  1  0.00000000  0.00000000  0.25000000  1.0 0.6728004263
H  H1  1  0.06880000  0.78810000  0.66550000  1.0 0.1223206003
H  H2  1  0.06880000  0.21190000  0.83450000  1.0 0.1223206003
H  H3  1  0.93120000  0.78810000  0.83450000  1.0 0.1223206003
H  H4  1  0.93120000  0.21190000  0.66550000  1.0 0.1223206003
H  H5  1  0.93120000  0.21190000  0.33450000  1.0 0.1223206003
H  H6  1  0.93120000  0.78810000  0.16550000  1.0 0.1223206003
H  H7  1  0.06880000  0.21190000  0.16550000  1.0 0.1223206003
H  H8  1  0.06880000  0.78810000  0.33450000  1.0 0.1223206003
H  H9  1  0.06420000  0.58930000  0.66030000  1.0 0.1462322743
H  H10  1  0.06420000  0.41070000  0.83970000  1.0 0.1462322743
H  H11  1  0.93580000  0.58930000  0.83970000  1.0 0.1462322743
H  H12  1  0.93580000  0.41070000  0.66030000  1.0 0.1462322743
H  H13  1  0.93580000  0.41070000  0.33970000  1.0 0.1462322743
H  H14  1  0.93580000  0.58930000  0.16030000  1.0 0.1462322743
H  H15  1  0.06420000  0.41070000  0.16030000  1.0 0.1462322743
H  H16  1  0.06420000  0.58930000  0.33970000  1.0 0.1462322743
H  H17  1  0.79000000  0.91920000  0.66900000  1.0 0.1223206003
H  H18  1  0.79000000  0.08080000  0.83100000  1.0 0.1223206003
H  H19  1  0.21000000  0.91920000  0.83100000  1.0 0.1223206003
H  H20  1  0.21000000  0.08080000  0.66900000  1.0 0.1223206003
H  H21  1  0.21000000  0.08080000  0.33100000  1.0 0.1223206003
H  H22  1  0.21000000  0.91920000  0.16900000  1.0 0.1223206003
H  H23  1  0.79000000  0.08080000  0.16900000  1.0 0.1223206003
H  H24  1  0.79000000  0.91920000  0.33100000  1.0 0.1223206003
H  H25  1  0.59030000  0.92280000  0.66530000  1.0 0.1462322743
H  H26  1  0.59030000  0.07720000  0.83470000  1.0 0.1462322743
H  H27  1  0.40970000  0.92280000  0.83470000  1.0 0.1462322743
H  H28  1  0.40970000  0.07720000  0.66530000  1.0 0.1462322743
H  H29  1  0.40970000  0.07720000  0.33470000  1.0 0.1462322743
H  H30  1  0.40970000  0.92280000  0.16530000  1.0 0.1462322743
H  H31  1  0.59030000  0.07720000  0.16530000  1.0 0.1462322743
H  H32  1  0.59030000  0.92280000  0.33470000  1.0 0.1462322743
Au  Au1  1  0.00000000  0.00000000  0.50000000  1.0 0.2203551577
Au  Au2  1  0.00000000  0.00000000  0.00000000  1.0 0.2284565763
Au  Au3  1  0.76250000  0.68991000  0.50000000  1.0 0.3472404526
Au  Au4  1  0.76250000  0.31009000  0.00000000  1.0 0.3580387877
Au  Au5  1  0.23750000  0.68991000  0.00000000  1.0 0.3580387877
Au  Au6  1  0.23750000  0.31009000  0.50000000  1.0 0.3472404526
C  C1  1  0.00000000  0.00000000  0.59450000  1.0 0.0979575397
C  C2  1  0.00000000  0.00000000  0.90550000  1.0 0.0979575397
C  C3  1  0.00000000  0.00000000  0.40550000  1.0 0.0979575397
C  C4  1  0.00000000  0.00000000  0.09450000  1.0 0.0979575397
C  C5  1  0.03930000  0.74740000  0.70010000  1.0 0.0979575397
C  C6  1  0.03930000  0.25260000  0.79990000  1.0 0.0979575397
C  C7  1  0.96070000  0.74740000  0.79990000  1.0 0.0979575397
C  C8  1  0.96070000  0.25260000  0.70010000  1.0 0.0979575397
C  C9  1  0.96070000  0.25260000  0.29990000  1.0 0.0979575397
C  C10  1  0.96070000  0.74740000  0.20010000  1.0 0.0979575397
C  C11  1  0.03930000  0.25260000  0.20010000  1.0 0.0979575397
C  C12  1  0.03930000  0.74740000  0.29990000  1.0 0.0979575397
C  C13  1  0.03830000  0.62750000  0.69720000  1.0 -0.1519741817
C  C14  1  0.03830000  0.37250000  0.80280000  1.0 -0.1519741817
C  C15  1  0.96170000  0.62750000  0.80280000  1.0 -0.1519741817
C  C16  1  0.96170000  0.37250000  0.69720000  1.0 -0.1519741817
C  C17  1  0.96170000  0.37250000  0.30280000  1.0 -0.1519741817
C  C18  1  0.96170000  0.62750000  0.19720000  1.0 -0.1519741817
C  C19  1  0.03830000  0.37250000  0.19720000  1.0 -0.1519741817
C  C20  1  0.03830000  0.62750000  0.30280000  1.0 -0.1519741817
C  C21  1  0.00000000  0.56450000  0.75000000  1.0 0.1098257238
C  C22  1  0.00000000  0.43550000  0.75000000  1.0 0.1098257238
C  C23  1  0.00000000  0.43550000  0.25000000  1.0 0.1098257238
C  C24  1  0.00000000  0.56450000  0.25000000  1.0 0.1098257238
C  C25  1  0.74850000  0.95490000  0.70270000  1.0 0.0979575397
C  C26  1  0.74850000  0.04510000  0.79730000  1.0 0.0979575397
C  C27  1  0.25150000  0.95490000  0.79730000  1.0 0.0979575397
C  C28  1  0.25150000  0.04510000  0.70270000  1.0 0.0979575397
C  C29  1  0.25150000  0.04510000  0.29730000  1.0 0.0979575397
C  C30  1  0.25150000  0.95490000  0.20270000  1.0 0.0979575397
C  C31  1  0.74850000  0.04510000  0.20270000  1.0 0.0979575397
C  C32  1  0.74850000  0.95490000  0.29730000  1.0 0.0979575397
C  C33  1  0.62830000  0.95550000  0.70050000  1.0 -0.1606150417
C  C34  1  0.62830000  0.04450000  0.79950000  1.0 -0.1606150417
C  C35  1  0.37170000  0.95550000  0.79950000  1.0 -0.1606150417
C  C36  1  0.37170000  0.04450000  0.70050000  1.0 -0.1606150417
C  C37  1  0.37170000  0.04450000  0.29950000  1.0 -0.1606150417
C  C38  1  0.37170000  0.95550000  0.20050000  1.0 -0.1606150417
C  C39  1  0.62830000  0.04450000  0.20050000  1.0 -0.1606150417
C  C40  1  0.62830000  0.95550000  0.29950000  1.0 -0.1606150417
C  C41  1  0.56440000  0.00000000  0.75000000  1.0 0.1098257238
C  C42  1  0.43560000  0.00000000  0.75000000  1.0 0.1098257238
C  C43  1  0.43560000  0.00000000  0.25000000  1.0 0.1098257238
C  C44  1  0.56440000  0.00000000  0.25000000  1.0 0.1098257238
C  C45  1  0.75990000  0.68930000  0.59460000  1.0 0.0617978582
C  C46  1  0.75990000  0.31070000  0.90540000  1.0 0.0617978582
C  C47  1  0.24010000  0.68930000  0.90540000  1.0 0.0617978582
C  C48  1  0.24010000  0.31070000  0.59460000  1.0 0.0617978582
C  C49  1  0.24010000  0.31070000  0.40540000  1.0 0.0617978582
C  C50  1  0.24010000  0.68930000  0.09460000  1.0 0.0617978582
C  C51  1  0.75990000  0.31070000  0.09460000  1.0 0.0617978582
C  C52  1  0.75990000  0.68930000  0.40540000  1.0 0.0617978582
Br  Br1  1  0.06060000  0.79633000  0.50000000  1.0 -0.1996951578
Br  Br2  1  0.06060000  0.20367000  0.00000000  1.0 -0.1996951578
Br  Br3  1  0.93940000  0.79633000  0.00000000  1.0 -0.1996951578
Br  Br4  1  0.93940000  0.20367000  0.50000000  1.0 -0.1996951578
Br  Br5  1  0.70489000  0.89443000  0.50000000  1.0 -0.2835730566
Br  Br6  1  0.70489000  0.10557000  0.00000000  1.0 -0.2869825317
Br  Br7  1  0.29511000  0.89443000  0.00000000  1.0 -0.2869825317
Br  Br8  1  0.29511000  0.10557000  0.50000000  1.0 -0.2835730566
Br  Br9  1  0.81940000  0.48720000  0.50000000  1.0 -0.1519741817
Br  Br10  1  0.81940000  0.51280000  0.00000000  1.0 -0.1606150417
Br  Br11  1  0.18060000  0.48720000  0.00000000  1.0 -0.1606150417
Br  Br12  1  0.18060000  0.51280000  0.50000000  1.0 -0.1519741817
N  N1  1  0.00000000  0.00000000  0.64930000  1.0 -0.382615733
N  N2  1  0.00000000  0.00000000  0.85070000  1.0 -0.382615733
N  N3  1  0.00000000  0.00000000  0.35070000  1.0 -0.382615733
N  N4  1  0.00000000  0.00000000  0.14930000  1.0 -0.382615733
N  N5  1  0.00000000  0.81140000  0.75000000  1.0 -0.2272480568
N  N6  1  0.00000000  0.18860000  0.75000000  1.0 -0.2272480568
N  N7  1  0.00000000  0.18860000  0.25000000  1.0 -0.2272480568
N  N8  1  0.00000000  0.81140000  0.25000000  1.0 -0.2272480568
N  N9  1  0.81010000  0.00000000  0.75000000  1.0 -0.207030951
N  N10  1  0.18990000  0.00000000  0.75000000  1.0 -0.207030951
N  N11  1  0.18990000  0.00000000  0.25000000  1.0 -0.207030951
N  N12  1  0.81010000  0.00000000  0.25000000  1.0 -0.207030951
N  N13  1  0.75550000  0.68350000  0.64790000  1.0 -0.3125741882
N  N14  1  0.75550000  0.31650000  0.85210000  1.0 -0.3125741882
N  N15  1  0.24450000  0.68350000  0.85210000  1.0 -0.3125741882
N  N16  1  0.24450000  0.31650000  0.64790000  1.0 -0.3125741882
N  N17  1  0.24450000  0.31650000  0.35210000  1.0 -0.3125741882
N  N18  1  0.24450000  0.68350000  0.14790000  1.0 -0.3125741882
N  N19  1  0.75550000  0.31650000  0.14790000  1.0 -0.3125741882
N  N20  1  0.75550000  0.68350000  0.35210000  1.0 -0.3125741882
