# DDEC6 charges by PACMAN v1.1 (https://github.com/mtap-research/PACMAN-charge/)
data_ERALUG_ASR_pacman
_symmetry_space_group_name_H-M   'P 1'
_cell_length_a   34.88200000
_cell_length_b   34.88200000
_cell_length_c   12.08600000
_cell_angle_alpha   90.00000000
_cell_angle_beta   90.00000000
_cell_angle_gamma   90.00000000
_symmetry_Int_Tables_number   1
_chemical_formula_structural   Zr3H14C34(O2F3)6
_chemical_formula_sum   'Zr24 H112 C272 O96 F144'
_cell_volume   14705.68792546
_cell_formula_units_Z   8
loop_
 _symmetry_equiv_pos_site_id
 _symmetry_equiv_pos_as_xyz
  1  'x, y, z'
loop_
 _atom_site_type_symbol
 _atom_site_label
 _atom_site_symmetry_multiplicity
 _atom_site_fract_x
 _atom_site_fract_y
 _atom_site_fract_z
 _atom_site_occupancy
 _atom_site_charge
Zr  Zr1  1  0.20499000  0.70499000  0.15580000  1.0 2.5095769906
Zr  Zr2  1  0.20499000  0.29501000  0.65580000  1.0 2.5095769906
Zr  Zr3  1  0.79501000  0.29501000  0.15580000  1.0 2.5095769906
Zr  Zr4  1  0.79501000  0.70499000  0.65580000  1.0 2.5095769906
Zr  Zr5  1  0.29501000  0.20499000  0.84420000  1.0 2.5095769906
Zr  Zr6  1  0.70499000  0.79501000  0.84420000  1.0 2.5095769906
Zr  Zr7  1  0.70499000  0.20499000  0.34420000  1.0 2.5095769906
Zr  Zr8  1  0.29501000  0.79501000  0.34420000  1.0 2.5095769906
Zr  Zr9  1  0.29979000  0.70021000  0.25000000  1.0 2.3655110144
Zr  Zr10  1  0.20021000  0.20021000  0.75000000  1.0 2.3655110144
Zr  Zr11  1  0.70021000  0.29979000  0.25000000  1.0 2.3655110144
Zr  Zr12  1  0.79979000  0.79979000  0.75000000  1.0 2.3641494059
Zr  Zr13  1  0.20021000  0.79979000  0.25000000  1.0 2.3655110144
Zr  Zr14  1  0.29979000  0.29979000  0.75000000  1.0 2.3655110144
Zr  Zr15  1  0.79979000  0.20021000  0.25000000  1.0 2.3655110144
Zr  Zr16  1  0.70021000  0.70021000  0.75000000  1.0 2.3641494059
Zr  Zr17  1  0.22683000  0.72683000  0.43375000  1.0 2.4802889966
Zr  Zr18  1  0.22683000  0.27317000  0.93375000  1.0 2.4802889966
Zr  Zr19  1  0.77317000  0.27317000  0.43375000  1.0 2.4802889966
Zr  Zr20  1  0.77317000  0.72683000  0.93375000  1.0 2.4802889966
Zr  Zr21  1  0.27317000  0.22683000  0.56625000  1.0 2.4802889966
Zr  Zr22  1  0.72683000  0.77317000  0.56625000  1.0 2.4802889966
Zr  Zr23  1  0.72683000  0.22683000  0.06625000  1.0 2.4802889966
Zr  Zr24  1  0.27317000  0.77317000  0.06625000  1.0 2.4802889966
H  H1  1  0.31830000  0.58220000  0.16610000  1.0 0.1092498361
H  H2  1  0.08220000  0.18170000  0.66610000  1.0 0.1092498361
H  H3  1  0.68170000  0.41780000  0.16610000  1.0 0.1092498361
H  H4  1  0.91780000  0.81830000  0.66610000  1.0 0.1092498361
H  H5  1  0.18170000  0.08220000  0.83390000  1.0 0.1092498361
H  H6  1  0.81830000  0.91780000  0.83390000  1.0 0.1092498361
H  H7  1  0.58220000  0.31830000  0.33390000  1.0 0.1092498361
H  H8  1  0.41780000  0.68170000  0.33390000  1.0 0.1092498361
H  H9  1  0.18170000  0.91780000  0.33390000  1.0 0.1092498361
H  H10  1  0.41780000  0.31830000  0.83390000  1.0 0.1092498361
H  H11  1  0.81830000  0.08220000  0.33390000  1.0 0.1092498361
H  H12  1  0.58220000  0.68170000  0.83390000  1.0 0.1092498361
H  H13  1  0.31830000  0.41780000  0.66610000  1.0 0.1092498361
H  H14  1  0.68170000  0.58220000  0.66610000  1.0 0.1092498361
H  H15  1  0.91780000  0.18170000  0.16610000  1.0 0.1092498361
H  H16  1  0.08220000  0.81830000  0.16610000  1.0 0.1092498361
H  H17  1  0.20720000  0.57710000  0.06950000  1.0 0.1092498361
H  H18  1  0.07710000  0.29280000  0.56950000  1.0 0.1092498361
H  H19  1  0.79280000  0.42290000  0.06950000  1.0 0.1092498361
H  H20  1  0.92290000  0.70720000  0.56950000  1.0 0.1092498361
H  H21  1  0.29280000  0.07710000  0.93050000  1.0 0.1092498361
H  H22  1  0.70720000  0.92290000  0.93050000  1.0 0.1092498361
H  H23  1  0.57710000  0.20720000  0.43050000  1.0 0.1092498361
H  H24  1  0.42290000  0.79280000  0.43050000  1.0 0.1092498361
H  H25  1  0.29280000  0.92290000  0.43050000  1.0 0.1092498361
H  H26  1  0.42290000  0.20720000  0.93050000  1.0 0.1092498361
H  H27  1  0.70720000  0.07710000  0.43050000  1.0 0.1092498361
H  H28  1  0.57710000  0.79280000  0.93050000  1.0 0.1092498361
H  H29  1  0.20720000  0.42290000  0.56950000  1.0 0.1092498361
H  H30  1  0.79280000  0.57710000  0.56950000  1.0 0.1092498361
H  H31  1  0.92290000  0.29280000  0.06950000  1.0 0.1092498361
H  H32  1  0.07710000  0.70720000  0.06950000  1.0 0.1092498361
H  H33  1  0.32430000  0.51610000  0.13790000  1.0 0.1968572226
H  H34  1  0.01610000  0.17570000  0.63790000  1.0 0.1968572226
H  H35  1  0.67570000  0.48390000  0.13790000  1.0 0.1968572226
H  H36  1  0.98390000  0.82430000  0.63790000  1.0 0.1968572226
H  H37  1  0.17570000  0.01610000  0.86210000  1.0 0.1968572226
H  H38  1  0.82430000  0.98390000  0.86210000  1.0 0.1968572226
H  H39  1  0.51610000  0.32430000  0.36210000  1.0 0.1968572226
H  H40  1  0.48390000  0.67570000  0.36210000  1.0 0.1968572226
H  H41  1  0.17570000  0.98390000  0.36210000  1.0 0.1968572226
H  H42  1  0.48390000  0.32430000  0.86210000  1.0 0.1968572226
H  H43  1  0.82430000  0.01610000  0.36210000  1.0 0.1968572226
H  H44  1  0.51610000  0.67570000  0.86210000  1.0 0.1968572226
H  H45  1  0.32430000  0.48390000  0.63790000  1.0 0.1968572226
H  H46  1  0.67570000  0.51610000  0.63790000  1.0 0.1968572226
H  H47  1  0.98390000  0.17570000  0.13790000  1.0 0.1968572226
H  H48  1  0.01610000  0.82430000  0.13790000  1.0 0.1968572226
H  H49  1  0.30420000  0.41110000  0.86700000  1.0 0.1166630232
H  H50  1  0.91110000  0.19580000  0.36700000  1.0 0.1166630232
H  H51  1  0.69580000  0.58890000  0.86700000  1.0 0.1166630232
H  H52  1  0.08890000  0.80420000  0.36700000  1.0 0.1166630232
H  H53  1  0.19580000  0.91110000  0.13300000  1.0 0.1166630232
H  H54  1  0.80420000  0.08890000  0.13300000  1.0 0.1166630232
H  H55  1  0.41110000  0.30420000  0.63300000  1.0 0.1166630232
H  H56  1  0.58890000  0.69580000  0.63300000  1.0 0.1166630232
H  H57  1  0.19580000  0.08890000  0.63300000  1.0 0.1166630232
H  H58  1  0.58890000  0.30420000  0.13300000  1.0 0.1166630232
H  H59  1  0.80420000  0.91110000  0.63300000  1.0 0.1166630232
H  H60  1  0.41110000  0.69580000  0.13300000  1.0 0.1166630232
H  H61  1  0.30420000  0.58890000  0.36700000  1.0 0.1166630232
H  H62  1  0.69580000  0.41110000  0.36700000  1.0 0.1166630232
H  H63  1  0.08890000  0.19580000  0.86700000  1.0 0.1166630232
H  H64  1  0.91110000  0.80420000  0.86700000  1.0 0.1166630232
H  H65  1  0.29760000  0.47530000  0.91990000  1.0 0.1256961388
H  H66  1  0.97530000  0.20240000  0.41990000  1.0 0.1256961388
H  H67  1  0.70240000  0.52470000  0.91990000  1.0 0.1256961388
H  H68  1  0.02470000  0.79760000  0.41990000  1.0 0.1256961388
H  H69  1  0.20240000  0.97530000  0.08010000  1.0 0.1256961388
H  H70  1  0.79760000  0.02470000  0.08010000  1.0 0.1256961388
H  H71  1  0.47530000  0.29760000  0.58010000  1.0 0.1256961388
H  H72  1  0.52470000  0.70240000  0.58010000  1.0 0.1256961388
H  H73  1  0.20240000  0.02470000  0.58010000  1.0 0.1256961388
H  H74  1  0.52470000  0.29760000  0.08010000  1.0 0.1256961388
H  H75  1  0.79760000  0.97530000  0.58010000  1.0 0.1256961388
H  H76  1  0.47530000  0.70240000  0.08010000  1.0 0.1256961388
H  H77  1  0.29760000  0.52470000  0.41990000  1.0 0.1256961388
H  H78  1  0.70240000  0.47530000  0.41990000  1.0 0.1256961388
H  H79  1  0.02470000  0.20240000  0.91990000  1.0 0.1256961388
H  H80  1  0.97530000  0.79760000  0.91990000  1.0 0.1256961388
H  H81  1  0.25200000  0.37770000  0.15070000  1.0 0.1092498361
H  H82  1  0.87770000  0.24800000  0.65070000  1.0 0.1092498361
H  H83  1  0.74800000  0.62230000  0.15070000  1.0 0.1092498361
H  H84  1  0.12230000  0.75200000  0.65070000  1.0 0.1092498361
H  H85  1  0.24800000  0.87770000  0.84930000  1.0 0.1092498361
H  H86  1  0.75200000  0.12230000  0.84930000  1.0 0.1092498361
H  H87  1  0.37770000  0.25200000  0.34930000  1.0 0.1092498361
H  H88  1  0.62230000  0.74800000  0.34930000  1.0 0.1092498361
H  H89  1  0.24800000  0.12230000  0.34930000  1.0 0.1092498361
H  H90  1  0.62230000  0.25200000  0.84930000  1.0 0.1092498361
H  H91  1  0.75200000  0.87770000  0.34930000  1.0 0.1092498361
H  H92  1  0.37770000  0.74800000  0.84930000  1.0 0.1092498361
H  H93  1  0.25200000  0.62230000  0.65070000  1.0 0.1092498361
H  H94  1  0.74800000  0.37770000  0.65070000  1.0 0.1092498361
H  H95  1  0.12230000  0.24800000  0.15070000  1.0 0.1092498361
H  H96  1  0.87770000  0.75200000  0.15070000  1.0 0.1092498361
H  H97  1  0.21320000  0.51100000  0.04130000  1.0 0.1701334653
H  H98  1  0.01100000  0.28680000  0.54130000  1.0 0.1701334653
H  H99  1  0.78680000  0.48900000  0.04130000  1.0 0.1701334653
H  H100  1  0.98900000  0.71320000  0.54130000  1.0 0.1701334653
H  H101  1  0.28680000  0.01100000  0.95870000  1.0 0.1701334653
H  H102  1  0.71320000  0.98900000  0.95870000  1.0 0.1701334653
H  H103  1  0.51100000  0.21320000  0.45870000  1.0 0.1701334653
H  H104  1  0.48900000  0.78680000  0.45870000  1.0 0.1701334653
H  H105  1  0.28680000  0.98900000  0.45870000  1.0 0.1701334653
H  H106  1  0.48900000  0.21320000  0.95870000  1.0 0.1701334653
H  H107  1  0.71320000  0.01100000  0.45870000  1.0 0.1701334653
H  H108  1  0.51100000  0.78680000  0.95870000  1.0 0.1701334653
H  H109  1  0.21320000  0.48900000  0.54130000  1.0 0.1701334653
H  H110  1  0.78680000  0.51100000  0.54130000  1.0 0.1701334653
H  H111  1  0.98900000  0.28680000  0.04130000  1.0 0.1701334653
H  H112  1  0.01100000  0.71320000  0.04130000  1.0 0.1701334653
C  C1  1  0.26010000  0.62852000  0.14020000  1.0 0.6361134716
C  C2  1  0.12852000  0.23990000  0.64020000  1.0 0.6361134716
C  C3  1  0.73990000  0.37148000  0.14020000  1.0 0.6361134716
C  C4  1  0.87148000  0.76010000  0.64020000  1.0 0.6361134716
C  C5  1  0.23990000  0.12852000  0.85980000  1.0 0.6361134716
C  C6  1  0.76010000  0.87148000  0.85980000  1.0 0.6361134716
C  C7  1  0.62852000  0.26010000  0.35980000  1.0 0.6361134716
C  C8  1  0.37148000  0.73990000  0.35980000  1.0 0.6361134716
C  C9  1  0.23990000  0.87148000  0.35980000  1.0 0.6361134716
C  C10  1  0.37148000  0.26010000  0.85980000  1.0 0.6361134716
C  C11  1  0.76010000  0.12852000  0.35980000  1.0 0.6361134716
C  C12  1  0.62852000  0.73990000  0.85980000  1.0 0.6361134716
C  C13  1  0.26010000  0.37148000  0.64020000  1.0 0.6361134716
C  C14  1  0.73990000  0.62852000  0.64020000  1.0 0.6361134716
C  C15  1  0.87148000  0.23990000  0.14020000  1.0 0.6361134716
C  C16  1  0.12852000  0.76010000  0.14020000  1.0 0.6361134716
C  C17  1  0.26221000  0.58588000  0.12050000  1.0 -0.0323830947
C  C18  1  0.08588000  0.23779000  0.62050000  1.0 -0.0323830947
C  C19  1  0.73779000  0.41412000  0.12050000  1.0 -0.0323830947
C  C20  1  0.91412000  0.76221000  0.62050000  1.0 -0.0323830947
C  C21  1  0.23779000  0.08588000  0.87950000  1.0 -0.0323830947
C  C22  1  0.76221000  0.91412000  0.87950000  1.0 -0.0323830947
C  C23  1  0.58588000  0.26221000  0.37950000  1.0 -0.0323830947
C  C24  1  0.41412000  0.73779000  0.37950000  1.0 -0.0323830947
C  C25  1  0.23779000  0.91412000  0.37950000  1.0 -0.0323830947
C  C26  1  0.41412000  0.26221000  0.87950000  1.0 -0.0323830947
C  C27  1  0.76221000  0.08588000  0.37950000  1.0 -0.0323830947
C  C28  1  0.58588000  0.73779000  0.87950000  1.0 -0.0323830947
C  C29  1  0.26221000  0.41412000  0.62050000  1.0 -0.0323830947
C  C30  1  0.73779000  0.58588000  0.62050000  1.0 -0.0323830947
C  C31  1  0.91412000  0.23779000  0.12050000  1.0 -0.0323830947
C  C32  1  0.08588000  0.76221000  0.12050000  1.0 -0.0323830947
C  C33  1  0.29699000  0.56775000  0.14080000  1.0 -0.0904091706
C  C34  1  0.06775000  0.20301000  0.64080000  1.0 -0.0904091706
C  C35  1  0.70301000  0.43225000  0.14080000  1.0 -0.0904091706
C  C36  1  0.93225000  0.79699000  0.64080000  1.0 -0.0904091706
C  C37  1  0.20301000  0.06775000  0.85920000  1.0 -0.0904091706
C  C38  1  0.79699000  0.93225000  0.85920000  1.0 -0.0904091706
C  C39  1  0.56775000  0.29699000  0.35920000  1.0 -0.0904091706
C  C40  1  0.43225000  0.70301000  0.35920000  1.0 -0.0904091706
C  C41  1  0.20301000  0.93225000  0.35920000  1.0 -0.0904091706
C  C42  1  0.43225000  0.29699000  0.85920000  1.0 -0.0904091706
C  C43  1  0.79699000  0.06775000  0.35920000  1.0 -0.0904091706
C  C44  1  0.56775000  0.70301000  0.85920000  1.0 -0.0904091706
C  C45  1  0.29699000  0.43225000  0.64080000  1.0 -0.0904091706
C  C46  1  0.70301000  0.56775000  0.64080000  1.0 -0.0904091706
C  C47  1  0.93225000  0.20301000  0.14080000  1.0 -0.0904091706
C  C48  1  0.06775000  0.79699000  0.14080000  1.0 -0.0904091706
C  C49  1  0.26930000  0.50734000  0.08700000  1.0 0.0490577068
C  C50  1  0.00734000  0.23070000  0.58700000  1.0 0.0490577068
C  C51  1  0.73070000  0.49266000  0.08700000  1.0 0.0490577068
C  C52  1  0.99266000  0.76930000  0.58700000  1.0 0.0490577068
C  C53  1  0.23070000  0.00734000  0.91300000  1.0 0.0490577068
C  C54  1  0.76930000  0.99266000  0.91300000  1.0 0.0490577068
C  C55  1  0.50734000  0.26930000  0.41300000  1.0 0.0490577068
C  C56  1  0.49266000  0.73070000  0.41300000  1.0 0.0490577068
C  C57  1  0.23070000  0.99266000  0.41300000  1.0 0.0490577068
C  C58  1  0.49266000  0.26930000  0.91300000  1.0 0.0490577068
C  C59  1  0.76930000  0.00734000  0.41300000  1.0 0.0490577068
C  C60  1  0.50734000  0.73070000  0.91300000  1.0 0.0490577068
C  C61  1  0.26930000  0.49266000  0.58700000  1.0 0.0490577068
C  C62  1  0.73070000  0.50734000  0.58700000  1.0 0.0490577068
C  C63  1  0.99266000  0.23070000  0.08700000  1.0 0.0490577068
C  C64  1  0.00734000  0.76930000  0.08700000  1.0 0.0490577068
C  C65  1  0.23098000  0.56474000  0.08340000  1.0 -0.0819734358
C  C66  1  0.06474000  0.26902000  0.58340000  1.0 -0.0819734358
C  C67  1  0.76902000  0.43526000  0.08340000  1.0 -0.0819734358
C  C68  1  0.93526000  0.73098000  0.58340000  1.0 -0.0819734358
C  C69  1  0.26902000  0.06474000  0.91660000  1.0 -0.0819734358
C  C70  1  0.73098000  0.93526000  0.91660000  1.0 -0.0819734358
C  C71  1  0.56474000  0.23098000  0.41660000  1.0 -0.0819734358
C  C72  1  0.43526000  0.76902000  0.41660000  1.0 -0.0819734358
C  C73  1  0.26902000  0.93526000  0.41660000  1.0 -0.0819734358
C  C74  1  0.43526000  0.23098000  0.91660000  1.0 -0.0819734358
C  C75  1  0.73098000  0.06474000  0.41660000  1.0 -0.0819734358
C  C76  1  0.56474000  0.76902000  0.91660000  1.0 -0.0819734358
C  C77  1  0.23098000  0.43526000  0.58340000  1.0 -0.0819734358
C  C78  1  0.76902000  0.56474000  0.58340000  1.0 -0.0819734358
C  C79  1  0.93526000  0.26902000  0.08340000  1.0 -0.0819734358
C  C80  1  0.06474000  0.73098000  0.08340000  1.0 -0.0819734358
C  C81  1  0.30054000  0.52848000  0.12400000  1.0 -0.1819168223
C  C82  1  0.02848000  0.19946000  0.62400000  1.0 -0.1819168223
C  C83  1  0.69946000  0.47152000  0.12400000  1.0 -0.1819168223
C  C84  1  0.97152000  0.80054000  0.62400000  1.0 -0.1819168223
C  C85  1  0.19946000  0.02848000  0.87600000  1.0 -0.1819168223
C  C86  1  0.80054000  0.97152000  0.87600000  1.0 -0.1819168223
C  C87  1  0.52848000  0.30054000  0.37600000  1.0 -0.1819168223
C  C88  1  0.47152000  0.69946000  0.37600000  1.0 -0.1819168223
C  C89  1  0.19946000  0.97152000  0.37600000  1.0 -0.1819168223
C  C90  1  0.47152000  0.30054000  0.87600000  1.0 -0.1819168223
C  C91  1  0.80054000  0.02848000  0.37600000  1.0 -0.1819168223
C  C92  1  0.52848000  0.69946000  0.87600000  1.0 -0.1819168223
C  C93  1  0.30054000  0.47152000  0.62400000  1.0 -0.1819168223
C  C94  1  0.69946000  0.52848000  0.62400000  1.0 -0.1819168223
C  C95  1  0.97152000  0.19946000  0.12400000  1.0 -0.1819168223
C  C96  1  0.02848000  0.80054000  0.12400000  1.0 -0.1819168223
C  C97  1  0.23451000  0.52547000  0.06660000  1.0 -0.1697917001
C  C98  1  0.02547000  0.26549000  0.56660000  1.0 -0.1697917001
C  C99  1  0.76549000  0.47453000  0.06660000  1.0 -0.1697917001
C  C100  1  0.97453000  0.73451000  0.56660000  1.0 -0.1697917001
C  C101  1  0.26549000  0.02547000  0.93340000  1.0 -0.1697917001
C  C102  1  0.73451000  0.97453000  0.93340000  1.0 -0.1697917001
C  C103  1  0.52547000  0.23451000  0.43340000  1.0 -0.1697917001
C  C104  1  0.47453000  0.76549000  0.43340000  1.0 -0.1697917001
C  C105  1  0.26549000  0.97453000  0.43340000  1.0 -0.1697917001
C  C106  1  0.47453000  0.23451000  0.93340000  1.0 -0.1697917001
C  C107  1  0.73451000  0.02547000  0.43340000  1.0 -0.1697917001
C  C108  1  0.52547000  0.76549000  0.93340000  1.0 -0.1697917001
C  C109  1  0.23451000  0.47453000  0.56660000  1.0 -0.1697917001
C  C110  1  0.76549000  0.52547000  0.56660000  1.0 -0.1697917001
C  C111  1  0.97453000  0.26549000  0.06660000  1.0 -0.1697917001
C  C112  1  0.02547000  0.73451000  0.06660000  1.0 -0.1697917001
C  C113  1  0.19760000  0.50690000  0.02600000  1.0 0.3543746185
C  C114  1  0.00690000  0.30240000  0.52600000  1.0 0.3543746185
C  C115  1  0.80240000  0.49310000  0.02600000  1.0 0.3543746185
C  C116  1  0.99310000  0.69760000  0.52600000  1.0 0.3543746185
C  C117  1  0.30240000  0.00690000  0.97400000  1.0 0.3543746185
C  C118  1  0.69760000  0.99310000  0.97400000  1.0 0.3543746185
C  C119  1  0.50690000  0.19760000  0.47400000  1.0 0.3543746185
C  C120  1  0.49310000  0.80240000  0.47400000  1.0 0.3543746185
C  C121  1  0.30240000  0.99310000  0.47400000  1.0 0.3543746185
C  C122  1  0.49310000  0.19760000  0.97400000  1.0 0.3543746185
C  C123  1  0.69760000  0.00690000  0.47400000  1.0 0.3543746185
C  C124  1  0.50690000  0.80240000  0.97400000  1.0 0.3543746185
C  C125  1  0.19760000  0.49310000  0.52600000  1.0 0.3543746185
C  C126  1  0.80240000  0.50690000  0.52600000  1.0 0.3543746185
C  C127  1  0.99310000  0.30240000  0.02600000  1.0 0.3543746185
C  C128  1  0.00690000  0.69760000  0.02600000  1.0 0.3543746185
C  C129  1  0.28319000  0.34713000  0.96830000  1.0 0.6361134716
C  C130  1  0.84713000  0.21681000  0.46830000  1.0 0.6361134716
C  C131  1  0.71681000  0.65287000  0.96830000  1.0 0.6361134716
C  C132  1  0.15287000  0.78319000  0.46830000  1.0 0.6361134716
C  C133  1  0.21681000  0.84713000  0.03170000  1.0 0.6361134716
C  C134  1  0.78319000  0.15287000  0.03170000  1.0 0.6361134716
C  C135  1  0.34713000  0.28319000  0.53170000  1.0 0.6361134716
C  C136  1  0.65287000  0.71681000  0.53170000  1.0 0.6361134716
C  C137  1  0.21681000  0.15287000  0.53170000  1.0 0.6361134716
C  C138  1  0.65287000  0.28319000  0.03170000  1.0 0.6361134716
C  C139  1  0.78319000  0.84713000  0.53170000  1.0 0.6361134716
C  C140  1  0.34713000  0.71681000  0.03170000  1.0 0.6361134716
C  C141  1  0.28319000  0.65287000  0.46830000  1.0 0.6361134716
C  C142  1  0.71681000  0.34713000  0.46830000  1.0 0.6361134716
C  C143  1  0.15287000  0.21681000  0.96830000  1.0 0.6361134716
C  C144  1  0.84713000  0.78319000  0.96830000  1.0 0.6361134716
C  C145  1  0.27872000  0.38833000  0.00380000  1.0 -0.0141122532
C  C146  1  0.88833000  0.22128000  0.50380000  1.0 -0.0141122532
C  C147  1  0.72128000  0.61167000  0.00380000  1.0 -0.0141122532
C  C148  1  0.11167000  0.77872000  0.50380000  1.0 -0.0141122532
C  C149  1  0.22128000  0.88833000  0.99620000  1.0 -0.0141122532
C  C150  1  0.77872000  0.11167000  0.99620000  1.0 -0.0141122532
C  C151  1  0.38833000  0.27872000  0.49620000  1.0 -0.0141122532
C  C152  1  0.61167000  0.72128000  0.49620000  1.0 -0.0141122532
C  C153  1  0.22128000  0.11167000  0.49620000  1.0 -0.0141122532
C  C154  1  0.61167000  0.27872000  0.99620000  1.0 -0.0141122532
C  C155  1  0.77872000  0.88833000  0.49620000  1.0 -0.0141122532
C  C156  1  0.38833000  0.72128000  0.99620000  1.0 -0.0141122532
C  C157  1  0.27872000  0.61167000  0.50380000  1.0 -0.0141122532
C  C158  1  0.72128000  0.38833000  0.50380000  1.0 -0.0141122532
C  C159  1  0.11167000  0.22128000  0.00380000  1.0 -0.0141122532
C  C160  1  0.88833000  0.77872000  0.00380000  1.0 -0.0141122532
C  C161  1  0.29226000  0.41734000  0.93540000  1.0 -0.0693786025
C  C162  1  0.91734000  0.20774000  0.43540000  1.0 -0.0693786025
C  C163  1  0.70774000  0.58266000  0.93540000  1.0 -0.0693786025
C  C164  1  0.08266000  0.79226000  0.43540000  1.0 -0.0693786025
C  C165  1  0.20774000  0.91734000  0.06460000  1.0 -0.0693786025
C  C166  1  0.79226000  0.08266000  0.06460000  1.0 -0.0693786025
C  C167  1  0.41734000  0.29226000  0.56460000  1.0 -0.0693786025
C  C168  1  0.58266000  0.70774000  0.56460000  1.0 -0.0693786025
C  C169  1  0.20774000  0.08266000  0.56460000  1.0 -0.0693786025
C  C170  1  0.58266000  0.29226000  0.06460000  1.0 -0.0693786025
C  C171  1  0.79226000  0.91734000  0.56460000  1.0 -0.0693786025
C  C172  1  0.41734000  0.70774000  0.06460000  1.0 -0.0693786025
C  C173  1  0.29226000  0.58266000  0.43540000  1.0 -0.0693786025
C  C174  1  0.70774000  0.41734000  0.43540000  1.0 -0.0693786025
C  C175  1  0.08266000  0.20774000  0.93540000  1.0 -0.0693786025
C  C176  1  0.91734000  0.79226000  0.93540000  1.0 -0.0693786025
C  C177  1  0.28838000  0.45547000  0.96680000  1.0 -0.1382176287
C  C178  1  0.95547000  0.21162000  0.46680000  1.0 -0.1382176287
C  C179  1  0.71162000  0.54453000  0.96680000  1.0 -0.1382176287
C  C180  1  0.04453000  0.78838000  0.46680000  1.0 -0.1382176287
C  C181  1  0.21162000  0.95547000  0.03320000  1.0 -0.1382176287
C  C182  1  0.78838000  0.04453000  0.03320000  1.0 -0.1382176287
C  C183  1  0.45547000  0.28838000  0.53320000  1.0 -0.1382176287
C  C184  1  0.54453000  0.71162000  0.53320000  1.0 -0.1382176287
C  C185  1  0.21162000  0.04453000  0.53320000  1.0 -0.1382176287
C  C186  1  0.54453000  0.28838000  0.03320000  1.0 -0.1382176287
C  C187  1  0.78838000  0.95547000  0.53320000  1.0 -0.1382176287
C  C188  1  0.45547000  0.71162000  0.03320000  1.0 -0.1382176287
C  C189  1  0.28838000  0.54453000  0.46680000  1.0 -0.1382176287
C  C190  1  0.71162000  0.45547000  0.46680000  1.0 -0.1382176287
C  C191  1  0.04453000  0.21162000  0.96680000  1.0 -0.1382176287
C  C192  1  0.95547000  0.78838000  0.96680000  1.0 -0.1382176287
C  C193  1  0.27095000  0.46462000  0.06680000  1.0 0.0490577068
C  C194  1  0.96462000  0.22905000  0.56680000  1.0 0.0490577068
C  C195  1  0.72905000  0.53538000  0.06680000  1.0 0.0490577068
C  C196  1  0.03538000  0.77095000  0.56680000  1.0 0.0490577068
C  C197  1  0.22905000  0.96462000  0.93320000  1.0 0.0490577068
C  C198  1  0.77095000  0.03538000  0.93320000  1.0 0.0490577068
C  C199  1  0.46462000  0.27095000  0.43320000  1.0 0.0490577068
C  C200  1  0.53538000  0.72905000  0.43320000  1.0 0.0490577068
C  C201  1  0.22905000  0.03538000  0.43320000  1.0 0.0490577068
C  C202  1  0.53538000  0.27095000  0.93320000  1.0 0.0490577068
C  C203  1  0.77095000  0.96462000  0.43320000  1.0 0.0490577068
C  C204  1  0.46462000  0.72905000  0.93320000  1.0 0.0490577068
C  C205  1  0.27095000  0.53538000  0.56680000  1.0 0.0490577068
C  C206  1  0.72905000  0.46462000  0.56680000  1.0 0.0490577068
C  C207  1  0.03538000  0.22905000  0.06680000  1.0 0.0490577068
C  C208  1  0.96462000  0.77095000  0.06680000  1.0 0.0490577068
C  C209  1  0.25741000  0.43561000  0.13530000  1.0 -0.1953391079
C  C210  1  0.93561000  0.24259000  0.63530000  1.0 -0.1906767167
C  C211  1  0.74259000  0.56439000  0.13530000  1.0 -0.1953391079
C  C212  1  0.06439000  0.75741000  0.63530000  1.0 -0.1953391079
C  C213  1  0.24259000  0.93561000  0.86470000  1.0 -0.1953391079
C  C214  1  0.75741000  0.06439000  0.86470000  1.0 -0.1906767167
C  C215  1  0.43561000  0.25741000  0.36470000  1.0 -0.1953391079
C  C216  1  0.56439000  0.74259000  0.36470000  1.0 -0.1953391079
C  C217  1  0.24259000  0.06439000  0.36470000  1.0 -0.1906767167
C  C218  1  0.56439000  0.25741000  0.86470000  1.0 -0.1953391079
C  C219  1  0.75741000  0.93561000  0.36470000  1.0 -0.1953391079
C  C220  1  0.43561000  0.74259000  0.86470000  1.0 -0.1953391079
C  C221  1  0.25741000  0.56439000  0.63530000  1.0 -0.1953391079
C  C222  1  0.74259000  0.43561000  0.63530000  1.0 -0.1953391079
C  C223  1  0.06439000  0.24259000  0.13530000  1.0 -0.1906767167
C  C224  1  0.93561000  0.75741000  0.13530000  1.0 -0.1953391079
C  C225  1  0.26130000  0.39748000  0.10380000  1.0 -0.0819734358
C  C226  1  0.89748000  0.23870000  0.60380000  1.0 -0.0819734358
C  C227  1  0.73870000  0.60252000  0.10380000  1.0 -0.0819734358
C  C228  1  0.10252000  0.76130000  0.60380000  1.0 -0.0819734358
C  C229  1  0.23870000  0.89748000  0.89620000  1.0 -0.0819734358
C  C230  1  0.76130000  0.10252000  0.89620000  1.0 -0.0819734358
C  C231  1  0.39748000  0.26130000  0.39620000  1.0 -0.0819734358
C  C232  1  0.60252000  0.73870000  0.39620000  1.0 -0.0819734358
C  C233  1  0.23870000  0.10252000  0.39620000  1.0 -0.0819734358
C  C234  1  0.60252000  0.26130000  0.89620000  1.0 -0.0819734358
C  C235  1  0.76130000  0.89748000  0.39620000  1.0 -0.0819734358
C  C236  1  0.39748000  0.73870000  0.89620000  1.0 -0.0819734358
C  C237  1  0.26130000  0.60252000  0.60380000  1.0 -0.0819734358
C  C238  1  0.73870000  0.39748000  0.60380000  1.0 -0.0819734358
C  C239  1  0.10252000  0.23870000  0.10380000  1.0 -0.0819734358
C  C240  1  0.89748000  0.76130000  0.10380000  1.0 -0.0819734358
C  C241  1  0.24010000  0.44570000  0.23470000  1.0 0.5547182106
C  C242  1  0.94570000  0.25990000  0.73470000  1.0 0.5552455925
C  C243  1  0.75990000  0.55430000  0.23470000  1.0 0.5552455925
C  C244  1  0.05430000  0.74010000  0.73470000  1.0 0.5547182106
C  C245  1  0.25990000  0.94570000  0.76530000  1.0 0.5547182106
C  C246  1  0.74010000  0.05430000  0.76530000  1.0 0.5547182106
C  C247  1  0.44570000  0.24010000  0.26530000  1.0 0.5547182106
C  C248  1  0.55430000  0.75990000  0.26530000  1.0 0.5547182106
C  C249  1  0.25990000  0.05430000  0.26530000  1.0 0.5547182106
C  C250  1  0.55430000  0.24010000  0.76530000  1.0 0.5547182106
C  C251  1  0.74010000  0.94570000  0.26530000  1.0 0.5552455925
C  C252  1  0.44570000  0.75990000  0.76530000  1.0 0.5547182106
C  C253  1  0.24010000  0.55430000  0.73470000  1.0 0.5547182106
C  C254  1  0.75990000  0.44570000  0.73470000  1.0 0.5552455925
C  C255  1  0.05430000  0.25990000  0.23470000  1.0 0.5547182106
C  C256  1  0.94570000  0.74010000  0.23470000  1.0 0.5552455925
C  C257  1  0.33780000  0.51220000  0.14730000  1.0 0.391196321
C  C258  1  0.01220000  0.16220000  0.64730000  1.0 0.391196321
C  C259  1  0.66220000  0.48780000  0.14730000  1.0 0.391196321
C  C260  1  0.98780000  0.83780000  0.64730000  1.0 0.391196321
C  C261  1  0.16220000  0.01220000  0.85270000  1.0 0.391196321
C  C262  1  0.83780000  0.98780000  0.85270000  1.0 0.391196321
C  C263  1  0.51220000  0.33780000  0.35270000  1.0 0.391196321
C  C264  1  0.48780000  0.66220000  0.35270000  1.0 0.391196321
C  C265  1  0.16220000  0.98780000  0.35270000  1.0 0.391196321
C  C266  1  0.48780000  0.33780000  0.85270000  1.0 0.391196321
C  C267  1  0.83780000  0.01220000  0.35270000  1.0 0.391196321
C  C268  1  0.51220000  0.66220000  0.85270000  1.0 0.391196321
C  C269  1  0.33780000  0.48780000  0.64730000  1.0 0.391196321
C  C270  1  0.66220000  0.51220000  0.64730000  1.0 0.391196321
C  C271  1  0.98780000  0.16220000  0.14730000  1.0 0.391196321
C  C272  1  0.01220000  0.83780000  0.14730000  1.0 0.391196321
O  O1  1  0.28941000  0.64455000  0.17940000  1.0 -0.5577101714
O  O2  1  0.14455000  0.21059000  0.67940000  1.0 -0.5577101714
O  O3  1  0.71059000  0.35545000  0.17940000  1.0 -0.5577101714
O  O4  1  0.85545000  0.78941000  0.67940000  1.0 -0.5577101714
O  O5  1  0.21059000  0.14455000  0.82060000  1.0 -0.5577101714
O  O6  1  0.78941000  0.85545000  0.82060000  1.0 -0.5577101714
O  O7  1  0.64455000  0.28941000  0.32060000  1.0 -0.5577101714
O  O8  1  0.35545000  0.71059000  0.32060000  1.0 -0.5577101714
O  O9  1  0.21059000  0.85545000  0.32060000  1.0 -0.5577101714
O  O10  1  0.35545000  0.28941000  0.82060000  1.0 -0.5577101714
O  O11  1  0.78941000  0.14455000  0.32060000  1.0 -0.5577101714
O  O12  1  0.64455000  0.71059000  0.82060000  1.0 -0.5577101714
O  O13  1  0.28941000  0.35545000  0.67940000  1.0 -0.5577101714
O  O14  1  0.71059000  0.64455000  0.67940000  1.0 -0.5577101714
O  O15  1  0.85545000  0.21059000  0.17940000  1.0 -0.5577101714
O  O16  1  0.14455000  0.78941000  0.17940000  1.0 -0.5577101714
O  O17  1  0.22880000  0.64537000  0.11810000  1.0 -0.5944180346
O  O18  1  0.14537000  0.27120000  0.61810000  1.0 -0.5944180346
O  O19  1  0.77120000  0.35463000  0.11810000  1.0 -0.5944180346
O  O20  1  0.85463000  0.72880000  0.61810000  1.0 -0.5944180346
O  O21  1  0.27120000  0.14537000  0.88190000  1.0 -0.5944180346
O  O22  1  0.72880000  0.85463000  0.88190000  1.0 -0.5944180346
O  O23  1  0.64537000  0.22880000  0.38190000  1.0 -0.5944180346
O  O24  1  0.35463000  0.77120000  0.38190000  1.0 -0.5944180346
O  O25  1  0.27120000  0.85463000  0.38190000  1.0 -0.5944180346
O  O26  1  0.35463000  0.22880000  0.88190000  1.0 -0.5944180346
O  O27  1  0.72880000  0.14537000  0.38190000  1.0 -0.5944180346
O  O28  1  0.64537000  0.77120000  0.88190000  1.0 -0.5944180346
O  O29  1  0.22880000  0.35463000  0.61810000  1.0 -0.5944180346
O  O30  1  0.77120000  0.64537000  0.61810000  1.0 -0.5944180346
O  O31  1  0.85463000  0.27120000  0.11810000  1.0 -0.5944180346
O  O32  1  0.14537000  0.72880000  0.11810000  1.0 -0.5944180346
O  O33  1  0.25773000  0.32391000  0.00990000  1.0 -0.6371602609
O  O34  1  0.82391000  0.24227000  0.50990000  1.0 -0.6371602609
O  O35  1  0.74227000  0.67609000  0.00990000  1.0 -0.6371602609
O  O36  1  0.17609000  0.75773000  0.50990000  1.0 -0.6371602609
O  O37  1  0.24227000  0.82391000  0.99010000  1.0 -0.6371602609
O  O38  1  0.75773000  0.17609000  0.99010000  1.0 -0.6371602609
O  O39  1  0.32391000  0.25773000  0.49010000  1.0 -0.6371602609
O  O40  1  0.67609000  0.74227000  0.49010000  1.0 -0.6371602609
O  O41  1  0.24227000  0.17609000  0.49010000  1.0 -0.6371602609
O  O42  1  0.67609000  0.25773000  0.99010000  1.0 -0.6371602609
O  O43  1  0.75773000  0.82391000  0.49010000  1.0 -0.6371602609
O  O44  1  0.32391000  0.74227000  0.99010000  1.0 -0.6371602609
O  O45  1  0.25773000  0.67609000  0.50990000  1.0 -0.6371602609
O  O46  1  0.74227000  0.32391000  0.50990000  1.0 -0.6371602609
O  O47  1  0.17609000  0.24227000  0.00990000  1.0 -0.6371602609
O  O48  1  0.82391000  0.75773000  0.00990000  1.0 -0.6371602609
O  O49  1  0.30443000  0.34060000  0.88790000  1.0 -0.5577101714
O  O50  1  0.84060000  0.19557000  0.38790000  1.0 -0.5577101714
O  O51  1  0.69557000  0.65940000  0.88790000  1.0 -0.5577101714
O  O52  1  0.15940000  0.80443000  0.38790000  1.0 -0.5577101714
O  O53  1  0.19557000  0.84060000  0.11210000  1.0 -0.5577101714
O  O54  1  0.80443000  0.15940000  0.11210000  1.0 -0.5577101714
O  O55  1  0.34060000  0.30443000  0.61210000  1.0 -0.5577101714
O  O56  1  0.65940000  0.69557000  0.61210000  1.0 -0.5577101714
O  O57  1  0.19557000  0.15940000  0.61210000  1.0 -0.5577101714
O  O58  1  0.65940000  0.30443000  0.11210000  1.0 -0.5577101714
O  O59  1  0.80443000  0.84060000  0.61210000  1.0 -0.5577101714
O  O60  1  0.34060000  0.69557000  0.11210000  1.0 -0.5577101714
O  O61  1  0.30443000  0.65940000  0.38790000  1.0 -0.5577101714
O  O62  1  0.69557000  0.34060000  0.38790000  1.0 -0.5577101714
O  O63  1  0.15940000  0.19557000  0.88790000  1.0 -0.5577101714
O  O64  1  0.84060000  0.80443000  0.88790000  1.0 -0.5577101714
O  O65  1  0.23970000  0.69070000  0.29290000  1.0 -1.191700951
O  O66  1  0.19070000  0.26030000  0.79290000  1.0 -1.191700951
O  O67  1  0.76030000  0.30930000  0.29290000  1.0 -1.191700951
O  O68  1  0.80930000  0.73970000  0.79290000  1.0 -1.191700951
O  O69  1  0.26030000  0.19070000  0.70710000  1.0 -1.191700951
O  O70  1  0.73970000  0.80930000  0.70710000  1.0 -1.191700951
O  O71  1  0.69070000  0.23970000  0.20710000  1.0 -1.191700951
O  O72  1  0.30930000  0.76030000  0.20710000  1.0 -1.191700951
O  O73  1  0.26030000  0.80930000  0.20710000  1.0 -1.191700951
O  O74  1  0.30930000  0.23970000  0.70710000  1.0 -1.191700951
O  O75  1  0.73970000  0.19070000  0.20710000  1.0 -1.191700951
O  O76  1  0.69070000  0.76030000  0.70710000  1.0 -1.191700951
O  O77  1  0.23970000  0.30930000  0.79290000  1.0 -1.191700951
O  O78  1  0.76030000  0.69070000  0.79290000  1.0 -1.191700951
O  O79  1  0.80930000  0.26030000  0.29290000  1.0 -1.191700951
O  O80  1  0.19070000  0.73970000  0.29290000  1.0 -1.191700951
O  O81  1  0.28520000  0.73595000  0.39050000  1.0 -1.1957541711
O  O82  1  0.23595000  0.21480000  0.89050000  1.0 -1.1957541711
O  O83  1  0.71480000  0.26405000  0.39050000  1.0 -1.1957541711
O  O84  1  0.76405000  0.78520000  0.89050000  1.0 -1.1957541711
O  O85  1  0.21480000  0.23595000  0.60950000  1.0 -1.1957541711
O  O86  1  0.78520000  0.76405000  0.60950000  1.0 -1.1957541711
O  O87  1  0.73595000  0.28520000  0.10950000  1.0 -1.1957541711
O  O88  1  0.26405000  0.71480000  0.10950000  1.0 -1.1957541711
O  O89  1  0.21480000  0.76405000  0.10950000  1.0 -1.1957541711
O  O90  1  0.26405000  0.28520000  0.60950000  1.0 -1.1957541711
O  O91  1  0.78520000  0.23595000  0.10950000  1.0 -1.1957541711
O  O92  1  0.73595000  0.71480000  0.60950000  1.0 -1.1957541711
O  O93  1  0.28520000  0.26405000  0.89050000  1.0 -1.1957541711
O  O94  1  0.71480000  0.73595000  0.89050000  1.0 -1.1957541711
O  O95  1  0.76405000  0.21480000  0.39050000  1.0 -1.1957541711
O  O96  1  0.23595000  0.78520000  0.39050000  1.0 -1.1957541711
F  F1  1  0.19950000  0.48240000  0.93970000  1.0 -0.1906767167
F  F2  1  0.98240000  0.30050000  0.43970000  1.0 -0.1906767167
F  F3  1  0.80050000  0.51760000  0.93970000  1.0 -0.1906767167
F  F4  1  0.01760000  0.69950000  0.43970000  1.0 -0.1906767167
F  F5  1  0.30050000  0.98240000  0.06030000  1.0 -0.1906767167
F  F6  1  0.69950000  0.01760000  0.06030000  1.0 -0.1906767167
F  F7  1  0.48240000  0.19950000  0.56030000  1.0 -0.1906767167
F  F8  1  0.51760000  0.80050000  0.56030000  1.0 -0.1906767167
F  F9  1  0.30050000  0.01760000  0.56030000  1.0 -0.1906767167
F  F10  1  0.51760000  0.19950000  0.06030000  1.0 -0.1906767167
F  F11  1  0.69950000  0.98240000  0.56030000  1.0 -0.1906767167
F  F12  1  0.48240000  0.80050000  0.06030000  1.0 -0.1906767167
F  F13  1  0.19950000  0.51760000  0.43970000  1.0 -0.1906767167
F  F14  1  0.80050000  0.48240000  0.43970000  1.0 -0.1906767167
F  F15  1  0.01760000  0.30050000  0.93970000  1.0 -0.1906767167
F  F16  1  0.98240000  0.69950000  0.93970000  1.0 -0.1906767167
F  F17  1  0.16760000  0.52950000  0.00000000  1.0 -0.1906767167
F  F18  1  0.02950000  0.33240000  0.50000000  1.0 -0.1906767167
F  F19  1  0.83240000  0.47050000  0.00000000  1.0 -0.1906767167
F  F20  1  0.97050000  0.66760000  0.50000000  1.0 -0.1906767167
F  F21  1  0.33240000  0.02950000  0.00000000  1.0 -0.1906767167
F  F22  1  0.66760000  0.97050000  0.00000000  1.0 -0.1906767167
F  F23  1  0.52950000  0.16760000  0.50000000  1.0 -0.1906767167
F  F24  1  0.47050000  0.83240000  0.50000000  1.0 -0.1906767167
F  F25  1  0.33240000  0.97050000  0.50000000  1.0 -0.1906767167
F  F26  1  0.47050000  0.16760000  0.00000000  1.0 -0.1906767167
F  F27  1  0.66760000  0.02950000  0.50000000  1.0 -0.1906767167
F  F28  1  0.52950000  0.83240000  0.00000000  1.0 -0.1906767167
F  F29  1  0.16760000  0.47050000  0.50000000  1.0 -0.1906767167
F  F30  1  0.83240000  0.52950000  0.50000000  1.0 -0.1906767167
F  F31  1  0.97050000  0.33240000  0.00000000  1.0 -0.1906767167
F  F32  1  0.02950000  0.66760000  0.00000000  1.0 -0.1906767167
F  F33  1  0.18280000  0.48420000  0.10790000  1.0 -0.1204028704
F  F34  1  0.98420000  0.31720000  0.60790000  1.0 -0.1204028704
F  F35  1  0.81720000  0.51580000  0.10790000  1.0 -0.1204028704
F  F36  1  0.01580000  0.68280000  0.60790000  1.0 -0.1204028704
F  F37  1  0.31720000  0.98420000  0.89210000  1.0 -0.1204028704
F  F38  1  0.68280000  0.01580000  0.89210000  1.0 -0.1204028704
F  F39  1  0.48420000  0.18280000  0.39210000  1.0 -0.1204028704
F  F40  1  0.51580000  0.81720000  0.39210000  1.0 -0.1204028704
F  F41  1  0.31720000  0.01580000  0.39210000  1.0 -0.1204028704
F  F42  1  0.51580000  0.18280000  0.89210000  1.0 -0.1204028704
F  F43  1  0.68280000  0.98420000  0.39210000  1.0 -0.1204028704
F  F44  1  0.48420000  0.81720000  0.89210000  1.0 -0.1204028704
F  F45  1  0.18280000  0.51580000  0.60790000  1.0 -0.1204028704
F  F46  1  0.81720000  0.48420000  0.60790000  1.0 -0.1204028704
F  F47  1  0.01580000  0.31720000  0.10790000  1.0 -0.1204028704
F  F48  1  0.98420000  0.68280000  0.10790000  1.0 -0.1204028704
F  F49  1  0.23150000  0.41700000  0.30250000  1.0 -0.1819168223
F  F50  1  0.91700000  0.26850000  0.80250000  1.0 -0.1819168223
F  F51  1  0.76850000  0.58300000  0.30250000  1.0 -0.1819168223
F  F52  1  0.08300000  0.73150000  0.80250000  1.0 -0.1819168223
F  F53  1  0.26850000  0.91700000  0.69750000  1.0 -0.1819168223
F  F54  1  0.73150000  0.08300000  0.69750000  1.0 -0.1819168223
F  F55  1  0.41700000  0.23150000  0.19750000  1.0 -0.1819168223
F  F56  1  0.58300000  0.76850000  0.19750000  1.0 -0.1819168223
F  F57  1  0.26850000  0.08300000  0.19750000  1.0 -0.1819168223
F  F58  1  0.58300000  0.23150000  0.69750000  1.0 -0.1819168223
F  F59  1  0.73150000  0.91700000  0.19750000  1.0 -0.1819168223
F  F60  1  0.41700000  0.76850000  0.69750000  1.0 -0.1819168223
F  F61  1  0.23150000  0.58300000  0.80250000  1.0 -0.1819168223
F  F62  1  0.76850000  0.41700000  0.80250000  1.0 -0.1819168223
F  F63  1  0.08300000  0.26850000  0.30250000  1.0 -0.1819168223
F  F64  1  0.91700000  0.73150000  0.30250000  1.0 -0.1819168223
F  F65  1  0.20280000  0.46000000  0.21530000  1.0 -0.0693786025
F  F66  1  0.96000000  0.29720000  0.71530000  1.0 -0.0693786025
F  F67  1  0.79720000  0.54000000  0.21530000  1.0 -0.0693786025
F  F68  1  0.04000000  0.70280000  0.71530000  1.0 -0.0693786025
F  F69  1  0.29720000  0.96000000  0.78470000  1.0 -0.0693786025
F  F70  1  0.70280000  0.04000000  0.78470000  1.0 -0.0693786025
F  F71  1  0.46000000  0.20280000  0.28470000  1.0 -0.0693786025
F  F72  1  0.54000000  0.79720000  0.28470000  1.0 -0.0693786025
F  F73  1  0.29720000  0.04000000  0.28470000  1.0 -0.0693786025
F  F74  1  0.54000000  0.20280000  0.78470000  1.0 -0.0693786025
F  F75  1  0.70280000  0.96000000  0.28470000  1.0 -0.0693786025
F  F76  1  0.46000000  0.79720000  0.78470000  1.0 -0.0693786025
F  F77  1  0.20280000  0.54000000  0.71530000  1.0 -0.0693786025
F  F78  1  0.79720000  0.46000000  0.71530000  1.0 -0.0693786025
F  F79  1  0.04000000  0.29720000  0.21530000  1.0 -0.0693786025
F  F80  1  0.96000000  0.70280000  0.21530000  1.0 -0.0693786025
F  F81  1  0.25340000  0.47270000  0.30030000  1.0 -0.2084378439
F  F82  1  0.97270000  0.24660000  0.80030000  1.0 -0.2084378439
F  F83  1  0.74660000  0.52730000  0.30030000  1.0 -0.2084378439
F  F84  1  0.02730000  0.75340000  0.80030000  1.0 -0.2084378439
F  F85  1  0.24660000  0.97270000  0.69970000  1.0 -0.2084378439
F  F86  1  0.75340000  0.02730000  0.69970000  1.0 -0.2084378439
F  F87  1  0.47270000  0.25340000  0.19970000  1.0 -0.2084378439
F  F88  1  0.52730000  0.74660000  0.19970000  1.0 -0.2084378439
F  F89  1  0.24660000  0.02730000  0.19970000  1.0 -0.2084378439
F  F90  1  0.52730000  0.25340000  0.69970000  1.0 -0.2084378439
F  F91  1  0.75340000  0.97270000  0.19970000  1.0 -0.2084378439
F  F92  1  0.47270000  0.74660000  0.69970000  1.0 -0.2084378439
F  F93  1  0.25340000  0.52730000  0.80030000  1.0 -0.2084378439
F  F94  1  0.74660000  0.47270000  0.80030000  1.0 -0.2084378439
F  F95  1  0.02730000  0.24660000  0.30030000  1.0 -0.2084378439
F  F96  1  0.97270000  0.75340000  0.30030000  1.0 -0.2084378439
F  F97  1  0.35960000  0.50160000  0.06950000  1.0 -0.1819168223
F  F98  1  0.00160000  0.14040000  0.56950000  1.0 -0.1819168223
F  F99  1  0.64040000  0.49840000  0.06950000  1.0 -0.1819168223
F  F100  1  0.99840000  0.85960000  0.56950000  1.0 -0.1819168223
F  F101  1  0.14040000  0.00160000  0.93050000  1.0 -0.1819168223
F  F102  1  0.85960000  0.99840000  0.93050000  1.0 -0.1819168223
F  F103  1  0.50160000  0.35960000  0.43050000  1.0 -0.1819168223
F  F104  1  0.49840000  0.64040000  0.43050000  1.0 -0.1819168223
F  F105  1  0.14040000  0.99840000  0.43050000  1.0 -0.1819168223
F  F106  1  0.49840000  0.35960000  0.93050000  1.0 -0.1819168223
F  F107  1  0.85960000  0.00160000  0.43050000  1.0 -0.1819168223
F  F108  1  0.50160000  0.64040000  0.93050000  1.0 -0.1819168223
F  F109  1  0.35960000  0.49840000  0.56950000  1.0 -0.1819168223
F  F110  1  0.64040000  0.50160000  0.56950000  1.0 -0.1819168223
F  F111  1  0.99840000  0.14040000  0.06950000  1.0 -0.1819168223
F  F112  1  0.00160000  0.85960000  0.06950000  1.0 -0.1819168223
F  F113  1  0.33490000  0.47990000  0.21070000  1.0 -0.1697917001
F  F114  1  0.97990000  0.16510000  0.71070000  1.0 -0.1697917001
F  F115  1  0.66510000  0.52010000  0.21070000  1.0 -0.1697917001
F  F116  1  0.02010000  0.83490000  0.71070000  1.0 -0.1697917001
F  F117  1  0.16510000  0.97990000  0.78930000  1.0 -0.1697917001
F  F118  1  0.83490000  0.02010000  0.78930000  1.0 -0.1697917001
F  F119  1  0.47990000  0.33490000  0.28930000  1.0 -0.1697917001
F  F120  1  0.52010000  0.66510000  0.28930000  1.0 -0.1697917001
F  F121  1  0.16510000  0.02010000  0.28930000  1.0 -0.1819168223
F  F122  1  0.52010000  0.33490000  0.78930000  1.0 -0.1697917001
F  F123  1  0.83490000  0.97990000  0.28930000  1.0 -0.1697917001
F  F124  1  0.47990000  0.66510000  0.78930000  1.0 -0.1697917001
F  F125  1  0.33490000  0.52010000  0.71070000  1.0 -0.1697917001
F  F126  1  0.66510000  0.47990000  0.71070000  1.0 -0.1697917001
F  F127  1  0.02010000  0.16510000  0.21070000  1.0 -0.1819168223
F  F128  1  0.97990000  0.83490000  0.21070000  1.0 -0.1697917001
F  F129  1  0.36180000  0.53230000  0.21470000  1.0 -0.1819168223
F  F130  1  0.03230000  0.13820000  0.71470000  1.0 -0.1819168223
F  F131  1  0.63820000  0.46770000  0.21470000  1.0 -0.1819168223
F  F132  1  0.96770000  0.86180000  0.71470000  1.0 -0.1819168223
F  F133  1  0.13820000  0.03230000  0.78530000  1.0 -0.1819168223
F  F134  1  0.86180000  0.96770000  0.78530000  1.0 -0.1819168223
F  F135  1  0.53230000  0.36180000  0.28530000  1.0 -0.1819168223
F  F136  1  0.46770000  0.63820000  0.28530000  1.0 -0.1819168223
F  F137  1  0.13820000  0.96770000  0.28530000  1.0 -0.1819168223
F  F138  1  0.46770000  0.36180000  0.78530000  1.0 -0.1819168223
F  F139  1  0.86180000  0.03230000  0.28530000  1.0 -0.1819168223
F  F140  1  0.53230000  0.63820000  0.78530000  1.0 -0.1819168223
F  F141  1  0.36180000  0.46770000  0.71470000  1.0 -0.1819168223
F  F142  1  0.63820000  0.53230000  0.71470000  1.0 -0.1819168223
F  F143  1  0.96770000  0.13820000  0.21470000  1.0 -0.1819168223
F  F144  1  0.03230000  0.86180000  0.21470000  1.0 -0.1819168223
