# DDEC6 charges by PACMAN v1.1 (https://github.com/mtap-research/PACMAN-charge/)
data_ERALEQ_ASR_pacman
_symmetry_space_group_name_H-M   'P 1'
_cell_length_a   24.26300000
_cell_length_b   24.26300000
_cell_length_c   14.61500000
_cell_angle_alpha   90.00000000
_cell_angle_beta   90.00000000
_cell_angle_gamma   90.00000000
_symmetry_Int_Tables_number   1
_chemical_formula_structural   Zr3H48(C13O5)4
_chemical_formula_sum   'Zr12 H192 C208 O80'
_cell_volume   8603.75066494
_cell_formula_units_Z   4
loop_
 _symmetry_equiv_pos_site_id
 _symmetry_equiv_pos_as_xyz
  1  'x, y, z'
loop_
 _atom_site_type_symbol
 _atom_site_label
 _atom_site_symmetry_multiplicity
 _atom_site_fract_x
 _atom_site_fract_y
 _atom_site_fract_z
 _atom_site_occupancy
 _atom_site_charge
Zr  Zr1  1  0.50000000  0.10038000  0.00000000  1.0 2.2994202956
Zr  Zr2  1  0.10038000  0.50000000  0.50000000  1.0 2.2994202956
Zr  Zr3  1  0.50000000  0.89962000  0.00000000  1.0 2.2994202956
Zr  Zr4  1  0.89962000  0.50000000  0.50000000  1.0 2.2994202956
Zr  Zr5  1  0.42775000  0.00000000  0.11979000  1.0 2.431950508
Zr  Zr6  1  0.00000000  0.57225000  0.61979000  1.0 2.431950508
Zr  Zr7  1  0.57225000  0.00000000  0.11979000  1.0 2.431950508
Zr  Zr8  1  0.00000000  0.42775000  0.61979000  1.0 2.431950508
Zr  Zr9  1  0.57225000  0.00000000  0.88021000  1.0 2.431950508
Zr  Zr10  1  0.42775000  0.00000000  0.88021000  1.0 2.431950508
Zr  Zr11  1  0.00000000  0.42775000  0.38021000  1.0 2.431950508
Zr  Zr12  1  0.00000000  0.57225000  0.38021000  1.0 2.431950508
H  H1  1  0.40530000  0.23890000  0.10940000  1.0 0.1464119985
H  H2  1  0.23890000  0.59470000  0.60940000  1.0 0.1464119985
H  H3  1  0.59470000  0.76110000  0.10940000  1.0 0.1464119985
H  H4  1  0.76110000  0.40530000  0.60940000  1.0 0.1464119985
H  H5  1  0.59470000  0.23890000  0.89060000  1.0 0.1464119985
H  H6  1  0.40530000  0.76110000  0.89060000  1.0 0.1464119985
H  H7  1  0.23890000  0.40530000  0.39060000  1.0 0.1464119985
H  H8  1  0.76110000  0.59470000  0.39060000  1.0 0.1464119985
H  H9  1  0.59470000  0.76110000  0.89060000  1.0 0.1464119985
H  H10  1  0.76110000  0.40530000  0.39060000  1.0 0.1464119985
H  H11  1  0.40530000  0.23890000  0.89060000  1.0 0.1464119985
H  H12  1  0.23890000  0.59470000  0.39060000  1.0 0.1464119985
H  H13  1  0.40530000  0.76110000  0.10940000  1.0 0.1464119985
H  H14  1  0.59470000  0.23890000  0.10940000  1.0 0.1464119985
H  H15  1  0.76110000  0.59470000  0.60940000  1.0 0.1464119985
H  H16  1  0.23890000  0.40530000  0.60940000  1.0 0.1464119985
H  H17  1  0.34370000  0.30580000  0.16260000  1.0 0.2079177093
H  H18  1  0.30580000  0.65630000  0.66260000  1.0 0.2079177093
H  H19  1  0.65630000  0.69420000  0.16260000  1.0 0.2079177093
H  H20  1  0.69420000  0.34370000  0.66260000  1.0 0.2079177093
H  H21  1  0.65630000  0.30580000  0.83740000  1.0 0.2079177093
H  H22  1  0.34370000  0.69420000  0.83740000  1.0 0.2079177093
H  H23  1  0.30580000  0.34370000  0.33740000  1.0 0.2079177093
H  H24  1  0.69420000  0.65630000  0.33740000  1.0 0.2079177093
H  H25  1  0.65630000  0.69420000  0.83740000  1.0 0.2079177093
H  H26  1  0.69420000  0.34370000  0.33740000  1.0 0.2079177093
H  H27  1  0.34370000  0.30580000  0.83740000  1.0 0.2079177093
H  H28  1  0.30580000  0.65630000  0.33740000  1.0 0.2079177093
H  H29  1  0.34370000  0.69420000  0.16260000  1.0 0.2079177093
H  H30  1  0.65630000  0.30580000  0.16260000  1.0 0.2079177093
H  H31  1  0.69420000  0.65630000  0.66260000  1.0 0.2079177093
H  H32  1  0.30580000  0.34370000  0.66260000  1.0 0.2079177093
H  H33  1  0.32000000  0.12100000  0.24560000  1.0 0.138105471
H  H34  1  0.12100000  0.68000000  0.74560000  1.0 0.138105471
H  H35  1  0.68000000  0.87900000  0.24560000  1.0 0.138105471
H  H36  1  0.87900000  0.32000000  0.74560000  1.0 0.138105471
H  H37  1  0.68000000  0.12100000  0.75440000  1.0 0.138105471
H  H38  1  0.32000000  0.87900000  0.75440000  1.0 0.138105471
H  H39  1  0.12100000  0.32000000  0.25440000  1.0 0.138105471
H  H40  1  0.87900000  0.68000000  0.25440000  1.0 0.138105471
H  H41  1  0.68000000  0.87900000  0.75440000  1.0 0.138105471
H  H42  1  0.87900000  0.32000000  0.25440000  1.0 0.138105471
H  H43  1  0.32000000  0.12100000  0.75440000  1.0 0.138105471
H  H44  1  0.12100000  0.68000000  0.25440000  1.0 0.138105471
H  H45  1  0.32000000  0.87900000  0.24560000  1.0 0.138105471
H  H46  1  0.68000000  0.12100000  0.24560000  1.0 0.138105471
H  H47  1  0.87900000  0.68000000  0.74560000  1.0 0.138105471
H  H48  1  0.12100000  0.32000000  0.74560000  1.0 0.138105471
H  H49  1  0.19970000  0.11990000  0.37890000  1.0 0.1201033179
H  H50  1  0.11990000  0.80030000  0.87890000  1.0 0.1201033179
H  H51  1  0.80030000  0.88010000  0.37890000  1.0 0.1201033179
H  H52  1  0.88010000  0.19970000  0.87890000  1.0 0.1201033179
H  H53  1  0.80030000  0.11990000  0.62110000  1.0 0.1201033179
H  H54  1  0.19970000  0.88010000  0.62110000  1.0 0.1201033179
H  H55  1  0.11990000  0.19970000  0.12110000  1.0 0.1201033179
H  H56  1  0.88010000  0.80030000  0.12110000  1.0 0.1201033179
H  H57  1  0.80030000  0.88010000  0.62110000  1.0 0.1201033179
H  H58  1  0.88010000  0.19970000  0.12110000  1.0 0.1201033179
H  H59  1  0.19970000  0.11990000  0.62110000  1.0 0.1201033179
H  H60  1  0.11990000  0.80030000  0.12110000  1.0 0.1201033179
H  H61  1  0.19970000  0.88010000  0.37890000  1.0 0.1201033179
H  H62  1  0.80030000  0.11990000  0.37890000  1.0 0.1201033179
H  H63  1  0.88010000  0.80030000  0.87890000  1.0 0.1201033179
H  H64  1  0.11990000  0.19970000  0.87890000  1.0 0.1201033179
H  H65  1  0.22450000  0.10470000  0.28060000  1.0 0.1011649946
H  H66  1  0.10470000  0.77550000  0.78060000  1.0 0.1011649946
H  H67  1  0.77550000  0.89530000  0.28060000  1.0 0.1011649946
H  H68  1  0.89530000  0.22450000  0.78060000  1.0 0.1011649946
H  H69  1  0.77550000  0.10470000  0.71940000  1.0 0.1011649946
H  H70  1  0.22450000  0.89530000  0.71940000  1.0 0.1011649946
H  H71  1  0.10470000  0.22450000  0.21940000  1.0 0.1011649946
H  H72  1  0.89530000  0.77550000  0.21940000  1.0 0.1011649946
H  H73  1  0.77550000  0.89530000  0.71940000  1.0 0.1011649946
H  H74  1  0.89530000  0.22450000  0.21940000  1.0 0.1011649946
H  H75  1  0.22450000  0.10470000  0.71940000  1.0 0.1011649946
H  H76  1  0.10470000  0.77550000  0.21940000  1.0 0.1011649946
H  H77  1  0.22450000  0.89530000  0.28060000  1.0 0.1011649946
H  H78  1  0.77550000  0.10470000  0.28060000  1.0 0.1011649946
H  H79  1  0.89530000  0.77550000  0.78060000  1.0 0.1011649946
H  H80  1  0.10470000  0.22450000  0.78060000  1.0 0.1011649946
H  H81  1  0.26420000  0.10780000  0.36780000  1.0 0.1011649946
H  H82  1  0.10780000  0.73580000  0.86780000  1.0 0.1011649946
H  H83  1  0.73580000  0.89220000  0.36780000  1.0 0.1011649946
H  H84  1  0.89220000  0.26420000  0.86780000  1.0 0.1011649946
H  H85  1  0.73580000  0.10780000  0.63220000  1.0 0.1011649946
H  H86  1  0.26420000  0.89220000  0.63220000  1.0 0.1011649946
H  H87  1  0.10780000  0.26420000  0.13220000  1.0 0.1011649946
H  H88  1  0.89220000  0.73580000  0.13220000  1.0 0.1011649946
H  H89  1  0.73580000  0.89220000  0.63220000  1.0 0.1011649946
H  H90  1  0.89220000  0.26420000  0.13220000  1.0 0.1011649946
H  H91  1  0.26420000  0.10780000  0.63220000  1.0 0.1011649946
H  H92  1  0.10780000  0.73580000  0.13220000  1.0 0.1011649946
H  H93  1  0.26420000  0.89220000  0.36780000  1.0 0.1011649946
H  H94  1  0.73580000  0.10780000  0.36780000  1.0 0.1011649946
H  H95  1  0.89220000  0.73580000  0.86780000  1.0 0.1011649946
H  H96  1  0.10780000  0.26420000  0.86780000  1.0 0.1011649946
H  H97  1  0.39800000  0.23660000  0.09410000  1.0 0.1464119985
H  H98  1  0.23660000  0.60200000  0.59410000  1.0 0.1464119985
H  H99  1  0.60200000  0.76340000  0.09410000  1.0 0.1464119985
H  H100  1  0.76340000  0.39800000  0.59410000  1.0 0.1464119985
H  H101  1  0.60200000  0.23660000  0.90590000  1.0 0.1464119985
H  H102  1  0.39800000  0.76340000  0.90590000  1.0 0.1464119985
H  H103  1  0.23660000  0.39800000  0.40590000  1.0 0.1464119985
H  H104  1  0.76340000  0.60200000  0.40590000  1.0 0.1464119985
H  H105  1  0.60200000  0.76340000  0.90590000  1.0 0.1464119985
H  H106  1  0.76340000  0.39800000  0.40590000  1.0 0.1464119985
H  H107  1  0.39800000  0.23660000  0.90590000  1.0 0.1464119985
H  H108  1  0.23660000  0.60200000  0.40590000  1.0 0.1464119985
H  H109  1  0.39800000  0.76340000  0.09410000  1.0 0.1464119985
H  H110  1  0.60200000  0.23660000  0.09410000  1.0 0.1464119985
H  H111  1  0.76340000  0.60200000  0.59410000  1.0 0.1464119985
H  H112  1  0.23660000  0.39800000  0.59410000  1.0 0.1464119985
H  H113  1  0.32730000  0.12340000  0.26090000  1.0 0.138105471
H  H114  1  0.12340000  0.67270000  0.76090000  1.0 0.138105471
H  H115  1  0.67270000  0.87660000  0.26090000  1.0 0.138105471
H  H116  1  0.87660000  0.32730000  0.76090000  1.0 0.138105471
H  H117  1  0.67270000  0.12340000  0.73910000  1.0 0.138105471
H  H118  1  0.32730000  0.87660000  0.73910000  1.0 0.138105471
H  H119  1  0.12340000  0.32730000  0.23910000  1.0 0.138105471
H  H120  1  0.87660000  0.67270000  0.23910000  1.0 0.138105471
H  H121  1  0.67270000  0.87660000  0.73910000  1.0 0.138105471
H  H122  1  0.87660000  0.32730000  0.23910000  1.0 0.138105471
H  H123  1  0.32730000  0.12340000  0.73910000  1.0 0.138105471
H  H124  1  0.12340000  0.67270000  0.23910000  1.0 0.138105471
H  H125  1  0.32730000  0.87660000  0.26090000  1.0 0.138105471
H  H126  1  0.67270000  0.12340000  0.26090000  1.0 0.138105471
H  H127  1  0.87660000  0.67270000  0.76090000  1.0 0.138105471
H  H128  1  0.12340000  0.32730000  0.76090000  1.0 0.138105471
H  H129  1  0.26570000  0.19030000  0.31410000  1.0 0.1990196373
H  H130  1  0.19030000  0.73430000  0.81410000  1.0 0.1990196373
H  H131  1  0.73430000  0.80970000  0.31410000  1.0 0.1990196373
H  H132  1  0.80970000  0.26570000  0.81410000  1.0 0.1990196373
H  H133  1  0.73430000  0.19030000  0.68590000  1.0 0.1990196373
H  H134  1  0.26570000  0.80970000  0.68590000  1.0 0.1990196373
H  H135  1  0.19030000  0.26570000  0.18590000  1.0 0.1990196373
H  H136  1  0.80970000  0.73430000  0.18590000  1.0 0.1990196373
H  H137  1  0.73430000  0.80970000  0.68590000  1.0 0.1990196373
H  H138  1  0.80970000  0.26570000  0.18590000  1.0 0.1990196373
H  H139  1  0.26570000  0.19030000  0.68590000  1.0 0.1990196373
H  H140  1  0.19030000  0.73430000  0.18590000  1.0 0.1990196373
H  H141  1  0.26570000  0.80970000  0.31410000  1.0 0.1990196373
H  H142  1  0.73430000  0.19030000  0.31410000  1.0 0.1990196373
H  H143  1  0.80970000  0.73430000  0.81410000  1.0 0.1990196373
H  H144  1  0.19030000  0.26570000  0.81410000  1.0 0.1990196373
H  H145  1  0.38720000  0.38050000  0.07720000  1.0 0.1201033179
H  H146  1  0.38050000  0.61280000  0.57720000  1.0 0.1201033179
H  H147  1  0.61280000  0.61950000  0.07720000  1.0 0.1201033179
H  H148  1  0.61950000  0.38720000  0.57720000  1.0 0.1201033179
H  H149  1  0.61280000  0.38050000  0.92280000  1.0 0.1201033179
H  H150  1  0.38720000  0.61950000  0.92280000  1.0 0.1201033179
H  H151  1  0.38050000  0.38720000  0.42280000  1.0 0.1201033179
H  H152  1  0.61950000  0.61280000  0.42280000  1.0 0.1201033179
H  H153  1  0.61280000  0.61950000  0.92280000  1.0 0.1201033179
H  H154  1  0.61950000  0.38720000  0.42280000  1.0 0.1201033179
H  H155  1  0.38720000  0.38050000  0.92280000  1.0 0.1201033179
H  H156  1  0.38050000  0.61280000  0.42280000  1.0 0.1201033179
H  H157  1  0.38720000  0.61950000  0.07720000  1.0 0.1201033179
H  H158  1  0.61280000  0.38050000  0.07720000  1.0 0.1201033179
H  H159  1  0.61950000  0.61280000  0.57720000  1.0 0.1201033179
H  H160  1  0.38050000  0.38720000  0.57720000  1.0 0.1201033179
H  H161  1  0.41910000  0.33820000  0.14250000  1.0 0.1088514601
H  H162  1  0.33820000  0.58090000  0.64250000  1.0 0.1088514601
H  H163  1  0.58090000  0.66180000  0.14250000  1.0 0.1088514601
H  H164  1  0.66180000  0.41910000  0.64250000  1.0 0.1088514601
H  H165  1  0.58090000  0.33820000  0.85750000  1.0 0.1088514601
H  H166  1  0.41910000  0.66180000  0.85750000  1.0 0.1088514601
H  H167  1  0.33820000  0.41910000  0.35750000  1.0 0.1088514601
H  H168  1  0.66180000  0.58090000  0.35750000  1.0 0.1088514601
H  H169  1  0.58090000  0.66180000  0.85750000  1.0 0.1088514601
H  H170  1  0.66180000  0.41910000  0.35750000  1.0 0.1088514601
H  H171  1  0.41910000  0.33820000  0.85750000  1.0 0.1088514601
H  H172  1  0.33820000  0.58090000  0.35750000  1.0 0.1088514601
H  H173  1  0.41910000  0.66180000  0.14250000  1.0 0.1088514601
H  H174  1  0.58090000  0.33820000  0.14250000  1.0 0.1088514601
H  H175  1  0.66180000  0.58090000  0.64250000  1.0 0.1088514601
H  H176  1  0.33820000  0.41910000  0.64250000  1.0 0.1088514601
H  H177  1  0.39930000  0.31900000  0.04300000  1.0 0.0598358366
H  H178  1  0.31900000  0.60070000  0.54300000  1.0 0.0598358366
H  H179  1  0.60070000  0.68100000  0.04300000  1.0 0.0598358366
H  H180  1  0.68100000  0.39930000  0.54300000  1.0 0.0598358366
H  H181  1  0.60070000  0.31900000  0.95700000  1.0 0.0598358366
H  H182  1  0.39930000  0.68100000  0.95700000  1.0 0.0598358366
H  H183  1  0.31900000  0.39930000  0.45700000  1.0 0.0598358366
H  H184  1  0.68100000  0.60070000  0.45700000  1.0 0.0598358366
H  H185  1  0.60070000  0.68100000  0.95700000  1.0 0.0598358366
H  H186  1  0.68100000  0.39930000  0.45700000  1.0 0.0598358366
H  H187  1  0.39930000  0.31900000  0.95700000  1.0 0.0598358366
H  H188  1  0.31900000  0.60070000  0.45700000  1.0 0.0598358366
H  H189  1  0.39930000  0.68100000  0.04300000  1.0 0.0598358366
H  H190  1  0.60070000  0.31900000  0.04300000  1.0 0.0598358366
H  H191  1  0.68100000  0.60070000  0.54300000  1.0 0.0598358366
H  H192  1  0.31900000  0.39930000  0.54300000  1.0 0.0598358366
C  C1  1  0.40800000  0.13080000  0.13840000  1.0 0.5683796465
C  C2  1  0.13080000  0.59200000  0.63840000  1.0 0.5683796465
C  C3  1  0.59200000  0.86920000  0.13840000  1.0 0.5683796465
C  C4  1  0.86920000  0.40800000  0.63840000  1.0 0.5683796465
C  C5  1  0.59200000  0.13080000  0.86160000  1.0 0.5683796465
C  C6  1  0.40800000  0.86920000  0.86160000  1.0 0.5683796465
C  C7  1  0.13080000  0.40800000  0.36160000  1.0 0.5683796465
C  C8  1  0.86920000  0.59200000  0.36160000  1.0 0.5683796465
C  C9  1  0.59200000  0.86920000  0.86160000  1.0 0.5683796465
C  C10  1  0.86920000  0.40800000  0.36160000  1.0 0.5683796465
C  C11  1  0.40800000  0.13080000  0.86160000  1.0 0.5683796465
C  C12  1  0.13080000  0.59200000  0.36160000  1.0 0.5683796465
C  C13  1  0.40800000  0.86920000  0.13840000  1.0 0.5683796465
C  C14  1  0.59200000  0.13080000  0.13840000  1.0 0.5683796465
C  C15  1  0.86920000  0.59200000  0.63840000  1.0 0.5683796465
C  C16  1  0.13080000  0.40800000  0.63840000  1.0 0.5683796465
C  C17  1  0.36846000  0.17370000  0.17250000  1.0 0.0877631161
C  C18  1  0.17370000  0.63154000  0.67250000  1.0 0.0877631161
C  C19  1  0.63154000  0.82630000  0.17250000  1.0 0.0877631161
C  C20  1  0.82630000  0.36846000  0.67250000  1.0 0.0877631161
C  C21  1  0.63154000  0.17370000  0.82750000  1.0 0.0877631161
C  C22  1  0.36846000  0.82630000  0.82750000  1.0 0.0877631161
C  C23  1  0.17370000  0.36846000  0.32750000  1.0 0.0877631161
C  C24  1  0.82630000  0.63154000  0.32750000  1.0 0.0877631161
C  C25  1  0.63154000  0.82630000  0.82750000  1.0 0.0877631161
C  C26  1  0.82630000  0.36846000  0.32750000  1.0 0.0877631161
C  C27  1  0.36846000  0.17370000  0.82750000  1.0 0.0877631161
C  C28  1  0.17370000  0.63154000  0.32750000  1.0 0.0877631161
C  C29  1  0.36846000  0.82630000  0.17250000  1.0 0.0877631161
C  C30  1  0.63154000  0.17370000  0.17250000  1.0 0.0877631161
C  C31  1  0.82630000  0.63154000  0.67250000  1.0 0.0877631161
C  C32  1  0.17370000  0.36846000  0.67250000  1.0 0.0877631161
C  C33  1  0.29520000  0.25319000  0.23570000  1.0 -0.0500106906
C  C34  1  0.25319000  0.70480000  0.73570000  1.0 -0.0500106906
C  C35  1  0.70480000  0.74681000  0.23570000  1.0 -0.0500106906
C  C36  1  0.74681000  0.29520000  0.73570000  1.0 -0.0500106906
C  C37  1  0.70480000  0.25319000  0.76430000  1.0 -0.0500106906
C  C38  1  0.29520000  0.74681000  0.76430000  1.0 -0.0500106906
C  C39  1  0.25319000  0.29520000  0.26430000  1.0 -0.0500106906
C  C40  1  0.74681000  0.70480000  0.26430000  1.0 -0.0500106906
C  C41  1  0.70480000  0.74681000  0.76430000  1.0 -0.0500106906
C  C42  1  0.74681000  0.29520000  0.26430000  1.0 -0.0500106906
C  C43  1  0.29520000  0.25319000  0.76430000  1.0 -0.0500106906
C  C44  1  0.25319000  0.70480000  0.26430000  1.0 -0.0500106906
C  C45  1  0.29520000  0.74681000  0.23570000  1.0 -0.0500106906
C  C46  1  0.70480000  0.25319000  0.23570000  1.0 -0.0500106906
C  C47  1  0.74681000  0.70480000  0.73570000  1.0 -0.0500106906
C  C48  1  0.25319000  0.29520000  0.73570000  1.0 -0.0500106906
C  C49  1  0.37550000  0.22860000  0.14780000  1.0 -0.2473367458
C  C50  1  0.22860000  0.62450000  0.64780000  1.0 -0.2473367458
C  C51  1  0.62450000  0.77140000  0.14780000  1.0 -0.2473367458
C  C52  1  0.77140000  0.37550000  0.64780000  1.0 -0.2473367458
C  C53  1  0.62450000  0.22860000  0.85220000  1.0 -0.2473367458
C  C54  1  0.37550000  0.77140000  0.85220000  1.0 -0.2473367458
C  C55  1  0.22860000  0.37550000  0.35220000  1.0 -0.2473367458
C  C56  1  0.77140000  0.62450000  0.35220000  1.0 -0.2473367458
C  C57  1  0.62450000  0.77140000  0.85220000  1.0 -0.2473367458
C  C58  1  0.77140000  0.37550000  0.35220000  1.0 -0.2473367458
C  C59  1  0.37550000  0.22860000  0.85220000  1.0 -0.2473367458
C  C60  1  0.22860000  0.62450000  0.35220000  1.0 -0.2473367458
C  C61  1  0.37550000  0.77140000  0.14780000  1.0 -0.2473367458
C  C62  1  0.62450000  0.22860000  0.14780000  1.0 -0.2473367458
C  C63  1  0.77140000  0.62450000  0.64780000  1.0 -0.2473367458
C  C64  1  0.22860000  0.37550000  0.64780000  1.0 -0.2473367458
C  C65  1  0.33890000  0.26833000  0.17950000  1.0 0.0598358366
C  C66  1  0.26833000  0.66110000  0.67950000  1.0 0.0598358366
C  C67  1  0.66110000  0.73167000  0.17950000  1.0 0.0598358366
C  C68  1  0.73167000  0.33890000  0.67950000  1.0 0.0598358366
C  C69  1  0.66110000  0.26833000  0.82050000  1.0 0.0598358366
C  C70  1  0.33890000  0.73167000  0.82050000  1.0 0.0598358366
C  C71  1  0.26833000  0.33890000  0.32050000  1.0 0.0598358366
C  C72  1  0.73167000  0.66110000  0.32050000  1.0 0.0598358366
C  C73  1  0.66110000  0.73167000  0.82050000  1.0 0.0598358366
C  C74  1  0.73167000  0.33890000  0.32050000  1.0 0.0598358366
C  C75  1  0.33890000  0.26833000  0.82050000  1.0 0.0598358366
C  C76  1  0.26833000  0.66110000  0.32050000  1.0 0.0598358366
C  C77  1  0.33890000  0.73167000  0.17950000  1.0 0.0598358366
C  C78  1  0.66110000  0.26833000  0.17950000  1.0 0.0598358366
C  C79  1  0.73167000  0.66110000  0.67950000  1.0 0.0598358366
C  C80  1  0.26833000  0.33890000  0.67950000  1.0 0.0598358366
C  C81  1  0.32480000  0.15855000  0.22870000  1.0 -0.2220212358
C  C82  1  0.15855000  0.67520000  0.72870000  1.0 -0.2220212358
C  C83  1  0.67520000  0.84145000  0.22870000  1.0 -0.2220212358
C  C84  1  0.84145000  0.32480000  0.72870000  1.0 -0.2220212358
C  C85  1  0.67520000  0.15855000  0.77130000  1.0 -0.2220212358
C  C86  1  0.32480000  0.84145000  0.77130000  1.0 -0.2220212358
C  C87  1  0.15855000  0.32480000  0.27130000  1.0 -0.2220212358
C  C88  1  0.84145000  0.67520000  0.27130000  1.0 -0.2220212358
C  C89  1  0.67520000  0.84145000  0.77130000  1.0 -0.2220212358
C  C90  1  0.84145000  0.32480000  0.27130000  1.0 -0.2220212358
C  C91  1  0.32480000  0.15855000  0.77130000  1.0 -0.2220212358
C  C92  1  0.15855000  0.67520000  0.27130000  1.0 -0.2220212358
C  C93  1  0.32480000  0.84145000  0.22870000  1.0 -0.2220212358
C  C94  1  0.67520000  0.15855000  0.22870000  1.0 -0.2220212358
C  C95  1  0.84145000  0.67520000  0.72870000  1.0 -0.2220212358
C  C96  1  0.15855000  0.32480000  0.72870000  1.0 -0.2220212358
C  C97  1  0.28820000  0.19830000  0.26030000  1.0 0.0472603863
C  C98  1  0.19830000  0.71180000  0.76030000  1.0 0.0472603863
C  C99  1  0.71180000  0.80170000  0.26030000  1.0 0.0472603863
C  C100  1  0.80170000  0.28820000  0.76030000  1.0 0.0472603863
C  C101  1  0.71180000  0.19830000  0.73970000  1.0 0.0472603863
C  C102  1  0.28820000  0.80170000  0.73970000  1.0 0.0472603863
C  C103  1  0.19830000  0.28820000  0.23970000  1.0 0.0472603863
C  C104  1  0.80170000  0.71180000  0.23970000  1.0 0.0472603863
C  C105  1  0.71180000  0.80170000  0.73970000  1.0 0.0472603863
C  C106  1  0.80170000  0.28820000  0.23970000  1.0 0.0472603863
C  C107  1  0.28820000  0.19830000  0.73970000  1.0 0.0472603863
C  C108  1  0.19830000  0.71180000  0.23970000  1.0 0.0472603863
C  C109  1  0.28820000  0.80170000  0.26030000  1.0 0.0472603863
C  C110  1  0.71180000  0.19830000  0.26030000  1.0 0.0472603863
C  C111  1  0.80170000  0.71180000  0.76030000  1.0 0.0472603863
C  C112  1  0.19830000  0.28820000  0.76030000  1.0 0.0472603863
C  C113  1  0.23170000  0.12390000  0.33800000  1.0 -0.3320860189
C  C114  1  0.12390000  0.76830000  0.83800000  1.0 -0.3320860189
C  C115  1  0.76830000  0.87610000  0.33800000  1.0 -0.3320860189
C  C116  1  0.87610000  0.23170000  0.83800000  1.0 -0.3320860189
C  C117  1  0.76830000  0.12390000  0.66200000  1.0 -0.3320860189
C  C118  1  0.23170000  0.87610000  0.66200000  1.0 -0.3320860189
C  C119  1  0.12390000  0.23170000  0.16200000  1.0 -0.3320860189
C  C120  1  0.87610000  0.76830000  0.16200000  1.0 -0.3320860189
C  C121  1  0.76830000  0.87610000  0.66200000  1.0 -0.3320860189
C  C122  1  0.87610000  0.23170000  0.16200000  1.0 -0.3320860189
C  C123  1  0.23170000  0.12390000  0.66200000  1.0 -0.3320860189
C  C124  1  0.12390000  0.76830000  0.16200000  1.0 -0.3320860189
C  C125  1  0.23170000  0.87610000  0.33800000  1.0 -0.3320860189
C  C126  1  0.76830000  0.12390000  0.33800000  1.0 -0.3320860189
C  C127  1  0.87610000  0.76830000  0.83800000  1.0 -0.3320860189
C  C128  1  0.12390000  0.23170000  0.83800000  1.0 -0.3320860189
C  C129  1  0.37120000  0.22720000  0.13880000  1.0 -0.2473367458
C  C130  1  0.22720000  0.62880000  0.63880000  1.0 -0.2473367458
C  C131  1  0.62880000  0.77280000  0.13880000  1.0 -0.2473367458
C  C132  1  0.77280000  0.37120000  0.63880000  1.0 -0.2473367458
C  C133  1  0.62880000  0.22720000  0.86120000  1.0 -0.2473367458
C  C134  1  0.37120000  0.77280000  0.86120000  1.0 -0.2473367458
C  C135  1  0.22720000  0.37120000  0.36120000  1.0 -0.2473367458
C  C136  1  0.77280000  0.62880000  0.36120000  1.0 -0.2473367458
C  C137  1  0.62880000  0.77280000  0.86120000  1.0 -0.2473367458
C  C138  1  0.77280000  0.37120000  0.36120000  1.0 -0.2473367458
C  C139  1  0.37120000  0.22720000  0.86120000  1.0 -0.2473367458
C  C140  1  0.22720000  0.62880000  0.36120000  1.0 -0.2473367458
C  C141  1  0.37120000  0.77280000  0.13880000  1.0 -0.2473367458
C  C142  1  0.62880000  0.22720000  0.13880000  1.0 -0.2473367458
C  C143  1  0.77280000  0.62880000  0.63880000  1.0 -0.2473367458
C  C144  1  0.22720000  0.37120000  0.63880000  1.0 -0.2473367458
C  C145  1  0.33460000  0.26690000  0.17030000  1.0 0.0598358366
C  C146  1  0.26690000  0.66540000  0.67030000  1.0 0.0598358366
C  C147  1  0.66540000  0.73310000  0.17030000  1.0 0.0598358366
C  C148  1  0.73310000  0.33460000  0.67030000  1.0 0.0598358366
C  C149  1  0.66540000  0.26690000  0.82970000  1.0 0.0598358366
C  C150  1  0.33460000  0.73310000  0.82970000  1.0 0.0598358366
C  C151  1  0.26690000  0.33460000  0.32970000  1.0 0.0598358366
C  C152  1  0.73310000  0.66540000  0.32970000  1.0 0.0598358366
C  C153  1  0.66540000  0.73310000  0.82970000  1.0 0.0598358366
C  C154  1  0.73310000  0.33460000  0.32970000  1.0 0.0598358366
C  C155  1  0.33460000  0.26690000  0.82970000  1.0 0.0598358366
C  C156  1  0.26690000  0.66540000  0.32970000  1.0 0.0598358366
C  C157  1  0.33460000  0.73310000  0.17030000  1.0 0.0598358366
C  C158  1  0.66540000  0.26690000  0.17030000  1.0 0.0598358366
C  C159  1  0.73310000  0.66540000  0.67030000  1.0 0.0598358366
C  C160  1  0.26690000  0.33460000  0.67030000  1.0 0.0598358366
C  C161  1  0.32920000  0.15990000  0.23780000  1.0 -0.2220212358
C  C162  1  0.15990000  0.67080000  0.73780000  1.0 -0.2220212358
C  C163  1  0.67080000  0.84010000  0.23780000  1.0 -0.2220212358
C  C164  1  0.84010000  0.32920000  0.73780000  1.0 -0.2220212358
C  C165  1  0.67080000  0.15990000  0.76220000  1.0 -0.2220212358
C  C166  1  0.32920000  0.84010000  0.76220000  1.0 -0.2220212358
C  C167  1  0.15990000  0.32920000  0.26220000  1.0 -0.2220212358
C  C168  1  0.84010000  0.67080000  0.26220000  1.0 -0.2220212358
C  C169  1  0.67080000  0.84010000  0.76220000  1.0 -0.2220212358
C  C170  1  0.84010000  0.32920000  0.26220000  1.0 -0.2220212358
C  C171  1  0.32920000  0.15990000  0.76220000  1.0 -0.2220212358
C  C172  1  0.15990000  0.67080000  0.26220000  1.0 -0.2220212358
C  C173  1  0.32920000  0.84010000  0.23780000  1.0 -0.2220212358
C  C174  1  0.67080000  0.15990000  0.23780000  1.0 -0.2220212358
C  C175  1  0.84010000  0.67080000  0.73780000  1.0 -0.2220212358
C  C176  1  0.15990000  0.32920000  0.73780000  1.0 -0.2220212358
C  C177  1  0.29250000  0.19970000  0.26940000  1.0 0.0472603863
C  C178  1  0.19970000  0.70750000  0.76940000  1.0 0.0472603863
C  C179  1  0.70750000  0.80030000  0.26940000  1.0 0.0472603863
C  C180  1  0.80030000  0.29250000  0.76940000  1.0 0.0472603863
C  C181  1  0.70750000  0.19970000  0.73060000  1.0 0.0472603863
C  C182  1  0.29250000  0.80030000  0.73060000  1.0 0.0472603863
C  C183  1  0.19970000  0.29250000  0.23060000  1.0 0.0472603863
C  C184  1  0.80030000  0.70750000  0.23060000  1.0 0.0472603863
C  C185  1  0.70750000  0.80030000  0.73060000  1.0 0.0472603863
C  C186  1  0.80030000  0.29250000  0.23060000  1.0 0.0472603863
C  C187  1  0.29250000  0.19970000  0.73060000  1.0 0.0472603863
C  C188  1  0.19970000  0.70750000  0.23060000  1.0 0.0472603863
C  C189  1  0.29250000  0.80030000  0.26940000  1.0 0.0472603863
C  C190  1  0.70750000  0.19970000  0.26940000  1.0 0.0472603863
C  C191  1  0.80030000  0.70750000  0.76940000  1.0 0.0472603863
C  C192  1  0.19970000  0.29250000  0.76940000  1.0 0.0472603863
C  C193  1  0.39010000  0.34190000  0.09600000  1.0 -0.314473068
C  C194  1  0.34190000  0.60990000  0.59600000  1.0 -0.314473068
C  C195  1  0.60990000  0.65810000  0.09600000  1.0 -0.314473068
C  C196  1  0.65810000  0.39010000  0.59600000  1.0 -0.314473068
C  C197  1  0.60990000  0.34190000  0.90400000  1.0 -0.314473068
C  C198  1  0.39010000  0.65810000  0.90400000  1.0 -0.314473068
C  C199  1  0.34190000  0.39010000  0.40400000  1.0 -0.314473068
C  C200  1  0.65810000  0.60990000  0.40400000  1.0 -0.314473068
C  C201  1  0.60990000  0.65810000  0.90400000  1.0 -0.314473068
C  C202  1  0.65810000  0.39010000  0.40400000  1.0 -0.314473068
C  C203  1  0.39010000  0.34190000  0.90400000  1.0 -0.314473068
C  C204  1  0.34190000  0.60990000  0.40400000  1.0 -0.314473068
C  C205  1  0.39010000  0.65810000  0.09600000  1.0 -0.314473068
C  C206  1  0.60990000  0.34190000  0.09600000  1.0 -0.314473068
C  C207  1  0.65810000  0.60990000  0.59600000  1.0 -0.314473068
C  C208  1  0.34190000  0.39010000  0.59600000  1.0 -0.314473068
O  O1  1  0.42570000  0.05020000  0.00000000  1.0 -1.1872809743
O  O2  1  0.05020000  0.57430000  0.50000000  1.0 -1.1823953703
O  O3  1  0.57430000  0.94980000  0.00000000  1.0 -1.1872809743
O  O4  1  0.94980000  0.42570000  0.50000000  1.0 -1.1823953703
O  O5  1  0.57430000  0.05020000  0.00000000  1.0 -1.1872809743
O  O6  1  0.42570000  0.94980000  0.00000000  1.0 -1.1872809743
O  O7  1  0.05020000  0.42570000  0.50000000  1.0 -1.1823953703
O  O8  1  0.94980000  0.57430000  0.50000000  1.0 -1.1823953703
O  O9  1  0.50000000  0.05000000  0.12730000  1.0 -1.1872809743
O  O10  1  0.05000000  0.50000000  0.62730000  1.0 -1.1872809743
O  O11  1  0.50000000  0.95000000  0.12730000  1.0 -1.1872809743
O  O12  1  0.95000000  0.50000000  0.62730000  1.0 -1.1872809743
O  O13  1  0.50000000  0.05000000  0.87270000  1.0 -1.1872809743
O  O14  1  0.50000000  0.95000000  0.87270000  1.0 -1.1872809743
O  O15  1  0.05000000  0.50000000  0.37270000  1.0 -1.1872809743
O  O16  1  0.95000000  0.50000000  0.37270000  1.0 -1.1872809743
O  O17  1  0.39750000  0.08170000  0.16310000  1.0 -0.6180759087
O  O18  1  0.08170000  0.60250000  0.66310000  1.0 -0.6180759087
O  O19  1  0.60250000  0.91830000  0.16310000  1.0 -0.6180759087
O  O20  1  0.91830000  0.39750000  0.66310000  1.0 -0.6180759087
O  O21  1  0.60250000  0.08170000  0.83690000  1.0 -0.6180759087
O  O22  1  0.39750000  0.91830000  0.83690000  1.0 -0.6180759087
O  O23  1  0.08170000  0.39750000  0.33690000  1.0 -0.6180759087
O  O24  1  0.91830000  0.60250000  0.33690000  1.0 -0.6180759087
O  O25  1  0.60250000  0.91830000  0.83690000  1.0 -0.6180759087
O  O26  1  0.91830000  0.39750000  0.33690000  1.0 -0.6180759087
O  O27  1  0.39750000  0.08170000  0.83690000  1.0 -0.6180759087
O  O28  1  0.08170000  0.60250000  0.33690000  1.0 -0.6180759087
O  O29  1  0.39750000  0.91830000  0.16310000  1.0 -0.6180759087
O  O30  1  0.60250000  0.08170000  0.16310000  1.0 -0.6180759087
O  O31  1  0.91830000  0.60250000  0.66310000  1.0 -0.6180759087
O  O32  1  0.08170000  0.39750000  0.66310000  1.0 -0.6180759087
O  O33  1  0.44700000  0.14770000  0.08930000  1.0 -0.5623975114
O  O34  1  0.14770000  0.55300000  0.58930000  1.0 -0.5623975114
O  O35  1  0.55300000  0.85230000  0.08930000  1.0 -0.5623975114
O  O36  1  0.85230000  0.44700000  0.58930000  1.0 -0.5623975114
O  O37  1  0.55300000  0.14770000  0.91070000  1.0 -0.5623975114
O  O38  1  0.44700000  0.85230000  0.91070000  1.0 -0.5623975114
O  O39  1  0.14770000  0.44700000  0.41070000  1.0 -0.5623975114
O  O40  1  0.85230000  0.55300000  0.41070000  1.0 -0.5623975114
O  O41  1  0.55300000  0.85230000  0.91070000  1.0 -0.5623975114
O  O42  1  0.85230000  0.44700000  0.41070000  1.0 -0.5623975114
O  O43  1  0.44700000  0.14770000  0.91070000  1.0 -0.5623975114
O  O44  1  0.14770000  0.55300000  0.41070000  1.0 -0.5623975114
O  O45  1  0.44700000  0.85230000  0.08930000  1.0 -0.5623975114
O  O46  1  0.55300000  0.14770000  0.08930000  1.0 -0.5623975114
O  O47  1  0.85230000  0.55300000  0.58930000  1.0 -0.5623975114
O  O48  1  0.14770000  0.44700000  0.58930000  1.0 -0.5623975114
O  O49  1  0.24150000  0.18240000  0.32040000  1.0 -0.1263970063
O  O50  1  0.18240000  0.75850000  0.82040000  1.0 -0.1263970063
O  O51  1  0.75850000  0.81760000  0.32040000  1.0 -0.1263970063
O  O52  1  0.81760000  0.24150000  0.82040000  1.0 -0.1263970063
O  O53  1  0.75850000  0.18240000  0.67960000  1.0 -0.1263970063
O  O54  1  0.24150000  0.81760000  0.67960000  1.0 -0.1263970063
O  O55  1  0.18240000  0.24150000  0.17960000  1.0 -0.1263970063
O  O56  1  0.81760000  0.75850000  0.17960000  1.0 -0.1263970063
O  O57  1  0.75850000  0.81760000  0.67960000  1.0 -0.1263970063
O  O58  1  0.81760000  0.24150000  0.17960000  1.0 -0.1263970063
O  O59  1  0.24150000  0.18240000  0.67960000  1.0 -0.1263970063
O  O60  1  0.18240000  0.75850000  0.17960000  1.0 -0.1263970063
O  O61  1  0.24150000  0.81760000  0.32040000  1.0 -0.1263970063
O  O62  1  0.75850000  0.18240000  0.32040000  1.0 -0.1263970063
O  O63  1  0.81760000  0.75850000  0.82040000  1.0 -0.1263970063
O  O64  1  0.18240000  0.24150000  0.82040000  1.0 -0.1263970063
O  O65  1  0.33730000  0.32370000  0.13470000  1.0 -0.1201460032
O  O66  1  0.32370000  0.66270000  0.63470000  1.0 -0.1201460032
O  O67  1  0.66270000  0.67630000  0.13470000  1.0 -0.1201460032
O  O68  1  0.67630000  0.33730000  0.63470000  1.0 -0.1201460032
O  O69  1  0.66270000  0.32370000  0.86530000  1.0 -0.1201460032
O  O70  1  0.33730000  0.67630000  0.86530000  1.0 -0.1201460032
O  O71  1  0.32370000  0.33730000  0.36530000  1.0 -0.1201460032
O  O72  1  0.67630000  0.66270000  0.36530000  1.0 -0.1201460032
O  O73  1  0.66270000  0.67630000  0.86530000  1.0 -0.1201460032
O  O74  1  0.67630000  0.33730000  0.36530000  1.0 -0.1201460032
O  O75  1  0.33730000  0.32370000  0.86530000  1.0 -0.1201460032
O  O76  1  0.32370000  0.66270000  0.36530000  1.0 -0.1201460032
O  O77  1  0.33730000  0.67630000  0.13470000  1.0 -0.1201460032
O  O78  1  0.66270000  0.32370000  0.13470000  1.0 -0.1201460032
O  O79  1  0.67630000  0.66270000  0.63470000  1.0 -0.1201460032
O  O80  1  0.32370000  0.33730000  0.63470000  1.0 -0.1201460032
