# DDEC6 charges by PACMAN v1.1 (https://github.com/mtap-research/PACMAN-charge/)
data_ERALIU_ASR_pacman
_symmetry_space_group_name_H-M   'P 1'
_cell_length_a   24.25000000
_cell_length_b   24.25000000
_cell_length_c   15.23200000
_cell_angle_alpha   90.00000000
_cell_angle_beta   90.00000000
_cell_angle_gamma   90.00000000
_symmetry_Int_Tables_number   1
_chemical_formula_structural   Zr3H24C44(N2O7)4
_chemical_formula_sum   'Zr12 H96 C176 N32 O112'
_cell_volume   8957.36800000
_cell_formula_units_Z   4
loop_
 _symmetry_equiv_pos_site_id
 _symmetry_equiv_pos_as_xyz
  1  'x, y, z'
loop_
 _atom_site_type_symbol
 _atom_site_label
 _atom_site_symmetry_multiplicity
 _atom_site_fract_x
 _atom_site_fract_y
 _atom_site_fract_z
 _atom_site_occupancy
 _atom_site_charge
Zr  Zr1  1  0.10037000  0.50000000  0.00000000  1.0 2.3103651064
Zr  Zr2  1  0.50000000  0.89963000  0.50000000  1.0 2.3103651064
Zr  Zr3  1  0.89963000  0.50000000  0.00000000  1.0 2.3103651064
Zr  Zr4  1  0.50000000  0.10037000  0.50000000  1.0 2.3103651064
Zr  Zr5  1  0.00000000  0.42701000  0.11592000  1.0 2.4183267312
Zr  Zr6  1  0.42701000  0.00000000  0.61592000  1.0 2.4183267312
Zr  Zr7  1  0.00000000  0.57299000  0.11592000  1.0 2.4183267312
Zr  Zr8  1  0.57299000  0.00000000  0.61592000  1.0 2.4183267312
Zr  Zr9  1  0.00000000  0.42701000  0.88408000  1.0 2.4183267312
Zr  Zr10  1  0.00000000  0.57299000  0.88408000  1.0 2.4183267312
Zr  Zr11  1  0.42701000  0.00000000  0.38408000  1.0 2.4183267312
Zr  Zr12  1  0.57299000  0.00000000  0.38408000  1.0 2.4183267312
H  H1  1  0.23960000  0.41530000  0.12060000  1.0 0.0805293358
H  H2  1  0.41530000  0.76040000  0.62060000  1.0 0.0805293358
H  H3  1  0.76040000  0.58470000  0.12060000  1.0 0.0805293358
H  H4  1  0.58470000  0.23960000  0.62060000  1.0 0.0805293358
H  H5  1  0.76040000  0.41530000  0.87940000  1.0 0.0805293358
H  H6  1  0.23960000  0.58470000  0.87940000  1.0 0.0805293358
H  H7  1  0.41530000  0.23960000  0.37940000  1.0 0.0805293358
H  H8  1  0.58470000  0.76040000  0.37940000  1.0 0.0805293358
H  H9  1  0.76040000  0.58470000  0.87940000  1.0 0.0805293358
H  H10  1  0.58470000  0.23960000  0.37940000  1.0 0.0805293358
H  H11  1  0.23960000  0.41530000  0.87940000  1.0 0.0805293358
H  H12  1  0.41530000  0.76040000  0.37940000  1.0 0.0805293358
H  H13  1  0.23960000  0.58470000  0.12060000  1.0 0.0805293358
H  H14  1  0.76040000  0.41530000  0.12060000  1.0 0.0805293358
H  H15  1  0.58470000  0.76040000  0.62060000  1.0 0.0805293358
H  H16  1  0.41530000  0.23960000  0.62060000  1.0 0.0805293358
H  H17  1  0.12640000  0.31600000  0.23630000  1.0 0.1092326804
H  H18  1  0.31600000  0.87360000  0.73630000  1.0 0.1092326804
H  H19  1  0.87360000  0.68400000  0.23630000  1.0 0.1092326804
H  H20  1  0.68400000  0.12640000  0.73630000  1.0 0.1092326804
H  H21  1  0.87360000  0.31600000  0.76370000  1.0 0.1092326804
H  H22  1  0.12640000  0.68400000  0.76370000  1.0 0.1092326804
H  H23  1  0.31600000  0.12640000  0.26370000  1.0 0.1092326804
H  H24  1  0.68400000  0.87360000  0.26370000  1.0 0.1092326804
H  H25  1  0.87360000  0.68400000  0.76370000  1.0 0.1092326804
H  H26  1  0.68400000  0.12640000  0.26370000  1.0 0.1092326804
H  H27  1  0.12640000  0.31600000  0.76370000  1.0 0.1092326804
H  H28  1  0.31600000  0.87360000  0.26370000  1.0 0.1092326804
H  H29  1  0.12640000  0.68400000  0.23630000  1.0 0.1092326804
H  H30  1  0.87360000  0.31600000  0.23630000  1.0 0.1092326804
H  H31  1  0.68400000  0.87360000  0.73630000  1.0 0.1092326804
H  H32  1  0.31600000  0.12640000  0.73630000  1.0 0.1092326804
H  H33  1  0.19700000  0.25740000  0.28390000  1.0 0.0805293358
H  H34  1  0.25740000  0.80300000  0.78390000  1.0 0.0805293358
H  H35  1  0.80300000  0.74260000  0.28390000  1.0 0.0805293358
H  H36  1  0.74260000  0.19700000  0.78390000  1.0 0.0805293358
H  H37  1  0.80300000  0.25740000  0.71610000  1.0 0.0805293358
H  H38  1  0.19700000  0.74260000  0.71610000  1.0 0.0805293358
H  H39  1  0.25740000  0.19700000  0.21610000  1.0 0.0805293358
H  H40  1  0.74260000  0.80300000  0.21610000  1.0 0.0805293358
H  H41  1  0.80300000  0.74260000  0.71610000  1.0 0.0805293358
H  H42  1  0.74260000  0.19700000  0.21610000  1.0 0.0805293358
H  H43  1  0.19700000  0.25740000  0.71610000  1.0 0.0805293358
H  H44  1  0.25740000  0.80300000  0.21610000  1.0 0.0805293358
H  H45  1  0.19700000  0.74260000  0.28390000  1.0 0.0805293358
H  H46  1  0.80300000  0.25740000  0.28390000  1.0 0.0805293358
H  H47  1  0.74260000  0.80300000  0.78390000  1.0 0.0805293358
H  H48  1  0.25740000  0.19700000  0.78390000  1.0 0.0805293358
H  H49  1  0.23070000  0.39040000  0.07660000  1.0 0.0731426286
H  H50  1  0.39040000  0.76930000  0.57660000  1.0 0.0731426286
H  H51  1  0.76930000  0.60960000  0.07660000  1.0 0.0731426286
H  H52  1  0.60960000  0.23070000  0.57660000  1.0 0.0731426286
H  H53  1  0.76930000  0.39040000  0.92340000  1.0 0.0731426286
H  H54  1  0.23070000  0.60960000  0.92340000  1.0 0.0731426286
H  H55  1  0.39040000  0.23070000  0.42340000  1.0 0.0731426286
H  H56  1  0.60960000  0.76930000  0.42340000  1.0 0.0731426286
H  H57  1  0.76930000  0.60960000  0.92340000  1.0 0.0731426286
H  H58  1  0.60960000  0.23070000  0.42340000  1.0 0.0731426286
H  H59  1  0.23070000  0.39040000  0.92340000  1.0 0.0731426286
H  H60  1  0.39040000  0.76930000  0.42340000  1.0 0.0731426286
H  H61  1  0.23070000  0.60960000  0.07660000  1.0 0.0731426286
H  H62  1  0.76930000  0.39040000  0.07660000  1.0 0.0731426286
H  H63  1  0.60960000  0.76930000  0.57660000  1.0 0.0731426286
H  H64  1  0.39040000  0.23070000  0.57660000  1.0 0.0731426286
H  H65  1  0.13530000  0.34080000  0.28040000  1.0 0.1092326804
H  H66  1  0.34080000  0.86470000  0.78040000  1.0 0.1092326804
H  H67  1  0.86470000  0.65920000  0.28040000  1.0 0.1092326804
H  H68  1  0.65920000  0.13530000  0.78040000  1.0 0.1092326804
H  H69  1  0.86470000  0.34080000  0.71960000  1.0 0.1092326804
H  H70  1  0.13530000  0.65920000  0.71960000  1.0 0.1092326804
H  H71  1  0.34080000  0.13530000  0.21960000  1.0 0.1092326804
H  H72  1  0.65920000  0.86470000  0.21960000  1.0 0.1092326804
H  H73  1  0.86470000  0.65920000  0.71960000  1.0 0.1092326804
H  H74  1  0.65920000  0.13530000  0.21960000  1.0 0.1092326804
H  H75  1  0.13530000  0.34080000  0.71960000  1.0 0.1092326804
H  H76  1  0.34080000  0.86470000  0.21960000  1.0 0.1092326804
H  H77  1  0.13530000  0.65920000  0.28040000  1.0 0.1092326804
H  H78  1  0.86470000  0.34080000  0.28040000  1.0 0.1092326804
H  H79  1  0.65920000  0.86470000  0.78040000  1.0 0.1092326804
H  H80  1  0.34080000  0.13530000  0.78040000  1.0 0.1092326804
H  H81  1  0.20590000  0.28220000  0.32800000  1.0 0.0731426286
H  H82  1  0.28220000  0.79410000  0.82800000  1.0 0.0731426286
H  H83  1  0.79410000  0.71780000  0.32800000  1.0 0.0731426286
H  H84  1  0.71780000  0.20590000  0.82800000  1.0 0.0731426286
H  H85  1  0.79410000  0.28220000  0.67200000  1.0 0.0731426286
H  H86  1  0.20590000  0.71780000  0.67200000  1.0 0.0731426286
H  H87  1  0.28220000  0.20590000  0.17200000  1.0 0.0731426286
H  H88  1  0.71780000  0.79410000  0.17200000  1.0 0.0731426286
H  H89  1  0.79410000  0.71780000  0.67200000  1.0 0.0731426286
H  H90  1  0.71780000  0.20590000  0.17200000  1.0 0.0731426286
H  H91  1  0.20590000  0.28220000  0.67200000  1.0 0.0731426286
H  H92  1  0.28220000  0.79410000  0.17200000  1.0 0.0731426286
H  H93  1  0.20590000  0.71780000  0.32800000  1.0 0.0731426286
H  H94  1  0.79410000  0.28220000  0.32800000  1.0 0.0731426286
H  H95  1  0.71780000  0.79410000  0.82800000  1.0 0.0731426286
H  H96  1  0.28220000  0.20590000  0.82800000  1.0 0.0731426286
C  C1  1  0.13222000  0.40774000  0.13810000  1.0 0.5340130584
C  C2  1  0.40774000  0.86778000  0.63810000  1.0 0.5361759755
C  C3  1  0.86778000  0.59226000  0.13810000  1.0 0.5361759755
C  C4  1  0.59226000  0.13222000  0.63810000  1.0 0.5361759755
C  C5  1  0.86778000  0.40774000  0.86190000  1.0 0.5361759755
C  C6  1  0.13222000  0.59226000  0.86190000  1.0 0.5340130584
C  C7  1  0.40774000  0.13222000  0.36190000  1.0 0.5361759755
C  C8  1  0.59226000  0.86778000  0.36190000  1.0 0.5361759755
C  C9  1  0.86778000  0.59226000  0.86190000  1.0 0.5361759755
C  C10  1  0.59226000  0.13222000  0.36190000  1.0 0.5361759755
C  C11  1  0.13222000  0.40774000  0.86190000  1.0 0.5340130584
C  C12  1  0.40774000  0.86778000  0.36190000  1.0 0.5340130584
C  C13  1  0.13222000  0.59226000  0.13810000  1.0 0.5340130584
C  C14  1  0.86778000  0.40774000  0.13810000  1.0 0.5361759755
C  C15  1  0.59226000  0.86778000  0.63810000  1.0 0.5361759755
C  C16  1  0.40774000  0.13222000  0.63810000  1.0 0.5361759755
C  C17  1  0.17636000  0.37113000  0.17400000  1.0 -0.0305255216
C  C18  1  0.37113000  0.82364000  0.67400000  1.0 -0.0305255216
C  C19  1  0.82364000  0.62887000  0.17400000  1.0 -0.0305255216
C  C20  1  0.62887000  0.17636000  0.67400000  1.0 -0.0305255216
C  C21  1  0.82364000  0.37113000  0.82600000  1.0 -0.0305255216
C  C22  1  0.17636000  0.62887000  0.82600000  1.0 -0.0305255216
C  C23  1  0.37113000  0.17636000  0.32600000  1.0 -0.0305255216
C  C24  1  0.62887000  0.82364000  0.32600000  1.0 -0.0305255216
C  C25  1  0.82364000  0.62887000  0.82600000  1.0 -0.0305255216
C  C26  1  0.62887000  0.17636000  0.32600000  1.0 -0.0305255216
C  C27  1  0.17636000  0.37113000  0.82600000  1.0 -0.0305255216
C  C28  1  0.37113000  0.82364000  0.32600000  1.0 -0.0305255216
C  C29  1  0.17636000  0.62887000  0.17400000  1.0 -0.0305255216
C  C30  1  0.82364000  0.37113000  0.17400000  1.0 -0.0305255216
C  C31  1  0.62887000  0.82364000  0.67400000  1.0 -0.0305255216
C  C32  1  0.37113000  0.17636000  0.67400000  1.0 -0.0305255216
C  C33  1  0.26027000  0.30153000  0.23060000  1.0 -0.1093755761
C  C34  1  0.30153000  0.73973000  0.73060000  1.0 -0.1093755761
C  C35  1  0.73973000  0.69847000  0.23060000  1.0 -0.1093755761
C  C36  1  0.69847000  0.26027000  0.73060000  1.0 -0.1093755761
C  C37  1  0.73973000  0.30153000  0.76940000  1.0 -0.1093755761
C  C38  1  0.26027000  0.69847000  0.76940000  1.0 -0.1093755761
C  C39  1  0.30153000  0.26027000  0.26940000  1.0 -0.1093755761
C  C40  1  0.69847000  0.73973000  0.26940000  1.0 -0.1093755761
C  C41  1  0.73973000  0.69847000  0.76940000  1.0 -0.1093755761
C  C42  1  0.69847000  0.26027000  0.26940000  1.0 -0.1093755761
C  C43  1  0.26027000  0.30153000  0.76940000  1.0 -0.1093755761
C  C44  1  0.30153000  0.73973000  0.26940000  1.0 -0.1093755761
C  C45  1  0.26027000  0.69847000  0.23060000  1.0 -0.1093755761
C  C46  1  0.73973000  0.30153000  0.23060000  1.0 -0.1093755761
C  C47  1  0.69847000  0.73973000  0.73060000  1.0 -0.1093755761
C  C48  1  0.30153000  0.26027000  0.73060000  1.0 -0.1093755761
C  C49  1  0.23095000  0.38320000  0.15380000  1.0 -0.0744625233
C  C50  1  0.38320000  0.76905000  0.65380000  1.0 -0.0744625233
C  C51  1  0.76905000  0.61680000  0.15380000  1.0 -0.0744625233
C  C52  1  0.61680000  0.23095000  0.65380000  1.0 -0.0744625233
C  C53  1  0.76905000  0.38320000  0.84620000  1.0 -0.0744625233
C  C54  1  0.23095000  0.61680000  0.84620000  1.0 -0.0744625233
C  C55  1  0.38320000  0.23095000  0.34620000  1.0 -0.0744625233
C  C56  1  0.61680000  0.76905000  0.34620000  1.0 -0.0744625233
C  C57  1  0.76905000  0.61680000  0.84620000  1.0 -0.0744625233
C  C58  1  0.61680000  0.23095000  0.34620000  1.0 -0.0744625233
C  C59  1  0.23095000  0.38320000  0.84620000  1.0 -0.0744625233
C  C60  1  0.38320000  0.76905000  0.34620000  1.0 -0.0744625233
C  C61  1  0.23095000  0.61680000  0.15380000  1.0 -0.0744625233
C  C62  1  0.76905000  0.38320000  0.15380000  1.0 -0.0744625233
C  C63  1  0.61680000  0.76905000  0.65380000  1.0 -0.0744625233
C  C64  1  0.38320000  0.23095000  0.65380000  1.0 -0.0744625233
C  C65  1  0.16373000  0.32420000  0.22250000  1.0 -0.0159772532
C  C66  1  0.32420000  0.83627000  0.72250000  1.0 -0.0159772532
C  C67  1  0.83627000  0.67580000  0.22250000  1.0 -0.0159772532
C  C68  1  0.67580000  0.16373000  0.72250000  1.0 -0.0159772532
C  C69  1  0.83627000  0.32420000  0.77750000  1.0 -0.0159772532
C  C70  1  0.16373000  0.67580000  0.77750000  1.0 -0.0159772532
C  C71  1  0.32420000  0.16373000  0.27750000  1.0 -0.0159772532
C  C72  1  0.67580000  0.83627000  0.27750000  1.0 -0.0159772532
C  C73  1  0.83627000  0.67580000  0.77750000  1.0 -0.0159772532
C  C74  1  0.67580000  0.16373000  0.27750000  1.0 -0.0159772532
C  C75  1  0.16373000  0.32420000  0.77750000  1.0 -0.0159772532
C  C76  1  0.32420000  0.83627000  0.27750000  1.0 -0.0159772532
C  C77  1  0.16373000  0.67580000  0.22250000  1.0 -0.0159772532
C  C78  1  0.83627000  0.32420000  0.22250000  1.0 -0.0159772532
C  C79  1  0.67580000  0.83627000  0.72250000  1.0 -0.0159772532
C  C80  1  0.32420000  0.16373000  0.72250000  1.0 -0.0159772532
C  C81  1  0.27290000  0.34840000  0.18210000  1.0 0.0507871314
C  C82  1  0.34840000  0.72710000  0.68210000  1.0 0.0507871314
C  C83  1  0.72710000  0.65160000  0.18210000  1.0 0.0555008682
C  C84  1  0.65160000  0.27290000  0.68210000  1.0 0.0507871314
C  C85  1  0.72710000  0.34840000  0.81790000  1.0 0.0507871314
C  C86  1  0.27290000  0.65160000  0.81790000  1.0 0.0507871314
C  C87  1  0.34840000  0.27290000  0.31790000  1.0 0.0507871314
C  C88  1  0.65160000  0.72710000  0.31790000  1.0 0.0507871314
C  C89  1  0.72710000  0.65160000  0.81790000  1.0 0.0507871314
C  C90  1  0.65160000  0.27290000  0.31790000  1.0 0.0507871314
C  C91  1  0.27290000  0.34840000  0.81790000  1.0 0.0507871314
C  C92  1  0.34840000  0.72710000  0.31790000  1.0 0.0507871314
C  C93  1  0.27290000  0.65160000  0.18210000  1.0 0.0507871314
C  C94  1  0.72710000  0.34840000  0.18210000  1.0 0.0507871314
C  C95  1  0.65160000  0.72710000  0.68210000  1.0 0.0507871314
C  C96  1  0.34840000  0.27290000  0.68210000  1.0 0.0507871314
C  C97  1  0.20568000  0.28940000  0.25080000  1.0 -0.0489025097
C  C98  1  0.28940000  0.79432000  0.75080000  1.0 -0.0489025097
C  C99  1  0.79432000  0.71060000  0.25080000  1.0 -0.0446677404
C  C100  1  0.71060000  0.20568000  0.75080000  1.0 -0.0446677404
C  C101  1  0.79432000  0.28940000  0.74920000  1.0 -0.0446677404
C  C102  1  0.20568000  0.71060000  0.74920000  1.0 -0.0489025097
C  C103  1  0.28940000  0.20568000  0.24920000  1.0 -0.0489025097
C  C104  1  0.71060000  0.79432000  0.24920000  1.0 -0.0446677404
C  C105  1  0.79432000  0.71060000  0.74920000  1.0 -0.0446677404
C  C106  1  0.71060000  0.20568000  0.24920000  1.0 -0.0446677404
C  C107  1  0.20568000  0.28940000  0.74920000  1.0 -0.0489025097
C  C108  1  0.28940000  0.79432000  0.24920000  1.0 -0.0489025097
C  C109  1  0.20568000  0.71060000  0.25080000  1.0 -0.0489025097
C  C110  1  0.79432000  0.28940000  0.25080000  1.0 -0.0446677404
C  C111  1  0.71060000  0.79432000  0.75080000  1.0 -0.0446677404
C  C112  1  0.28940000  0.20568000  0.75080000  1.0 -0.0446677404
C  C113  1  0.22565000  0.36846000  0.12760000  1.0 -0.0860671138
C  C114  1  0.36846000  0.77435000  0.62760000  1.0 -0.0860671138
C  C115  1  0.77435000  0.63154000  0.12760000  1.0 -0.0843927903
C  C116  1  0.63154000  0.22565000  0.62760000  1.0 -0.0860671138
C  C117  1  0.77435000  0.36846000  0.87240000  1.0 -0.0860671138
C  C118  1  0.22565000  0.63154000  0.87240000  1.0 -0.0860671138
C  C119  1  0.36846000  0.22565000  0.37240000  1.0 -0.0860671138
C  C120  1  0.63154000  0.77435000  0.37240000  1.0 -0.0843927903
C  C121  1  0.77435000  0.63154000  0.87240000  1.0 -0.0860671138
C  C122  1  0.63154000  0.22565000  0.37240000  1.0 -0.0860671138
C  C123  1  0.22565000  0.36846000  0.87240000  1.0 -0.0860671138
C  C124  1  0.36846000  0.77435000  0.37240000  1.0 -0.0860671138
C  C125  1  0.22565000  0.63154000  0.12760000  1.0 -0.0860671138
C  C126  1  0.77435000  0.36846000  0.12760000  1.0 -0.0860671138
C  C127  1  0.63154000  0.77435000  0.62760000  1.0 -0.0843927903
C  C128  1  0.36846000  0.22565000  0.62760000  1.0 -0.0860671138
C  C129  1  0.16901000  0.33900000  0.24870000  1.0 -0.0159772532
C  C130  1  0.33900000  0.83099000  0.74870000  1.0 -0.0159772532
C  C131  1  0.83099000  0.66100000  0.24870000  1.0 -0.0159772532
C  C132  1  0.66100000  0.16901000  0.74870000  1.0 -0.0159772532
C  C133  1  0.83099000  0.33900000  0.75130000  1.0 -0.0159772532
C  C134  1  0.16901000  0.66100000  0.75130000  1.0 -0.0159772532
C  C135  1  0.33900000  0.16901000  0.25130000  1.0 -0.0159772532
C  C136  1  0.66100000  0.83099000  0.25130000  1.0 -0.0159772532
C  C137  1  0.83099000  0.66100000  0.75130000  1.0 -0.0159772532
C  C138  1  0.66100000  0.16901000  0.25130000  1.0 -0.0159772532
C  C139  1  0.16901000  0.33900000  0.75130000  1.0 -0.0159772532
C  C140  1  0.33900000  0.83099000  0.25130000  1.0 -0.0159772532
C  C141  1  0.16901000  0.66100000  0.24870000  1.0 -0.0159772532
C  C142  1  0.83099000  0.33900000  0.24870000  1.0 -0.0159772532
C  C143  1  0.66100000  0.83099000  0.74870000  1.0 -0.0159772532
C  C144  1  0.33900000  0.16901000  0.74870000  1.0 -0.0159772532
C  C145  1  0.26760000  0.33365000  0.15590000  1.0 0.0507871314
C  C146  1  0.33365000  0.73240000  0.65590000  1.0 0.0507871314
C  C147  1  0.73240000  0.66635000  0.15590000  1.0 0.0507871314
C  C148  1  0.66635000  0.26760000  0.65590000  1.0 0.0507871314
C  C149  1  0.73240000  0.33365000  0.84410000  1.0 0.0507871314
C  C150  1  0.26760000  0.66635000  0.84410000  1.0 0.0507871314
C  C151  1  0.33365000  0.26760000  0.34410000  1.0 0.0507871314
C  C152  1  0.66635000  0.73240000  0.34410000  1.0 0.0507871314
C  C153  1  0.73240000  0.66635000  0.84410000  1.0 0.0507871314
C  C154  1  0.66635000  0.26760000  0.34410000  1.0 0.0507871314
C  C155  1  0.26760000  0.33365000  0.84410000  1.0 0.0507871314
C  C156  1  0.33365000  0.73240000  0.34410000  1.0 0.0507871314
C  C157  1  0.26760000  0.66635000  0.15590000  1.0 0.0507871314
C  C158  1  0.73240000  0.33365000  0.15590000  1.0 0.0507871314
C  C159  1  0.66635000  0.73240000  0.65590000  1.0 0.0507871314
C  C160  1  0.33365000  0.26760000  0.65590000  1.0 0.0507871314
C  C161  1  0.21096000  0.30420000  0.27700000  1.0 -0.0489025097
C  C162  1  0.30420000  0.78904000  0.77700000  1.0 -0.0489025097
C  C163  1  0.78904000  0.69580000  0.27700000  1.0 -0.0489025097
C  C164  1  0.69580000  0.21096000  0.77700000  1.0 -0.0489025097
C  C165  1  0.78904000  0.30420000  0.72300000  1.0 -0.0489025097
C  C166  1  0.21096000  0.69580000  0.72300000  1.0 -0.0489025097
C  C167  1  0.30420000  0.21096000  0.22300000  1.0 -0.0489025097
C  C168  1  0.69580000  0.78904000  0.22300000  1.0 -0.0489025097
C  C169  1  0.78904000  0.69580000  0.72300000  1.0 -0.0489025097
C  C170  1  0.69580000  0.21096000  0.22300000  1.0 -0.0489025097
C  C171  1  0.21096000  0.30420000  0.72300000  1.0 -0.0489025097
C  C172  1  0.30420000  0.78904000  0.22300000  1.0 -0.0489025097
C  C173  1  0.21096000  0.69580000  0.27700000  1.0 -0.0489025097
C  C174  1  0.78904000  0.30420000  0.27700000  1.0 -0.0489025097
C  C175  1  0.69580000  0.78904000  0.77700000  1.0 -0.0489025097
C  C176  1  0.30420000  0.21096000  0.77700000  1.0 -0.0489025097
N  N1  1  0.33010000  0.36520000  0.16250000  1.0 0.2815101104
N  N2  1  0.36520000  0.66990000  0.66250000  1.0 0.2815101104
N  N3  1  0.66990000  0.63480000  0.16250000  1.0 0.2815101104
N  N4  1  0.63480000  0.33010000  0.66250000  1.0 0.2815101104
N  N5  1  0.66990000  0.36520000  0.83750000  1.0 0.2815101104
N  N6  1  0.33010000  0.63480000  0.83750000  1.0 0.2815101104
N  N7  1  0.36520000  0.33010000  0.33750000  1.0 0.2815101104
N  N8  1  0.63480000  0.66990000  0.33750000  1.0 0.2815101104
N  N9  1  0.66990000  0.63480000  0.83750000  1.0 0.2815101104
N  N10  1  0.63480000  0.33010000  0.33750000  1.0 0.2815101104
N  N11  1  0.33010000  0.36520000  0.83750000  1.0 0.2815101104
N  N12  1  0.36520000  0.66990000  0.33750000  1.0 0.2815101104
N  N13  1  0.33010000  0.63480000  0.16250000  1.0 0.2815101104
N  N14  1  0.66990000  0.36520000  0.16250000  1.0 0.2815101104
N  N15  1  0.63480000  0.66990000  0.66250000  1.0 0.2815101104
N  N16  1  0.36520000  0.33010000  0.66250000  1.0 0.2815101104
N  N17  1  0.31960000  0.33150000  0.10560000  1.0 0.1284455372
N  N18  1  0.33150000  0.68040000  0.60560000  1.0 0.1284455372
N  N19  1  0.68040000  0.66850000  0.10560000  1.0 0.1284455372
N  N20  1  0.66850000  0.31960000  0.60560000  1.0 0.1284455372
N  N21  1  0.68040000  0.33150000  0.89440000  1.0 0.1284455372
N  N22  1  0.31960000  0.66850000  0.89440000  1.0 0.1284455372
N  N23  1  0.33150000  0.31960000  0.39440000  1.0 0.1284455372
N  N24  1  0.66850000  0.68040000  0.39440000  1.0 0.1284455372
N  N25  1  0.68040000  0.66850000  0.89440000  1.0 0.1284455372
N  N26  1  0.66850000  0.31960000  0.39440000  1.0 0.1284455372
N  N27  1  0.31960000  0.33150000  0.89440000  1.0 0.1284455372
N  N28  1  0.33150000  0.68040000  0.39440000  1.0 0.1284455372
N  N29  1  0.31960000  0.66850000  0.10560000  1.0 0.1284455372
N  N30  1  0.68040000  0.33150000  0.10560000  1.0 0.1284455372
N  N31  1  0.66850000  0.68040000  0.60560000  1.0 0.1284455372
N  N32  1  0.33150000  0.31960000  0.60560000  1.0 0.1284455372
O  O1  1  0.14750000  0.44557000  0.08590000  1.0 -0.5709956852
O  O2  1  0.44557000  0.85250000  0.58590000  1.0 -0.5709956852
O  O3  1  0.85250000  0.55443000  0.08590000  1.0 -0.5709956852
O  O4  1  0.55443000  0.14750000  0.58590000  1.0 -0.5709956852
O  O5  1  0.85250000  0.44557000  0.91410000  1.0 -0.5709956852
O  O6  1  0.14750000  0.55443000  0.91410000  1.0 -0.5709956852
O  O7  1  0.44557000  0.14750000  0.41410000  1.0 -0.5709956852
O  O8  1  0.55443000  0.85250000  0.41410000  1.0 -0.5709956852
O  O9  1  0.85250000  0.55443000  0.91410000  1.0 -0.5709956852
O  O10  1  0.55443000  0.14750000  0.41410000  1.0 -0.5709956852
O  O11  1  0.14750000  0.44557000  0.91410000  1.0 -0.5709956852
O  O12  1  0.44557000  0.85250000  0.41410000  1.0 -0.5709956852
O  O13  1  0.14750000  0.55443000  0.08590000  1.0 -0.5709956852
O  O14  1  0.85250000  0.44557000  0.08590000  1.0 -0.5709956852
O  O15  1  0.55443000  0.85250000  0.58590000  1.0 -0.5709956852
O  O16  1  0.44557000  0.14750000  0.58590000  1.0 -0.5709956852
O  O17  1  0.04916000  0.50000000  0.11700000  1.0 -1.1702156259
O  O18  1  0.50000000  0.95084000  0.61700000  1.0 -1.1702156259
O  O19  1  0.95084000  0.50000000  0.11700000  1.0 -1.1702156259
O  O20  1  0.50000000  0.04916000  0.61700000  1.0 -1.1702156259
O  O21  1  0.95084000  0.50000000  0.88300000  1.0 -1.1702156259
O  O22  1  0.04916000  0.50000000  0.88300000  1.0 -1.1702156259
O  O23  1  0.50000000  0.04916000  0.38300000  1.0 -1.1702156259
O  O24  1  0.50000000  0.95084000  0.38300000  1.0 -1.1702156259
O  O25  1  0.08398000  0.39751000  0.16110000  1.0 -0.5952546453
O  O26  1  0.39751000  0.91602000  0.66110000  1.0 -0.5952546453
O  O27  1  0.91602000  0.60249000  0.16110000  1.0 -0.5952546453
O  O28  1  0.60249000  0.08398000  0.66110000  1.0 -0.5952546453
O  O29  1  0.91602000  0.39751000  0.83890000  1.0 -0.5952546453
O  O30  1  0.08398000  0.60249000  0.83890000  1.0 -0.5952546453
O  O31  1  0.39751000  0.08398000  0.33890000  1.0 -0.5952546453
O  O32  1  0.60249000  0.91602000  0.33890000  1.0 -0.5952546453
O  O33  1  0.91602000  0.60249000  0.83890000  1.0 -0.5952546453
O  O34  1  0.60249000  0.08398000  0.33890000  1.0 -0.5952546453
O  O35  1  0.08398000  0.39751000  0.83890000  1.0 -0.5952546453
O  O36  1  0.39751000  0.91602000  0.33890000  1.0 -0.5952546453
O  O37  1  0.08398000  0.60249000  0.16110000  1.0 -0.5952546453
O  O38  1  0.91602000  0.39751000  0.16110000  1.0 -0.5952546453
O  O39  1  0.60249000  0.91602000  0.66110000  1.0 -0.5952546453
O  O40  1  0.39751000  0.08398000  0.66110000  1.0 -0.5952546453
O  O41  1  0.04899000  0.42630000  0.00000000  1.0 -1.1702156259
O  O42  1  0.42630000  0.95101000  0.50000000  1.0 -1.1702156259
O  O43  1  0.95101000  0.57370000  0.00000000  1.0 -1.1702156259
O  O44  1  0.57370000  0.04899000  0.50000000  1.0 -1.1702156259
O  O45  1  0.95101000  0.42630000  0.00000000  1.0 -1.1702156259
O  O46  1  0.04899000  0.57370000  0.00000000  1.0 -1.1702156259
O  O47  1  0.42630000  0.04899000  0.50000000  1.0 -1.1702156259
O  O48  1  0.57370000  0.95101000  0.50000000  1.0 -1.1702156259
O  O49  1  0.36580000  0.32970000  0.16160000  1.0 -0.0489025097
O  O50  1  0.32970000  0.63420000  0.66160000  1.0 -0.0489025097
O  O51  1  0.63420000  0.67030000  0.16160000  1.0 -0.0489025097
O  O52  1  0.67030000  0.36580000  0.66160000  1.0 -0.0489025097
O  O53  1  0.63420000  0.32970000  0.83840000  1.0 -0.0489025097
O  O54  1  0.36580000  0.67030000  0.83840000  1.0 -0.0489025097
O  O55  1  0.32970000  0.36580000  0.33840000  1.0 -0.0489025097
O  O56  1  0.67030000  0.63420000  0.33840000  1.0 -0.0489025097
O  O57  1  0.63420000  0.67030000  0.83840000  1.0 -0.0489025097
O  O58  1  0.67030000  0.36580000  0.33840000  1.0 -0.0489025097
O  O59  1  0.36580000  0.32970000  0.83840000  1.0 -0.0489025097
O  O60  1  0.32970000  0.63420000  0.33840000  1.0 -0.0489025097
O  O61  1  0.36580000  0.67030000  0.16160000  1.0 -0.0489025097
O  O62  1  0.63420000  0.32970000  0.16160000  1.0 -0.0489025097
O  O63  1  0.67030000  0.63420000  0.66160000  1.0 -0.0489025097
O  O64  1  0.32970000  0.36580000  0.66160000  1.0 -0.0489025097
O  O65  1  0.33950000  0.41430000  0.14780000  1.0 -0.3988232357
O  O66  1  0.41430000  0.66050000  0.64780000  1.0 -0.3988232357
O  O67  1  0.66050000  0.58570000  0.14780000  1.0 -0.3988232357
O  O68  1  0.58570000  0.33950000  0.64780000  1.0 -0.3988232357
O  O69  1  0.66050000  0.41430000  0.85220000  1.0 -0.3988232357
O  O70  1  0.33950000  0.58570000  0.85220000  1.0 -0.3988232357
O  O71  1  0.41430000  0.33950000  0.35220000  1.0 -0.3988232357
O  O72  1  0.58570000  0.66050000  0.35220000  1.0 -0.3988232357
O  O73  1  0.66050000  0.58570000  0.85220000  1.0 -0.3988232357
O  O74  1  0.58570000  0.33950000  0.35220000  1.0 -0.3988232357
O  O75  1  0.33950000  0.41430000  0.85220000  1.0 -0.3988232357
O  O76  1  0.41430000  0.66050000  0.35220000  1.0 -0.3988232357
O  O77  1  0.33950000  0.58570000  0.14780000  1.0 -0.3988232357
O  O78  1  0.66050000  0.41430000  0.14780000  1.0 -0.3988232357
O  O79  1  0.58570000  0.66050000  0.64780000  1.0 -0.3988232357
O  O80  1  0.41430000  0.33950000  0.64780000  1.0 -0.3988232357
O  O81  1  0.36060000  0.31280000  0.14030000  1.0 -0.0621354318
O  O82  1  0.31280000  0.63940000  0.64030000  1.0 -0.0621354318
O  O83  1  0.63940000  0.68720000  0.14030000  1.0 -0.0621354318
O  O84  1  0.68720000  0.36060000  0.64030000  1.0 -0.0621354318
O  O85  1  0.63940000  0.31280000  0.85970000  1.0 -0.0621354318
O  O86  1  0.36060000  0.68720000  0.85970000  1.0 -0.0621354318
O  O87  1  0.31280000  0.36060000  0.35970000  1.0 -0.0621354318
O  O88  1  0.68720000  0.63940000  0.35970000  1.0 -0.0621354318
O  O89  1  0.63940000  0.68720000  0.85970000  1.0 -0.0621354318
O  O90  1  0.68720000  0.36060000  0.35970000  1.0 -0.0621354318
O  O91  1  0.36060000  0.31280000  0.85970000  1.0 -0.0621354318
O  O92  1  0.31280000  0.63940000  0.35970000  1.0 -0.0621354318
O  O93  1  0.36060000  0.68720000  0.14030000  1.0 -0.0621354318
O  O94  1  0.63940000  0.31280000  0.14030000  1.0 -0.0621354318
O  O95  1  0.68720000  0.63940000  0.64030000  1.0 -0.0621354318
O  O96  1  0.31280000  0.36060000  0.64030000  1.0 -0.0621354318
O  O97  1  0.31850000  0.34950000  0.02950000  1.0 -0.0860671138
O  O98  1  0.34950000  0.68150000  0.52950000  1.0 -0.0860671138
O  O99  1  0.68150000  0.65050000  0.02950000  1.0 -0.0860671138
O  O100  1  0.65050000  0.31850000  0.52950000  1.0 -0.0860671138
O  O101  1  0.68150000  0.34950000  0.97050000  1.0 -0.0860671138
O  O102  1  0.31850000  0.65050000  0.97050000  1.0 -0.0860671138
O  O103  1  0.34950000  0.31850000  0.47050000  1.0 -0.0860671138
O  O104  1  0.65050000  0.68150000  0.47050000  1.0 -0.0860671138
O  O105  1  0.68150000  0.65050000  0.97050000  1.0 -0.0860671138
O  O106  1  0.65050000  0.31850000  0.47050000  1.0 -0.0860671138
O  O107  1  0.31850000  0.34950000  0.97050000  1.0 -0.0860671138
O  O108  1  0.34950000  0.68150000  0.47050000  1.0 -0.0860671138
O  O109  1  0.31850000  0.65050000  0.02950000  1.0 -0.0860671138
O  O110  1  0.68150000  0.34950000  0.02950000  1.0 -0.0860671138
O  O111  1  0.65050000  0.68150000  0.52950000  1.0 -0.0860671138
O  O112  1  0.34950000  0.31850000  0.52950000  1.0 -0.0860671138
