# DDEC6 charges by PACMAN v1.1 (https://github.com/mtap-research/PACMAN-charge/)
data_ERAMOB_ASR_pacman
_symmetry_space_group_name_H-M   'P 1'
_cell_length_a   35.05300000
_cell_length_b   35.05300000
_cell_length_c   12.66500000
_cell_angle_alpha   90.00000000
_cell_angle_beta   90.00000000
_cell_angle_gamma   90.00000000
_symmetry_Int_Tables_number   1
_chemical_formula_structural   Zr3H33(C20O7)2
_chemical_formula_sum   'Zr24 H264 C320 O112'
_cell_volume   15561.64772598
_cell_formula_units_Z   8
loop_
 _symmetry_equiv_pos_site_id
 _symmetry_equiv_pos_as_xyz
  1  'x, y, z'
loop_
 _atom_site_type_symbol
 _atom_site_label
 _atom_site_symmetry_multiplicity
 _atom_site_fract_x
 _atom_site_fract_y
 _atom_site_fract_z
 _atom_site_occupancy
 _atom_site_charge
Zr  Zr1  1  0.28803000  0.78803000  0.37839000  1.0 2.4355663139
Zr  Zr2  1  0.28803000  0.21197000  0.87839000  1.0 2.4355663139
Zr  Zr3  1  0.71197000  0.21197000  0.37839000  1.0 2.4355663139
Zr  Zr4  1  0.71197000  0.78803000  0.87839000  1.0 2.4355663139
Zr  Zr5  1  0.21197000  0.28803000  0.62161000  1.0 2.4355663139
Zr  Zr6  1  0.78803000  0.71197000  0.62161000  1.0 2.4355663139
Zr  Zr7  1  0.78803000  0.28803000  0.12161000  1.0 2.4355663139
Zr  Zr8  1  0.21197000  0.71197000  0.12161000  1.0 2.4355663139
Zr  Zr9  1  0.21786000  0.71786000  0.40183000  1.0 2.4299246448
Zr  Zr10  1  0.21786000  0.28214000  0.90183000  1.0 2.4299246448
Zr  Zr11  1  0.78214000  0.28214000  0.40183000  1.0 2.4299246448
Zr  Zr12  1  0.78214000  0.71786000  0.90183000  1.0 2.4299246448
Zr  Zr13  1  0.28214000  0.21786000  0.59817000  1.0 2.4299246448
Zr  Zr14  1  0.71786000  0.78214000  0.59817000  1.0 2.4299246448
Zr  Zr15  1  0.71786000  0.21786000  0.09817000  1.0 2.4299246448
Zr  Zr16  1  0.28214000  0.78214000  0.09817000  1.0 2.4299246448
Zr  Zr17  1  0.20031000  0.79969000  0.25000000  1.0 2.3698323446
Zr  Zr18  1  0.29969000  0.29969000  0.75000000  1.0 2.3698323446
Zr  Zr19  1  0.79969000  0.20031000  0.25000000  1.0 2.3698323446
Zr  Zr20  1  0.70031000  0.70031000  0.75000000  1.0 2.3698323446
Zr  Zr21  1  0.29969000  0.70031000  0.25000000  1.0 2.3698323446
Zr  Zr22  1  0.20031000  0.20031000  0.75000000  1.0 2.3698323446
Zr  Zr23  1  0.70031000  0.29969000  0.25000000  1.0 2.3698323446
Zr  Zr24  1  0.79969000  0.79969000  0.75000000  1.0 2.3698323446
H  H1  1  0.40670000  0.78270000  0.51750000  1.0 0.1312023563
H  H2  1  0.28270000  0.09330000  0.01750000  1.0 0.1312023563
H  H3  1  0.59330000  0.21730000  0.51750000  1.0 0.1312023563
H  H4  1  0.71730000  0.90670000  0.01750000  1.0 0.1312023563
H  H5  1  0.09330000  0.28270000  0.48250000  1.0 0.1312023563
H  H6  1  0.90670000  0.71730000  0.48250000  1.0 0.1312023563
H  H7  1  0.78270000  0.40670000  0.98250000  1.0 0.1312023563
H  H8  1  0.21730000  0.59330000  0.98250000  1.0 0.1312023563
H  H9  1  0.09330000  0.71730000  0.98250000  1.0 0.1312023563
H  H10  1  0.21730000  0.40670000  0.48250000  1.0 0.1312023563
H  H11  1  0.90670000  0.28270000  0.98250000  1.0 0.1312023563
H  H12  1  0.78270000  0.59330000  0.48250000  1.0 0.1312023563
H  H13  1  0.40670000  0.21730000  0.01750000  1.0 0.1312023563
H  H14  1  0.59330000  0.78270000  0.01750000  1.0 0.1312023563
H  H15  1  0.71730000  0.09330000  0.51750000  1.0 0.1312023563
H  H16  1  0.28270000  0.90670000  0.51750000  1.0 0.1312023563
H  H17  1  0.41540000  0.68550000  0.34560000  1.0 0.1312023563
H  H18  1  0.18550000  0.08460000  0.84560000  1.0 0.1312023563
H  H19  1  0.58460000  0.31450000  0.34560000  1.0 0.1312023563
H  H20  1  0.81450000  0.91540000  0.84560000  1.0 0.1312023563
H  H21  1  0.08460000  0.18550000  0.65440000  1.0 0.1312023563
H  H22  1  0.91540000  0.81450000  0.65440000  1.0 0.1312023563
H  H23  1  0.68550000  0.41540000  0.15440000  1.0 0.1312023563
H  H24  1  0.31450000  0.58460000  0.15440000  1.0 0.1312023563
H  H25  1  0.08460000  0.81450000  0.15440000  1.0 0.1312023563
H  H26  1  0.31450000  0.41540000  0.65440000  1.0 0.1312023563
H  H27  1  0.91540000  0.18550000  0.15440000  1.0 0.1312023563
H  H28  1  0.68550000  0.58460000  0.65440000  1.0 0.1312023563
H  H29  1  0.41540000  0.31450000  0.84560000  1.0 0.1312023563
H  H30  1  0.58460000  0.68550000  0.84560000  1.0 0.1312023563
H  H31  1  0.81450000  0.08460000  0.34560000  1.0 0.1312023563
H  H32  1  0.18550000  0.91540000  0.34560000  1.0 0.1312023563
H  H33  1  0.45680000  0.81050000  0.59780000  1.0 0.1012766518
H  H34  1  0.31050000  0.04320000  0.09780000  1.0 0.1012766518
H  H35  1  0.54320000  0.18950000  0.59780000  1.0 0.1012766518
H  H36  1  0.68950000  0.95680000  0.09780000  1.0 0.1012766518
H  H37  1  0.04320000  0.31050000  0.40220000  1.0 0.1012766518
H  H38  1  0.95680000  0.68950000  0.40220000  1.0 0.1012766518
H  H39  1  0.81050000  0.45680000  0.90220000  1.0 0.1012766518
H  H40  1  0.18950000  0.54320000  0.90220000  1.0 0.1012766518
H  H41  1  0.04320000  0.68950000  0.90220000  1.0 0.1012766518
H  H42  1  0.18950000  0.45680000  0.40220000  1.0 0.1012766518
H  H43  1  0.95680000  0.31050000  0.90220000  1.0 0.1012766518
H  H44  1  0.81050000  0.54320000  0.40220000  1.0 0.1012766518
H  H45  1  0.45680000  0.18950000  0.09780000  1.0 0.1012766518
H  H46  1  0.54320000  0.81050000  0.09780000  1.0 0.1012766518
H  H47  1  0.68950000  0.04320000  0.59780000  1.0 0.1012766518
H  H48  1  0.31050000  0.95680000  0.59780000  1.0 0.1012766518
H  H49  1  0.48860000  0.78180000  0.64150000  1.0 0.1199576085
H  H50  1  0.28180000  0.01140000  0.14150000  1.0 0.1199576085
H  H51  1  0.51140000  0.21820000  0.64150000  1.0 0.1199576085
H  H52  1  0.71820000  0.98860000  0.14150000  1.0 0.1199576085
H  H53  1  0.01140000  0.28180000  0.35850000  1.0 0.1199576085
H  H54  1  0.98860000  0.71820000  0.35850000  1.0 0.1199576085
H  H55  1  0.78180000  0.48860000  0.85850000  1.0 0.1199576085
H  H56  1  0.21820000  0.51140000  0.85850000  1.0 0.1199576085
H  H57  1  0.01140000  0.71820000  0.85850000  1.0 0.1199576085
H  H58  1  0.21820000  0.48860000  0.35850000  1.0 0.1199576085
H  H59  1  0.98860000  0.28180000  0.85850000  1.0 0.1199576085
H  H60  1  0.78180000  0.51140000  0.35850000  1.0 0.1199576085
H  H61  1  0.48860000  0.21820000  0.14150000  1.0 0.1199576085
H  H62  1  0.51140000  0.78180000  0.14150000  1.0 0.1199576085
H  H63  1  0.71820000  0.01140000  0.64150000  1.0 0.1199576085
H  H64  1  0.28180000  0.98860000  0.64150000  1.0 0.1199576085
H  H65  1  0.49680000  0.80640000  0.53760000  1.0 0.1312023563
H  H66  1  0.30640000  0.00320000  0.03760000  1.0 0.1312023563
H  H67  1  0.50320000  0.19360000  0.53760000  1.0 0.1312023563
H  H68  1  0.69360000  0.99680000  0.03760000  1.0 0.1312023563
H  H69  1  0.00320000  0.30640000  0.46240000  1.0 0.1312023563
H  H70  1  0.99680000  0.69360000  0.46240000  1.0 0.1312023563
H  H71  1  0.80640000  0.49680000  0.96240000  1.0 0.1312023563
H  H72  1  0.19360000  0.50320000  0.96240000  1.0 0.1312023563
H  H73  1  0.00320000  0.69360000  0.96240000  1.0 0.1312023563
H  H74  1  0.19360000  0.49680000  0.46240000  1.0 0.1312023563
H  H75  1  0.99680000  0.30640000  0.96240000  1.0 0.1312023563
H  H76  1  0.80640000  0.50320000  0.46240000  1.0 0.1312023563
H  H77  1  0.49680000  0.19360000  0.03760000  1.0 0.1312023563
H  H78  1  0.50320000  0.80640000  0.03760000  1.0 0.1312023563
H  H79  1  0.69360000  0.00320000  0.53760000  1.0 0.1312023563
H  H80  1  0.30640000  0.99680000  0.53760000  1.0 0.1312023563
H  H81  1  0.48090000  0.68330000  0.38060000  1.0 0.0278524336
H  H82  1  0.18330000  0.01910000  0.88060000  1.0 0.0278524336
H  H83  1  0.51910000  0.31670000  0.38060000  1.0 0.0278524336
H  H84  1  0.81670000  0.98090000  0.88060000  1.0 0.0278524336
H  H85  1  0.01910000  0.18330000  0.61940000  1.0 0.0278524336
H  H86  1  0.98090000  0.81670000  0.61940000  1.0 0.0278524336
H  H87  1  0.68330000  0.48090000  0.11940000  1.0 0.0278524336
H  H88  1  0.31670000  0.51910000  0.11940000  1.0 0.0278524336
H  H89  1  0.01910000  0.81670000  0.11940000  1.0 0.0278524336
H  H90  1  0.31670000  0.48090000  0.61940000  1.0 0.0278524336
H  H91  1  0.98090000  0.18330000  0.11940000  1.0 0.0278524336
H  H92  1  0.68330000  0.51910000  0.61940000  1.0 0.0278524336
H  H93  1  0.48090000  0.31670000  0.88060000  1.0 0.0278524336
H  H94  1  0.51910000  0.68330000  0.88060000  1.0 0.0278524336
H  H95  1  0.81670000  0.01910000  0.38060000  1.0 0.0278524336
H  H96  1  0.18330000  0.98090000  0.38060000  1.0 0.0278524336
H  H97  1  0.60530000  0.77210000  0.43370000  1.0 0.1384972716
H  H98  1  0.27210000  0.89470000  0.93370000  1.0 0.1384972716
H  H99  1  0.39470000  0.22790000  0.43370000  1.0 0.1384972716
H  H100  1  0.72790000  0.10530000  0.93370000  1.0 0.1384972716
H  H101  1  0.89470000  0.27210000  0.56630000  1.0 0.1384972716
H  H102  1  0.10530000  0.72790000  0.56630000  1.0 0.1384972716
H  H103  1  0.77210000  0.60530000  0.06630000  1.0 0.1384972716
H  H104  1  0.22790000  0.39470000  0.06630000  1.0 0.1384972716
H  H105  1  0.89470000  0.72790000  0.06630000  1.0 0.1384972716
H  H106  1  0.22790000  0.60530000  0.56630000  1.0 0.1384972716
H  H107  1  0.10530000  0.27210000  0.06630000  1.0 0.1384972716
H  H108  1  0.77210000  0.39470000  0.56630000  1.0 0.1384972716
H  H109  1  0.60530000  0.22790000  0.93370000  1.0 0.1384972716
H  H110  1  0.39470000  0.77210000  0.93370000  1.0 0.1384972716
H  H111  1  0.72790000  0.89470000  0.43370000  1.0 0.1384972716
H  H112  1  0.27210000  0.10530000  0.43370000  1.0 0.1384972716
H  H113  1  0.52080000  0.68870000  0.60290000  1.0 0.1493631594
H  H114  1  0.18870000  0.97920000  0.10290000  1.0 0.1493631594
H  H115  1  0.47920000  0.31130000  0.60290000  1.0 0.1493631594
H  H116  1  0.81130000  0.02080000  0.10290000  1.0 0.1493631594
H  H117  1  0.97920000  0.18870000  0.39710000  1.0 0.1493631594
H  H118  1  0.02080000  0.81130000  0.39710000  1.0 0.1493631594
H  H119  1  0.68870000  0.52080000  0.89710000  1.0 0.1493631594
H  H120  1  0.31130000  0.47920000  0.89710000  1.0 0.1493631594
H  H121  1  0.97920000  0.81130000  0.89710000  1.0 0.1493631594
H  H122  1  0.31130000  0.52080000  0.39710000  1.0 0.1493631594
H  H123  1  0.02080000  0.18870000  0.89710000  1.0 0.1493631594
H  H124  1  0.68870000  0.47920000  0.39710000  1.0 0.1493631594
H  H125  1  0.52080000  0.31130000  0.10290000  1.0 0.1493631594
H  H126  1  0.47920000  0.68870000  0.10290000  1.0 0.1493631594
H  H127  1  0.81130000  0.97920000  0.60290000  1.0 0.1493631594
H  H128  1  0.18870000  0.02080000  0.60290000  1.0 0.1493631594
H  H129  1  0.58590000  0.68700000  0.64370000  1.0 0.1384972716
H  H130  1  0.18700000  0.91410000  0.14370000  1.0 0.1384972716
H  H131  1  0.41410000  0.31300000  0.64370000  1.0 0.1384972716
H  H132  1  0.81300000  0.08590000  0.14370000  1.0 0.1384972716
H  H133  1  0.91410000  0.18700000  0.35630000  1.0 0.1384972716
H  H134  1  0.08590000  0.81300000  0.35630000  1.0 0.1384972716
H  H135  1  0.68700000  0.58590000  0.85630000  1.0 0.1384972716
H  H136  1  0.31300000  0.41410000  0.85630000  1.0 0.1384972716
H  H137  1  0.91410000  0.81300000  0.85630000  1.0 0.1384972716
H  H138  1  0.31300000  0.58590000  0.35630000  1.0 0.1384972716
H  H139  1  0.08590000  0.18700000  0.85630000  1.0 0.1384972716
H  H140  1  0.68700000  0.41410000  0.35630000  1.0 0.1384972716
H  H141  1  0.58590000  0.31300000  0.14370000  1.0 0.1384972716
H  H142  1  0.41410000  0.68700000  0.14370000  1.0 0.1384972716
H  H143  1  0.81300000  0.91410000  0.64370000  1.0 0.1384972716
H  H144  1  0.18700000  0.08590000  0.64370000  1.0 0.1384972716
H  H145  1  0.53160000  0.81030000  0.39350000  1.0 0.1493631594
H  H146  1  0.31030000  0.96840000  0.89350000  1.0 0.1493631594
H  H147  1  0.46840000  0.18970000  0.39350000  1.0 0.1493631594
H  H148  1  0.68970000  0.03160000  0.89350000  1.0 0.1493631594
H  H149  1  0.96840000  0.31030000  0.60650000  1.0 0.1493631594
H  H150  1  0.03160000  0.68970000  0.60650000  1.0 0.1493631594
H  H151  1  0.81030000  0.53160000  0.10650000  1.0 0.1493631594
H  H152  1  0.18970000  0.46840000  0.10650000  1.0 0.1493631594
H  H153  1  0.96840000  0.68970000  0.10650000  1.0 0.1493631594
H  H154  1  0.18970000  0.53160000  0.60650000  1.0 0.1493631594
H  H155  1  0.03160000  0.31030000  0.10650000  1.0 0.1493631594
H  H156  1  0.81030000  0.46840000  0.60650000  1.0 0.1493631594
H  H157  1  0.53160000  0.18970000  0.89350000  1.0 0.1493631594
H  H158  1  0.46840000  0.81030000  0.89350000  1.0 0.1493631594
H  H159  1  0.68970000  0.96840000  0.39350000  1.0 0.1493631594
H  H160  1  0.31030000  0.03160000  0.39350000  1.0 0.1493631594
H  H161  1  0.55360000  0.78800000  0.30160000  1.0 0.1384972716
H  H162  1  0.28800000  0.94640000  0.80160000  1.0 0.1384972716
H  H163  1  0.44640000  0.21200000  0.30160000  1.0 0.1384972716
H  H164  1  0.71200000  0.05360000  0.80160000  1.0 0.1384972716
H  H165  1  0.94640000  0.28800000  0.69840000  1.0 0.1384972716
H  H166  1  0.05360000  0.71200000  0.69840000  1.0 0.1384972716
H  H167  1  0.78800000  0.55360000  0.19840000  1.0 0.1384972716
H  H168  1  0.21200000  0.44640000  0.19840000  1.0 0.1384972716
H  H169  1  0.94640000  0.71200000  0.19840000  1.0 0.1384972716
H  H170  1  0.21200000  0.55360000  0.69840000  1.0 0.1384972716
H  H171  1  0.05360000  0.28800000  0.19840000  1.0 0.1384972716
H  H172  1  0.78800000  0.44640000  0.69840000  1.0 0.1384972716
H  H173  1  0.55360000  0.21200000  0.80160000  1.0 0.1384972716
H  H174  1  0.44640000  0.78800000  0.80160000  1.0 0.1384972716
H  H175  1  0.71200000  0.94640000  0.30160000  1.0 0.1384972716
H  H176  1  0.28800000  0.05360000  0.30160000  1.0 0.1384972716
H  H177  1  0.51080000  0.77620000  0.33190000  1.0 0.1493631594
H  H178  1  0.27620000  0.98920000  0.83190000  1.0 0.1493631594
H  H179  1  0.48920000  0.22380000  0.33190000  1.0 0.1493631594
H  H180  1  0.72380000  0.01080000  0.83190000  1.0 0.1493631594
H  H181  1  0.98920000  0.27620000  0.66810000  1.0 0.1493631594
H  H182  1  0.01080000  0.72380000  0.66810000  1.0 0.1493631594
H  H183  1  0.77620000  0.51080000  0.16810000  1.0 0.1493631594
H  H184  1  0.22380000  0.48920000  0.16810000  1.0 0.1493631594
H  H185  1  0.98920000  0.72380000  0.16810000  1.0 0.1493631594
H  H186  1  0.22380000  0.51080000  0.66810000  1.0 0.1493631594
H  H187  1  0.01080000  0.27620000  0.16810000  1.0 0.1493631594
H  H188  1  0.77620000  0.48920000  0.66810000  1.0 0.1493631594
H  H189  1  0.51080000  0.22380000  0.83190000  1.0 0.1493631594
H  H190  1  0.48920000  0.77620000  0.83190000  1.0 0.1493631594
H  H191  1  0.72380000  0.98920000  0.33190000  1.0 0.1493631594
H  H192  1  0.27620000  0.01080000  0.33190000  1.0 0.1493631594
H  H193  1  0.27810000  0.77810000  0.74540000  1.0 0.1493631594
H  H194  1  0.27810000  0.22190000  0.24540000  1.0 0.1493631594
H  H195  1  0.72190000  0.22190000  0.74540000  1.0 0.1493631594
H  H196  1  0.72190000  0.77810000  0.24540000  1.0 0.1493631594
H  H197  1  0.22190000  0.27810000  0.25460000  1.0 0.1493631594
H  H198  1  0.77810000  0.72190000  0.25460000  1.0 0.1493631594
H  H199  1  0.77810000  0.27810000  0.75460000  1.0 0.1493631594
H  H200  1  0.22190000  0.72190000  0.75460000  1.0 0.1493631594
H  H201  1  0.46990000  0.77730000  0.57110000  1.0 0.0157472815
H  H202  1  0.27730000  0.03010000  0.07110000  1.0 0.0157472815
H  H203  1  0.53010000  0.22270000  0.57110000  1.0 0.0157472815
H  H204  1  0.72270000  0.96990000  0.07110000  1.0 0.0157472815
H  H205  1  0.03010000  0.27730000  0.42890000  1.0 0.0157472815
H  H206  1  0.96990000  0.72270000  0.42890000  1.0 0.0157472815
H  H207  1  0.77730000  0.46990000  0.92890000  1.0 0.0157472815
H  H208  1  0.22270000  0.53010000  0.92890000  1.0 0.0157472815
H  H209  1  0.03010000  0.72270000  0.92890000  1.0 0.0157472815
H  H210  1  0.22270000  0.46990000  0.42890000  1.0 0.0157472815
H  H211  1  0.96990000  0.27730000  0.92890000  1.0 0.0157472815
H  H212  1  0.77730000  0.53010000  0.42890000  1.0 0.0157472815
H  H213  1  0.46990000  0.22270000  0.07110000  1.0 0.0157472815
H  H214  1  0.53010000  0.77730000  0.07110000  1.0 0.0157472815
H  H215  1  0.72270000  0.03010000  0.57110000  1.0 0.0157472815
H  H216  1  0.27730000  0.96990000  0.57110000  1.0 0.0157472815
H  H217  1  0.51970000  0.67860000  0.36220000  1.0 0.1312023563
H  H218  1  0.17860000  0.98030000  0.86220000  1.0 0.1312023563
H  H219  1  0.48030000  0.32140000  0.36220000  1.0 0.1312023563
H  H220  1  0.82140000  0.01970000  0.86220000  1.0 0.1312023563
H  H221  1  0.98030000  0.17860000  0.63780000  1.0 0.1312023563
H  H222  1  0.01970000  0.82140000  0.63780000  1.0 0.1312023563
H  H223  1  0.67860000  0.51970000  0.13780000  1.0 0.1312023563
H  H224  1  0.32140000  0.48030000  0.13780000  1.0 0.1312023563
H  H225  1  0.98030000  0.82140000  0.13780000  1.0 0.1312023563
H  H226  1  0.32140000  0.51970000  0.63780000  1.0 0.1312023563
H  H227  1  0.01970000  0.17860000  0.13780000  1.0 0.1312023563
H  H228  1  0.67860000  0.48030000  0.63780000  1.0 0.1312023563
H  H229  1  0.51970000  0.32140000  0.86220000  1.0 0.1312023563
H  H230  1  0.48030000  0.67860000  0.86220000  1.0 0.1312023563
H  H231  1  0.82140000  0.98030000  0.36220000  1.0 0.1312023563
H  H232  1  0.17860000  0.01970000  0.36220000  1.0 0.1312023563
H  H233  1  0.48480000  0.64950000  0.37300000  1.0 0.0733769827
H  H234  1  0.14950000  0.01520000  0.87300000  1.0 0.0733769827
H  H235  1  0.51520000  0.35050000  0.37300000  1.0 0.0733769827
H  H236  1  0.85050000  0.98480000  0.87300000  1.0 0.0733769827
H  H237  1  0.01520000  0.14950000  0.62700000  1.0 0.0733769827
H  H238  1  0.98480000  0.85050000  0.62700000  1.0 0.0733769827
H  H239  1  0.64950000  0.48480000  0.12700000  1.0 0.0733769827
H  H240  1  0.35050000  0.51520000  0.12700000  1.0 0.0733769827
H  H241  1  0.01520000  0.85050000  0.12700000  1.0 0.0733769827
H  H242  1  0.35050000  0.48480000  0.62700000  1.0 0.0733769827
H  H243  1  0.98480000  0.14950000  0.12700000  1.0 0.0733769827
H  H244  1  0.64950000  0.51520000  0.62700000  1.0 0.0733769827
H  H245  1  0.48480000  0.35050000  0.87300000  1.0 0.0733769827
H  H246  1  0.51520000  0.64950000  0.87300000  1.0 0.0733769827
H  H247  1  0.85050000  0.01520000  0.37300000  1.0 0.0733769827
H  H248  1  0.14950000  0.98480000  0.37300000  1.0 0.0733769827
H  H249  1  0.48840000  0.67600000  0.27070000  1.0 0.1199576085
H  H250  1  0.17600000  0.01160000  0.77070000  1.0 0.1199576085
H  H251  1  0.51160000  0.32400000  0.27070000  1.0 0.1199576085
H  H252  1  0.82400000  0.98840000  0.77070000  1.0 0.1199576085
H  H253  1  0.01160000  0.17600000  0.72930000  1.0 0.1199576085
H  H254  1  0.98840000  0.82400000  0.72930000  1.0 0.1199576085
H  H255  1  0.67600000  0.48840000  0.22930000  1.0 0.1199576085
H  H256  1  0.32400000  0.51160000  0.22930000  1.0 0.1199576085
H  H257  1  0.01160000  0.82400000  0.22930000  1.0 0.1199576085
H  H258  1  0.32400000  0.48840000  0.72930000  1.0 0.1199576085
H  H259  1  0.98840000  0.17600000  0.22930000  1.0 0.1199576085
H  H260  1  0.67600000  0.51160000  0.72930000  1.0 0.1199576085
H  H261  1  0.48840000  0.32400000  0.77070000  1.0 0.1199576085
H  H262  1  0.51160000  0.67600000  0.77070000  1.0 0.1199576085
H  H263  1  0.82400000  0.01160000  0.27070000  1.0 0.1199576085
H  H264  1  0.17600000  0.98840000  0.27070000  1.0 0.1199576085
C  C1  1  0.36329000  0.73487000  0.40450000  1.0 0.6234975684
C  C2  1  0.23487000  0.13671000  0.90450000  1.0 0.6234975684
C  C3  1  0.63671000  0.26513000  0.40450000  1.0 0.6234975684
C  C4  1  0.76513000  0.86329000  0.90450000  1.0 0.6234975684
C  C5  1  0.13671000  0.23487000  0.59550000  1.0 0.6234975684
C  C6  1  0.86329000  0.76513000  0.59550000  1.0 0.6234975684
C  C7  1  0.73487000  0.36329000  0.09550000  1.0 0.6234975684
C  C8  1  0.26513000  0.63671000  0.09550000  1.0 0.6234975684
C  C9  1  0.13671000  0.76513000  0.09550000  1.0 0.6234975684
C  C10  1  0.26513000  0.36329000  0.59550000  1.0 0.6234975684
C  C11  1  0.86329000  0.23487000  0.09550000  1.0 0.6234975684
C  C12  1  0.73487000  0.63671000  0.59550000  1.0 0.6234975684
C  C13  1  0.36329000  0.26513000  0.90450000  1.0 0.6234975684
C  C14  1  0.63671000  0.73487000  0.90450000  1.0 0.6234975684
C  C15  1  0.76513000  0.13671000  0.40450000  1.0 0.6234975684
C  C16  1  0.23487000  0.86329000  0.40450000  1.0 0.6234975684
C  C17  1  0.40485000  0.73432000  0.42820000  1.0 -0.0412971091
C  C18  1  0.23432000  0.09515000  0.92820000  1.0 -0.0412971091
C  C19  1  0.59515000  0.26568000  0.42820000  1.0 -0.0412971091
C  C20  1  0.76568000  0.90485000  0.92820000  1.0 -0.0412971091
C  C21  1  0.09515000  0.23432000  0.57180000  1.0 -0.0412971091
C  C22  1  0.90485000  0.76568000  0.57180000  1.0 -0.0412971091
C  C23  1  0.73432000  0.40485000  0.07180000  1.0 -0.0412971091
C  C24  1  0.26568000  0.59515000  0.07180000  1.0 -0.0412971091
C  C25  1  0.09515000  0.76568000  0.07180000  1.0 -0.0412971091
C  C26  1  0.26568000  0.40485000  0.57180000  1.0 -0.0412971091
C  C27  1  0.90485000  0.23432000  0.07180000  1.0 -0.0412971091
C  C28  1  0.73432000  0.59515000  0.57180000  1.0 -0.0412971091
C  C29  1  0.40485000  0.26568000  0.92820000  1.0 -0.0412971091
C  C30  1  0.59515000  0.73432000  0.92820000  1.0 -0.0412971091
C  C31  1  0.76568000  0.09515000  0.42820000  1.0 -0.0412971091
C  C32  1  0.23432000  0.90485000  0.42820000  1.0 -0.0412971091
C  C33  1  0.42173000  0.76254000  0.48970000  1.0 -0.1507485064
C  C34  1  0.26254000  0.07827000  0.98970000  1.0 -0.1507485064
C  C35  1  0.57827000  0.23746000  0.48970000  1.0 -0.1507485064
C  C36  1  0.73746000  0.92173000  0.98970000  1.0 -0.1507485064
C  C37  1  0.07827000  0.26254000  0.51030000  1.0 -0.1507485064
C  C38  1  0.92173000  0.73746000  0.51030000  1.0 -0.1507485064
C  C39  1  0.76254000  0.42173000  0.01030000  1.0 -0.1507485064
C  C40  1  0.23746000  0.57827000  0.01030000  1.0 -0.1507485064
C  C41  1  0.07827000  0.73746000  0.01030000  1.0 -0.1507485064
C  C42  1  0.23746000  0.42173000  0.51030000  1.0 -0.1507485064
C  C43  1  0.92173000  0.26254000  0.01030000  1.0 -0.1507485064
C  C44  1  0.76254000  0.57827000  0.51030000  1.0 -0.1507485064
C  C45  1  0.42173000  0.23746000  0.98970000  1.0 -0.1507485064
C  C46  1  0.57827000  0.76254000  0.98970000  1.0 -0.1507485064
C  C47  1  0.73746000  0.07827000  0.48970000  1.0 -0.1507485064
C  C48  1  0.26254000  0.92173000  0.48970000  1.0 -0.1507485064
C  C49  1  0.48270000  0.73172000  0.46980000  1.0 -0.0744935662
C  C50  1  0.23172000  0.01730000  0.96980000  1.0 -0.0744935662
C  C51  1  0.51730000  0.26828000  0.46980000  1.0 -0.0744935662
C  C52  1  0.76828000  0.98270000  0.96980000  1.0 -0.0744935662
C  C53  1  0.01730000  0.23172000  0.53020000  1.0 -0.0744935662
C  C54  1  0.98270000  0.76828000  0.53020000  1.0 -0.0744935662
C  C55  1  0.73172000  0.48270000  0.03020000  1.0 -0.0744935662
C  C56  1  0.26828000  0.51730000  0.03020000  1.0 -0.0744935662
C  C57  1  0.01730000  0.76828000  0.03020000  1.0 -0.0744935662
C  C58  1  0.26828000  0.48270000  0.53020000  1.0 -0.0744935662
C  C59  1  0.98270000  0.23172000  0.03020000  1.0 -0.0744935662
C  C60  1  0.73172000  0.51730000  0.53020000  1.0 -0.0744935662
C  C61  1  0.48270000  0.26828000  0.96980000  1.0 -0.0744935662
C  C62  1  0.51730000  0.73172000  0.96980000  1.0 -0.0744935662
C  C63  1  0.76828000  0.01730000  0.46980000  1.0 -0.0744935662
C  C64  1  0.23172000  0.98270000  0.46980000  1.0 -0.0744935662
C  C65  1  0.42692000  0.70482000  0.38760000  1.0 -0.1425391442
C  C66  1  0.20482000  0.07308000  0.88760000  1.0 -0.1425391442
C  C67  1  0.57308000  0.29518000  0.38760000  1.0 -0.1425391442
C  C68  1  0.79518000  0.92692000  0.88760000  1.0 -0.1425391442
C  C69  1  0.07308000  0.20482000  0.61240000  1.0 -0.1425391442
C  C70  1  0.92692000  0.79518000  0.61240000  1.0 -0.1425391442
C  C71  1  0.70482000  0.42692000  0.11240000  1.0 -0.1425391442
C  C72  1  0.29518000  0.57308000  0.11240000  1.0 -0.1425391442
C  C73  1  0.07308000  0.79518000  0.11240000  1.0 -0.1425391442
C  C74  1  0.29518000  0.42692000  0.61240000  1.0 -0.1425391442
C  C75  1  0.92692000  0.20482000  0.11240000  1.0 -0.1425391442
C  C76  1  0.70482000  0.57308000  0.61240000  1.0 -0.1425391442
C  C77  1  0.42692000  0.29518000  0.88760000  1.0 -0.1425391442
C  C78  1  0.57308000  0.70482000  0.88760000  1.0 -0.1425391442
C  C79  1  0.79518000  0.07308000  0.38760000  1.0 -0.1425391442
C  C80  1  0.20482000  0.92692000  0.38760000  1.0 -0.1425391442
C  C81  1  0.46065000  0.76123000  0.51050000  1.0 -0.0172040637
C  C82  1  0.26123000  0.03935000  0.01050000  1.0 -0.0172040637
C  C83  1  0.53935000  0.23877000  0.51050000  1.0 -0.0172040637
C  C84  1  0.73877000  0.96065000  0.01050000  1.0 -0.0172040637
C  C85  1  0.03935000  0.26123000  0.48950000  1.0 -0.0172040637
C  C86  1  0.96065000  0.73877000  0.48950000  1.0 -0.0172040637
C  C87  1  0.76123000  0.46065000  0.98950000  1.0 -0.0172040637
C  C88  1  0.23877000  0.53935000  0.98950000  1.0 -0.0172040637
C  C89  1  0.03935000  0.73877000  0.98950000  1.0 -0.0172040637
C  C90  1  0.23877000  0.46065000  0.48950000  1.0 -0.0172040637
C  C91  1  0.96065000  0.26123000  0.98950000  1.0 -0.0172040637
C  C92  1  0.76123000  0.53935000  0.48950000  1.0 -0.0172040637
C  C93  1  0.46065000  0.23877000  0.01050000  1.0 -0.0172040637
C  C94  1  0.53935000  0.76123000  0.01050000  1.0 -0.0172040637
C  C95  1  0.73877000  0.03935000  0.51050000  1.0 -0.0172040637
C  C96  1  0.26123000  0.96065000  0.51050000  1.0 -0.0172040637
C  C97  1  0.47720000  0.79270000  0.57770000  1.0 -0.3019604596
C  C98  1  0.29270000  0.02280000  0.07770000  1.0 -0.3019604596
C  C99  1  0.52280000  0.20730000  0.57770000  1.0 -0.3019604596
C  C100  1  0.70730000  0.97720000  0.07770000  1.0 -0.3019604596
C  C101  1  0.02280000  0.29270000  0.42230000  1.0 -0.3019604596
C  C102  1  0.97720000  0.70730000  0.42230000  1.0 -0.3019604596
C  C103  1  0.79270000  0.47720000  0.92230000  1.0 -0.3019604596
C  C104  1  0.20730000  0.52280000  0.92230000  1.0 -0.3019604596
C  C105  1  0.02280000  0.70730000  0.92230000  1.0 -0.3019604596
C  C106  1  0.20730000  0.47720000  0.42230000  1.0 -0.3019604596
C  C107  1  0.97720000  0.29270000  0.92230000  1.0 -0.3019604596
C  C108  1  0.79270000  0.52280000  0.42230000  1.0 -0.3019604596
C  C109  1  0.47720000  0.20730000  0.07770000  1.0 -0.3019604596
C  C110  1  0.52280000  0.79270000  0.07770000  1.0 -0.3019604596
C  C111  1  0.70730000  0.02280000  0.57770000  1.0 -0.3019604596
C  C112  1  0.29270000  0.97720000  0.57770000  1.0 -0.3019604596
C  C113  1  0.46583000  0.70351000  0.40840000  1.0 0.0027955124
C  C114  1  0.20351000  0.03417000  0.90840000  1.0 0.0027955124
C  C115  1  0.53417000  0.29649000  0.40840000  1.0 0.0027955124
C  C116  1  0.79649000  0.96583000  0.90840000  1.0 0.0027955124
C  C117  1  0.03417000  0.20351000  0.59160000  1.0 0.0027955124
C  C118  1  0.96583000  0.79649000  0.59160000  1.0 0.0027955124
C  C119  1  0.70351000  0.46583000  0.09160000  1.0 0.0027955124
C  C120  1  0.29649000  0.53417000  0.09160000  1.0 0.0027955124
C  C121  1  0.03417000  0.79649000  0.09160000  1.0 0.0027955124
C  C122  1  0.29649000  0.46583000  0.59160000  1.0 0.0027955124
C  C123  1  0.96583000  0.20351000  0.09160000  1.0 0.0027955124
C  C124  1  0.70351000  0.53417000  0.59160000  1.0 0.0027955124
C  C125  1  0.46583000  0.29649000  0.90840000  1.0 0.0027955124
C  C126  1  0.53417000  0.70351000  0.90840000  1.0 0.0027955124
C  C127  1  0.79649000  0.03417000  0.40840000  1.0 0.0027955124
C  C128  1  0.20351000  0.96583000  0.40840000  1.0 0.0027955124
C  C129  1  0.64330000  0.72719000  0.57150000  1.0 0.6322403031
C  C130  1  0.22719000  0.85670000  0.07150000  1.0 0.6322403031
C  C131  1  0.35670000  0.27281000  0.57150000  1.0 0.6322403031
C  C132  1  0.77281000  0.14330000  0.07150000  1.0 0.6322403031
C  C133  1  0.85670000  0.22719000  0.42850000  1.0 0.6322403031
C  C134  1  0.14330000  0.77281000  0.42850000  1.0 0.6322403031
C  C135  1  0.72719000  0.64330000  0.92850000  1.0 0.6322403031
C  C136  1  0.27281000  0.35670000  0.92850000  1.0 0.6322403031
C  C137  1  0.85670000  0.77281000  0.92850000  1.0 0.6322403031
C  C138  1  0.27281000  0.64330000  0.42850000  1.0 0.6322403031
C  C139  1  0.14330000  0.22719000  0.92850000  1.0 0.6322403031
C  C140  1  0.72719000  0.35670000  0.42850000  1.0 0.6322403031
C  C141  1  0.64330000  0.27281000  0.07150000  1.0 0.6322403031
C  C142  1  0.35670000  0.72719000  0.07150000  1.0 0.6322403031
C  C143  1  0.77281000  0.85670000  0.57150000  1.0 0.6322403031
C  C144  1  0.22719000  0.14330000  0.57150000  1.0 0.6322403031
C  C145  1  0.60172000  0.72938000  0.54260000  1.0 -0.0101601874
C  C146  1  0.22938000  0.89828000  0.04260000  1.0 -0.0101601874
C  C147  1  0.39828000  0.27062000  0.54260000  1.0 -0.0101601874
C  C148  1  0.77062000  0.10172000  0.04260000  1.0 -0.0101601874
C  C149  1  0.89828000  0.22938000  0.45740000  1.0 -0.0101601874
C  C150  1  0.10172000  0.77062000  0.45740000  1.0 -0.0101601874
C  C151  1  0.72938000  0.60172000  0.95740000  1.0 -0.0101601874
C  C152  1  0.27062000  0.39828000  0.95740000  1.0 -0.0101601874
C  C153  1  0.89828000  0.77062000  0.95740000  1.0 -0.0101601874
C  C154  1  0.27062000  0.60172000  0.45740000  1.0 -0.0101601874
C  C155  1  0.10172000  0.22938000  0.95740000  1.0 -0.0101601874
C  C156  1  0.72938000  0.39828000  0.45740000  1.0 -0.0101601874
C  C157  1  0.60172000  0.27062000  0.04260000  1.0 -0.0101601874
C  C158  1  0.39828000  0.72938000  0.04260000  1.0 -0.0101601874
C  C159  1  0.77062000  0.89828000  0.54260000  1.0 -0.0101601874
C  C160  1  0.22938000  0.10172000  0.54260000  1.0 -0.0101601874
C  C161  1  0.58818000  0.75514000  0.46800000  1.0 -0.1507485064
C  C162  1  0.25514000  0.91182000  0.96800000  1.0 -0.1507485064
C  C163  1  0.41182000  0.24486000  0.46800000  1.0 -0.1507485064
C  C164  1  0.74486000  0.08818000  0.96800000  1.0 -0.1507485064
C  C165  1  0.91182000  0.25514000  0.53200000  1.0 -0.1507485064
C  C166  1  0.08818000  0.74486000  0.53200000  1.0 -0.1507485064
C  C167  1  0.75514000  0.58818000  0.03200000  1.0 -0.1507485064
C  C168  1  0.24486000  0.41182000  0.03200000  1.0 -0.1507485064
C  C169  1  0.91182000  0.74486000  0.03200000  1.0 -0.1507485064
C  C170  1  0.24486000  0.58818000  0.53200000  1.0 -0.1507485064
C  C171  1  0.08818000  0.25514000  0.03200000  1.0 -0.1507485064
C  C172  1  0.75514000  0.41182000  0.53200000  1.0 -0.1507485064
C  C173  1  0.58818000  0.24486000  0.96800000  1.0 -0.1507485064
C  C174  1  0.41182000  0.75514000  0.96800000  1.0 -0.1507485064
C  C175  1  0.74486000  0.91182000  0.46800000  1.0 -0.1507485064
C  C176  1  0.25514000  0.08818000  0.46800000  1.0 -0.1507485064
C  C177  1  0.54951000  0.75615000  0.44370000  1.0 0.109663619
C  C178  1  0.25615000  0.95049000  0.94370000  1.0 0.109663619
C  C179  1  0.45049000  0.24385000  0.44370000  1.0 0.109663619
C  C180  1  0.74385000  0.04951000  0.94370000  1.0 0.109663619
C  C181  1  0.95049000  0.25615000  0.55630000  1.0 0.109663619
C  C182  1  0.04951000  0.74385000  0.55630000  1.0 0.109663619
C  C183  1  0.75615000  0.54951000  0.05630000  1.0 0.109663619
C  C184  1  0.24385000  0.45049000  0.05630000  1.0 0.109663619
C  C185  1  0.95049000  0.74385000  0.05630000  1.0 0.109663619
C  C186  1  0.24385000  0.54951000  0.55630000  1.0 0.109663619
C  C187  1  0.04951000  0.25615000  0.05630000  1.0 0.109663619
C  C188  1  0.75615000  0.45049000  0.55630000  1.0 0.109663619
C  C189  1  0.54951000  0.24385000  0.94370000  1.0 0.109663619
C  C190  1  0.45049000  0.75615000  0.94370000  1.0 0.109663619
C  C191  1  0.74385000  0.95049000  0.44370000  1.0 0.109663619
C  C192  1  0.25615000  0.04951000  0.44370000  1.0 0.109663619
C  C193  1  0.52440000  0.73139000  0.49400000  1.0 0.0157472815
C  C194  1  0.23139000  0.97560000  0.99400000  1.0 0.0157472815
C  C195  1  0.47560000  0.26861000  0.49400000  1.0 0.0157472815
C  C196  1  0.76861000  0.02440000  0.99400000  1.0 0.0083218451
C  C197  1  0.97560000  0.23139000  0.50600000  1.0 0.0157472815
C  C198  1  0.02440000  0.76861000  0.50600000  1.0 0.0083218451
C  C199  1  0.73139000  0.52440000  0.00600000  1.0 0.0157472815
C  C200  1  0.26861000  0.47560000  0.00600000  1.0 0.0083218451
C  C201  1  0.97560000  0.76861000  0.00600000  1.0 0.0157472815
C  C202  1  0.26861000  0.52440000  0.50600000  1.0 0.0083218451
C  C203  1  0.02440000  0.23139000  0.00600000  1.0 0.0083218451
C  C204  1  0.73139000  0.47560000  0.50600000  1.0 0.0157472815
C  C205  1  0.52440000  0.26861000  0.99400000  1.0 0.0157472815
C  C206  1  0.47560000  0.73139000  0.99400000  1.0 0.0157472815
C  C207  1  0.76861000  0.97560000  0.49400000  1.0 0.0157472815
C  C208  1  0.23139000  0.02440000  0.49400000  1.0 0.0083218451
C  C209  1  0.53797000  0.70563000  0.56850000  1.0 -0.1941447479
C  C210  1  0.20563000  0.96203000  0.06850000  1.0 -0.1950801848
C  C211  1  0.46203000  0.29437000  0.56850000  1.0 -0.1950801848
C  C212  1  0.79437000  0.03797000  0.06850000  1.0 -0.1941447479
C  C213  1  0.96203000  0.20563000  0.43150000  1.0 -0.1950801848
C  C214  1  0.03797000  0.79437000  0.43150000  1.0 -0.1950801848
C  C215  1  0.70563000  0.53797000  0.93150000  1.0 -0.1941447479
C  C216  1  0.29437000  0.46203000  0.93150000  1.0 -0.1950801848
C  C217  1  0.96203000  0.79437000  0.93150000  1.0 -0.1941447479
C  C218  1  0.29437000  0.53797000  0.43150000  1.0 -0.1950801848
C  C219  1  0.03797000  0.20563000  0.93150000  1.0 -0.1950801848
C  C220  1  0.70563000  0.46203000  0.43150000  1.0 -0.1941447479
C  C221  1  0.53797000  0.29437000  0.06850000  1.0 -0.1950801848
C  C222  1  0.46203000  0.70563000  0.06850000  1.0 -0.1941447479
C  C223  1  0.79437000  0.96203000  0.56850000  1.0 -0.1941447479
C  C224  1  0.20563000  0.03797000  0.56850000  1.0 -0.1950801848
C  C225  1  0.57663000  0.70461000  0.59280000  1.0 -0.0790154763
C  C226  1  0.20461000  0.92337000  0.09280000  1.0 -0.0790154763
C  C227  1  0.42337000  0.29539000  0.59280000  1.0 -0.0790154763
C  C228  1  0.79539000  0.07663000  0.09280000  1.0 -0.0790154763
C  C229  1  0.92337000  0.20461000  0.40720000  1.0 -0.0790154763
C  C230  1  0.07663000  0.79539000  0.40720000  1.0 -0.0790154763
C  C231  1  0.70461000  0.57663000  0.90720000  1.0 -0.0790154763
C  C232  1  0.29539000  0.42337000  0.90720000  1.0 -0.0790154763
C  C233  1  0.92337000  0.79539000  0.90720000  1.0 -0.0790154763
C  C234  1  0.29539000  0.57663000  0.40720000  1.0 -0.0790154763
C  C235  1  0.07663000  0.20461000  0.90720000  1.0 -0.0790154763
C  C236  1  0.70461000  0.42337000  0.40720000  1.0 -0.0790154763
C  C237  1  0.57663000  0.29539000  0.09280000  1.0 -0.0790154763
C  C238  1  0.42337000  0.70461000  0.09280000  1.0 -0.0790154763
C  C239  1  0.79539000  0.92337000  0.59280000  1.0 -0.0790154763
C  C240  1  0.20461000  0.07663000  0.59280000  1.0 -0.0790154763
C  C241  1  0.53530000  0.78540000  0.35960000  1.0 -0.4944499393
C  C242  1  0.28540000  0.96470000  0.85960000  1.0 -0.4944499393
C  C243  1  0.46470000  0.21460000  0.35960000  1.0 -0.4944499393
C  C244  1  0.71460000  0.03530000  0.85960000  1.0 -0.4944499393
C  C245  1  0.96470000  0.28540000  0.64040000  1.0 -0.4944499393
C  C246  1  0.03530000  0.71460000  0.64040000  1.0 -0.4944499393
C  C247  1  0.78540000  0.53530000  0.14040000  1.0 -0.4944499393
C  C248  1  0.21460000  0.46470000  0.14040000  1.0 -0.4944499393
C  C249  1  0.96470000  0.71460000  0.14040000  1.0 -0.4944499393
C  C250  1  0.21460000  0.53530000  0.64040000  1.0 -0.4944499393
C  C251  1  0.03530000  0.28540000  0.14040000  1.0 -0.4944499393
C  C252  1  0.78540000  0.46470000  0.64040000  1.0 -0.4944499393
C  C253  1  0.53530000  0.21460000  0.85960000  1.0 -0.4944499393
C  C254  1  0.46470000  0.78540000  0.85960000  1.0 -0.4944499393
C  C255  1  0.71460000  0.96470000  0.35960000  1.0 -0.4944499393
C  C256  1  0.28540000  0.03530000  0.35960000  1.0 -0.4944499393
C  C257  1  0.25731000  0.75731000  0.60350000  1.0 0.6656318831
C  C258  1  0.25731000  0.24269000  0.10350000  1.0 0.6656318831
C  C259  1  0.74269000  0.24269000  0.60350000  1.0 0.6656318831
C  C260  1  0.74269000  0.75731000  0.10350000  1.0 0.6656318831
C  C261  1  0.24269000  0.25731000  0.39650000  1.0 0.6656318831
C  C262  1  0.75731000  0.74269000  0.39650000  1.0 0.6656318831
C  C263  1  0.75731000  0.25731000  0.89650000  1.0 0.6656318831
C  C264  1  0.24269000  0.74269000  0.89650000  1.0 0.6656318831
C  C265  1  0.26034000  0.76034000  0.71690000  1.0 -0.2066247367
C  C266  1  0.26034000  0.23966000  0.21690000  1.0 -0.2066247367
C  C267  1  0.73966000  0.23966000  0.71690000  1.0 -0.2066247367
C  C268  1  0.73966000  0.76034000  0.21690000  1.0 -0.2066247367
C  C269  1  0.23966000  0.26034000  0.28310000  1.0 -0.2066247367
C  C270  1  0.76034000  0.73966000  0.28310000  1.0 -0.2066247367
C  C271  1  0.76034000  0.26034000  0.78310000  1.0 -0.2066247367
C  C272  1  0.23966000  0.73966000  0.78310000  1.0 -0.2066247367
C  C273  1  0.45960000  0.76050000  0.51970000  1.0 0.0083218451
C  C274  1  0.26050000  0.04040000  0.01970000  1.0 0.0083218451
C  C275  1  0.54040000  0.23950000  0.51970000  1.0 0.0083218451
C  C276  1  0.73950000  0.95960000  0.01970000  1.0 0.0083218451
C  C277  1  0.04040000  0.26050000  0.48030000  1.0 0.0083218451
C  C278  1  0.95960000  0.73950000  0.48030000  1.0 0.0083218451
C  C279  1  0.76050000  0.45960000  0.98030000  1.0 0.0083218451
C  C280  1  0.23950000  0.54040000  0.98030000  1.0 0.0027955124
C  C281  1  0.04040000  0.73950000  0.98030000  1.0 0.0027955124
C  C282  1  0.23950000  0.45960000  0.48030000  1.0 0.0083218451
C  C283  1  0.95960000  0.26050000  0.98030000  1.0 0.0083218451
C  C284  1  0.76050000  0.54040000  0.48030000  1.0 0.0083218451
C  C285  1  0.45960000  0.23950000  0.01970000  1.0 0.0083218451
C  C286  1  0.54040000  0.76050000  0.01970000  1.0 0.0083218451
C  C287  1  0.73950000  0.04040000  0.51970000  1.0 0.0083218451
C  C288  1  0.26050000  0.95960000  0.51970000  1.0 0.0027955124
C  C289  1  0.46940000  0.70510000  0.40150000  1.0 0.0157472815
C  C290  1  0.20510000  0.03060000  0.90150000  1.0 0.0157472815
C  C291  1  0.53060000  0.29490000  0.40150000  1.0 0.0157472815
C  C292  1  0.79490000  0.96940000  0.90150000  1.0 0.0157472815
C  C293  1  0.03060000  0.20510000  0.59850000  1.0 0.0157472815
C  C294  1  0.96940000  0.79490000  0.59850000  1.0 0.0157472815
C  C295  1  0.70510000  0.46940000  0.09850000  1.0 0.0157472815
C  C296  1  0.29490000  0.53060000  0.09850000  1.0 0.0157472815
C  C297  1  0.03060000  0.79490000  0.09850000  1.0 0.0157472815
C  C298  1  0.29490000  0.46940000  0.59850000  1.0 0.0157472815
C  C299  1  0.96940000  0.20510000  0.09850000  1.0 0.0157472815
C  C300  1  0.70510000  0.53060000  0.59850000  1.0 0.0157472815
C  C301  1  0.46940000  0.29490000  0.90150000  1.0 0.0157472815
C  C302  1  0.53060000  0.70510000  0.90150000  1.0 0.0157472815
C  C303  1  0.79490000  0.03060000  0.40150000  1.0 0.0157472815
C  C304  1  0.20510000  0.96940000  0.40150000  1.0 0.0157472815
C  C305  1  0.49260000  0.67460000  0.34710000  1.0 -0.3019604596
C  C306  1  0.17460000  0.00740000  0.84710000  1.0 -0.3019604596
C  C307  1  0.50740000  0.32540000  0.34710000  1.0 -0.3019604596
C  C308  1  0.82540000  0.99260000  0.84710000  1.0 -0.3019604596
C  C309  1  0.00740000  0.17460000  0.65290000  1.0 -0.3019604596
C  C310  1  0.99260000  0.82540000  0.65290000  1.0 -0.3019604596
C  C311  1  0.67460000  0.49260000  0.15290000  1.0 -0.3019604596
C  C312  1  0.32540000  0.50740000  0.15290000  1.0 -0.3019604596
C  C313  1  0.00740000  0.82540000  0.15290000  1.0 -0.3019604596
C  C314  1  0.32540000  0.49260000  0.65290000  1.0 -0.3019604596
C  C315  1  0.99260000  0.17460000  0.15290000  1.0 -0.3019604596
C  C316  1  0.67460000  0.50740000  0.65290000  1.0 -0.3019604596
C  C317  1  0.49260000  0.32540000  0.84710000  1.0 -0.3019604596
C  C318  1  0.50740000  0.67460000  0.84710000  1.0 -0.3019604596
C  C319  1  0.82540000  0.00740000  0.34710000  1.0 -0.3019604596
C  C320  1  0.17460000  0.99260000  0.34710000  1.0 -0.3019604596
O  O1  1  0.34450000  0.76366000  0.43150000  1.0 -0.5719173399
O  O2  1  0.26366000  0.15550000  0.93150000  1.0 -0.5719173399
O  O3  1  0.65550000  0.23634000  0.43150000  1.0 -0.5719173399
O  O4  1  0.73634000  0.84450000  0.93150000  1.0 -0.5719173399
O  O5  1  0.15550000  0.26366000  0.56850000  1.0 -0.5719173399
O  O6  1  0.84450000  0.73634000  0.56850000  1.0 -0.5719173399
O  O7  1  0.76366000  0.34450000  0.06850000  1.0 -0.5719173399
O  O8  1  0.23634000  0.65550000  0.06850000  1.0 -0.5719173399
O  O9  1  0.15550000  0.73634000  0.06850000  1.0 -0.5719173399
O  O10  1  0.23634000  0.34450000  0.56850000  1.0 -0.5719173399
O  O11  1  0.84450000  0.26366000  0.06850000  1.0 -0.5719173399
O  O12  1  0.76366000  0.65550000  0.56850000  1.0 -0.5719173399
O  O13  1  0.34450000  0.23634000  0.93150000  1.0 -0.5719173399
O  O14  1  0.65550000  0.76366000  0.93150000  1.0 -0.5719173399
O  O15  1  0.73634000  0.15550000  0.43150000  1.0 -0.5719173399
O  O16  1  0.26366000  0.84450000  0.43150000  1.0 -0.5719173399
O  O17  1  0.35091000  0.70753000  0.34640000  1.0 -0.5719173399
O  O18  1  0.20753000  0.14909000  0.84640000  1.0 -0.5719173399
O  O19  1  0.64909000  0.29247000  0.34640000  1.0 -0.5719173399
O  O20  1  0.79247000  0.85091000  0.84640000  1.0 -0.5719173399
O  O21  1  0.14909000  0.20753000  0.65360000  1.0 -0.5719173399
O  O22  1  0.85091000  0.79247000  0.65360000  1.0 -0.5719173399
O  O23  1  0.70753000  0.35091000  0.15360000  1.0 -0.5719173399
O  O24  1  0.29247000  0.64909000  0.15360000  1.0 -0.5719173399
O  O25  1  0.14909000  0.79247000  0.15360000  1.0 -0.5719173399
O  O26  1  0.29247000  0.35091000  0.65360000  1.0 -0.5719173399
O  O27  1  0.85091000  0.20753000  0.15360000  1.0 -0.5719173399
O  O28  1  0.70753000  0.64909000  0.65360000  1.0 -0.5719173399
O  O29  1  0.35091000  0.29247000  0.84640000  1.0 -0.5719173399
O  O30  1  0.64909000  0.70753000  0.84640000  1.0 -0.5719173399
O  O31  1  0.79247000  0.14909000  0.34640000  1.0 -0.5719173399
O  O32  1  0.20753000  0.85091000  0.34640000  1.0 -0.5719173399
O  O33  1  0.66408000  0.75549000  0.53720000  1.0 -0.627049796
O  O34  1  0.25549000  0.83592000  0.03720000  1.0 -0.627049796
O  O35  1  0.33592000  0.24451000  0.53720000  1.0 -0.627049796
O  O36  1  0.74451000  0.16408000  0.03720000  1.0 -0.627049796
O  O37  1  0.83592000  0.25549000  0.46280000  1.0 -0.627049796
O  O38  1  0.16408000  0.74451000  0.46280000  1.0 -0.627049796
O  O39  1  0.75549000  0.66408000  0.96280000  1.0 -0.627049796
O  O40  1  0.24451000  0.33592000  0.96280000  1.0 -0.627049796
O  O41  1  0.83592000  0.74451000  0.96280000  1.0 -0.627049796
O  O42  1  0.24451000  0.66408000  0.46280000  1.0 -0.627049796
O  O43  1  0.16408000  0.25549000  0.96280000  1.0 -0.627049796
O  O44  1  0.75549000  0.33592000  0.46280000  1.0 -0.627049796
O  O45  1  0.66408000  0.24451000  0.03720000  1.0 -0.627049796
O  O46  1  0.33592000  0.75549000  0.03720000  1.0 -0.627049796
O  O47  1  0.74451000  0.83592000  0.53720000  1.0 -0.627049796
O  O48  1  0.25549000  0.16408000  0.53720000  1.0 -0.627049796
O  O49  1  0.65332000  0.70319000  0.63800000  1.0 -0.5631285158
O  O50  1  0.20319000  0.84668000  0.13800000  1.0 -0.5631285158
O  O51  1  0.34668000  0.29681000  0.63800000  1.0 -0.5631285158
O  O52  1  0.79681000  0.15332000  0.13800000  1.0 -0.5631285158
O  O53  1  0.84668000  0.20319000  0.36200000  1.0 -0.5631285158
O  O54  1  0.15332000  0.79681000  0.36200000  1.0 -0.5631285158
O  O55  1  0.70319000  0.65332000  0.86200000  1.0 -0.5631285158
O  O56  1  0.29681000  0.34668000  0.86200000  1.0 -0.5631285158
O  O57  1  0.84668000  0.79681000  0.86200000  1.0 -0.5631285158
O  O58  1  0.29681000  0.65332000  0.36200000  1.0 -0.5631285158
O  O59  1  0.15332000  0.20319000  0.86200000  1.0 -0.5631285158
O  O60  1  0.70319000  0.34668000  0.36200000  1.0 -0.5631285158
O  O61  1  0.65332000  0.29681000  0.13800000  1.0 -0.5631285158
O  O62  1  0.34668000  0.70319000  0.13800000  1.0 -0.5631285158
O  O63  1  0.79681000  0.84668000  0.63800000  1.0 -0.5631285158
O  O64  1  0.20319000  0.15332000  0.63800000  1.0 -0.5631285158
O  O65  1  0.27885000  0.77885000  0.54910000  1.0 -0.6080465873
O  O66  1  0.27885000  0.22115000  0.04910000  1.0 -0.6080465873
O  O67  1  0.72115000  0.22115000  0.54910000  1.0 -0.6080465873
O  O68  1  0.72115000  0.77885000  0.04910000  1.0 -0.6080465873
O  O69  1  0.22115000  0.27885000  0.45090000  1.0 -0.6080465873
O  O70  1  0.77885000  0.72115000  0.45090000  1.0 -0.6080465873
O  O71  1  0.77885000  0.27885000  0.95090000  1.0 -0.6080465873
O  O72  1  0.22115000  0.72115000  0.95090000  1.0 -0.6080465873
O  O73  1  0.23391000  0.73391000  0.56330000  1.0 -0.6080465873
O  O74  1  0.23391000  0.26609000  0.06330000  1.0 -0.6080465873
O  O75  1  0.76609000  0.26609000  0.56330000  1.0 -0.6080465873
O  O76  1  0.76609000  0.73391000  0.06330000  1.0 -0.6080465873
O  O77  1  0.26609000  0.23391000  0.43670000  1.0 -0.6080465873
O  O78  1  0.73391000  0.76609000  0.43670000  1.0 -0.6080465873
O  O79  1  0.73391000  0.23391000  0.93670000  1.0 -0.6080465873
O  O80  1  0.26609000  0.76609000  0.93670000  1.0 -0.6080465873
O  O81  1  0.22840000  0.77721000  0.38380000  1.0 -1.1167478126
O  O82  1  0.27721000  0.27160000  0.88380000  1.0 -1.1167478126
O  O83  1  0.77160000  0.22279000  0.38380000  1.0 -1.1167478126
O  O84  1  0.72279000  0.72840000  0.88380000  1.0 -1.1149730009
O  O85  1  0.27160000  0.27721000  0.61620000  1.0 -1.1167478126
O  O86  1  0.72840000  0.72279000  0.61620000  1.0 -1.1149730009
O  O87  1  0.77721000  0.22840000  0.11620000  1.0 -1.1149730009
O  O88  1  0.22279000  0.77160000  0.11620000  1.0 -1.1167478126
O  O89  1  0.27160000  0.72279000  0.11620000  1.0 -1.1167478126
O  O90  1  0.22279000  0.22840000  0.61620000  1.0 -1.1167478126
O  O91  1  0.72840000  0.27721000  0.11620000  1.0 -1.1149730009
O  O92  1  0.77721000  0.77160000  0.61620000  1.0 -1.1149730009
O  O93  1  0.22840000  0.22279000  0.88380000  1.0 -1.1167478126
O  O94  1  0.77160000  0.77721000  0.88380000  1.0 -1.1149730009
O  O95  1  0.72279000  0.27160000  0.38380000  1.0 -1.1167478126
O  O96  1  0.27721000  0.72840000  0.38380000  1.0 -1.1167478126
O  O97  1  0.23785000  0.68891000  0.26190000  1.0 -1.1562328857
O  O98  1  0.18891000  0.26215000  0.76190000  1.0 -1.1562328857
O  O99  1  0.76215000  0.31109000  0.26190000  1.0 -1.154184289
O  O100  1  0.81109000  0.73785000  0.76190000  1.0 -1.154184289
O  O101  1  0.26215000  0.18891000  0.73810000  1.0 -1.1562328857
O  O102  1  0.73785000  0.81109000  0.73810000  1.0 -1.154184289
O  O103  1  0.68891000  0.23785000  0.23810000  1.0 -1.154184289
O  O104  1  0.31109000  0.76215000  0.23810000  1.0 -1.1562328857
O  O105  1  0.26215000  0.81109000  0.23810000  1.0 -1.1562328857
O  O106  1  0.31109000  0.23785000  0.73810000  1.0 -1.1562328857
O  O107  1  0.73785000  0.18891000  0.23810000  1.0 -1.154184289
O  O108  1  0.68891000  0.76215000  0.73810000  1.0 -1.154184289
O  O109  1  0.23785000  0.31109000  0.76190000  1.0 -1.1562328857
O  O110  1  0.76215000  0.68891000  0.76190000  1.0 -1.154184289
O  O111  1  0.81109000  0.26215000  0.26190000  1.0 -1.154184289
O  O112  1  0.18891000  0.73785000  0.26190000  1.0 -1.1562328857
