# DDEC6 charges by PACMAN v1.1 (https://github.com/mtap-research/PACMAN-charge/)
data_ERAMUH_ASR_pacman
_symmetry_space_group_name_H-M   'P 1'
_cell_length_a   23.67900000
_cell_length_b   23.67900000
_cell_length_c   16.81600000
_cell_angle_alpha   90.00000000
_cell_angle_beta   90.00000000
_cell_angle_gamma   90.00000000
_symmetry_Int_Tables_number   1
_chemical_formula_structural   Zr3H34(C11O4)5
_chemical_formula_sum   'Zr12 H136 C220 O80'
_cell_volume   9428.64780946
_cell_formula_units_Z   4
loop_
 _symmetry_equiv_pos_site_id
 _symmetry_equiv_pos_as_xyz
  1  'x, y, z'
loop_
 _atom_site_type_symbol
 _atom_site_label
 _atom_site_symmetry_multiplicity
 _atom_site_fract_x
 _atom_site_fract_y
 _atom_site_fract_z
 _atom_site_occupancy
 _atom_site_charge
Zr  Zr1  1  0.42651000  0.00000000  0.60484000  1.0 1.9541011643
Zr  Zr2  1  0.00000000  0.57349000  0.10484000  1.0 1.9541011643
Zr  Zr3  1  0.57349000  0.00000000  0.60484000  1.0 1.9541011643
Zr  Zr4  1  0.00000000  0.42651000  0.10484000  1.0 1.9541011643
Zr  Zr5  1  0.57349000  0.00000000  0.39516000  1.0 1.9541011643
Zr  Zr6  1  0.42651000  0.00000000  0.39516000  1.0 1.9541011643
Zr  Zr7  1  0.00000000  0.42651000  0.89516000  1.0 1.9541011643
Zr  Zr8  1  0.00000000  0.57349000  0.89516000  1.0 1.9541011643
Zr  Zr9  1  0.50000000  0.89626000  0.50000000  1.0 2.231474359
Zr  Zr10  1  0.89626000  0.50000000  0.00000000  1.0 2.231474359
Zr  Zr11  1  0.50000000  0.10374000  0.50000000  1.0 2.231474359
Zr  Zr12  1  0.10374000  0.50000000  0.00000000  1.0 2.231474359
H  H1  1  0.39700000  0.75720000  0.59860000  1.0 0.1095404625
H  H2  1  0.75720000  0.60300000  0.09860000  1.0 0.1095404625
H  H3  1  0.60300000  0.24280000  0.59860000  1.0 0.1095404625
H  H4  1  0.24280000  0.39700000  0.09860000  1.0 0.1095404625
H  H5  1  0.60300000  0.75720000  0.40140000  1.0 0.1095404625
H  H6  1  0.39700000  0.24280000  0.40140000  1.0 0.1095404625
H  H7  1  0.75720000  0.39700000  0.90140000  1.0 0.1095404625
H  H8  1  0.24280000  0.60300000  0.90140000  1.0 0.1095404625
H  H9  1  0.60300000  0.24280000  0.40140000  1.0 0.1095404625
H  H10  1  0.24280000  0.39700000  0.90140000  1.0 0.1095404625
H  H11  1  0.39700000  0.75720000  0.40140000  1.0 0.1095404625
H  H12  1  0.75720000  0.60300000  0.90140000  1.0 0.1095404625
H  H13  1  0.39700000  0.24280000  0.59860000  1.0 0.1095404625
H  H14  1  0.60300000  0.75720000  0.59860000  1.0 0.1095404625
H  H15  1  0.24280000  0.60300000  0.09860000  1.0 0.1095404625
H  H16  1  0.75720000  0.39700000  0.09860000  1.0 0.1095404625
H  H17  1  0.27510000  0.80570000  0.80380000  1.0 0.0972224632
H  H18  1  0.80570000  0.72490000  0.30380000  1.0 0.0972224632
H  H19  1  0.72490000  0.19430000  0.80380000  1.0 0.0972224632
H  H20  1  0.19430000  0.27510000  0.30380000  1.0 0.0972224632
H  H21  1  0.72490000  0.80570000  0.19620000  1.0 0.0972224632
H  H22  1  0.27510000  0.19430000  0.19620000  1.0 0.0972224632
H  H23  1  0.80570000  0.27510000  0.69620000  1.0 0.0972224632
H  H24  1  0.19430000  0.72490000  0.69620000  1.0 0.0972224632
H  H25  1  0.72490000  0.19430000  0.19620000  1.0 0.0972224632
H  H26  1  0.19430000  0.27510000  0.69620000  1.0 0.0972224632
H  H27  1  0.27510000  0.80570000  0.19620000  1.0 0.0972224632
H  H28  1  0.80570000  0.72490000  0.69620000  1.0 0.0972224632
H  H29  1  0.27510000  0.19430000  0.80380000  1.0 0.0972224632
H  H30  1  0.72490000  0.80570000  0.80380000  1.0 0.0972224632
H  H31  1  0.19430000  0.72490000  0.30380000  1.0 0.0972224632
H  H32  1  0.80570000  0.27510000  0.30380000  1.0 0.0972224632
H  H33  1  0.33180000  0.87480000  0.74210000  1.0 0.1095404625
H  H34  1  0.87480000  0.66820000  0.24210000  1.0 0.1095404625
H  H35  1  0.66820000  0.12520000  0.74210000  1.0 0.1095404625
H  H36  1  0.12520000  0.33180000  0.24210000  1.0 0.1095404625
H  H37  1  0.66820000  0.87480000  0.25790000  1.0 0.1095404625
H  H38  1  0.33180000  0.12520000  0.25790000  1.0 0.1095404625
H  H39  1  0.87480000  0.33180000  0.75790000  1.0 0.1095404625
H  H40  1  0.12520000  0.66820000  0.75790000  1.0 0.1095404625
H  H41  1  0.66820000  0.12520000  0.25790000  1.0 0.1095404625
H  H42  1  0.12520000  0.33180000  0.75790000  1.0 0.1095404625
H  H43  1  0.33180000  0.87480000  0.25790000  1.0 0.1095404625
H  H44  1  0.87480000  0.66820000  0.75790000  1.0 0.1095404625
H  H45  1  0.33180000  0.12520000  0.74210000  1.0 0.1095404625
H  H46  1  0.66820000  0.87480000  0.74210000  1.0 0.1095404625
H  H47  1  0.12520000  0.66820000  0.24210000  1.0 0.1095404625
H  H48  1  0.87480000  0.33180000  0.24210000  1.0 0.1095404625
H  H49  1  0.36470000  0.66450000  0.59480000  1.0 0.1095404625
H  H50  1  0.66450000  0.63530000  0.09480000  1.0 0.1095404625
H  H51  1  0.63530000  0.33550000  0.59480000  1.0 0.1095404625
H  H52  1  0.33550000  0.36470000  0.09480000  1.0 0.1095404625
H  H53  1  0.63530000  0.66450000  0.40520000  1.0 0.1095404625
H  H54  1  0.36470000  0.33550000  0.40520000  1.0 0.1095404625
H  H55  1  0.66450000  0.36470000  0.90520000  1.0 0.1095404625
H  H56  1  0.33550000  0.63530000  0.90520000  1.0 0.1095404625
H  H57  1  0.63530000  0.33550000  0.40520000  1.0 0.1095404625
H  H58  1  0.33550000  0.36470000  0.90520000  1.0 0.1095404625
H  H59  1  0.36470000  0.66450000  0.40520000  1.0 0.1095404625
H  H60  1  0.66450000  0.63530000  0.90520000  1.0 0.1095404625
H  H61  1  0.36470000  0.33550000  0.59480000  1.0 0.1095404625
H  H62  1  0.63530000  0.66450000  0.59480000  1.0 0.1095404625
H  H63  1  0.33550000  0.63530000  0.09480000  1.0 0.1095404625
H  H64  1  0.66450000  0.36470000  0.09480000  1.0 0.1095404625
H  H65  1  0.34440000  0.63930000  0.67840000  1.0 0.1095404625
H  H66  1  0.63930000  0.65560000  0.17840000  1.0 0.1095404625
H  H67  1  0.65560000  0.36070000  0.67840000  1.0 0.1095404625
H  H68  1  0.36070000  0.34440000  0.17840000  1.0 0.1095404625
H  H69  1  0.65560000  0.63930000  0.32160000  1.0 0.1095404625
H  H70  1  0.34440000  0.36070000  0.32160000  1.0 0.1095404625
H  H71  1  0.63930000  0.34440000  0.82160000  1.0 0.1095404625
H  H72  1  0.36070000  0.65560000  0.82160000  1.0 0.1095404625
H  H73  1  0.65560000  0.36070000  0.32160000  1.0 0.1095404625
H  H74  1  0.36070000  0.34440000  0.82160000  1.0 0.1095404625
H  H75  1  0.34440000  0.63930000  0.32160000  1.0 0.1095404625
H  H76  1  0.63930000  0.65560000  0.82160000  1.0 0.1095404625
H  H77  1  0.34440000  0.36070000  0.67840000  1.0 0.1095404625
H  H78  1  0.65560000  0.63930000  0.67840000  1.0 0.1095404625
H  H79  1  0.36070000  0.65560000  0.17840000  1.0 0.1095404625
H  H80  1  0.63930000  0.34440000  0.17840000  1.0 0.1095404625
H  H81  1  0.29870000  0.65950000  0.61420000  1.0 0.1095404625
H  H82  1  0.65950000  0.70130000  0.11420000  1.0 0.1095404625
H  H83  1  0.70130000  0.34050000  0.61420000  1.0 0.1095404625
H  H84  1  0.34050000  0.29870000  0.11420000  1.0 0.1095404625
H  H85  1  0.70130000  0.65950000  0.38580000  1.0 0.1095404625
H  H86  1  0.29870000  0.34050000  0.38580000  1.0 0.1095404625
H  H87  1  0.65950000  0.29870000  0.88580000  1.0 0.1095404625
H  H88  1  0.34050000  0.70130000  0.88580000  1.0 0.1095404625
H  H89  1  0.70130000  0.34050000  0.38580000  1.0 0.1095404625
H  H90  1  0.34050000  0.29870000  0.88580000  1.0 0.1095404625
H  H91  1  0.29870000  0.65950000  0.38580000  1.0 0.1095404625
H  H92  1  0.65950000  0.70130000  0.88580000  1.0 0.1095404625
H  H93  1  0.29870000  0.34050000  0.61420000  1.0 0.1095404625
H  H94  1  0.70130000  0.65950000  0.61420000  1.0 0.1095404625
H  H95  1  0.34050000  0.70130000  0.11420000  1.0 0.1095404625
H  H96  1  0.65950000  0.29870000  0.11420000  1.0 0.1095404625
H  H97  1  0.40290000  0.00000000  0.86410000  1.0 0.0557246179
H  H98  1  0.00000000  0.59710000  0.36410000  1.0 0.0557246179
H  H99  1  0.59710000  0.00000000  0.86410000  1.0 0.0557246179
H  H100  1  0.00000000  0.40290000  0.36410000  1.0 0.0529629952
H  H101  1  0.59710000  0.00000000  0.13590000  1.0 0.0557246179
H  H102  1  0.40290000  0.00000000  0.13590000  1.0 0.0557246179
H  H103  1  0.00000000  0.40290000  0.63590000  1.0 0.0557246179
H  H104  1  0.00000000  0.59710000  0.63590000  1.0 0.0557246179
H  H105  1  0.39960000  0.00000000  0.00000000  1.0 0.0775297921
H  H106  1  0.00000000  0.60040000  0.50000000  1.0 0.0775297921
H  H107  1  0.60040000  0.00000000  0.00000000  1.0 0.0775297921
H  H108  1  0.00000000  0.39960000  0.50000000  1.0 0.0775297921
H  H109  1  0.57470000  0.00000000  0.87220000  1.0 0.0557246179
H  H110  1  0.00000000  0.42530000  0.37220000  1.0 0.0557246179
H  H111  1  0.42530000  0.00000000  0.87220000  1.0 0.0557246179
H  H112  1  0.00000000  0.57470000  0.37220000  1.0 0.0557246179
H  H113  1  0.42530000  0.00000000  0.12780000  1.0 0.0557246179
H  H114  1  0.57470000  0.00000000  0.12780000  1.0 0.0557246179
H  H115  1  0.00000000  0.57470000  0.62780000  1.0 0.0557246179
H  H116  1  0.00000000  0.42530000  0.62780000  1.0 0.0557246179
H  H117  1  0.44590000  0.00000000  0.13120000  1.0 0.0715548189
H  H118  1  0.00000000  0.55410000  0.63120000  1.0 0.0715548189
H  H119  1  0.55410000  0.00000000  0.13120000  1.0 0.0715548189
H  H120  1  0.00000000  0.44590000  0.63120000  1.0 0.0715548189
H  H121  1  0.55410000  0.00000000  0.86880000  1.0 0.0715548189
H  H122  1  0.44590000  0.00000000  0.86880000  1.0 0.0715548189
H  H123  1  0.00000000  0.44590000  0.36880000  1.0 0.0715548189
H  H124  1  0.00000000  0.55410000  0.36880000  1.0 0.0715548189
H  H125  1  0.61770000  0.00000000  0.13930000  1.0 0.0529629952
H  H126  1  0.00000000  0.38230000  0.63930000  1.0 0.0529629952
H  H127  1  0.38230000  0.00000000  0.13930000  1.0 0.0529629952
H  H128  1  0.00000000  0.61770000  0.63930000  1.0 0.0529629952
H  H129  1  0.38230000  0.00000000  0.86070000  1.0 0.0529629952
H  H130  1  0.61770000  0.00000000  0.86070000  1.0 0.0529629952
H  H131  1  0.00000000  0.61770000  0.36070000  1.0 0.0529629952
H  H132  1  0.00000000  0.38230000  0.36070000  1.0 0.0529629952
H  H133  1  0.62100000  0.00000000  0.00000000  1.0 0.0715548189
H  H134  1  0.00000000  0.37900000  0.50000000  1.0 0.0715548189
H  H135  1  0.37900000  0.00000000  0.00000000  1.0 0.0715548189
H  H136  1  0.00000000  0.62100000  0.50000000  1.0 0.0715548189
C  C1  1  0.40727000  0.86588000  0.62950000  1.0 0.5881896358
C  C2  1  0.86588000  0.59273000  0.12950000  1.0 0.5881896358
C  C3  1  0.59273000  0.13412000  0.62950000  1.0 0.5881896358
C  C4  1  0.13412000  0.40727000  0.12950000  1.0 0.5881896358
C  C5  1  0.59273000  0.86588000  0.37050000  1.0 0.5881896358
C  C6  1  0.40727000  0.13412000  0.37050000  1.0 0.5881896358
C  C7  1  0.86588000  0.40727000  0.87050000  1.0 0.5881896358
C  C8  1  0.13412000  0.59273000  0.87050000  1.0 0.5881896358
C  C9  1  0.59273000  0.13412000  0.37050000  1.0 0.5881896358
C  C10  1  0.13412000  0.40727000  0.87050000  1.0 0.5881896358
C  C11  1  0.40727000  0.86588000  0.37050000  1.0 0.5881896358
C  C12  1  0.86588000  0.59273000  0.87050000  1.0 0.5881896358
C  C13  1  0.40727000  0.13412000  0.62950000  1.0 0.5881896358
C  C14  1  0.59273000  0.86588000  0.62950000  1.0 0.5881896358
C  C15  1  0.13412000  0.59273000  0.12950000  1.0 0.5881896358
C  C16  1  0.86588000  0.40727000  0.12950000  1.0 0.5881896358
C  C17  1  0.37037000  0.82152000  0.66730000  1.0 -0.0152678132
C  C18  1  0.82152000  0.62963000  0.16730000  1.0 -0.0152678132
C  C19  1  0.62963000  0.17848000  0.66730000  1.0 -0.0152678132
C  C20  1  0.17848000  0.37037000  0.16730000  1.0 -0.0152678132
C  C21  1  0.62963000  0.82152000  0.33270000  1.0 -0.0152678132
C  C22  1  0.37037000  0.17848000  0.33270000  1.0 -0.0152678132
C  C23  1  0.82152000  0.37037000  0.83270000  1.0 -0.0152678132
C  C24  1  0.17848000  0.62963000  0.83270000  1.0 -0.0152678132
C  C25  1  0.62963000  0.17848000  0.33270000  1.0 -0.0152678132
C  C26  1  0.17848000  0.37037000  0.83270000  1.0 -0.0152678132
C  C27  1  0.37037000  0.82152000  0.33270000  1.0 -0.0152678132
C  C28  1  0.82152000  0.62963000  0.83270000  1.0 -0.0152678132
C  C29  1  0.37037000  0.17848000  0.66730000  1.0 -0.0152678132
C  C30  1  0.62963000  0.82152000  0.66730000  1.0 -0.0152678132
C  C31  1  0.17848000  0.62963000  0.16730000  1.0 -0.0152678132
C  C32  1  0.82152000  0.37037000  0.16730000  1.0 -0.0152678132
C  C33  1  0.37170000  0.76711000  0.64020000  1.0 -0.1818937693
C  C34  1  0.76711000  0.62830000  0.14020000  1.0 -0.1818937693
C  C35  1  0.62830000  0.23289000  0.64020000  1.0 -0.1818937693
C  C36  1  0.23289000  0.37170000  0.14020000  1.0 -0.1818937693
C  C37  1  0.62830000  0.76711000  0.35980000  1.0 -0.1818937693
C  C38  1  0.37170000  0.23289000  0.35980000  1.0 -0.1818937693
C  C39  1  0.76711000  0.37170000  0.85980000  1.0 -0.1818937693
C  C40  1  0.23289000  0.62830000  0.85980000  1.0 -0.1818937693
C  C41  1  0.62830000  0.23289000  0.35980000  1.0 -0.1818937693
C  C42  1  0.23289000  0.37170000  0.85980000  1.0 -0.1818937693
C  C43  1  0.37170000  0.76711000  0.35980000  1.0 -0.1818937693
C  C44  1  0.76711000  0.62830000  0.85980000  1.0 -0.1818937693
C  C45  1  0.37170000  0.23289000  0.64020000  1.0 -0.1818937693
C  C46  1  0.62830000  0.76711000  0.64020000  1.0 -0.1818937693
C  C47  1  0.23289000  0.62830000  0.14020000  1.0 -0.1818937693
C  C48  1  0.76711000  0.37170000  0.14020000  1.0 -0.1818937693
C  C49  1  0.33690000  0.72630000  0.67260000  1.0 0.0972224632
C  C50  1  0.72630000  0.66310000  0.17260000  1.0 0.0972224632
C  C51  1  0.66310000  0.27370000  0.67260000  1.0 0.0972224632
C  C52  1  0.27370000  0.33690000  0.17260000  1.0 0.0972224632
C  C53  1  0.66310000  0.72630000  0.32740000  1.0 0.0972224632
C  C54  1  0.33690000  0.27370000  0.32740000  1.0 0.0972224632
C  C55  1  0.72630000  0.33690000  0.82740000  1.0 0.0972224632
C  C56  1  0.27370000  0.66310000  0.82740000  1.0 0.0972224632
C  C57  1  0.66310000  0.27370000  0.32740000  1.0 0.0972224632
C  C58  1  0.27370000  0.33690000  0.82740000  1.0 0.0972224632
C  C59  1  0.33690000  0.72630000  0.32740000  1.0 0.0972224632
C  C60  1  0.72630000  0.66310000  0.82740000  1.0 0.0972224632
C  C61  1  0.33690000  0.27370000  0.67260000  1.0 0.0972224632
C  C62  1  0.66310000  0.72630000  0.67260000  1.0 0.0972224632
C  C63  1  0.27370000  0.66310000  0.17260000  1.0 0.0972224632
C  C64  1  0.72630000  0.33690000  0.17260000  1.0 0.0972224632
C  C65  1  0.29990000  0.74180000  0.73260000  1.0 -0.0114498043
C  C66  1  0.74180000  0.70010000  0.23260000  1.0 -0.0114498043
C  C67  1  0.70010000  0.25820000  0.73260000  1.0 -0.0114498043
C  C68  1  0.25820000  0.29990000  0.23260000  1.0 -0.0114498043
C  C69  1  0.70010000  0.74180000  0.26740000  1.0 -0.0114498043
C  C70  1  0.29990000  0.25820000  0.26740000  1.0 -0.0114498043
C  C71  1  0.74180000  0.29990000  0.76740000  1.0 -0.0114498043
C  C72  1  0.25820000  0.70010000  0.76740000  1.0 -0.0114498043
C  C73  1  0.70010000  0.25820000  0.26740000  1.0 -0.0114498043
C  C74  1  0.25820000  0.29990000  0.76740000  1.0 -0.0114498043
C  C75  1  0.29990000  0.74180000  0.26740000  1.0 -0.0114498043
C  C76  1  0.74180000  0.70010000  0.76740000  1.0 -0.0114498043
C  C77  1  0.29990000  0.25820000  0.73260000  1.0 -0.0114498043
C  C78  1  0.70010000  0.74180000  0.73260000  1.0 -0.0114498043
C  C79  1  0.25820000  0.70010000  0.23260000  1.0 -0.0114498043
C  C80  1  0.74180000  0.29990000  0.23260000  1.0 -0.0114498043
C  C81  1  0.29910000  0.79580000  0.76070000  1.0 -0.1519745145
C  C82  1  0.79580000  0.70090000  0.26070000  1.0 -0.1519745145
C  C83  1  0.70090000  0.20420000  0.76070000  1.0 -0.1519745145
C  C84  1  0.20420000  0.29910000  0.26070000  1.0 -0.1519745145
C  C85  1  0.70090000  0.79580000  0.23930000  1.0 -0.1519745145
C  C86  1  0.29910000  0.20420000  0.23930000  1.0 -0.1519745145
C  C87  1  0.79580000  0.29910000  0.73930000  1.0 -0.1519745145
C  C88  1  0.20420000  0.70090000  0.73930000  1.0 -0.1519745145
C  C89  1  0.70090000  0.20420000  0.23930000  1.0 -0.1519745145
C  C90  1  0.20420000  0.29910000  0.73930000  1.0 -0.1519745145
C  C91  1  0.29910000  0.79580000  0.23930000  1.0 -0.1519745145
C  C92  1  0.79580000  0.70090000  0.73930000  1.0 -0.1519745145
C  C93  1  0.29910000  0.20420000  0.76070000  1.0 -0.1519745145
C  C94  1  0.70090000  0.79580000  0.76070000  1.0 -0.1519745145
C  C95  1  0.20420000  0.70090000  0.26070000  1.0 -0.1519745145
C  C96  1  0.79580000  0.29910000  0.26070000  1.0 -0.1519745145
C  C97  1  0.33390000  0.83660000  0.72530000  1.0 -0.1553501694
C  C98  1  0.83660000  0.66610000  0.22530000  1.0 -0.1553501694
C  C99  1  0.66610000  0.16340000  0.72530000  1.0 -0.1519745145
C  C100  1  0.16340000  0.33390000  0.22530000  1.0 -0.1553501694
C  C101  1  0.66610000  0.83660000  0.27470000  1.0 -0.1519745145
C  C102  1  0.33390000  0.16340000  0.27470000  1.0 -0.1553501694
C  C103  1  0.83660000  0.33390000  0.77470000  1.0 -0.1553501694
C  C104  1  0.16340000  0.66610000  0.77470000  1.0 -0.1553501694
C  C105  1  0.66610000  0.16340000  0.27470000  1.0 -0.1553501694
C  C106  1  0.16340000  0.33390000  0.77470000  1.0 -0.1553501694
C  C107  1  0.33390000  0.83660000  0.27470000  1.0 -0.1553501694
C  C108  1  0.83660000  0.66610000  0.77470000  1.0 -0.1553501694
C  C109  1  0.33390000  0.16340000  0.72530000  1.0 -0.1553501694
C  C110  1  0.66610000  0.83660000  0.72530000  1.0 -0.1519745145
C  C111  1  0.16340000  0.66610000  0.22530000  1.0 -0.1553501694
C  C112  1  0.83660000  0.33390000  0.22530000  1.0 -0.1519745145
C  C113  1  0.33610000  0.66710000  0.63680000  1.0 -0.4664356518
C  C114  1  0.66710000  0.66390000  0.13680000  1.0 -0.4664356518
C  C115  1  0.66390000  0.33290000  0.63680000  1.0 -0.4664356518
C  C116  1  0.33290000  0.33610000  0.13680000  1.0 -0.4664356518
C  C117  1  0.66390000  0.66710000  0.36320000  1.0 -0.4664356518
C  C118  1  0.33610000  0.33290000  0.36320000  1.0 -0.4664356518
C  C119  1  0.66710000  0.33610000  0.86320000  1.0 -0.4664356518
C  C120  1  0.33290000  0.66390000  0.86320000  1.0 -0.4664356518
C  C121  1  0.66390000  0.33290000  0.36320000  1.0 -0.4664356518
C  C122  1  0.33290000  0.33610000  0.86320000  1.0 -0.4664356518
C  C123  1  0.33610000  0.66710000  0.36320000  1.0 -0.4664356518
C  C124  1  0.66710000  0.66390000  0.86320000  1.0 -0.4664356518
C  C125  1  0.33610000  0.33290000  0.63680000  1.0 -0.4664356518
C  C126  1  0.66390000  0.66710000  0.63680000  1.0 -0.4664356518
C  C127  1  0.33290000  0.66390000  0.13680000  1.0 -0.4664356518
C  C128  1  0.66710000  0.33610000  0.13680000  1.0 -0.4664356518
C  C129  1  0.50000000  0.00000000  0.76680000  1.0 0.2541120243
C  C130  1  0.00000000  0.50000000  0.26680000  1.0 0.2541120243
C  C131  1  0.50000000  0.00000000  0.23320000  1.0 0.2541120243
C  C132  1  0.00000000  0.50000000  0.73320000  1.0 0.2541120243
C  C133  1  0.49010000  0.00000000  0.85540000  1.0 -0.0284048757
C  C134  1  0.00000000  0.50990000  0.35540000  1.0 -0.0284048757
C  C135  1  0.50990000  0.00000000  0.85540000  1.0 -0.0284048757
C  C136  1  0.00000000  0.49010000  0.35540000  1.0 -0.0284048757
C  C137  1  0.50990000  0.00000000  0.14460000  1.0 -0.0284048757
C  C138  1  0.49010000  0.00000000  0.14460000  1.0 -0.0284048757
C  C139  1  0.00000000  0.49010000  0.64460000  1.0 -0.0284048757
C  C140  1  0.00000000  0.50990000  0.64460000  1.0 -0.0284048757
C  C141  1  0.43780000  0.00000000  0.89310000  1.0 -0.0284048757
C  C142  1  0.00000000  0.56220000  0.39310000  1.0 -0.0284048757
C  C143  1  0.56220000  0.00000000  0.89310000  1.0 -0.0284048757
C  C144  1  0.00000000  0.43780000  0.39310000  1.0 -0.0284048757
C  C145  1  0.56220000  0.00000000  0.10690000  1.0 -0.0284048757
C  C146  1  0.43780000  0.00000000  0.10690000  1.0 -0.0284048757
C  C147  1  0.00000000  0.43780000  0.60690000  1.0 -0.0284048757
C  C148  1  0.00000000  0.56220000  0.60690000  1.0 -0.0284048757
C  C149  1  0.43490000  0.00000000  0.97560000  1.0 -0.0114498043
C  C150  1  0.00000000  0.56510000  0.47560000  1.0 -0.0114498043
C  C151  1  0.56510000  0.00000000  0.97560000  1.0 -0.0114498043
C  C152  1  0.00000000  0.43490000  0.47560000  1.0 -0.0114498043
C  C153  1  0.56510000  0.00000000  0.02440000  1.0 -0.0114498043
C  C154  1  0.43490000  0.00000000  0.02440000  1.0 -0.0114498043
C  C155  1  0.00000000  0.43490000  0.52440000  1.0 -0.0114498043
C  C156  1  0.00000000  0.56510000  0.52440000  1.0 -0.0114498043
C  C157  1  0.48410000  0.00000000  0.02050000  1.0 0.0026280409
C  C158  1  0.00000000  0.51590000  0.52050000  1.0 0.0026280409
C  C159  1  0.51590000  0.00000000  0.02050000  1.0 0.0026280409
C  C160  1  0.00000000  0.48410000  0.52050000  1.0 0.0026280409
C  C161  1  0.51590000  0.00000000  0.97950000  1.0 0.0026280409
C  C162  1  0.48410000  0.00000000  0.97950000  1.0 0.0026280409
C  C163  1  0.00000000  0.48410000  0.47950000  1.0 0.0026280409
C  C164  1  0.00000000  0.51590000  0.47950000  1.0 0.0026280409
C  C165  1  0.53640000  0.00000000  0.98290000  1.0 0.0119023787
C  C166  1  0.00000000  0.46360000  0.48290000  1.0 0.0119023787
C  C167  1  0.46360000  0.00000000  0.98290000  1.0 0.0119023787
C  C168  1  0.00000000  0.53640000  0.48290000  1.0 0.0119023787
C  C169  1  0.46360000  0.00000000  0.01710000  1.0 0.0119023787
C  C170  1  0.53640000  0.00000000  0.01710000  1.0 0.0119023787
C  C171  1  0.00000000  0.53640000  0.51710000  1.0 0.0119023787
C  C172  1  0.00000000  0.46360000  0.51710000  1.0 0.0119023787
C  C173  1  0.53940000  0.00000000  0.90030000  1.0 -0.0114498043
C  C174  1  0.00000000  0.46060000  0.40030000  1.0 -0.0114498043
C  C175  1  0.46060000  0.00000000  0.90030000  1.0 -0.0114498043
C  C176  1  0.00000000  0.53940000  0.40030000  1.0 -0.0114498043
C  C177  1  0.46060000  0.00000000  0.09970000  1.0 -0.0114498043
C  C178  1  0.53940000  0.00000000  0.09970000  1.0 -0.0114498043
C  C179  1  0.00000000  0.53940000  0.59970000  1.0 -0.0114498043
C  C180  1  0.00000000  0.46060000  0.59970000  1.0 -0.0114498043
C  C181  1  0.48120000  0.00000000  0.10310000  1.0 0.0026280409
C  C182  1  0.00000000  0.51880000  0.60310000  1.0 0.0026280409
C  C183  1  0.51880000  0.00000000  0.10310000  1.0 0.0026280409
C  C184  1  0.00000000  0.48120000  0.60310000  1.0 0.0026280409
C  C185  1  0.51880000  0.00000000  0.89690000  1.0 0.0026280409
C  C186  1  0.48120000  0.00000000  0.89690000  1.0 0.0026280409
C  C187  1  0.00000000  0.48120000  0.39690000  1.0 0.0026280409
C  C188  1  0.00000000  0.51880000  0.39690000  1.0 0.0026280409
C  C189  1  0.53040000  0.00000000  0.14800000  1.0 -0.0424345498
C  C190  1  0.00000000  0.46960000  0.64800000  1.0 -0.0424345498
C  C191  1  0.46960000  0.00000000  0.14800000  1.0 -0.0424345498
C  C192  1  0.00000000  0.53040000  0.64800000  1.0 -0.0424345498
C  C193  1  0.46960000  0.00000000  0.85200000  1.0 -0.0424345498
C  C194  1  0.53040000  0.00000000  0.85200000  1.0 -0.0424345498
C  C195  1  0.00000000  0.53040000  0.35200000  1.0 -0.0424345498
C  C196  1  0.00000000  0.46960000  0.35200000  1.0 -0.0424345498
C  C197  1  0.58270000  0.00000000  0.11040000  1.0 -0.1268647086
C  C198  1  0.00000000  0.41730000  0.61040000  1.0 -0.1268647086
C  C199  1  0.41730000  0.00000000  0.11040000  1.0 -0.1268647086
C  C200  1  0.00000000  0.58270000  0.61040000  1.0 -0.1268647086
C  C201  1  0.41730000  0.00000000  0.88960000  1.0 -0.1268647086
C  C202  1  0.58270000  0.00000000  0.88960000  1.0 -0.1268647086
C  C203  1  0.00000000  0.58270000  0.38960000  1.0 -0.1268647086
C  C204  1  0.00000000  0.41730000  0.38960000  1.0 -0.1268647086
C  C205  1  0.58570000  0.00000000  0.02780000  1.0 -0.0424345498
C  C206  1  0.00000000  0.41430000  0.52780000  1.0 -0.0424345498
C  C207  1  0.41430000  0.00000000  0.02780000  1.0 -0.0424345498
C  C208  1  0.00000000  0.58570000  0.52780000  1.0 -0.0424345498
C  C209  1  0.41430000  0.00000000  0.97220000  1.0 -0.0424345498
C  C210  1  0.58570000  0.00000000  0.97220000  1.0 -0.0424345498
C  C211  1  0.00000000  0.58570000  0.47220000  1.0 -0.0424345498
C  C212  1  0.00000000  0.41430000  0.47220000  1.0 -0.0424345498
C  C213  1  0.52020000  0.00000000  0.23660000  1.0 0.234610517
C  C214  1  0.00000000  0.47980000  0.73660000  1.0 0.234610517
C  C215  1  0.47980000  0.00000000  0.23660000  1.0 0.234610517
C  C216  1  0.00000000  0.52020000  0.73660000  1.0 0.234610517
C  C217  1  0.47980000  0.00000000  0.76340000  1.0 0.234610517
C  C218  1  0.52020000  0.00000000  0.76340000  1.0 0.234610517
C  C219  1  0.00000000  0.52020000  0.26340000  1.0 0.234610517
C  C220  1  0.00000000  0.47980000  0.26340000  1.0 0.234610517
O  O1  1  0.42540000  0.94965000  0.50000000  1.0 -0.9525625888
O  O2  1  0.94965000  0.57460000  0.00000000  1.0 -0.9525625888
O  O3  1  0.57460000  0.05035000  0.50000000  1.0 -0.9525625888
O  O4  1  0.05035000  0.42540000  0.00000000  1.0 -0.9525625888
O  O5  1  0.57460000  0.94965000  0.50000000  1.0 -0.9525625888
O  O6  1  0.42540000  0.05035000  0.50000000  1.0 -0.9525625888
O  O7  1  0.94965000  0.42540000  0.00000000  1.0 -0.9525625888
O  O8  1  0.05035000  0.57460000  0.00000000  1.0 -0.9525625888
O  O9  1  0.50000000  0.94876000  0.60190000  1.0 -0.8134992603
O  O10  1  0.94876000  0.50000000  0.10190000  1.0 -0.8134992603
O  O11  1  0.50000000  0.05124000  0.60190000  1.0 -0.8134992603
O  O12  1  0.05124000  0.50000000  0.10190000  1.0 -0.8134992603
O  O13  1  0.50000000  0.94876000  0.39810000  1.0 -0.8134992603
O  O14  1  0.50000000  0.05124000  0.39810000  1.0 -0.8134992603
O  O15  1  0.94876000  0.50000000  0.89810000  1.0 -0.8134992603
O  O16  1  0.05124000  0.50000000  0.89810000  1.0 -0.8134992603
O  O17  1  0.44324000  0.84902000  0.57914000  1.0 -0.5943946723
O  O18  1  0.84902000  0.55676000  0.07914000  1.0 -0.5943946723
O  O19  1  0.55676000  0.15098000  0.57914000  1.0 -0.5943946723
O  O20  1  0.15098000  0.44324000  0.07914000  1.0 -0.5943946723
O  O21  1  0.55676000  0.84902000  0.42086000  1.0 -0.5943946723
O  O22  1  0.44324000  0.15098000  0.42086000  1.0 -0.5943946723
O  O23  1  0.84902000  0.44324000  0.92086000  1.0 -0.5943946723
O  O24  1  0.15098000  0.55676000  0.92086000  1.0 -0.5943946723
O  O25  1  0.55676000  0.15098000  0.42086000  1.0 -0.5943946723
O  O26  1  0.15098000  0.44324000  0.92086000  1.0 -0.5943946723
O  O27  1  0.44324000  0.84902000  0.42086000  1.0 -0.5943946723
O  O28  1  0.84902000  0.55676000  0.92086000  1.0 -0.5943946723
O  O29  1  0.44324000  0.15098000  0.57914000  1.0 -0.5943946723
O  O30  1  0.55676000  0.84902000  0.57914000  1.0 -0.5943946723
O  O31  1  0.15098000  0.55676000  0.07914000  1.0 -0.5943946723
O  O32  1  0.84902000  0.44324000  0.07914000  1.0 -0.5943946723
O  O33  1  0.39730000  0.91613000  0.64920000  1.0 -0.5737795864
O  O34  1  0.91613000  0.60270000  0.14920000  1.0 -0.5737795864
O  O35  1  0.60270000  0.08387000  0.64920000  1.0 -0.5737795864
O  O36  1  0.08387000  0.39730000  0.14920000  1.0 -0.5737795864
O  O37  1  0.60270000  0.91613000  0.35080000  1.0 -0.5737795864
O  O38  1  0.39730000  0.08387000  0.35080000  1.0 -0.5737795864
O  O39  1  0.91613000  0.39730000  0.85080000  1.0 -0.5737795864
O  O40  1  0.08387000  0.60270000  0.85080000  1.0 -0.5737795864
O  O41  1  0.60270000  0.08387000  0.35080000  1.0 -0.5737795864
O  O42  1  0.08387000  0.39730000  0.85080000  1.0 -0.5737795864
O  O43  1  0.39730000  0.91613000  0.35080000  1.0 -0.5737795864
O  O44  1  0.91613000  0.60270000  0.85080000  1.0 -0.5737795864
O  O45  1  0.39730000  0.08387000  0.64920000  1.0 -0.5737795864
O  O46  1  0.60270000  0.91613000  0.64920000  1.0 -0.5737795864
O  O47  1  0.08387000  0.60270000  0.14920000  1.0 -0.5737795864
O  O48  1  0.91613000  0.39730000  0.14920000  1.0 -0.5737795864
O  O49  1  0.45640000  0.00000000  0.72130000  1.0 -0.0865585651
O  O50  1  0.00000000  0.54360000  0.22130000  1.0 -0.0865585651
O  O51  1  0.54360000  0.00000000  0.72130000  1.0 -0.0865585651
O  O52  1  0.00000000  0.45640000  0.22130000  1.0 -0.0865585651
O  O53  1  0.54360000  0.00000000  0.27870000  1.0 -0.0865585651
O  O54  1  0.45640000  0.00000000  0.27870000  1.0 -0.0865585651
O  O55  1  0.00000000  0.45640000  0.77870000  1.0 -0.0865585651
O  O56  1  0.00000000  0.54360000  0.77870000  1.0 -0.0865585651
O  O57  1  0.56320000  0.00000000  0.28300000  1.0 -0.0539817676
O  O58  1  0.00000000  0.43680000  0.78300000  1.0 -0.0539817676
O  O59  1  0.43680000  0.00000000  0.28300000  1.0 -0.0539817676
O  O60  1  0.00000000  0.56320000  0.78300000  1.0 -0.0539817676
O  O61  1  0.43680000  0.00000000  0.71700000  1.0 -0.0539817676
O  O62  1  0.56320000  0.00000000  0.71700000  1.0 -0.0539817676
O  O63  1  0.00000000  0.56320000  0.21700000  1.0 -0.0539817676
O  O64  1  0.00000000  0.43680000  0.21700000  1.0 -0.0539817676
O  O65  1  0.46920000  0.00000000  0.26220000  1.0 0.1203827992
O  O66  1  0.00000000  0.53080000  0.76220000  1.0 0.1203827992
O  O67  1  0.53080000  0.00000000  0.26220000  1.0 0.1203827992
O  O68  1  0.00000000  0.46920000  0.76220000  1.0 0.1203827992
O  O69  1  0.53080000  0.00000000  0.73780000  1.0 0.1203827992
O  O70  1  0.46920000  0.00000000  0.73780000  1.0 0.1203827992
O  O71  1  0.00000000  0.46920000  0.23780000  1.0 0.1203827992
O  O72  1  0.00000000  0.53080000  0.23780000  1.0 0.1203827992
O  O73  1  0.55063000  0.00000000  0.74060000  1.0 -0.0424345498
O  O74  1  0.00000000  0.44937000  0.24060000  1.0 -0.0424345498
O  O75  1  0.44937000  0.00000000  0.74060000  1.0 -0.0424345498
O  O76  1  0.00000000  0.55063000  0.24060000  1.0 -0.0424345498
O  O77  1  0.44937000  0.00000000  0.25940000  1.0 -0.0424345498
O  O78  1  0.55063000  0.00000000  0.25940000  1.0 -0.0424345498
O  O79  1  0.00000000  0.55063000  0.75940000  1.0 -0.0424345498
O  O80  1  0.00000000  0.44937000  0.75940000  1.0 -0.0424345498
