# DDEC6 charges by PACMAN v1.1 (https://github.com/mtap-research/PACMAN-charge/)
data_ERAMAN_ASR_pacman
_symmetry_space_group_name_H-M   'P 1'
_cell_length_a   23.02400000
_cell_length_b   23.02400000
_cell_length_c   18.64840000
_cell_angle_alpha   90.00000000
_cell_angle_beta   90.00000000
_cell_angle_gamma   90.00000000
_symmetry_Int_Tables_number   1
_chemical_formula_structural   Zr3H8C28(N2O11)4
_chemical_formula_sum   'Zr12 H32 C112 N32 O176'
_cell_volume   9885.60217508
_cell_formula_units_Z   4
loop_
 _symmetry_equiv_pos_site_id
 _symmetry_equiv_pos_as_xyz
  1  'x, y, z'
loop_
 _atom_site_type_symbol
 _atom_site_label
 _atom_site_symmetry_multiplicity
 _atom_site_fract_x
 _atom_site_fract_y
 _atom_site_fract_z
 _atom_site_occupancy
 _atom_site_charge
Zr  Zr1  1  0.10670000  0.50000000  0.00000000  1.0 2.316102114
Zr  Zr2  1  0.50000000  0.89330000  0.50000000  1.0 2.3144001232
Zr  Zr3  1  0.89330000  0.50000000  0.00000000  1.0 2.316102114
Zr  Zr4  1  0.50000000  0.10670000  0.50000000  1.0 2.316102114
Zr  Zr5  1  0.00000000  0.42387000  0.09248000  1.0 2.4254178272
Zr  Zr6  1  0.42387000  0.00000000  0.59248000  1.0 2.4254178272
Zr  Zr7  1  0.00000000  0.57613000  0.09248000  1.0 2.4254178272
Zr  Zr8  1  0.57613000  0.00000000  0.59248000  1.0 2.4254178272
Zr  Zr9  1  0.00000000  0.42387000  0.90752000  1.0 2.4243411289
Zr  Zr10  1  0.00000000  0.57613000  0.90752000  1.0 2.4243411289
Zr  Zr11  1  0.42387000  0.00000000  0.40752000  1.0 2.4254178272
Zr  Zr12  1  0.57613000  0.00000000  0.40752000  1.0 2.4254178272
H  H1  1  0.25430000  0.39350000  0.09460000  1.0 0.1086512131
H  H2  1  0.39350000  0.74570000  0.59460000  1.0 0.1086512131
H  H3  1  0.74570000  0.60650000  0.09460000  1.0 0.1086512131
H  H4  1  0.60650000  0.25430000  0.59460000  1.0 0.1086512131
H  H5  1  0.74570000  0.39350000  0.90540000  1.0 0.1086512131
H  H6  1  0.25430000  0.60650000  0.90540000  1.0 0.1086512131
H  H7  1  0.39350000  0.25430000  0.40540000  1.0 0.1086512131
H  H8  1  0.60650000  0.74570000  0.40540000  1.0 0.1086512131
H  H9  1  0.74570000  0.60650000  0.90540000  1.0 0.1086512131
H  H10  1  0.60650000  0.25430000  0.40540000  1.0 0.1086512131
H  H11  1  0.25430000  0.39350000  0.90540000  1.0 0.1086512131
H  H12  1  0.39350000  0.74570000  0.40540000  1.0 0.1086512131
H  H13  1  0.25430000  0.60650000  0.09460000  1.0 0.1086512131
H  H14  1  0.74570000  0.39350000  0.09460000  1.0 0.1086512131
H  H15  1  0.60650000  0.74570000  0.59460000  1.0 0.1086512131
H  H16  1  0.39350000  0.25430000  0.59460000  1.0 0.1086512131
H  H17  1  0.12610000  0.34170000  0.22910000  1.0 0.0751628594
H  H18  1  0.34170000  0.87390000  0.72910000  1.0 0.0751628594
H  H19  1  0.87390000  0.65830000  0.22910000  1.0 0.0751628594
H  H20  1  0.65830000  0.12610000  0.72910000  1.0 0.0751628594
H  H21  1  0.87390000  0.34170000  0.77090000  1.0 0.0751628594
H  H22  1  0.12610000  0.65830000  0.77090000  1.0 0.0751628594
H  H23  1  0.34170000  0.12610000  0.27090000  1.0 0.0751628594
H  H24  1  0.65830000  0.87390000  0.27090000  1.0 0.0751628594
H  H25  1  0.87390000  0.65830000  0.77090000  1.0 0.0751628594
H  H26  1  0.65830000  0.12610000  0.27090000  1.0 0.0751628594
H  H27  1  0.12610000  0.34170000  0.77090000  1.0 0.0751628594
H  H28  1  0.34170000  0.87390000  0.27090000  1.0 0.0751628594
H  H29  1  0.12610000  0.65830000  0.22910000  1.0 0.0751628594
H  H30  1  0.87390000  0.34170000  0.22910000  1.0 0.0751628594
H  H31  1  0.65830000  0.87390000  0.72910000  1.0 0.0751628594
H  H32  1  0.34170000  0.12610000  0.72910000  1.0 0.0751628594
C  C1  1  0.13930000  0.40480000  0.11300000  1.0 0.6543003002
C  C2  1  0.40480000  0.86070000  0.61300000  1.0 0.6543003002
C  C3  1  0.86070000  0.59520000  0.11300000  1.0 0.6543003002
C  C4  1  0.59520000  0.13930000  0.61300000  1.0 0.6543003002
C  C5  1  0.86070000  0.40480000  0.88700000  1.0 0.6543003002
C  C6  1  0.13930000  0.59520000  0.88700000  1.0 0.6543003002
C  C7  1  0.40480000  0.13930000  0.38700000  1.0 0.6543003002
C  C8  1  0.59520000  0.86070000  0.38700000  1.0 0.6543003002
C  C9  1  0.86070000  0.59520000  0.88700000  1.0 0.6543003002
C  C10  1  0.59520000  0.13930000  0.38700000  1.0 0.6543003002
C  C11  1  0.13930000  0.40480000  0.88700000  1.0 0.6543003002
C  C12  1  0.40480000  0.86070000  0.38700000  1.0 0.6543003002
C  C13  1  0.13930000  0.59520000  0.11300000  1.0 0.6543003002
C  C14  1  0.86070000  0.40480000  0.11300000  1.0 0.6543003002
C  C15  1  0.59520000  0.86070000  0.61300000  1.0 0.6543003002
C  C16  1  0.40480000  0.13930000  0.61300000  1.0 0.6543003002
C  C17  1  0.18390000  0.37290000  0.15580000  1.0 -0.0292551276
C  C18  1  0.37290000  0.81610000  0.65580000  1.0 -0.0292551276
C  C19  1  0.81610000  0.62710000  0.15580000  1.0 -0.0292551276
C  C20  1  0.62710000  0.18390000  0.65580000  1.0 -0.0292551276
C  C21  1  0.81610000  0.37290000  0.84420000  1.0 -0.0292551276
C  C22  1  0.18390000  0.62710000  0.84420000  1.0 -0.0292551276
C  C23  1  0.37290000  0.18390000  0.34420000  1.0 -0.0292551276
C  C24  1  0.62710000  0.81610000  0.34420000  1.0 -0.0292551276
C  C25  1  0.81610000  0.62710000  0.84420000  1.0 -0.0292551276
C  C26  1  0.62710000  0.18390000  0.34420000  1.0 -0.0292551276
C  C27  1  0.18390000  0.37290000  0.84420000  1.0 -0.0292551276
C  C28  1  0.37290000  0.81610000  0.34420000  1.0 -0.0292551276
C  C29  1  0.18390000  0.62710000  0.15580000  1.0 -0.0292551276
C  C30  1  0.81610000  0.37290000  0.15580000  1.0 -0.0292551276
C  C31  1  0.62710000  0.81610000  0.65580000  1.0 -0.0292551276
C  C32  1  0.37290000  0.18390000  0.65580000  1.0 -0.0292551276
C  C33  1  0.24180000  0.37160000  0.13490000  1.0 -0.1609826202
C  C34  1  0.37160000  0.75820000  0.63490000  1.0 -0.1609826202
C  C35  1  0.75820000  0.62840000  0.13490000  1.0 -0.1609826202
C  C36  1  0.62840000  0.24180000  0.63490000  1.0 -0.1609826202
C  C37  1  0.75820000  0.37160000  0.86510000  1.0 -0.1609826202
C  C38  1  0.24180000  0.62840000  0.86510000  1.0 -0.1609826202
C  C39  1  0.37160000  0.24180000  0.36510000  1.0 -0.1609826202
C  C40  1  0.62840000  0.75820000  0.36510000  1.0 -0.1609826202
C  C41  1  0.75820000  0.62840000  0.86510000  1.0 -0.1609826202
C  C42  1  0.62840000  0.24180000  0.36510000  1.0 -0.1609826202
C  C43  1  0.24180000  0.37160000  0.86510000  1.0 -0.1609826202
C  C44  1  0.37160000  0.75820000  0.36510000  1.0 -0.1609826202
C  C45  1  0.24180000  0.62840000  0.13490000  1.0 -0.1609826202
C  C46  1  0.75820000  0.37160000  0.13490000  1.0 -0.1609826202
C  C47  1  0.62840000  0.75820000  0.63490000  1.0 -0.1609826202
C  C48  1  0.37160000  0.24180000  0.63490000  1.0 -0.1609826202
C  C49  1  0.16568000  0.34090000  0.21480000  1.0 -0.1698192677
C  C50  1  0.34090000  0.83432000  0.71480000  1.0 -0.1698192677
C  C51  1  0.83432000  0.65910000  0.21480000  1.0 -0.1698192677
C  C52  1  0.65910000  0.16568000  0.71480000  1.0 -0.1698192677
C  C53  1  0.83432000  0.34090000  0.78520000  1.0 -0.1698192677
C  C54  1  0.16568000  0.65910000  0.78520000  1.0 -0.1698192677
C  C55  1  0.34090000  0.16568000  0.28520000  1.0 -0.1698192677
C  C56  1  0.65910000  0.83432000  0.28520000  1.0 -0.1698192677
C  C57  1  0.83432000  0.65910000  0.78520000  1.0 -0.1698192677
C  C58  1  0.65910000  0.16568000  0.28520000  1.0 -0.1698192677
C  C59  1  0.16568000  0.34090000  0.78520000  1.0 -0.1698192677
C  C60  1  0.34090000  0.83432000  0.28520000  1.0 -0.1698192677
C  C61  1  0.16568000  0.65910000  0.21480000  1.0 -0.1698192677
C  C62  1  0.83432000  0.34090000  0.21480000  1.0 -0.1698192677
C  C63  1  0.65910000  0.83432000  0.71480000  1.0 -0.1698192677
C  C64  1  0.34090000  0.16568000  0.71480000  1.0 -0.1698192677
C  C65  1  0.28158000  0.33840000  0.17320000  1.0 -0.123484852
C  C66  1  0.33840000  0.71842000  0.67320000  1.0 -0.123484852
C  C67  1  0.71842000  0.66160000  0.17320000  1.0 -0.123484852
C  C68  1  0.66160000  0.28158000  0.67320000  1.0 -0.123484852
C  C69  1  0.71842000  0.33840000  0.82680000  1.0 -0.123484852
C  C70  1  0.28158000  0.66160000  0.82680000  1.0 -0.123484852
C  C71  1  0.33840000  0.28158000  0.32680000  1.0 -0.123484852
C  C72  1  0.66160000  0.71842000  0.32680000  1.0 -0.123484852
C  C73  1  0.71842000  0.66160000  0.82680000  1.0 -0.123484852
C  C74  1  0.66160000  0.28158000  0.32680000  1.0 -0.123484852
C  C75  1  0.28158000  0.33840000  0.82680000  1.0 -0.123484852
C  C76  1  0.33840000  0.71842000  0.32680000  1.0 -0.123484852
C  C77  1  0.28158000  0.66160000  0.17320000  1.0 -0.123484852
C  C78  1  0.71842000  0.33840000  0.17320000  1.0 -0.123484852
C  C79  1  0.66160000  0.71842000  0.67320000  1.0 -0.123484852
C  C80  1  0.33840000  0.28158000  0.67320000  1.0 -0.123484852
C  C81  1  0.20540000  0.30760000  0.25310000  1.0 -0.1312834604
C  C82  1  0.30760000  0.79460000  0.75310000  1.0 -0.1312834604
C  C83  1  0.79460000  0.69240000  0.25310000  1.0 -0.1312834604
C  C84  1  0.69240000  0.20540000  0.75310000  1.0 -0.1312834604
C  C85  1  0.79460000  0.30760000  0.74690000  1.0 -0.1312834604
C  C86  1  0.20540000  0.69240000  0.74690000  1.0 -0.1312834604
C  C87  1  0.30760000  0.20540000  0.24690000  1.0 -0.1312834604
C  C88  1  0.69240000  0.79460000  0.24690000  1.0 -0.1312834604
C  C89  1  0.79460000  0.69240000  0.74690000  1.0 -0.1312834604
C  C90  1  0.69240000  0.20540000  0.24690000  1.0 -0.1312834604
C  C91  1  0.20540000  0.30760000  0.74690000  1.0 -0.1312834604
C  C92  1  0.30760000  0.79460000  0.24690000  1.0 -0.1312834604
C  C93  1  0.20540000  0.69240000  0.25310000  1.0 -0.1312834604
C  C94  1  0.79460000  0.30760000  0.25310000  1.0 -0.1312834604
C  C95  1  0.69240000  0.79460000  0.75310000  1.0 -0.1312834604
C  C96  1  0.30760000  0.20540000  0.75310000  1.0 -0.1312834604
C  C97  1  0.26340000  0.30630000  0.23220000  1.0 -0.0292551276
C  C98  1  0.30630000  0.73660000  0.73220000  1.0 -0.0292551276
C  C99  1  0.73660000  0.69370000  0.23220000  1.0 -0.0292551276
C  C100  1  0.69370000  0.26340000  0.73220000  1.0 -0.0292551276
C  C101  1  0.73660000  0.30630000  0.76780000  1.0 -0.0292551276
C  C102  1  0.26340000  0.69370000  0.76780000  1.0 -0.0292551276
C  C103  1  0.30630000  0.26340000  0.26780000  1.0 -0.0292551276
C  C104  1  0.69370000  0.73660000  0.26780000  1.0 -0.0292551276
C  C105  1  0.73660000  0.69370000  0.76780000  1.0 -0.0292551276
C  C106  1  0.69370000  0.26340000  0.26780000  1.0 -0.0292551276
C  C107  1  0.26340000  0.30630000  0.76780000  1.0 -0.0292551276
C  C108  1  0.30630000  0.73660000  0.26780000  1.0 -0.0292551276
C  C109  1  0.26340000  0.69370000  0.23220000  1.0 -0.0292551276
C  C110  1  0.73660000  0.30630000  0.23220000  1.0 -0.0292551276
C  C111  1  0.69370000  0.73660000  0.73220000  1.0 -0.0292551276
C  C112  1  0.30630000  0.26340000  0.73220000  1.0 -0.0292551276
N  N1  1  0.34110000  0.34140000  0.14470000  1.0 0.4545469357
N  N2  1  0.34140000  0.65890000  0.64470000  1.0 0.4545469357
N  N3  1  0.65890000  0.65860000  0.14470000  1.0 0.4545469357
N  N4  1  0.65860000  0.34110000  0.64470000  1.0 0.4545469357
N  N5  1  0.65890000  0.34140000  0.85530000  1.0 0.4545469357
N  N6  1  0.34110000  0.65860000  0.85530000  1.0 0.4545469357
N  N7  1  0.34140000  0.34110000  0.35530000  1.0 0.4545469357
N  N8  1  0.65860000  0.65890000  0.35530000  1.0 0.4545469357
N  N9  1  0.65890000  0.65860000  0.85530000  1.0 0.4545469357
N  N10  1  0.65860000  0.34110000  0.35530000  1.0 0.4545469357
N  N11  1  0.34110000  0.34140000  0.85530000  1.0 0.4545469357
N  N12  1  0.34140000  0.65890000  0.35530000  1.0 0.4545469357
N  N13  1  0.34110000  0.65860000  0.14470000  1.0 0.4545469357
N  N14  1  0.65890000  0.34140000  0.14470000  1.0 0.4545469357
N  N15  1  0.65860000  0.65890000  0.64470000  1.0 0.4545469357
N  N16  1  0.34140000  0.34110000  0.64470000  1.0 0.4545469357
N  N17  1  0.17980000  0.27590000  0.31460000  1.0 0.4194158891
N  N18  1  0.27590000  0.82020000  0.81460000  1.0 0.4194158891
N  N19  1  0.82020000  0.72410000  0.31460000  1.0 0.4194158891
N  N20  1  0.72410000  0.17980000  0.81460000  1.0 0.4194158891
N  N21  1  0.82020000  0.27590000  0.68540000  1.0 0.4194158891
N  N22  1  0.17980000  0.72410000  0.68540000  1.0 0.4194158891
N  N23  1  0.27590000  0.17980000  0.18540000  1.0 0.4194158891
N  N24  1  0.72410000  0.82020000  0.18540000  1.0 0.4194158891
N  N25  1  0.82020000  0.72410000  0.68540000  1.0 0.4194158891
N  N26  1  0.72410000  0.17980000  0.18540000  1.0 0.4194158891
N  N27  1  0.17980000  0.27590000  0.68540000  1.0 0.4194158891
N  N28  1  0.27590000  0.82020000  0.18540000  1.0 0.4194158891
N  N29  1  0.17980000  0.72410000  0.31460000  1.0 0.4194158891
N  N30  1  0.82020000  0.27590000  0.31460000  1.0 0.4194158891
N  N31  1  0.72410000  0.82020000  0.81460000  1.0 0.4194158891
N  N32  1  0.27590000  0.17980000  0.81460000  1.0 0.4194158891
O  O1  1  0.05200000  0.50000000  0.09200000  1.0 -1.1983619167
O  O2  1  0.50000000  0.94800000  0.59200000  1.0 -1.1983619167
O  O3  1  0.94800000  0.50000000  0.09200000  1.0 -1.1983619167
O  O4  1  0.50000000  0.05200000  0.59200000  1.0 -1.1983619167
O  O5  1  0.94800000  0.50000000  0.90800000  1.0 -1.1983619167
O  O6  1  0.05200000  0.50000000  0.90800000  1.0 -1.1983619167
O  O7  1  0.50000000  0.05200000  0.40800000  1.0 -1.1983619167
O  O8  1  0.50000000  0.94800000  0.40800000  1.0 -1.1983619167
O  O9  1  0.05300000  0.42250000  0.00000000  1.0 -1.1983619167
O  O10  1  0.42250000  0.94700000  0.50000000  1.0 -1.1983619167
O  O11  1  0.94700000  0.57750000  0.00000000  1.0 -1.1983619167
O  O12  1  0.57750000  0.05300000  0.50000000  1.0 -1.1983619167
O  O13  1  0.94700000  0.42250000  0.00000000  1.0 -1.1983619167
O  O14  1  0.05300000  0.57750000  0.00000000  1.0 -1.1983619167
O  O15  1  0.42250000  0.05300000  0.50000000  1.0 -1.1983619167
O  O16  1  0.57750000  0.94700000  0.50000000  1.0 -1.1983619167
O  O17  1  0.15730000  0.44250000  0.06890000  1.0 -0.5813257528
O  O18  1  0.44250000  0.84270000  0.56890000  1.0 -0.5813257528
O  O19  1  0.84270000  0.55750000  0.06890000  1.0 -0.5813257528
O  O20  1  0.55750000  0.15730000  0.56890000  1.0 -0.5813257528
O  O21  1  0.84270000  0.44250000  0.93110000  1.0 -0.5813257528
O  O22  1  0.15730000  0.55750000  0.93110000  1.0 -0.5813257528
O  O23  1  0.44250000  0.15730000  0.43110000  1.0 -0.5813257528
O  O24  1  0.55750000  0.84270000  0.43110000  1.0 -0.5813257528
O  O25  1  0.84270000  0.55750000  0.93110000  1.0 -0.5813257528
O  O26  1  0.55750000  0.15730000  0.43110000  1.0 -0.5813257528
O  O27  1  0.15730000  0.44250000  0.93110000  1.0 -0.5813257528
O  O28  1  0.44250000  0.84270000  0.43110000  1.0 -0.5813257528
O  O29  1  0.15730000  0.55750000  0.06890000  1.0 -0.5813257528
O  O30  1  0.84270000  0.44250000  0.06890000  1.0 -0.5813257528
O  O31  1  0.55750000  0.84270000  0.56890000  1.0 -0.5813257528
O  O32  1  0.44250000  0.15730000  0.56890000  1.0 -0.5813257528
O  O33  1  0.08770000  0.39420000  0.12940000  1.0 -0.6005790292
O  O34  1  0.39420000  0.91230000  0.62940000  1.0 -0.6005790292
O  O35  1  0.91230000  0.60580000  0.12940000  1.0 -0.6005790292
O  O36  1  0.60580000  0.08770000  0.62940000  1.0 -0.6005790292
O  O37  1  0.91230000  0.39420000  0.87060000  1.0 -0.6005790292
O  O38  1  0.08770000  0.60580000  0.87060000  1.0 -0.6005790292
O  O39  1  0.39420000  0.08770000  0.37060000  1.0 -0.6005790292
O  O40  1  0.60580000  0.91230000  0.37060000  1.0 -0.6005790292
O  O41  1  0.91230000  0.60580000  0.87060000  1.0 -0.6005790292
O  O42  1  0.60580000  0.08770000  0.37060000  1.0 -0.6005790292
O  O43  1  0.08770000  0.39420000  0.87060000  1.0 -0.6005790292
O  O44  1  0.39420000  0.91230000  0.37060000  1.0 -0.6005790292
O  O45  1  0.08770000  0.60580000  0.12940000  1.0 -0.6005790292
O  O46  1  0.91230000  0.39420000  0.12940000  1.0 -0.6005790292
O  O47  1  0.60580000  0.91230000  0.62940000  1.0 -0.6005790292
O  O48  1  0.39420000  0.08770000  0.62940000  1.0 -0.6005790292
O  O49  1  0.36040000  0.38750000  0.12330000  1.0 -0.0292551276
O  O50  1  0.38750000  0.63960000  0.62330000  1.0 -0.0292551276
O  O51  1  0.63960000  0.61250000  0.12330000  1.0 -0.0292551276
O  O52  1  0.61250000  0.36040000  0.62330000  1.0 -0.0292551276
O  O53  1  0.63960000  0.38750000  0.87670000  1.0 -0.0292551276
O  O54  1  0.36040000  0.61250000  0.87670000  1.0 -0.0292551276
O  O55  1  0.38750000  0.36040000  0.37670000  1.0 -0.0292551276
O  O56  1  0.61250000  0.63960000  0.37670000  1.0 -0.0292551276
O  O57  1  0.63960000  0.61250000  0.87670000  1.0 -0.0292551276
O  O58  1  0.61250000  0.36040000  0.37670000  1.0 -0.0292551276
O  O59  1  0.36040000  0.38750000  0.87670000  1.0 -0.0292551276
O  O60  1  0.38750000  0.63960000  0.37670000  1.0 -0.0292551276
O  O61  1  0.36040000  0.61250000  0.12330000  1.0 -0.0292551276
O  O62  1  0.63960000  0.38750000  0.12330000  1.0 -0.0292551276
O  O63  1  0.61250000  0.63960000  0.62330000  1.0 -0.0292551276
O  O64  1  0.38750000  0.36040000  0.62330000  1.0 -0.0292551276
O  O65  1  0.36760000  0.29410000  0.14500000  1.0 -0.1113305253
O  O66  1  0.29410000  0.63240000  0.64500000  1.0 -0.1113305253
O  O67  1  0.63240000  0.70590000  0.14500000  1.0 -0.1113305253
O  O68  1  0.70590000  0.36760000  0.64500000  1.0 -0.1113305253
O  O69  1  0.63240000  0.29410000  0.85500000  1.0 -0.1113305253
O  O70  1  0.36760000  0.70590000  0.85500000  1.0 -0.1113305253
O  O71  1  0.29410000  0.36760000  0.35500000  1.0 -0.1113305253
O  O72  1  0.70590000  0.63240000  0.35500000  1.0 -0.1113305253
O  O73  1  0.63240000  0.70590000  0.85500000  1.0 -0.1113305253
O  O74  1  0.70590000  0.36760000  0.35500000  1.0 -0.1113305253
O  O75  1  0.36760000  0.29410000  0.85500000  1.0 -0.1113305253
O  O76  1  0.29410000  0.63240000  0.35500000  1.0 -0.1113305253
O  O77  1  0.36760000  0.70590000  0.14500000  1.0 -0.1113305253
O  O78  1  0.63240000  0.29410000  0.14500000  1.0 -0.1113305253
O  O79  1  0.70590000  0.63240000  0.64500000  1.0 -0.1113305253
O  O80  1  0.29410000  0.36760000  0.64500000  1.0 -0.1113305253
O  O81  1  0.14450000  0.30080000  0.35240000  1.0 0.0226042343
O  O82  1  0.30080000  0.85550000  0.85240000  1.0 0.0226042343
O  O83  1  0.85550000  0.69920000  0.35240000  1.0 0.0226042343
O  O84  1  0.69920000  0.14450000  0.85240000  1.0 0.0226042343
O  O85  1  0.85550000  0.30080000  0.64760000  1.0 0.0226042343
O  O86  1  0.14450000  0.69920000  0.64760000  1.0 0.0226042343
O  O87  1  0.30080000  0.14450000  0.14760000  1.0 0.0226042343
O  O88  1  0.69920000  0.85550000  0.14760000  1.0 0.0226042343
O  O89  1  0.85550000  0.69920000  0.64760000  1.0 0.0226042343
O  O90  1  0.69920000  0.14450000  0.14760000  1.0 0.0226042343
O  O91  1  0.14450000  0.30080000  0.64760000  1.0 0.0226042343
O  O92  1  0.30080000  0.85550000  0.14760000  1.0 0.0226042343
O  O93  1  0.14450000  0.69920000  0.35240000  1.0 0.0226042343
O  O94  1  0.85550000  0.30080000  0.35240000  1.0 0.0226042343
O  O95  1  0.69920000  0.85550000  0.85240000  1.0 0.0226042343
O  O96  1  0.30080000  0.14450000  0.85240000  1.0 0.0226042343
O  O97  1  0.19670000  0.22510000  0.32300000  1.0 -0.104616279
O  O98  1  0.22510000  0.80330000  0.82300000  1.0 -0.104616279
O  O99  1  0.80330000  0.77490000  0.32300000  1.0 -0.104616279
O  O100  1  0.77490000  0.19670000  0.82300000  1.0 -0.104616279
O  O101  1  0.80330000  0.22510000  0.67700000  1.0 -0.104616279
O  O102  1  0.19670000  0.77490000  0.67700000  1.0 -0.104616279
O  O103  1  0.22510000  0.19670000  0.17700000  1.0 -0.104616279
O  O104  1  0.77490000  0.80330000  0.17700000  1.0 -0.104616279
O  O105  1  0.80330000  0.77490000  0.67700000  1.0 -0.104616279
O  O106  1  0.77490000  0.19670000  0.17700000  1.0 -0.104616279
O  O107  1  0.19670000  0.22510000  0.67700000  1.0 -0.104616279
O  O108  1  0.22510000  0.80330000  0.17700000  1.0 -0.104616279
O  O109  1  0.19670000  0.77490000  0.32300000  1.0 -0.104616279
O  O110  1  0.80330000  0.22510000  0.32300000  1.0 -0.104616279
O  O111  1  0.77490000  0.80330000  0.82300000  1.0 -0.104616279
O  O112  1  0.22510000  0.19670000  0.82300000  1.0 -0.104616279
O  O113  1  0.34950000  0.33900000  0.08020000  1.0 -0.0778727589
O  O114  1  0.33900000  0.65050000  0.58020000  1.0 -0.0778727589
O  O115  1  0.65050000  0.66100000  0.08020000  1.0 -0.0778727589
O  O116  1  0.66100000  0.34950000  0.58020000  1.0 -0.0778727589
O  O117  1  0.65050000  0.33900000  0.91980000  1.0 -0.0778727589
O  O118  1  0.34950000  0.66100000  0.91980000  1.0 -0.0778727589
O  O119  1  0.33900000  0.34950000  0.41980000  1.0 -0.0778727589
O  O120  1  0.66100000  0.65050000  0.41980000  1.0 -0.0778727589
O  O121  1  0.65050000  0.66100000  0.91980000  1.0 -0.0778727589
O  O122  1  0.66100000  0.34950000  0.41980000  1.0 -0.0778727589
O  O123  1  0.34950000  0.33900000  0.91980000  1.0 -0.0778727589
O  O124  1  0.33900000  0.65050000  0.41980000  1.0 -0.0778727589
O  O125  1  0.34950000  0.66100000  0.08020000  1.0 -0.0778727589
O  O126  1  0.65050000  0.33900000  0.08020000  1.0 -0.0778727589
O  O127  1  0.66100000  0.65050000  0.58020000  1.0 -0.0778727589
O  O128  1  0.33900000  0.34950000  0.58020000  1.0 -0.0778727589
O  O129  1  0.38020000  0.34680000  0.19060000  1.0 -0.092140529
O  O130  1  0.34680000  0.61980000  0.69060000  1.0 -0.092140529
O  O131  1  0.61980000  0.65320000  0.19060000  1.0 -0.092140529
O  O132  1  0.65320000  0.38020000  0.69060000  1.0 -0.092140529
O  O133  1  0.61980000  0.34680000  0.80940000  1.0 -0.092140529
O  O134  1  0.38020000  0.65320000  0.80940000  1.0 -0.092140529
O  O135  1  0.34680000  0.38020000  0.30940000  1.0 -0.092140529
O  O136  1  0.65320000  0.61980000  0.30940000  1.0 -0.092140529
O  O137  1  0.61980000  0.65320000  0.80940000  1.0 -0.092140529
O  O138  1  0.65320000  0.38020000  0.30940000  1.0 -0.092140529
O  O139  1  0.38020000  0.34680000  0.80940000  1.0 -0.092140529
O  O140  1  0.34680000  0.61980000  0.30940000  1.0 -0.092140529
O  O141  1  0.38020000  0.65320000  0.19060000  1.0 -0.092140529
O  O142  1  0.61980000  0.34680000  0.19060000  1.0 -0.092140529
O  O143  1  0.65320000  0.61980000  0.69060000  1.0 -0.092140529
O  O144  1  0.34680000  0.38020000  0.69060000  1.0 -0.092140529
O  O145  1  0.20830000  0.27150000  0.36990000  1.0 -0.092140529
O  O146  1  0.27150000  0.79170000  0.86990000  1.0 -0.092140529
O  O147  1  0.79170000  0.72850000  0.36990000  1.0 -0.092140529
O  O148  1  0.72850000  0.20830000  0.86990000  1.0 -0.092140529
O  O149  1  0.79170000  0.27150000  0.63010000  1.0 -0.092140529
O  O150  1  0.20830000  0.72850000  0.63010000  1.0 -0.092140529
O  O151  1  0.27150000  0.20830000  0.13010000  1.0 -0.092140529
O  O152  1  0.72850000  0.79170000  0.13010000  1.0 -0.092140529
O  O153  1  0.79170000  0.72850000  0.63010000  1.0 -0.092140529
O  O154  1  0.72850000  0.20830000  0.13010000  1.0 -0.092140529
O  O155  1  0.20830000  0.27150000  0.63010000  1.0 -0.092140529
O  O156  1  0.27150000  0.79170000  0.13010000  1.0 -0.092140529
O  O157  1  0.20830000  0.72850000  0.36990000  1.0 -0.092140529
O  O158  1  0.79170000  0.27150000  0.36990000  1.0 -0.092140529
O  O159  1  0.72850000  0.79170000  0.86990000  1.0 -0.092140529
O  O160  1  0.27150000  0.20830000  0.86990000  1.0 -0.092140529
O  O161  1  0.13080000  0.25540000  0.30720000  1.0 0.0055279909
O  O162  1  0.25540000  0.86920000  0.80720000  1.0 0.0055279909
O  O163  1  0.86920000  0.74460000  0.30720000  1.0 0.0055279909
O  O164  1  0.74460000  0.13080000  0.80720000  1.0 0.0055279909
O  O165  1  0.86920000  0.25540000  0.69280000  1.0 0.0055279909
O  O166  1  0.13080000  0.74460000  0.69280000  1.0 0.0055279909
O  O167  1  0.25540000  0.13080000  0.19280000  1.0 0.0055279909
O  O168  1  0.74460000  0.86920000  0.19280000  1.0 0.0055279909
O  O169  1  0.86920000  0.74460000  0.69280000  1.0 0.0055279909
O  O170  1  0.74460000  0.13080000  0.19280000  1.0 0.0055279909
O  O171  1  0.13080000  0.25540000  0.69280000  1.0 0.0055279909
O  O172  1  0.25540000  0.86920000  0.19280000  1.0 0.0055279909
O  O173  1  0.13080000  0.74460000  0.30720000  1.0 0.0055279909
O  O174  1  0.86920000  0.25540000  0.30720000  1.0 0.0055279909
O  O175  1  0.74460000  0.86920000  0.80720000  1.0 0.0055279909
O  O176  1  0.25540000  0.13080000  0.80720000  1.0 0.0055279909
