# DDEC6 charges by PACMAN v1.1 (https://github.com/mtap-research/PACMAN-charge/)
data_ERANOC_ASR_pacman
_symmetry_space_group_name_H-M   'P 1'
_cell_length_a   33.50500000
_cell_length_b   33.50500000
_cell_length_c   16.82400000
_cell_angle_alpha   90.00000000
_cell_angle_beta   90.00000000
_cell_angle_gamma   90.00000000
_symmetry_Int_Tables_number   1
_chemical_formula_structural   Zr6H71(C3O)34
_chemical_formula_sum   'Zr24 H284 C408 O136'
_cell_volume   18886.37046060
_cell_formula_units_Z   4
loop_
 _symmetry_equiv_pos_site_id
 _symmetry_equiv_pos_as_xyz
  1  'x, y, z'
loop_
 _atom_site_type_symbol
 _atom_site_label
 _atom_site_symmetry_multiplicity
 _atom_site_fract_x
 _atom_site_fract_y
 _atom_site_fract_z
 _atom_site_occupancy
 _atom_site_charge
Zr  Zr1  1  0.29805000  0.69361000  0.00000000  1.0 2.3588741162
Zr  Zr2  1  0.69361000  0.70195000  0.50000000  1.0 2.3588741162
Zr  Zr3  1  0.70195000  0.30639000  0.00000000  1.0 2.3588741162
Zr  Zr4  1  0.30639000  0.29805000  0.50000000  1.0 2.3588741162
Zr  Zr5  1  0.20195000  0.19361000  0.50000000  1.0 2.3588741162
Zr  Zr6  1  0.79805000  0.80639000  0.50000000  1.0 2.3588741162
Zr  Zr7  1  0.19361000  0.79805000  0.00000000  1.0 2.3588741162
Zr  Zr8  1  0.80639000  0.20195000  0.00000000  1.0 2.3588741162
Zr  Zr9  1  0.28212000  0.78212000  0.10437000  1.0 2.2139142004
Zr  Zr10  1  0.78212000  0.71788000  0.60437000  1.0 2.2139142004
Zr  Zr11  1  0.71788000  0.21788000  0.10437000  1.0 2.2139142004
Zr  Zr12  1  0.21788000  0.28212000  0.60437000  1.0 2.2139142004
Zr  Zr13  1  0.21788000  0.28212000  0.39563000  1.0 2.2139142004
Zr  Zr14  1  0.78212000  0.71788000  0.39563000  1.0 2.2139142004
Zr  Zr15  1  0.28212000  0.78212000  0.89563000  1.0 2.2139142004
Zr  Zr16  1  0.71788000  0.21788000  0.89563000  1.0 2.2139142004
Zr  Zr17  1  0.20871000  0.70871000  0.10389000  1.0 2.2163112738
Zr  Zr18  1  0.70871000  0.79129000  0.60389000  1.0 2.2139142004
Zr  Zr19  1  0.79129000  0.29129000  0.10389000  1.0 2.2163112738
Zr  Zr20  1  0.29129000  0.20871000  0.60389000  1.0 2.2163112738
Zr  Zr21  1  0.29129000  0.20871000  0.39611000  1.0 2.2163112738
Zr  Zr22  1  0.70871000  0.79129000  0.39611000  1.0 2.2139142004
Zr  Zr23  1  0.20871000  0.70871000  0.89611000  1.0 2.2163112738
Zr  Zr24  1  0.79129000  0.29129000  0.89611000  1.0 2.2139142004
H  H1  1  0.39190000  0.77070000  0.24110000  1.0 0.1193770603
H  H2  1  0.77070000  0.60810000  0.74110000  1.0 0.1193770603
H  H3  1  0.60810000  0.22930000  0.24110000  1.0 0.1193770603
H  H4  1  0.22930000  0.39190000  0.74110000  1.0 0.1193770603
H  H5  1  0.10810000  0.27070000  0.25890000  1.0 0.1193770603
H  H6  1  0.89190000  0.72930000  0.25890000  1.0 0.1193770603
H  H7  1  0.27070000  0.89190000  0.75890000  1.0 0.1193770603
H  H8  1  0.72930000  0.10810000  0.75890000  1.0 0.1193770603
H  H9  1  0.60810000  0.22930000  0.75890000  1.0 0.1193770603
H  H10  1  0.22930000  0.39190000  0.25890000  1.0 0.1193770603
H  H11  1  0.39190000  0.77070000  0.75890000  1.0 0.1193770603
H  H12  1  0.77070000  0.60810000  0.25890000  1.0 0.1193770603
H  H13  1  0.89190000  0.72930000  0.74110000  1.0 0.1193770603
H  H14  1  0.10810000  0.27070000  0.74110000  1.0 0.1193770603
H  H15  1  0.72930000  0.10810000  0.24110000  1.0 0.1193770603
H  H16  1  0.27070000  0.89190000  0.24110000  1.0 0.1193770603
H  H17  1  0.45630000  0.76860000  0.29510000  1.0 0.1110863501
H  H18  1  0.76860000  0.54370000  0.79510000  1.0 0.1110863501
H  H19  1  0.54370000  0.23140000  0.29510000  1.0 0.1110863501
H  H20  1  0.23140000  0.45630000  0.79510000  1.0 0.1110863501
H  H21  1  0.04370000  0.26860000  0.20490000  1.0 0.1110863501
H  H22  1  0.95630000  0.73140000  0.20490000  1.0 0.1110863501
H  H23  1  0.26860000  0.95630000  0.70490000  1.0 0.1110863501
H  H24  1  0.73140000  0.04370000  0.70490000  1.0 0.1110863501
H  H25  1  0.54370000  0.23140000  0.70490000  1.0 0.1110863501
H  H26  1  0.23140000  0.45630000  0.20490000  1.0 0.1110863501
H  H27  1  0.45630000  0.76860000  0.70490000  1.0 0.1110863501
H  H28  1  0.76860000  0.54370000  0.20490000  1.0 0.1110863501
H  H29  1  0.95630000  0.73140000  0.79510000  1.0 0.1110863501
H  H30  1  0.04370000  0.26860000  0.79510000  1.0 0.1110863501
H  H31  1  0.73140000  0.04370000  0.29510000  1.0 0.1110863501
H  H32  1  0.26860000  0.95630000  0.29510000  1.0 0.1110863501
H  H33  1  0.41920000  0.67750000  0.09730000  1.0 0.1274703432
H  H34  1  0.67750000  0.58080000  0.59730000  1.0 0.1274703432
H  H35  1  0.58080000  0.32250000  0.09730000  1.0 0.1274703432
H  H36  1  0.32250000  0.41920000  0.59730000  1.0 0.1274703432
H  H37  1  0.08080000  0.17750000  0.40270000  1.0 0.1274703432
H  H38  1  0.91920000  0.82250000  0.40270000  1.0 0.1274703432
H  H39  1  0.17750000  0.91920000  0.90270000  1.0 0.1274703432
H  H40  1  0.82250000  0.08080000  0.90270000  1.0 0.1274703432
H  H41  1  0.58080000  0.32250000  0.90270000  1.0 0.1274703432
H  H42  1  0.32250000  0.41920000  0.40270000  1.0 0.1274703432
H  H43  1  0.41920000  0.67750000  0.90270000  1.0 0.1274703432
H  H44  1  0.67750000  0.58080000  0.40270000  1.0 0.1274703432
H  H45  1  0.91920000  0.82250000  0.59730000  1.0 0.1274703432
H  H46  1  0.08080000  0.17750000  0.59730000  1.0 0.1274703432
H  H47  1  0.82250000  0.08080000  0.09730000  1.0 0.1274703432
H  H48  1  0.17750000  0.91920000  0.09730000  1.0 0.1274703432
H  H49  1  0.52070000  0.66960000  0.16420000  1.0 0.1193770603
H  H50  1  0.66960000  0.47930000  0.66420000  1.0 0.1193770603
H  H51  1  0.47930000  0.33040000  0.16420000  1.0 0.1193770603
H  H52  1  0.33040000  0.52070000  0.66420000  1.0 0.1193770603
H  H53  1  0.97930000  0.16960000  0.33580000  1.0 0.1193770603
H  H54  1  0.02070000  0.83040000  0.33580000  1.0 0.1193770603
H  H55  1  0.16960000  0.02070000  0.83580000  1.0 0.1193770603
H  H56  1  0.83040000  0.97930000  0.83580000  1.0 0.1193770603
H  H57  1  0.47930000  0.33040000  0.83580000  1.0 0.1193770603
H  H58  1  0.33040000  0.52070000  0.33580000  1.0 0.1193770603
H  H59  1  0.52070000  0.66960000  0.83580000  1.0 0.1193770603
H  H60  1  0.66960000  0.47930000  0.33580000  1.0 0.1193770603
H  H61  1  0.02070000  0.83040000  0.66420000  1.0 0.1193770603
H  H62  1  0.97930000  0.16960000  0.66420000  1.0 0.1193770603
H  H63  1  0.83040000  0.97930000  0.16420000  1.0 0.1193770603
H  H64  1  0.16960000  0.02070000  0.16420000  1.0 0.1193770603
H  H65  1  0.48580000  0.63860000  0.14400000  1.0 0.1274703432
H  H66  1  0.63860000  0.51420000  0.64400000  1.0 0.1274703432
H  H67  1  0.51420000  0.36140000  0.14400000  1.0 0.1274703432
H  H68  1  0.36140000  0.48580000  0.64400000  1.0 0.1274703432
H  H69  1  0.01420000  0.13860000  0.35600000  1.0 0.1274703432
H  H70  1  0.98580000  0.86140000  0.35600000  1.0 0.1274703432
H  H71  1  0.13860000  0.98580000  0.85600000  1.0 0.1274703432
H  H72  1  0.86140000  0.01420000  0.85600000  1.0 0.1274703432
H  H73  1  0.51420000  0.36140000  0.85600000  1.0 0.1274703432
H  H74  1  0.36140000  0.48580000  0.35600000  1.0 0.1274703432
H  H75  1  0.48580000  0.63860000  0.85600000  1.0 0.1274703432
H  H76  1  0.63860000  0.51420000  0.35600000  1.0 0.1274703432
H  H77  1  0.98580000  0.86140000  0.64400000  1.0 0.1274703432
H  H78  1  0.01420000  0.13860000  0.64400000  1.0 0.1274703432
H  H79  1  0.86140000  0.01420000  0.14400000  1.0 0.1274703432
H  H80  1  0.13860000  0.98580000  0.14400000  1.0 0.1274703432
H  H81  1  0.49900000  0.67120000  0.07960000  1.0 0.1193770603
H  H82  1  0.67120000  0.50100000  0.57960000  1.0 0.1193770603
H  H83  1  0.50100000  0.32880000  0.07960000  1.0 0.1193770603
H  H84  1  0.32880000  0.49900000  0.57960000  1.0 0.1193770603
H  H85  1  0.00100000  0.17120000  0.42040000  1.0 0.1193770603
H  H86  1  0.99900000  0.82880000  0.42040000  1.0 0.1193770603
H  H87  1  0.17120000  0.99900000  0.92040000  1.0 0.1193770603
H  H88  1  0.82880000  0.00100000  0.92040000  1.0 0.1193770603
H  H89  1  0.50100000  0.32880000  0.92040000  1.0 0.1193770603
H  H90  1  0.32880000  0.49900000  0.42040000  1.0 0.1193770603
H  H91  1  0.49900000  0.67120000  0.92040000  1.0 0.1193770603
H  H92  1  0.67120000  0.50100000  0.42040000  1.0 0.1193770603
H  H93  1  0.99900000  0.82880000  0.57960000  1.0 0.1193770603
H  H94  1  0.00100000  0.17120000  0.57960000  1.0 0.1193770603
H  H95  1  0.82880000  0.00100000  0.07960000  1.0 0.1193770603
H  H96  1  0.17120000  0.99900000  0.07960000  1.0 0.1193770603
H  H97  1  0.59790000  0.77520000  0.24860000  1.0 0.1110863501
H  H98  1  0.77520000  0.40210000  0.74860000  1.0 0.1110863501
H  H99  1  0.40210000  0.22480000  0.24860000  1.0 0.1110863501
H  H100  1  0.22480000  0.59790000  0.74860000  1.0 0.1110863501
H  H101  1  0.90210000  0.27520000  0.25140000  1.0 0.1110863501
H  H102  1  0.09790000  0.72480000  0.25140000  1.0 0.1110863501
H  H103  1  0.27520000  0.09790000  0.75140000  1.0 0.1110863501
H  H104  1  0.72480000  0.90210000  0.75140000  1.0 0.1110863501
H  H105  1  0.40210000  0.22480000  0.75140000  1.0 0.1110863501
H  H106  1  0.22480000  0.59790000  0.25140000  1.0 0.1110863501
H  H107  1  0.59790000  0.77520000  0.75140000  1.0 0.1110863501
H  H108  1  0.77520000  0.40210000  0.25140000  1.0 0.1110863501
H  H109  1  0.09790000  0.72480000  0.74860000  1.0 0.1110863501
H  H110  1  0.90210000  0.27520000  0.74860000  1.0 0.1110863501
H  H111  1  0.72480000  0.90210000  0.24860000  1.0 0.1110863501
H  H112  1  0.27520000  0.09790000  0.24860000  1.0 0.1110863501
H  H113  1  0.53330000  0.76990000  0.19680000  1.0 0.1110863501
H  H114  1  0.76990000  0.46670000  0.69680000  1.0 0.1110863501
H  H115  1  0.46670000  0.23010000  0.19680000  1.0 0.1110863501
H  H116  1  0.23010000  0.53330000  0.69680000  1.0 0.1110863501
H  H117  1  0.96670000  0.26990000  0.30320000  1.0 0.1110863501
H  H118  1  0.03330000  0.73010000  0.30320000  1.0 0.1110863501
H  H119  1  0.26990000  0.03330000  0.80320000  1.0 0.1110863501
H  H120  1  0.73010000  0.96670000  0.80320000  1.0 0.1110863501
H  H121  1  0.46670000  0.23010000  0.80320000  1.0 0.1110863501
H  H122  1  0.23010000  0.53330000  0.30320000  1.0 0.1110863501
H  H123  1  0.53330000  0.76990000  0.80320000  1.0 0.1110863501
H  H124  1  0.76990000  0.46670000  0.30320000  1.0 0.1110863501
H  H125  1  0.03330000  0.73010000  0.69680000  1.0 0.1110863501
H  H126  1  0.96670000  0.26990000  0.69680000  1.0 0.1110863501
H  H127  1  0.73010000  0.96670000  0.19680000  1.0 0.1110863501
H  H128  1  0.26990000  0.03330000  0.19680000  1.0 0.1110863501
H  H129  1  0.57510000  0.68350000  0.39910000  1.0 0.1274703432
H  H130  1  0.68350000  0.42490000  0.89910000  1.0 0.1274703432
H  H131  1  0.42490000  0.31650000  0.39910000  1.0 0.1274703432
H  H132  1  0.31650000  0.57510000  0.89910000  1.0 0.1274703432
H  H133  1  0.92490000  0.18350000  0.10090000  1.0 0.1274703432
H  H134  1  0.07510000  0.81650000  0.10090000  1.0 0.1274703432
H  H135  1  0.18350000  0.07510000  0.60090000  1.0 0.1274703432
H  H136  1  0.81650000  0.92490000  0.60090000  1.0 0.1274703432
H  H137  1  0.42490000  0.31650000  0.60090000  1.0 0.1274703432
H  H138  1  0.31650000  0.57510000  0.10090000  1.0 0.1274703432
H  H139  1  0.57510000  0.68350000  0.60090000  1.0 0.1274703432
H  H140  1  0.68350000  0.42490000  0.10090000  1.0 0.1274703432
H  H141  1  0.07510000  0.81650000  0.89910000  1.0 0.1274703432
H  H142  1  0.92490000  0.18350000  0.89910000  1.0 0.1274703432
H  H143  1  0.81650000  0.92490000  0.39910000  1.0 0.1274703432
H  H144  1  0.18350000  0.07510000  0.39910000  1.0 0.1274703432
H  H145  1  0.47450000  0.66840000  0.33230000  1.0 0.1193770603
H  H146  1  0.66840000  0.52550000  0.83230000  1.0 0.1193770603
H  H147  1  0.52550000  0.33160000  0.33230000  1.0 0.1193770603
H  H148  1  0.33160000  0.47450000  0.83230000  1.0 0.1193770603
H  H149  1  0.02550000  0.16840000  0.16770000  1.0 0.1193770603
H  H150  1  0.97450000  0.83160000  0.16770000  1.0 0.1193770603
H  H151  1  0.16840000  0.97450000  0.66770000  1.0 0.1193770603
H  H152  1  0.83160000  0.02550000  0.66770000  1.0 0.1193770603
H  H153  1  0.52550000  0.33160000  0.66770000  1.0 0.1193770603
H  H154  1  0.33160000  0.47450000  0.16770000  1.0 0.1193770603
H  H155  1  0.47450000  0.66840000  0.66770000  1.0 0.1193770603
H  H156  1  0.66840000  0.52550000  0.16770000  1.0 0.1193770603
H  H157  1  0.97450000  0.83160000  0.83230000  1.0 0.1193770603
H  H158  1  0.02550000  0.16840000  0.83230000  1.0 0.1193770603
H  H159  1  0.83160000  0.02550000  0.33230000  1.0 0.1193770603
H  H160  1  0.16840000  0.97450000  0.33230000  1.0 0.1193770603
H  H161  1  0.51180000  0.63990000  0.35060000  1.0 0.1193770603
H  H162  1  0.63990000  0.48820000  0.85060000  1.0 0.1193770603
H  H163  1  0.48820000  0.36010000  0.35060000  1.0 0.1193770603
H  H164  1  0.36010000  0.51180000  0.85060000  1.0 0.1274703432
H  H165  1  0.98820000  0.13990000  0.14940000  1.0 0.1193770603
H  H166  1  0.01180000  0.86010000  0.14940000  1.0 0.1193770603
H  H167  1  0.13990000  0.01180000  0.64940000  1.0 0.1193770603
H  H168  1  0.86010000  0.98820000  0.64940000  1.0 0.1193770603
H  H169  1  0.48820000  0.36010000  0.64940000  1.0 0.1193770603
H  H170  1  0.36010000  0.51180000  0.14940000  1.0 0.1193770603
H  H171  1  0.51180000  0.63990000  0.64940000  1.0 0.1193770603
H  H172  1  0.63990000  0.48820000  0.14940000  1.0 0.1193770603
H  H173  1  0.01180000  0.86010000  0.85060000  1.0 0.1193770603
H  H174  1  0.98820000  0.13990000  0.85060000  1.0 0.1274703432
H  H175  1  0.86010000  0.98820000  0.35060000  1.0 0.1193770603
H  H176  1  0.13990000  0.01180000  0.35060000  1.0 0.1193770603
H  H177  1  0.49650000  0.67070000  0.41660000  1.0 0.1193770603
H  H178  1  0.67070000  0.50350000  0.91660000  1.0 0.1193770603
H  H179  1  0.50350000  0.32930000  0.41660000  1.0 0.1193770603
H  H180  1  0.32930000  0.49650000  0.91660000  1.0 0.1193770603
H  H181  1  0.00350000  0.17070000  0.08340000  1.0 0.1193770603
H  H182  1  0.99650000  0.82930000  0.08340000  1.0 0.1193770603
H  H183  1  0.17070000  0.99650000  0.58340000  1.0 0.1193770603
H  H184  1  0.82930000  0.00350000  0.58340000  1.0 0.1193770603
H  H185  1  0.50350000  0.32930000  0.58340000  1.0 0.1193770603
H  H186  1  0.32930000  0.49650000  0.08340000  1.0 0.1193770603
H  H187  1  0.49650000  0.67070000  0.58340000  1.0 0.1193770603
H  H188  1  0.67070000  0.50350000  0.08340000  1.0 0.1193770603
H  H189  1  0.99650000  0.82930000  0.91660000  1.0 0.1193770603
H  H190  1  0.00350000  0.17070000  0.91660000  1.0 0.1193770603
H  H191  1  0.82930000  0.00350000  0.41660000  1.0 0.1193770603
H  H192  1  0.17070000  0.99650000  0.41660000  1.0 0.1193770603
H  H193  1  0.11590000  0.61590000  0.12040000  1.0 0.1193770603
H  H194  1  0.61590000  0.88410000  0.62040000  1.0 0.1193770603
H  H195  1  0.88410000  0.38410000  0.12040000  1.0 0.1193770603
H  H196  1  0.38410000  0.11590000  0.62040000  1.0 0.1193770603
H  H197  1  0.38410000  0.11590000  0.37960000  1.0 0.1193770603
H  H198  1  0.61590000  0.88410000  0.37960000  1.0 0.1193770603
H  H199  1  0.11590000  0.61590000  0.87960000  1.0 0.1193770603
H  H200  1  0.88410000  0.38410000  0.87960000  1.0 0.1193770603
H  H201  1  0.06660000  0.56660000  0.12040000  1.0 0.1443469897
H  H202  1  0.56660000  0.93340000  0.62040000  1.0 0.1443469897
H  H203  1  0.93340000  0.43340000  0.12040000  1.0 0.1443469897
H  H204  1  0.43340000  0.06660000  0.62040000  1.0 0.1443469897
H  H205  1  0.43340000  0.06660000  0.37960000  1.0 0.1443469897
H  H206  1  0.56660000  0.93340000  0.37960000  1.0 0.1443469897
H  H207  1  0.06660000  0.56660000  0.87960000  1.0 0.1443469897
H  H208  1  0.93340000  0.43340000  0.87960000  1.0 0.1443469897
H  H209  1  0.00200000  0.60060000  0.00000000  1.0 0.1274703432
H  H210  1  0.60060000  0.99800000  0.50000000  1.0 0.1274703432
H  H211  1  0.99800000  0.39940000  0.00000000  1.0 0.1274703432
H  H212  1  0.39940000  0.00200000  0.50000000  1.0 0.1274703432
H  H213  1  0.49800000  0.10060000  0.50000000  1.0 0.1274703432
H  H214  1  0.50200000  0.89940000  0.50000000  1.0 0.1274703432
H  H215  1  0.10060000  0.50200000  0.00000000  1.0 0.1274703432
H  H216  1  0.89940000  0.49800000  0.00000000  1.0 0.1274703432
H  H217  1  0.96280000  0.59010000  0.04660000  1.0 0.1193770603
H  H218  1  0.59010000  0.03720000  0.54660000  1.0 0.1193770603
H  H219  1  0.03720000  0.40990000  0.04660000  1.0 0.1193770603
H  H220  1  0.40990000  0.96280000  0.54660000  1.0 0.1193770603
H  H221  1  0.53720000  0.09010000  0.45340000  1.0 0.1193770603
H  H222  1  0.46280000  0.90990000  0.45340000  1.0 0.1193770603
H  H223  1  0.09010000  0.46280000  0.95340000  1.0 0.1193770603
H  H224  1  0.90990000  0.53720000  0.95340000  1.0 0.1193770603
H  H225  1  0.03720000  0.40990000  0.95340000  1.0 0.1193770603
H  H226  1  0.40990000  0.96280000  0.45340000  1.0 0.1193770603
H  H227  1  0.96280000  0.59010000  0.95340000  1.0 0.1193770603
H  H228  1  0.59010000  0.03720000  0.45340000  1.0 0.1193770603
H  H229  1  0.46280000  0.90990000  0.54660000  1.0 0.1193770603
H  H230  1  0.53720000  0.09010000  0.54660000  1.0 0.1193770603
H  H231  1  0.90990000  0.53720000  0.04660000  1.0 0.1193770603
H  H232  1  0.09010000  0.46280000  0.04660000  1.0 0.1193770603
H  H233  1  0.27970000  0.77990000  0.37630000  1.0 0.0582433828
H  H234  1  0.77990000  0.72030000  0.87630000  1.0 0.0582433828
H  H235  1  0.72030000  0.22010000  0.37630000  1.0 0.0582433828
H  H236  1  0.22010000  0.27970000  0.87630000  1.0 0.0582433828
H  H237  1  0.22030000  0.27990000  0.12370000  1.0 0.0582433828
H  H238  1  0.77970000  0.72010000  0.12370000  1.0 0.0582433828
H  H239  1  0.27990000  0.77970000  0.62370000  1.0 0.0582433828
H  H240  1  0.72010000  0.22030000  0.62370000  1.0 0.0582433828
H  H241  1  0.18960000  0.68980000  0.49320000  1.0 0.1110863501
H  H242  1  0.68980000  0.81040000  0.99320000  1.0 0.1110863501
H  H243  1  0.81040000  0.31020000  0.49320000  1.0 0.1110863501
H  H244  1  0.31020000  0.18960000  0.99320000  1.0 0.1110863501
H  H245  1  0.31040000  0.18980000  0.00680000  1.0 0.1110863501
H  H246  1  0.68960000  0.81020000  0.00680000  1.0 0.1110863501
H  H247  1  0.18980000  0.68960000  0.50680000  1.0 0.1110863501
H  H248  1  0.81020000  0.31040000  0.50680000  1.0 0.1110863501
H  H249  1  0.19410000  0.69440000  0.35420000  1.0 0.0724490728
H  H250  1  0.69440000  0.80590000  0.85420000  1.0 0.0724490728
H  H251  1  0.80590000  0.30560000  0.35420000  1.0 0.0724490728
H  H252  1  0.30560000  0.19410000  0.85420000  1.0 0.0724490728
H  H253  1  0.30590000  0.19440000  0.14580000  1.0 0.0724490728
H  H254  1  0.69410000  0.80560000  0.14580000  1.0 0.0724490728
H  H255  1  0.19440000  0.69410000  0.64580000  1.0 0.0724490728
H  H256  1  0.80560000  0.30590000  0.64580000  1.0 0.0724490728
H  H257  1  0.21090000  0.71120000  0.62320000  1.0 0.0516611823
H  H258  1  0.71120000  0.78910000  0.12320000  1.0 0.0516611823
H  H259  1  0.78910000  0.28880000  0.62320000  1.0 0.0516611823
H  H260  1  0.28880000  0.21090000  0.12320000  1.0 0.0516611823
H  H261  1  0.28910000  0.21120000  0.87680000  1.0 0.0516611823
H  H262  1  0.71090000  0.78880000  0.87680000  1.0 0.0516611823
H  H263  1  0.21120000  0.71090000  0.37680000  1.0 0.0516611823
H  H264  1  0.78880000  0.28910000  0.37680000  1.0 0.0516611823
H  H265  1  0.29640000  0.79670000  0.64520000  1.0 0.0780570111
H  H266  1  0.79670000  0.70360000  0.14520000  1.0 0.0780570111
H  H267  1  0.70360000  0.20330000  0.64520000  1.0 0.0780570111
H  H268  1  0.20330000  0.29640000  0.14520000  1.0 0.0780570111
H  H269  1  0.20360000  0.29670000  0.85480000  1.0 0.0780570111
H  H270  1  0.79640000  0.70330000  0.85480000  1.0 0.0780570111
H  H271  1  0.29670000  0.79640000  0.35480000  1.0 0.0780570111
H  H272  1  0.70330000  0.20360000  0.35480000  1.0 0.0780570111
H  H273  1  0.30100000  0.80130000  0.49980000  1.0 0.1011509822
H  H274  1  0.80130000  0.69900000  0.99980000  1.0 0.1011509822
H  H275  1  0.69900000  0.19870000  0.49980000  1.0 0.1011509822
H  H276  1  0.19870000  0.30100000  0.99980000  1.0 0.1011509822
H  H277  1  0.98040000  0.56680000  0.00000000  1.0 0.0516611823
H  H278  1  0.56680000  0.01960000  0.50000000  1.0 0.0516611823
H  H279  1  0.01960000  0.43320000  0.00000000  1.0 0.0516611823
H  H280  1  0.43320000  0.98040000  0.50000000  1.0 0.0516611823
H  H281  1  0.51960000  0.06680000  0.50000000  1.0 0.0516611823
H  H282  1  0.48040000  0.93320000  0.50000000  1.0 0.0516611823
H  H283  1  0.06680000  0.48040000  0.00000000  1.0 0.0516611823
H  H284  1  0.93320000  0.51960000  0.00000000  1.0 0.0516611823
C  C1  1  0.35850000  0.72560000  0.12950000  1.0 0.6376683265
C  C2  1  0.72560000  0.64150000  0.62950000  1.0 0.6376683265
C  C3  1  0.64150000  0.27440000  0.12950000  1.0 0.6376683265
C  C4  1  0.27440000  0.35850000  0.62950000  1.0 0.6376683265
C  C5  1  0.14150000  0.22560000  0.37050000  1.0 0.6376683265
C  C6  1  0.85850000  0.77440000  0.37050000  1.0 0.6376683265
C  C7  1  0.22560000  0.85850000  0.87050000  1.0 0.6376683265
C  C8  1  0.77440000  0.14150000  0.87050000  1.0 0.6376683265
C  C9  1  0.64150000  0.27440000  0.87050000  1.0 0.6376683265
C  C10  1  0.27440000  0.35850000  0.37050000  1.0 0.6376683265
C  C11  1  0.35850000  0.72560000  0.87050000  1.0 0.6376683265
C  C12  1  0.72560000  0.64150000  0.37050000  1.0 0.6376683265
C  C13  1  0.85850000  0.77440000  0.62950000  1.0 0.6376683265
C  C14  1  0.14150000  0.22560000  0.62950000  1.0 0.6376683265
C  C15  1  0.77440000  0.14150000  0.12950000  1.0 0.6376683265
C  C16  1  0.22560000  0.85850000  0.12950000  1.0 0.6376683265
C  C17  1  0.39954000  0.72435000  0.16420000  1.0 -0.0397892238
C  C18  1  0.72435000  0.60046000  0.66420000  1.0 -0.0397892238
C  C19  1  0.60046000  0.27565000  0.16420000  1.0 -0.0397892238
C  C20  1  0.27565000  0.39954000  0.66420000  1.0 -0.0397892238
C  C21  1  0.10046000  0.22435000  0.33580000  1.0 -0.0397892238
C  C22  1  0.89954000  0.77565000  0.33580000  1.0 -0.0397892238
C  C23  1  0.22435000  0.89954000  0.83580000  1.0 -0.0397892238
C  C24  1  0.77565000  0.10046000  0.83580000  1.0 -0.0397892238
C  C25  1  0.60046000  0.27565000  0.83580000  1.0 -0.0397892238
C  C26  1  0.27565000  0.39954000  0.33580000  1.0 -0.0397892238
C  C27  1  0.39954000  0.72435000  0.83580000  1.0 -0.0397892238
C  C28  1  0.72435000  0.60046000  0.33580000  1.0 -0.0397892238
C  C29  1  0.89954000  0.77565000  0.66420000  1.0 -0.0397892238
C  C30  1  0.10046000  0.22435000  0.66420000  1.0 -0.0397892238
C  C31  1  0.77565000  0.10046000  0.16420000  1.0 -0.0397892238
C  C32  1  0.22435000  0.89954000  0.16420000  1.0 -0.0397892238
C  C33  1  0.41050000  0.75141000  0.22290000  1.0 -0.1095829959
C  C34  1  0.75141000  0.58950000  0.72290000  1.0 -0.1095829959
C  C35  1  0.58950000  0.24859000  0.22290000  1.0 -0.1095829959
C  C36  1  0.24859000  0.41050000  0.72290000  1.0 -0.1095829959
C  C37  1  0.08950000  0.25141000  0.27710000  1.0 -0.1095829959
C  C38  1  0.91050000  0.74859000  0.27710000  1.0 -0.1095829959
C  C39  1  0.25141000  0.91050000  0.77710000  1.0 -0.1095829959
C  C40  1  0.74859000  0.08950000  0.77710000  1.0 -0.1095829959
C  C41  1  0.58950000  0.24859000  0.77710000  1.0 -0.1095829959
C  C42  1  0.24859000  0.41050000  0.27710000  1.0 -0.1095829959
C  C43  1  0.41050000  0.75141000  0.77710000  1.0 -0.1095829959
C  C44  1  0.75141000  0.58950000  0.27710000  1.0 -0.1095829959
C  C45  1  0.91050000  0.74859000  0.72290000  1.0 -0.1095829959
C  C46  1  0.08950000  0.25141000  0.72290000  1.0 -0.1095829959
C  C47  1  0.74859000  0.08950000  0.22290000  1.0 -0.1095829959
C  C48  1  0.25141000  0.91050000  0.22290000  1.0 -0.1095829959
C  C49  1  0.44874000  0.75012000  0.25500000  1.0 -0.1584654492
C  C50  1  0.75012000  0.55126000  0.75500000  1.0 -0.1584654492
C  C51  1  0.55126000  0.24988000  0.25500000  1.0 -0.1584654492
C  C52  1  0.24988000  0.44874000  0.75500000  1.0 -0.1584654492
C  C53  1  0.05126000  0.25012000  0.24500000  1.0 -0.1584654492
C  C54  1  0.94874000  0.74988000  0.24500000  1.0 -0.1584654492
C  C55  1  0.25012000  0.94874000  0.74500000  1.0 -0.1584654492
C  C56  1  0.74988000  0.05126000  0.74500000  1.0 -0.1584654492
C  C57  1  0.55126000  0.24988000  0.74500000  1.0 -0.1584654492
C  C58  1  0.24988000  0.44874000  0.24500000  1.0 -0.1584654492
C  C59  1  0.44874000  0.75012000  0.74500000  1.0 -0.1584654492
C  C60  1  0.75012000  0.55126000  0.24500000  1.0 -0.1584654492
C  C61  1  0.94874000  0.74988000  0.75500000  1.0 -0.1584654492
C  C62  1  0.05126000  0.25012000  0.75500000  1.0 -0.1584654492
C  C63  1  0.74988000  0.05126000  0.25500000  1.0 -0.1584654492
C  C64  1  0.25012000  0.94874000  0.25500000  1.0 -0.1584654492
C  C65  1  0.47592000  0.72179000  0.22820000  1.0 0.0087797556
C  C66  1  0.72179000  0.52408000  0.72820000  1.0 0.0087797556
C  C67  1  0.52408000  0.27821000  0.22820000  1.0 0.0087797556
C  C68  1  0.27821000  0.47592000  0.72820000  1.0 0.0087797556
C  C69  1  0.02408000  0.22179000  0.27180000  1.0 0.0087797556
C  C70  1  0.97592000  0.77821000  0.27180000  1.0 0.0087797556
C  C71  1  0.22179000  0.97592000  0.77180000  1.0 0.0087797556
C  C72  1  0.77821000  0.02408000  0.77180000  1.0 0.0087797556
C  C73  1  0.52408000  0.27821000  0.77180000  1.0 0.0087797556
C  C74  1  0.27821000  0.47592000  0.27180000  1.0 0.0087797556
C  C75  1  0.47592000  0.72179000  0.77180000  1.0 0.0087797556
C  C76  1  0.72179000  0.52408000  0.27180000  1.0 0.0087797556
C  C77  1  0.97592000  0.77821000  0.72820000  1.0 0.0087797556
C  C78  1  0.02408000  0.22179000  0.72820000  1.0 0.0087797556
C  C79  1  0.77821000  0.02408000  0.22820000  1.0 0.0087797556
C  C80  1  0.22179000  0.97592000  0.22820000  1.0 0.0087797556
C  C81  1  0.46490000  0.69480000  0.16950000  1.0 0.1110863501
C  C82  1  0.69480000  0.53510000  0.66950000  1.0 0.1110863501
C  C83  1  0.53510000  0.30520000  0.16950000  1.0 0.1110863501
C  C84  1  0.30520000  0.46490000  0.66950000  1.0 0.1110863501
C  C85  1  0.03510000  0.19480000  0.33050000  1.0 0.1110863501
C  C86  1  0.96490000  0.80520000  0.33050000  1.0 0.1110863501
C  C87  1  0.19480000  0.96490000  0.83050000  1.0 0.1110863501
C  C88  1  0.80520000  0.03510000  0.83050000  1.0 0.1110863501
C  C89  1  0.53510000  0.30520000  0.83050000  1.0 0.1110863501
C  C90  1  0.30520000  0.46490000  0.33050000  1.0 0.1110863501
C  C91  1  0.46490000  0.69480000  0.83050000  1.0 0.1110863501
C  C92  1  0.69480000  0.53510000  0.33050000  1.0 0.1110863501
C  C93  1  0.96490000  0.80520000  0.66950000  1.0 0.1110863501
C  C94  1  0.03510000  0.19480000  0.66950000  1.0 0.1110863501
C  C95  1  0.80520000  0.03510000  0.16950000  1.0 0.1110863501
C  C96  1  0.19480000  0.96490000  0.16950000  1.0 0.1110863501
C  C97  1  0.42669000  0.69600000  0.13750000  1.0 -0.1705616787
C  C98  1  0.69600000  0.57331000  0.63750000  1.0 -0.1705616787
C  C99  1  0.57331000  0.30400000  0.13750000  1.0 -0.1705616787
C  C100  1  0.30400000  0.42669000  0.63750000  1.0 -0.1705616787
C  C101  1  0.07331000  0.19600000  0.36250000  1.0 -0.1705616787
C  C102  1  0.92669000  0.80400000  0.36250000  1.0 -0.1705616787
C  C103  1  0.19600000  0.92669000  0.86250000  1.0 -0.1705616787
C  C104  1  0.80400000  0.07331000  0.86250000  1.0 -0.1705616787
C  C105  1  0.57331000  0.30400000  0.86250000  1.0 -0.1705616787
C  C106  1  0.30400000  0.42669000  0.36250000  1.0 -0.1705616787
C  C107  1  0.42669000  0.69600000  0.86250000  1.0 -0.1705616787
C  C108  1  0.69600000  0.57331000  0.36250000  1.0 -0.1705616787
C  C109  1  0.92669000  0.80400000  0.63750000  1.0 -0.1705616787
C  C110  1  0.07331000  0.19600000  0.63750000  1.0 -0.1705616787
C  C111  1  0.80400000  0.07331000  0.13750000  1.0 -0.1705616787
C  C112  1  0.19600000  0.92669000  0.13750000  1.0 -0.1705616787
C  C113  1  0.49530000  0.66600000  0.13640000  1.0 -0.4481510491
C  C114  1  0.66600000  0.50470000  0.63640000  1.0 -0.4481510491
C  C115  1  0.50470000  0.33400000  0.13640000  1.0 -0.4481510491
C  C116  1  0.33400000  0.49530000  0.63640000  1.0 -0.4481510491
C  C117  1  0.00470000  0.16600000  0.36360000  1.0 -0.4481510491
C  C118  1  0.99530000  0.83400000  0.36360000  1.0 -0.4481510491
C  C119  1  0.16600000  0.99530000  0.86360000  1.0 -0.4481510491
C  C120  1  0.83400000  0.00470000  0.86360000  1.0 -0.4481510491
C  C121  1  0.50470000  0.33400000  0.86360000  1.0 -0.4481510491
C  C122  1  0.33400000  0.49530000  0.36360000  1.0 -0.4481510491
C  C123  1  0.49530000  0.66600000  0.86360000  1.0 -0.4481510491
C  C124  1  0.66600000  0.50470000  0.36360000  1.0 -0.4481510491
C  C125  1  0.99530000  0.83400000  0.63640000  1.0 -0.4481510491
C  C126  1  0.00470000  0.16600000  0.63640000  1.0 -0.4481510491
C  C127  1  0.83400000  0.00470000  0.13640000  1.0 -0.4481510491
C  C128  1  0.16600000  0.99530000  0.13640000  1.0 -0.4481510491
C  C129  1  0.63260000  0.73480000  0.36840000  1.0 0.6282601246
C  C130  1  0.73480000  0.36740000  0.86840000  1.0 0.6282601246
C  C131  1  0.36740000  0.26520000  0.36840000  1.0 0.6282601246
C  C132  1  0.26520000  0.63260000  0.86840000  1.0 0.6282601246
C  C133  1  0.86740000  0.23480000  0.13160000  1.0 0.6282601246
C  C134  1  0.13260000  0.76520000  0.13160000  1.0 0.6282601246
C  C135  1  0.23480000  0.13260000  0.63160000  1.0 0.6282601246
C  C136  1  0.76520000  0.86740000  0.63160000  1.0 0.6282601246
C  C137  1  0.36740000  0.26520000  0.63160000  1.0 0.6282601246
C  C138  1  0.26520000  0.63260000  0.13160000  1.0 0.6282601246
C  C139  1  0.63260000  0.73480000  0.63160000  1.0 0.6282601246
C  C140  1  0.73480000  0.36740000  0.13160000  1.0 0.6282601246
C  C141  1  0.13260000  0.76520000  0.86840000  1.0 0.6282601246
C  C142  1  0.86740000  0.23480000  0.86840000  1.0 0.6282601246
C  C143  1  0.76520000  0.86740000  0.36840000  1.0 0.6282601246
C  C144  1  0.23480000  0.13260000  0.36840000  1.0 0.6282601246
C  C145  1  0.59260000  0.72987000  0.32870000  1.0 -0.0306101717
C  C146  1  0.72987000  0.40740000  0.82870000  1.0 -0.0306101717
C  C147  1  0.40740000  0.27013000  0.32870000  1.0 -0.0306101717
C  C148  1  0.27013000  0.59260000  0.82870000  1.0 -0.0306101717
C  C149  1  0.90740000  0.22987000  0.17130000  1.0 -0.0306101717
C  C150  1  0.09260000  0.77013000  0.17130000  1.0 -0.0306101717
C  C151  1  0.22987000  0.09260000  0.67130000  1.0 -0.0306101717
C  C152  1  0.77013000  0.90740000  0.67130000  1.0 -0.0306101717
C  C153  1  0.40740000  0.27013000  0.67130000  1.0 -0.0306101717
C  C154  1  0.27013000  0.59260000  0.17130000  1.0 -0.0306101717
C  C155  1  0.59260000  0.72987000  0.67130000  1.0 -0.0306101717
C  C156  1  0.72987000  0.40740000  0.17130000  1.0 -0.0306101717
C  C157  1  0.09260000  0.77013000  0.82870000  1.0 -0.0306101717
C  C158  1  0.90740000  0.22987000  0.82870000  1.0 -0.0306101717
C  C159  1  0.77013000  0.90740000  0.32870000  1.0 -0.0306101717
C  C160  1  0.22987000  0.09260000  0.32870000  1.0 -0.0306101717
C  C161  1  0.58019000  0.75552000  0.26870000  1.0 -0.1184470919
C  C162  1  0.75552000  0.41981000  0.76870000  1.0 -0.1184470919
C  C163  1  0.41981000  0.24448000  0.26870000  1.0 -0.1184470919
C  C164  1  0.24448000  0.58019000  0.76870000  1.0 -0.1184470919
C  C165  1  0.91981000  0.25552000  0.23130000  1.0 -0.1184470919
C  C166  1  0.08019000  0.74448000  0.23130000  1.0 -0.1184470919
C  C167  1  0.25552000  0.08019000  0.73130000  1.0 -0.1184470919
C  C168  1  0.74448000  0.91981000  0.73130000  1.0 -0.1184470919
C  C169  1  0.41981000  0.24448000  0.73130000  1.0 -0.1184470919
C  C170  1  0.24448000  0.58019000  0.23130000  1.0 -0.1184470919
C  C171  1  0.58019000  0.75552000  0.73130000  1.0 -0.1184470919
C  C172  1  0.75552000  0.41981000  0.23130000  1.0 -0.1184470919
C  C173  1  0.08019000  0.74448000  0.76870000  1.0 -0.1184470919
C  C174  1  0.91981000  0.25552000  0.76870000  1.0 -0.1184470919
C  C175  1  0.74448000  0.91981000  0.26870000  1.0 -0.1184470919
C  C176  1  0.25552000  0.08019000  0.26870000  1.0 -0.1184470919
C  C177  1  0.54181000  0.75230000  0.23790000  1.0 -0.1584654492
C  C178  1  0.75230000  0.45819000  0.73790000  1.0 -0.1584654492
C  C179  1  0.45819000  0.24770000  0.23790000  1.0 -0.1584654492
C  C180  1  0.24770000  0.54181000  0.73790000  1.0 -0.1584654492
C  C181  1  0.95819000  0.25230000  0.26210000  1.0 -0.1584654492
C  C182  1  0.04181000  0.74770000  0.26210000  1.0 -0.1584654492
C  C183  1  0.25230000  0.04181000  0.76210000  1.0 -0.1584654492
C  C184  1  0.74770000  0.95819000  0.76210000  1.0 -0.1584654492
C  C185  1  0.45819000  0.24770000  0.76210000  1.0 -0.1584654492
C  C186  1  0.24770000  0.54181000  0.26210000  1.0 -0.1584654492
C  C187  1  0.54181000  0.75230000  0.76210000  1.0 -0.1584654492
C  C188  1  0.75230000  0.45819000  0.26210000  1.0 -0.1584654492
C  C189  1  0.04181000  0.74770000  0.73790000  1.0 -0.1584654492
C  C190  1  0.95819000  0.25230000  0.73790000  1.0 -0.1584654492
C  C191  1  0.74770000  0.95819000  0.23790000  1.0 -0.1584654492
C  C192  1  0.25230000  0.04181000  0.23790000  1.0 -0.1584654492
C  C193  1  0.51586000  0.72350000  0.26720000  1.0 0.0087797556
C  C194  1  0.72350000  0.48414000  0.76720000  1.0 0.0087797556
C  C195  1  0.48414000  0.27650000  0.26720000  1.0 0.0087797556
C  C196  1  0.27650000  0.51586000  0.76720000  1.0 0.0087797556
C  C197  1  0.98414000  0.22350000  0.23280000  1.0 0.0087797556
C  C198  1  0.01586000  0.77650000  0.23280000  1.0 0.0087797556
C  C199  1  0.22350000  0.01586000  0.73280000  1.0 0.0087797556
C  C200  1  0.77650000  0.98414000  0.73280000  1.0 0.0087797556
C  C201  1  0.48414000  0.27650000  0.73280000  1.0 0.0087797556
C  C202  1  0.27650000  0.51586000  0.23280000  1.0 0.0087797556
C  C203  1  0.51586000  0.72350000  0.73280000  1.0 0.0087797556
C  C204  1  0.72350000  0.48414000  0.23280000  1.0 0.0087797556
C  C205  1  0.01586000  0.77650000  0.76720000  1.0 0.0087797556
C  C206  1  0.98414000  0.22350000  0.76720000  1.0 0.0087797556
C  C207  1  0.77650000  0.98414000  0.26720000  1.0 0.0087797556
C  C208  1  0.22350000  0.01586000  0.26720000  1.0 0.0087797556
C  C209  1  0.52827000  0.69790000  0.32730000  1.0 0.1110863501
C  C210  1  0.69790000  0.47173000  0.82730000  1.0 0.1110863501
C  C211  1  0.47173000  0.30210000  0.32730000  1.0 0.1110863501
C  C212  1  0.30210000  0.52827000  0.82730000  1.0 0.1110863501
C  C213  1  0.97173000  0.19790000  0.17270000  1.0 0.1110863501
C  C214  1  0.02827000  0.80210000  0.17270000  1.0 0.1110863501
C  C215  1  0.19790000  0.02827000  0.67270000  1.0 0.1110863501
C  C216  1  0.80210000  0.97173000  0.67270000  1.0 0.1110863501
C  C217  1  0.47173000  0.30210000  0.67270000  1.0 0.1110863501
C  C218  1  0.30210000  0.52827000  0.17270000  1.0 0.1110863501
C  C219  1  0.52827000  0.69790000  0.67270000  1.0 0.1110863501
C  C220  1  0.69790000  0.47173000  0.17270000  1.0 0.1110863501
C  C221  1  0.02827000  0.80210000  0.82730000  1.0 0.1110863501
C  C222  1  0.97173000  0.19790000  0.82730000  1.0 0.1110863501
C  C223  1  0.80210000  0.97173000  0.32730000  1.0 0.1110863501
C  C224  1  0.19790000  0.02827000  0.32730000  1.0 0.1110863501
C  C225  1  0.56665000  0.70105000  0.35800000  1.0 -0.1705616787
C  C226  1  0.70105000  0.43335000  0.85800000  1.0 -0.1705616787
C  C227  1  0.43335000  0.29895000  0.35800000  1.0 -0.1705616787
C  C228  1  0.29895000  0.56665000  0.85800000  1.0 -0.1705616787
C  C229  1  0.93335000  0.20105000  0.14200000  1.0 -0.1705616787
C  C230  1  0.06665000  0.79895000  0.14200000  1.0 -0.1705616787
C  C231  1  0.20105000  0.06665000  0.64200000  1.0 -0.1705616787
C  C232  1  0.79895000  0.93335000  0.64200000  1.0 -0.1705616787
C  C233  1  0.43335000  0.29895000  0.64200000  1.0 -0.1705616787
C  C234  1  0.29895000  0.56665000  0.14200000  1.0 -0.1705616787
C  C235  1  0.56665000  0.70105000  0.64200000  1.0 -0.1705616787
C  C236  1  0.70105000  0.43335000  0.14200000  1.0 -0.1705616787
C  C237  1  0.06665000  0.79895000  0.85800000  1.0 -0.1705616787
C  C238  1  0.93335000  0.20105000  0.85800000  1.0 -0.1705616787
C  C239  1  0.79895000  0.93335000  0.35800000  1.0 -0.1705616787
C  C240  1  0.20105000  0.06665000  0.35800000  1.0 -0.1705616787
C  C241  1  0.50030000  0.66650000  0.35950000  1.0 -0.4481510491
C  C242  1  0.66650000  0.49970000  0.85950000  1.0 -0.4481510491
C  C243  1  0.49970000  0.33350000  0.35950000  1.0 -0.4481510491
C  C244  1  0.33350000  0.50030000  0.85950000  1.0 -0.4481510491
C  C245  1  0.99970000  0.16650000  0.14050000  1.0 -0.4481510491
C  C246  1  0.00030000  0.83350000  0.14050000  1.0 -0.4481510491
C  C247  1  0.16650000  0.00030000  0.64050000  1.0 -0.4481510491
C  C248  1  0.83350000  0.99970000  0.64050000  1.0 -0.4481510491
C  C249  1  0.49970000  0.33350000  0.64050000  1.0 -0.4481510491
C  C250  1  0.33350000  0.50030000  0.14050000  1.0 -0.4481510491
C  C251  1  0.50030000  0.66650000  0.64050000  1.0 -0.4481510491
C  C252  1  0.66650000  0.49970000  0.14050000  1.0 -0.4481510491
C  C253  1  0.00030000  0.83350000  0.85950000  1.0 -0.4481510491
C  C254  1  0.99970000  0.16650000  0.85950000  1.0 -0.4481510491
C  C255  1  0.83350000  0.99970000  0.35950000  1.0 -0.4481510491
C  C256  1  0.16650000  0.00030000  0.35950000  1.0 -0.4481510491
C  C257  1  0.15250000  0.65250000  0.00000000  1.0 0.6282601246
C  C258  1  0.65250000  0.84750000  0.50000000  1.0 0.6282601246
C  C259  1  0.84750000  0.34750000  0.00000000  1.0 0.6282601246
C  C260  1  0.34750000  0.15250000  0.50000000  1.0 0.6282601246
C  C261  1  0.12060000  0.62060000  0.00000000  1.0 -0.010470788
C  C262  1  0.62060000  0.87940000  0.50000000  1.0 -0.010470788
C  C263  1  0.87940000  0.37940000  0.00000000  1.0 -0.010470788
C  C264  1  0.37940000  0.12060000  0.50000000  1.0 -0.010470788
C  C265  1  0.10592000  0.60592000  0.07153000  1.0 -0.0776829309
C  C266  1  0.60592000  0.89408000  0.57153000  1.0 -0.0776829309
C  C267  1  0.89408000  0.39408000  0.07153000  1.0 -0.0776829309
C  C268  1  0.39408000  0.10592000  0.57153000  1.0 -0.0776829309
C  C269  1  0.39408000  0.10592000  0.42847000  1.0 -0.0776829309
C  C270  1  0.60592000  0.89408000  0.42847000  1.0 -0.0776829309
C  C271  1  0.10592000  0.60592000  0.92847000  1.0 -0.0776829309
C  C272  1  0.89408000  0.39408000  0.92847000  1.0 -0.0776829309
C  C273  1  0.07658000  0.57658000  0.07153000  1.0 -0.1494313673
C  C274  1  0.57658000  0.92342000  0.57153000  1.0 -0.1494313673
C  C275  1  0.92342000  0.42342000  0.07153000  1.0 -0.1494313673
C  C276  1  0.42342000  0.07658000  0.57153000  1.0 -0.1494313673
C  C277  1  0.42342000  0.07658000  0.42847000  1.0 -0.1494313673
C  C278  1  0.57658000  0.92342000  0.42847000  1.0 -0.1494313673
C  C279  1  0.07658000  0.57658000  0.92847000  1.0 -0.1494313673
C  C280  1  0.92342000  0.42342000  0.92847000  1.0 -0.1494313673
C  C281  1  0.06190000  0.56190000  0.00000000  1.0 0.0780570111
C  C282  1  0.56190000  0.93810000  0.50000000  1.0 0.0780570111
C  C283  1  0.93810000  0.43810000  0.00000000  1.0 0.0780570111
C  C284  1  0.43810000  0.06190000  0.50000000  1.0 0.0724490728
C  C285  1  0.03010000  0.53010000  0.00000000  1.0 -0.0026754568
C  C286  1  0.53010000  0.96990000  0.50000000  1.0 -0.0026754568
C  C287  1  0.96990000  0.46990000  0.00000000  1.0 -0.0026754568
C  C288  1  0.46990000  0.03010000  0.50000000  1.0 -0.0026754568
C  C289  1  0.97830000  0.58430000  0.00000000  1.0 -0.3015610948
C  C290  1  0.58430000  0.02170000  0.50000000  1.0 -0.3015610948
C  C291  1  0.02170000  0.41570000  0.00000000  1.0 -0.3015610948
C  C292  1  0.41570000  0.97830000  0.50000000  1.0 -0.3015610948
C  C293  1  0.52170000  0.08430000  0.50000000  1.0 -0.3015610948
C  C294  1  0.47830000  0.91570000  0.50000000  1.0 -0.3015610948
C  C295  1  0.08430000  0.47830000  0.00000000  1.0 -0.3015610948
C  C296  1  0.91570000  0.52170000  0.00000000  1.0 -0.3015610948
C  C297  1  0.98850000  0.53940000  0.00000000  1.0 -0.0306101717
C  C298  1  0.53940000  0.01150000  0.50000000  1.0 -0.0306101717
C  C299  1  0.01150000  0.46060000  0.00000000  1.0 -0.0306101717
C  C300  1  0.46060000  0.98850000  0.50000000  1.0 -0.0306101717
C  C301  1  0.51150000  0.03940000  0.50000000  1.0 -0.0306101717
C  C302  1  0.48850000  0.96060000  0.50000000  1.0 -0.0306101717
C  C303  1  0.03940000  0.48850000  0.00000000  1.0 -0.0306101717
C  C304  1  0.96060000  0.51150000  0.00000000  1.0 -0.0306101717
C  C305  1  0.24020000  0.74020000  0.26290000  1.0 0.3141240341
C  C306  1  0.74020000  0.75980000  0.76290000  1.0 0.3141240341
C  C307  1  0.75980000  0.25980000  0.26290000  1.0 0.3141240341
C  C308  1  0.25980000  0.24020000  0.76290000  1.0 0.3141240341
C  C309  1  0.25980000  0.24020000  0.23710000  1.0 0.3141240341
C  C310  1  0.74020000  0.75980000  0.23710000  1.0 0.3141240341
C  C311  1  0.24020000  0.74020000  0.73710000  1.0 0.3141240341
C  C312  1  0.75980000  0.25980000  0.73710000  1.0 0.3141240341
C  C313  1  0.23750000  0.73750000  0.35240000  1.0 0.0087797556
C  C314  1  0.73750000  0.76250000  0.85240000  1.0 0.0087797556
C  C315  1  0.76250000  0.26250000  0.35240000  1.0 0.0087797556
C  C316  1  0.26250000  0.23750000  0.85240000  1.0 0.0087797556
C  C317  1  0.26250000  0.23750000  0.14760000  1.0 0.0087797556
C  C318  1  0.73750000  0.76250000  0.14760000  1.0 0.0087797556
C  C319  1  0.23750000  0.73750000  0.64760000  1.0 0.0087797556
C  C320  1  0.76250000  0.26250000  0.64760000  1.0 0.0087797556
C  C321  1  0.26150000  0.76150000  0.40000000  1.0 -0.010470788
C  C322  1  0.76150000  0.73850000  0.90000000  1.0 -0.010470788
C  C323  1  0.73850000  0.23850000  0.40000000  1.0 -0.010470788
C  C324  1  0.23850000  0.26150000  0.90000000  1.0 -0.010470788
C  C325  1  0.23850000  0.26150000  0.10000000  1.0 -0.010470788
C  C326  1  0.76150000  0.73850000  0.10000000  1.0 -0.010470788
C  C327  1  0.26150000  0.76150000  0.60000000  1.0 -0.010470788
C  C328  1  0.73850000  0.23850000  0.60000000  1.0 -0.010470788
C  C329  1  0.25887000  0.75887000  0.48230000  1.0 0.0087797556
C  C330  1  0.75887000  0.74113000  0.98230000  1.0 0.0087797556
C  C331  1  0.74113000  0.24113000  0.48230000  1.0 0.0087797556
C  C332  1  0.24113000  0.25887000  0.98230000  1.0 0.0087797556
C  C333  1  0.24113000  0.25887000  0.01770000  1.0 0.0016895434
C  C334  1  0.75887000  0.74113000  0.01770000  1.0 0.0087797556
C  C335  1  0.25887000  0.75887000  0.51770000  1.0 0.0087797556
C  C336  1  0.74113000  0.24113000  0.51770000  1.0 0.0087797556
C  C337  1  0.23225000  0.73225000  0.51710000  1.0 0.0016895434
C  C338  1  0.73225000  0.76775000  0.01710000  1.0 0.0016895434
C  C339  1  0.76775000  0.26775000  0.51710000  1.0 0.0087797556
C  C340  1  0.26775000  0.23225000  0.01710000  1.0 0.0016895434
C  C341  1  0.26775000  0.23225000  0.98290000  1.0 0.0087797556
C  C342  1  0.73225000  0.76775000  0.98290000  1.0 0.0016895434
C  C343  1  0.23225000  0.73225000  0.48290000  1.0 0.0016895434
C  C344  1  0.76775000  0.26775000  0.48290000  1.0 0.0016895434
C  C345  1  0.20826000  0.70826000  0.46940000  1.0 -0.0489163212
C  C346  1  0.70826000  0.79174000  0.96940000  1.0 -0.0489163212
C  C347  1  0.79174000  0.29174000  0.46940000  1.0 -0.0489163212
C  C348  1  0.29174000  0.20826000  0.96940000  1.0 -0.0489163212
C  C349  1  0.29174000  0.20826000  0.03060000  1.0 -0.0489163212
C  C350  1  0.70826000  0.79174000  0.03060000  1.0 -0.0489163212
C  C351  1  0.20826000  0.70826000  0.53060000  1.0 -0.0489163212
C  C352  1  0.79174000  0.29174000  0.53060000  1.0 -0.0489163212
C  C353  1  0.21090000  0.71090000  0.38720000  1.0 -0.1494313673
C  C354  1  0.71090000  0.78910000  0.88720000  1.0 -0.1494313673
C  C355  1  0.78910000  0.28910000  0.38720000  1.0 -0.1494313673
C  C356  1  0.28910000  0.21090000  0.88720000  1.0 -0.1494313673
C  C357  1  0.28910000  0.21090000  0.11280000  1.0 -0.1494313673
C  C358  1  0.71090000  0.78910000  0.11280000  1.0 -0.1494313673
C  C359  1  0.21090000  0.71090000  0.61280000  1.0 -0.1494313673
C  C360  1  0.78910000  0.28910000  0.61280000  1.0 -0.1494313673
C  C361  1  0.22960000  0.72960000  0.59930000  1.0 -0.010470788
C  C362  1  0.72960000  0.77040000  0.09930000  1.0 -0.010470788
C  C363  1  0.77040000  0.27040000  0.59930000  1.0 -0.010470788
C  C364  1  0.27040000  0.22960000  0.09930000  1.0 -0.010470788
C  C365  1  0.27040000  0.22960000  0.90070000  1.0 -0.010470788
C  C366  1  0.72960000  0.77040000  0.90070000  1.0 -0.010470788
C  C367  1  0.22960000  0.72960000  0.40070000  1.0 -0.010470788
C  C368  1  0.77040000  0.27040000  0.40070000  1.0 -0.010470788
C  C369  1  0.25360000  0.75360000  0.64690000  1.0 0.0016895434
C  C370  1  0.75360000  0.74640000  0.14690000  1.0 0.0016895434
C  C371  1  0.74640000  0.24640000  0.64690000  1.0 0.0016895434
C  C372  1  0.24640000  0.25360000  0.14690000  1.0 0.0016895434
C  C373  1  0.24640000  0.25360000  0.85310000  1.0 0.0016895434
C  C374  1  0.75360000  0.74640000  0.85310000  1.0 0.0016895434
C  C375  1  0.25360000  0.75360000  0.35310000  1.0 0.0016895434
C  C376  1  0.74640000  0.24640000  0.35310000  1.0 0.0016895434
C  C377  1  0.28020000  0.78020000  0.61220000  1.0 -0.1421035416
C  C378  1  0.78020000  0.71980000  0.11220000  1.0 -0.1421035416
C  C379  1  0.71980000  0.21980000  0.61220000  1.0 -0.1421035416
C  C380  1  0.21980000  0.28020000  0.11220000  1.0 -0.1421035416
C  C381  1  0.21980000  0.28020000  0.88780000  1.0 -0.1421035416
C  C382  1  0.78020000  0.71980000  0.88780000  1.0 -0.1421035416
C  C383  1  0.28020000  0.78020000  0.38780000  1.0 -0.1421035416
C  C384  1  0.71980000  0.21980000  0.38780000  1.0 -0.1421035416
C  C385  1  0.28285000  0.78285000  0.52990000  1.0 -0.0306101717
C  C386  1  0.78285000  0.71715000  0.02990000  1.0 -0.0306101717
C  C387  1  0.71715000  0.21715000  0.52990000  1.0 -0.0306101717
C  C388  1  0.21715000  0.28285000  0.02990000  1.0 -0.0306101717
C  C389  1  0.21715000  0.28285000  0.97010000  1.0 -0.0306101717
C  C390  1  0.78285000  0.71715000  0.97010000  1.0 -0.0306101717
C  C391  1  0.28285000  0.78285000  0.47010000  1.0 -0.0306101717
C  C392  1  0.71715000  0.21715000  0.47010000  1.0 -0.0306101717
C  C393  1  0.25090000  0.75090000  0.73610000  1.0 0.3157253303
C  C394  1  0.75090000  0.74910000  0.23610000  1.0 0.3157253303
C  C395  1  0.74910000  0.24910000  0.73610000  1.0 0.3141240341
C  C396  1  0.24910000  0.25090000  0.23610000  1.0 0.3141240341
C  C397  1  0.24910000  0.25090000  0.76390000  1.0 0.3141240341
C  C398  1  0.75090000  0.74910000  0.76390000  1.0 0.3157253303
C  C399  1  0.25090000  0.75090000  0.26390000  1.0 0.3157253303
C  C400  1  0.74910000  0.24910000  0.26390000  1.0 0.3141240341
C  C401  1  0.04080000  0.49000000  0.00000000  1.0 -0.010470788
C  C402  1  0.49000000  0.95920000  0.50000000  1.0 -0.010470788
C  C403  1  0.95920000  0.51000000  0.00000000  1.0 -0.010470788
C  C404  1  0.51000000  0.04080000  0.50000000  1.0 -0.010470788
C  C405  1  0.45920000  0.99000000  0.50000000  1.0 -0.010470788
C  C406  1  0.54080000  0.01000000  0.50000000  1.0 -0.010470788
C  C407  1  0.99000000  0.54080000  0.00000000  1.0 -0.010470788
C  C408  1  0.01000000  0.45920000  0.00000000  1.0 -0.010470788
O  O1  1  0.26790000  0.71759000  0.10350000  1.0 -0.9509292306
O  O2  1  0.71759000  0.73210000  0.60350000  1.0 -0.9509292306
O  O3  1  0.73210000  0.28241000  0.10350000  1.0 -0.9509292306
O  O4  1  0.28241000  0.26790000  0.60350000  1.0 -0.9509292306
O  O5  1  0.23210000  0.21759000  0.39650000  1.0 -0.9509292306
O  O6  1  0.76790000  0.78241000  0.39650000  1.0 -0.9509292306
O  O7  1  0.21759000  0.76790000  0.89650000  1.0 -0.9509292306
O  O8  1  0.78241000  0.23210000  0.89650000  1.0 -0.9509292306
O  O9  1  0.73210000  0.28241000  0.89650000  1.0 -0.9509292306
O  O10  1  0.28241000  0.26790000  0.39650000  1.0 -0.9509292306
O  O11  1  0.26790000  0.71759000  0.89650000  1.0 -0.9509292306
O  O12  1  0.71759000  0.73210000  0.39650000  1.0 -0.9509292306
O  O13  1  0.76790000  0.78241000  0.60350000  1.0 -0.9509292306
O  O14  1  0.23210000  0.21759000  0.60350000  1.0 -0.9509292306
O  O15  1  0.78241000  0.23210000  0.10350000  1.0 -0.9509292306
O  O16  1  0.21759000  0.76790000  0.10350000  1.0 -0.9509292306
O  O17  1  0.34950000  0.69870000  0.07780000  1.0 -0.6075545929
O  O18  1  0.69870000  0.65050000  0.57780000  1.0 -0.6075545929
O  O19  1  0.65050000  0.30130000  0.07780000  1.0 -0.6042553566
O  O20  1  0.30130000  0.34950000  0.57780000  1.0 -0.6075545929
O  O21  1  0.15050000  0.19870000  0.42220000  1.0 -0.6075545929
O  O22  1  0.84950000  0.80130000  0.42220000  1.0 -0.6042553566
O  O23  1  0.19870000  0.84950000  0.92220000  1.0 -0.6075545929
O  O24  1  0.80130000  0.15050000  0.92220000  1.0 -0.6042553566
O  O25  1  0.65050000  0.30130000  0.92220000  1.0 -0.6042553566
O  O26  1  0.30130000  0.34950000  0.42220000  1.0 -0.6075545929
O  O27  1  0.34950000  0.69870000  0.92220000  1.0 -0.6075545929
O  O28  1  0.69870000  0.65050000  0.42220000  1.0 -0.6075545929
O  O29  1  0.84950000  0.80130000  0.57780000  1.0 -0.6075545929
O  O30  1  0.15050000  0.19870000  0.57780000  1.0 -0.6075545929
O  O31  1  0.80130000  0.15050000  0.07780000  1.0 -0.6042553566
O  O32  1  0.19870000  0.84950000  0.07780000  1.0 -0.6075545929
O  O33  1  0.33880000  0.75780000  0.14750000  1.0 -0.6471252515
O  O34  1  0.75780000  0.66120000  0.64750000  1.0 -0.6471252515
O  O35  1  0.66120000  0.24220000  0.14750000  1.0 -0.6471252515
O  O36  1  0.24220000  0.33880000  0.64750000  1.0 -0.6471252515
O  O37  1  0.16120000  0.25780000  0.35250000  1.0 -0.6471252515
O  O38  1  0.83880000  0.74220000  0.35250000  1.0 -0.6471252515
O  O39  1  0.25780000  0.83880000  0.85250000  1.0 -0.6471252515
O  O40  1  0.74220000  0.16120000  0.85250000  1.0 -0.6471252515
O  O41  1  0.66120000  0.24220000  0.85250000  1.0 -0.6471252515
O  O42  1  0.24220000  0.33880000  0.35250000  1.0 -0.6471252515
O  O43  1  0.33880000  0.75780000  0.85250000  1.0 -0.6471252515
O  O44  1  0.75780000  0.66120000  0.35250000  1.0 -0.6471252515
O  O45  1  0.83880000  0.74220000  0.64750000  1.0 -0.6471252515
O  O46  1  0.16120000  0.25780000  0.64750000  1.0 -0.6471252515
O  O47  1  0.74220000  0.16120000  0.14750000  1.0 -0.6471252515
O  O48  1  0.25780000  0.83880000  0.14750000  1.0 -0.6471252515
O  O49  1  0.30500000  0.75200000  0.00000000  1.0 -1.0905623781
O  O50  1  0.75200000  0.69500000  0.50000000  1.0 -1.0905623781
O  O51  1  0.69500000  0.24800000  0.00000000  1.0 -1.0965410135
O  O52  1  0.24800000  0.30500000  0.50000000  1.0 -1.0905623781
O  O53  1  0.19500000  0.25200000  0.50000000  1.0 -1.0905623781
O  O54  1  0.80500000  0.74800000  0.50000000  1.0 -1.0905623781
O  O55  1  0.25200000  0.80500000  0.00000000  1.0 -1.0905623781
O  O56  1  0.74800000  0.19500000  0.00000000  1.0 -1.0905623781
O  O57  1  0.64160000  0.70690000  0.42030000  1.0 -0.6272439919
O  O58  1  0.70690000  0.35840000  0.92030000  1.0 -0.6272439919
O  O59  1  0.35840000  0.29310000  0.42030000  1.0 -0.6272439919
O  O60  1  0.29310000  0.64160000  0.92030000  1.0 -0.6272439919
O  O61  1  0.85840000  0.20690000  0.07970000  1.0 -0.6272439919
O  O62  1  0.14160000  0.79310000  0.07970000  1.0 -0.6272439919
O  O63  1  0.20690000  0.14160000  0.57970000  1.0 -0.6272439919
O  O64  1  0.79310000  0.85840000  0.57970000  1.0 -0.6272439919
O  O65  1  0.35840000  0.29310000  0.57970000  1.0 -0.6272439919
O  O66  1  0.29310000  0.64160000  0.07970000  1.0 -0.6272439919
O  O67  1  0.64160000  0.70690000  0.57970000  1.0 -0.6272439919
O  O68  1  0.70690000  0.35840000  0.07970000  1.0 -0.6272439919
O  O69  1  0.14160000  0.79310000  0.92030000  1.0 -0.6272439919
O  O70  1  0.85840000  0.20690000  0.92030000  1.0 -0.6272439919
O  O71  1  0.79310000  0.85840000  0.42030000  1.0 -0.6272439919
O  O72  1  0.20690000  0.14160000  0.42030000  1.0 -0.6272439919
O  O73  1  0.65160000  0.76670000  0.34980000  1.0 -0.6075545929
O  O74  1  0.76670000  0.34840000  0.84980000  1.0 -0.6075545929
O  O75  1  0.34840000  0.23330000  0.34980000  1.0 -0.6075545929
O  O76  1  0.23330000  0.65160000  0.84980000  1.0 -0.6075545929
O  O77  1  0.84840000  0.26670000  0.15020000  1.0 -0.6075545929
O  O78  1  0.15160000  0.73330000  0.15020000  1.0 -0.6075545929
O  O79  1  0.26670000  0.15160000  0.65020000  1.0 -0.6075545929
O  O80  1  0.73330000  0.84840000  0.65020000  1.0 -0.6075545929
O  O81  1  0.34840000  0.23330000  0.65020000  1.0 -0.6075545929
O  O82  1  0.23330000  0.65160000  0.15020000  1.0 -0.6075545929
O  O83  1  0.65160000  0.76670000  0.65020000  1.0 -0.6075545929
O  O84  1  0.76670000  0.34840000  0.15020000  1.0 -0.6075545929
O  O85  1  0.15160000  0.73330000  0.84980000  1.0 -0.6075545929
O  O86  1  0.84840000  0.26670000  0.84980000  1.0 -0.6075545929
O  O87  1  0.73330000  0.84840000  0.34980000  1.0 -0.6075545929
O  O88  1  0.26670000  0.15160000  0.34980000  1.0 -0.6075545929
O  O89  1  0.23550000  0.68420000  0.00000000  1.0 -0.9509292306
O  O90  1  0.68420000  0.76450000  0.50000000  1.0 -0.9509292306
O  O91  1  0.76450000  0.31580000  0.00000000  1.0 -0.9509292306
O  O92  1  0.31580000  0.23550000  0.50000000  1.0 -0.9509292306
O  O93  1  0.26450000  0.18420000  0.50000000  1.0 -0.9509292306
O  O94  1  0.73550000  0.81580000  0.50000000  1.0 -0.9509292306
O  O95  1  0.18420000  0.73550000  0.00000000  1.0 -0.9509292306
O  O96  1  0.81580000  0.26450000  0.00000000  1.0 -0.9509292306
O  O97  1  0.16310000  0.66310000  0.06930000  1.0 -0.6075545929
O  O98  1  0.66310000  0.83690000  0.56930000  1.0 -0.6075545929
O  O99  1  0.83690000  0.33690000  0.06930000  1.0 -0.6075545929
O  O100  1  0.33690000  0.16310000  0.56930000  1.0 -0.6075545929
O  O101  1  0.33690000  0.16310000  0.43070000  1.0 -0.6075545929
O  O102  1  0.66310000  0.83690000  0.43070000  1.0 -0.6075545929
O  O103  1  0.16310000  0.66310000  0.93070000  1.0 -0.6075545929
O  O104  1  0.83690000  0.33690000  0.93070000  1.0 -0.6075545929
O  O105  1  0.21640000  0.71640000  0.22870000  1.0 -0.1955043742
O  O106  1  0.71640000  0.78360000  0.72870000  1.0 -0.1955043742
O  O107  1  0.78360000  0.28360000  0.22870000  1.0 -0.1955043742
O  O108  1  0.28360000  0.21640000  0.72870000  1.0 -0.1943978033
O  O109  1  0.28360000  0.21640000  0.27130000  1.0 -0.1955043742
O  O110  1  0.71640000  0.78360000  0.27130000  1.0 -0.1955043742
O  O111  1  0.21640000  0.71640000  0.77130000  1.0 -0.1955043742
O  O112  1  0.78360000  0.28360000  0.77130000  1.0 -0.1955043742
O  O113  1  0.26540000  0.76540000  0.23870000  1.0 -0.087080785
O  O114  1  0.76540000  0.73460000  0.73870000  1.0 -0.087080785
O  O115  1  0.73460000  0.23460000  0.23870000  1.0 -0.087080785
O  O116  1  0.23460000  0.26540000  0.73870000  1.0 -0.087080785
O  O117  1  0.23460000  0.26540000  0.26130000  1.0 -0.087080785
O  O118  1  0.76540000  0.73460000  0.26130000  1.0 -0.087080785
O  O119  1  0.26540000  0.76540000  0.76130000  1.0 -0.087080785
O  O120  1  0.73460000  0.23460000  0.76130000  1.0 -0.087080785
O  O121  1  0.22580000  0.72580000  0.76080000  1.0 -0.0489163212
O  O122  1  0.72580000  0.77420000  0.26080000  1.0 -0.0489163212
O  O123  1  0.77420000  0.27420000  0.76080000  1.0 -0.0489163212
O  O124  1  0.27420000  0.22580000  0.26080000  1.0 -0.0489163212
O  O125  1  0.27420000  0.22580000  0.73920000  1.0 -0.0489163212
O  O126  1  0.72580000  0.77420000  0.73920000  1.0 -0.0489163212
O  O127  1  0.22580000  0.72580000  0.23920000  1.0 -0.0489163212
O  O128  1  0.77420000  0.27420000  0.23920000  1.0 -0.0489163212
O  O129  1  0.27430000  0.77430000  0.77150000  1.0 -0.2386094554
O  O130  1  0.77430000  0.72570000  0.27150000  1.0 -0.2386094554
O  O131  1  0.72570000  0.22570000  0.77150000  1.0 -0.2386094554
O  O132  1  0.22570000  0.27430000  0.27150000  1.0 -0.2386094554
O  O133  1  0.22570000  0.27430000  0.72850000  1.0 -0.2386094554
O  O134  1  0.77430000  0.72570000  0.72850000  1.0 -0.2386094554
O  O135  1  0.27430000  0.77430000  0.22850000  1.0 -0.2386094554
O  O136  1  0.72570000  0.22570000  0.22850000  1.0 -0.2386094554
