# DDEC6 charges by PACMAN v1.1 (https://github.com/mtap-research/PACMAN-charge/)
data_EROCIZ_ASR_pacman
_symmetry_space_group_name_H-M   'P 1'
_cell_length_a   17.52380000
_cell_length_b   21.48580000
_cell_length_c   22.25550000
_cell_angle_alpha   106.51000000
_cell_angle_beta   105.25700000
_cell_angle_gamma   105.87900000
_symmetry_Int_Tables_number   1
_chemical_formula_structural   U2H107C102N51O31
_chemical_formula_sum   'U4 H214 C204 N102 O62'
_cell_volume   7180.04849085
_cell_formula_units_Z   2
loop_
 _symmetry_equiv_pos_site_id
 _symmetry_equiv_pos_as_xyz
  1  'x, y, z'
loop_
 _atom_site_type_symbol
 _atom_site_label
 _atom_site_symmetry_multiplicity
 _atom_site_fract_x
 _atom_site_fract_y
 _atom_site_fract_z
 _atom_site_occupancy
 _atom_site_charge
U  U1  1  0.97026000  0.41888000  0.01540000  1.0 1.8786326612
U  U2  1  0.02974000  0.58112000  0.98460000  1.0 1.8692119087
U  U3  1  0.88931000  0.39834000  0.82440000  1.0 1.7528833116
U  U4  1  0.11069000  0.60166000  0.17560000  1.0 1.7399227585
H  H1  1  0.56540000  0.05720000  0.66840000  1.0 0.2703283544
H  H2  1  0.43460000  0.94280000  0.33160000  1.0 0.2703283544
H  H3  1  0.64150000  0.09020000  0.65800000  1.0 0.2760880555
H  H4  1  0.35850000  0.90980000  0.34200000  1.0 0.2760880555
H  H5  1  0.54310000  0.16250000  0.69240000  1.0 0.1291600431
H  H6  1  0.45690000  0.83750000  0.30760000  1.0 0.1291600431
H  H7  1  0.63410000  0.19620000  0.69150000  1.0 0.1291600431
H  H8  1  0.36590000  0.80380000  0.30850000  1.0 0.1291600431
H  H9  1  0.97400000  0.70450000  0.86530000  1.0 0.1437667872
H  H10  1  0.02600000  0.29550000  0.13470000  1.0 0.1437667872
H  H11  1  0.72920000  0.21120000  0.95740000  1.0 0.1291600431
H  H12  1  0.27080000  0.78880000  0.04260000  1.0 0.1291600431
H  H13  1  0.02940000  0.37530000  0.55380000  1.0 0.2703283544
H  H14  1  0.97060000  0.62470000  0.44620000  1.0 0.2703283544
H  H15  1  0.00680000  0.41390000  0.60630000  1.0 0.2703283544
H  H16  1  0.99320000  0.58610000  0.39370000  1.0 0.2703283544
H  H17  1  0.95830000  0.82990000  0.92950000  1.0 0.2632674838
H  H18  1  0.04170000  0.17010000  0.07050000  1.0 0.2632674838
H  H19  1  0.87960000  0.83540000  0.89640000  1.0 0.2632674838
H  H20  1  0.12040000  0.16460000  0.10360000  1.0 0.2632674838
H  H21  1  0.69130000  0.60670000  0.72380000  1.0 0.1222935353
H  H22  1  0.30870000  0.39330000  0.27620000  1.0 0.1222935353
H  H23  1  0.89300000  0.31240000  0.66130000  1.0 0.1222935353
H  H24  1  0.10700000  0.68760000  0.33870000  1.0 0.1291600431
H  H25  1  0.75700000  0.23420000  0.79040000  1.0 0.1291600431
H  H26  1  0.24300000  0.76580000  0.20960000  1.0 0.1291600431
H  H27  1  0.98940000  0.80930000  0.83610000  1.0 0.1291600431
H  H28  1  0.01060000  0.19070000  0.16390000  1.0 0.1291600431
H  H29  1  0.90650000  0.81940000  0.79970000  1.0 0.1291600431
H  H30  1  0.09350000  0.18060000  0.20030000  1.0 0.1291600431
H  H31  1  0.59050000  0.13580000  0.89410000  1.0 0.1222935353
H  H32  1  0.40950000  0.86420000  0.10590000  1.0 0.1222935353
H  H33  1  0.75590000  0.53780000  0.76100000  1.0 0.1222935353
H  H34  1  0.24410000  0.46220000  0.23900000  1.0 0.1222935353
H  H35  1  0.76650000  0.72440000  0.75910000  1.0 0.1291600431
H  H36  1  0.23350000  0.27560000  0.24090000  1.0 0.1291600431
H  H37  1  0.89720000  0.28820000  0.50490000  1.0 0.1222935353
H  H38  1  0.10280000  0.71180000  0.49510000  1.0 0.1222935353
H  H39  1  0.87110000  0.33040000  0.56070000  1.0 0.1222935353
H  H40  1  0.12890000  0.66960000  0.43930000  1.0 0.1222935353
H  H41  1  0.48140000  0.07390000  0.58190000  1.0 0.0990404777
H  H42  1  0.51860000  0.92610000  0.41810000  1.0 0.0990404777
H  H43  1  0.56370000  0.11180000  0.57110000  1.0 0.0990404777
H  H44  1  0.43630000  0.88820000  0.42890000  1.0 0.0990404777
H  H45  1  0.90890000  0.43340000  0.53230000  1.0 0.0990404777
H  H46  1  0.09110000  0.56660000  0.46770000  1.0 0.0990404777
H  H47  1  0.92550000  0.38630000  0.47300000  1.0 0.0990404777
H  H48  1  0.07450000  0.61370000  0.52700000  1.0 0.0990404777
H  H49  1  0.02020000  0.24640000  0.54740000  1.0 0.1291600431
H  H50  1  0.97980000  0.75360000  0.45260000  1.0 0.1291600431
H  H51  1  0.50260000  0.96930000  0.54850000  1.0 0.0990404777
H  H52  1  0.49740000  0.03070000  0.45150000  1.0 0.0990404777
H  H53  1  0.58360000  0.00760000  0.53610000  1.0 0.0990404777
H  H54  1  0.41640000  0.99240000  0.46390000  1.0 0.0990404777
H  H55  1  0.95030000  0.93680000  0.88820000  1.0 0.1089877723
H  H56  1  0.04970000  0.06320000  0.11180000  1.0 0.1089877723
H  H57  1  0.03630000  0.93070000  0.92400000  1.0 0.1089877723
H  H58  1  0.96370000  0.06930000  0.07600000  1.0 0.1089877723
H  H59  1  0.53240000  0.11280000  0.78100000  1.0 0.1291600431
H  H60  1  0.46760000  0.88720000  0.21900000  1.0 0.1291600431
H  H61  1  0.00680000  0.94570000  0.02240000  1.0 0.0990404777
H  H62  1  0.99320000  0.05430000  0.97760000  1.0 0.0990404777
H  H63  1  0.91960000  0.95010000  0.98660000  1.0 0.0990404777
H  H64  1  0.08040000  0.04990000  0.01340000  1.0 0.0990404777
H  H65  1  0.06400000  0.18910000  0.61590000  1.0 0.1089877723
H  H66  1  0.93600000  0.81090000  0.38410000  1.0 0.1089877723
H  H67  1  0.02600000  0.19620000  0.70780000  1.0 0.1089877723
H  H68  1  0.97400000  0.80380000  0.29220000  1.0 0.1089877723
H  H69  1  0.06260000  0.47000000  0.51020000  1.0 0.0990404777
H  H70  1  0.93740000  0.53000000  0.48980000  1.0 0.0990404777
H  H71  1  0.04550000  0.51710000  0.56920000  1.0 0.0990404777
H  H72  1  0.95450000  0.48290000  0.43080000  1.0 0.0990404777
H  H73  1  0.36040000  0.49550000  0.56790000  1.0 0.0816630705
H  H74  1  0.63960000  0.50450000  0.43210000  1.0 0.0816630705
H  H75  1  0.13360000  0.62470000  0.80820000  1.0 0.0990404777
H  H76  1  0.86640000  0.37530000  0.19180000  1.0 0.0990404777
H  H77  1  0.08840000  0.54310000  0.77160000  1.0 0.1089877723
H  H78  1  0.91160000  0.45690000  0.22840000  1.0 0.1089877723
H  H79  1  0.33220000  0.49940000  0.67690000  1.0 0.0990404777
H  H80  1  0.66780000  0.50060000  0.32310000  1.0 0.0990404777
H  H81  1  0.24490000  0.44280000  0.66420000  1.0 0.0990404777
H  H82  1  0.75510000  0.55720000  0.33580000  1.0 0.0990404777
H  H83  1  0.36280000  0.66350000  0.60130000  1.0 0.0990404777
H  H84  1  0.63720000  0.33650000  0.39870000  1.0 0.0990404777
H  H85  1  0.39710000  0.62060000  0.64010000  1.0 0.0990404777
H  H86  1  0.60290000  0.37940000  0.35990000  1.0 0.0990404777
H  H87  1  0.04620000  0.69500000  0.76640000  1.0 0.0903044439
H  H88  1  0.95380000  0.30500000  0.23360000  1.0 0.0903044439
H  H89  1  0.27060000  0.67670000  0.78670000  1.0 0.0903044439
H  H90  1  0.72940000  0.32330000  0.21330000  1.0 0.0903044439
H  H91  1  0.90640000  0.66230000  0.70670000  1.0 0.0721382613
H  H92  1  0.09360000  0.33770000  0.29330000  1.0 0.0721382613
H  H93  1  0.18230000  0.74960000  0.75760000  1.0 0.0990404777
H  H94  1  0.81770000  0.25040000  0.24240000  1.0 0.0990404777
H  H95  1  0.17770000  0.75990000  0.69000000  1.0 0.1089877723
H  H96  1  0.82230000  0.24010000  0.31000000  1.0 0.1089877723
H  H97  1  0.89100000  0.70890000  0.56550000  1.0 0.1089877723
H  H98  1  0.10900000  0.29110000  0.43450000  1.0 0.1089877723
H  H99  1  0.83570000  0.68800000  0.60680000  1.0 0.0903044439
H  H100  1  0.16430000  0.31200000  0.39320000  1.0 0.0903044439
H  H101  1  0.70920000  0.57010000  0.54390000  1.0 0.0816630705
H  H102  1  0.29080000  0.42990000  0.45610000  1.0 0.0816630705
H  H103  1  0.34870000  0.62180000  0.74140000  1.0 0.0990404777
H  H104  1  0.65130000  0.37820000  0.25860000  1.0 0.0990404777
H  H105  1  0.77990000  0.55030000  0.64600000  1.0 0.0816630705
H  H106  1  0.22010000  0.44970000  0.35400000  1.0 0.0816630705
H  H107  1  0.79770000  0.48100000  0.63240000  1.0 0.1089877723
H  H108  1  0.20230000  0.51900000  0.36760000  1.0 0.1089877723
H  H109  1  0.95920000  0.21050000  0.87560000  1.0 0.1089877723
H  H110  1  0.04080000  0.78950000  0.12440000  1.0 0.1089877723
H  H111  1  0.98880000  0.23370000  0.95400000  1.0 0.1089877723
H  H112  1  0.01120000  0.76630000  0.04600000  1.0 0.1089877723
H  H113  1  0.62630000  0.94280000  0.93690000  1.0 0.0816630705
H  H114  1  0.37370000  0.05720000  0.06310000  1.0 0.0816630705
H  H115  1  0.67940000  0.06270000  0.94190000  1.0 0.0903044439
H  H116  1  0.32060000  0.93730000  0.05810000  1.0 0.0903044439
H  H117  1  0.75640000  0.11700000  0.00770000  1.0 0.1089877723
H  H118  1  0.24360000  0.88300000  0.99230000  1.0 0.1089877723
H  H119  1  0.81010000  0.83680000  0.13360000  1.0 0.0903044439
H  H120  1  0.18990000  0.16320000  0.86640000  1.0 0.0903044439
H  H121  1  0.81830000  0.00620000  0.16430000  1.0 0.1089877723
H  H122  1  0.18170000  0.99380000  0.83570000  1.0 0.1089877723
H  H123  1  0.75010000  0.92990000  0.13390000  1.0 0.0990404777
H  H124  1  0.24990000  0.07010000  0.86610000  1.0 0.0990404777
H  H125  1  0.81420000  0.11010000  0.80920000  1.0 0.1089877723
H  H126  1  0.18580000  0.88990000  0.19080000  1.0 0.1089877723
H  H127  1  0.70780000  0.05070000  0.83400000  1.0 0.0903044439
H  H128  1  0.29220000  0.94930000  0.16600000  1.0 0.0903044439
H  H129  1  0.69920000  0.79080000  0.01440000  1.0 0.1089877723
H  H130  1  0.30080000  0.20920000  0.98560000  1.0 0.1089877723
H  H131  1  0.73040000  0.76120000  0.95650000  1.0 0.1222935353
H  H132  1  0.26960000  0.23880000  0.04350000  1.0 0.1222935353
H  H133  1  0.65050000  0.88960000  0.01080000  1.0 0.0903044439
H  H134  1  0.34950000  0.11040000  0.98920000  1.0 0.0903044439
H  H135  1  0.68730000  0.87680000  0.80170000  1.0 0.0990404777
H  H136  1  0.31270000  0.12320000  0.19830000  1.0 0.0990404777
H  H137  1  0.63970000  0.92590000  0.82340000  1.0 0.0903044439
H  H138  1  0.36030000  0.07410000  0.17660000  1.0 0.0903044439
H  H139  1  0.05960000  0.16560000  0.82390000  1.0 0.0903044439
H  H140  1  0.94040000  0.83440000  0.17610000  1.0 0.0903044439
H  H141  1  0.90640000  0.99780000  0.73810000  1.0 0.1089877723
H  H142  1  0.09360000  0.00220000  0.26190000  1.0 0.1089877723
H  H143  1  0.91310000  0.07530000  0.75340000  1.0 0.0990404777
H  H144  1  0.08690000  0.92470000  0.24660000  1.0 0.0990404777
H  H145  1  0.19310000  0.52240000  0.04460000  1.0 0.0619080814
H  H146  1  0.80690000  0.47760000  0.95540000  1.0 0.0619080814
H  H147  1  0.86380000  0.55980000  0.06210000  1.0 0.0619080814
H  H148  1  0.13620000  0.44020000  0.93790000  1.0 0.0619080814
H  H149  1  0.85300000  0.55550000  0.17090000  1.0 0.0903044439
H  H150  1  0.14700000  0.44450000  0.82910000  1.0 0.0903044439
H  H151  1  0.77920000  0.49090000  0.16530000  1.0 0.0990404777
H  H152  1  0.22080000  0.50910000  0.83470000  1.0 0.0990404777
H  H153  1  0.33890000  0.67560000  0.05970000  1.0 0.1089877723
H  H154  1  0.66110000  0.32440000  0.94030000  1.0 0.1089877723
H  H155  1  0.28800000  0.64510000  0.09970000  1.0 0.0816630705
H  H156  1  0.71200000  0.35490000  0.90030000  1.0 0.0816630705
H  H157  1  0.38150000  0.64970000  0.21410000  1.0 0.0903044439
H  H158  1  0.61850000  0.35030000  0.78590000  1.0 0.0903044439
H  H159  1  0.80070000  0.70000000  0.07090000  1.0 0.0903044439
H  H160  1  0.19930000  0.30000000  0.92910000  1.0 0.0903044439
H  H161  1  0.86660000  0.67800000  0.11390000  1.0 0.0990404777
H  H162  1  0.13340000  0.32200000  0.88610000  1.0 0.0990404777
H  H163  1  0.76680000  0.71220000  0.27940000  1.0 0.0816630705
H  H164  1  0.23320000  0.28780000  0.72060000  1.0 0.0816630705
H  H165  1  0.31520000  0.46530000  0.15350000  1.0 0.1089877723
H  H166  1  0.68480000  0.53470000  0.84650000  1.0 0.1089877723
H  H167  1  0.27310000  0.52110000  0.15560000  1.0 0.0816630705
H  H168  1  0.72690000  0.47890000  0.84440000  1.0 0.0816630705
H  H169  1  0.84610000  0.67360000  0.22560000  1.0 0.0816630705
H  H170  1  0.15390000  0.32640000  0.77440000  1.0 0.0816630705
H  H171  1  0.52410000  0.69740000  0.27670000  1.0 0.0990404777
H  H172  1  0.47590000  0.30260000  0.72330000  1.0 0.0990404777
H  H173  1  0.66020000  0.76950000  0.26230000  1.0 0.0990404777
H  H174  1  0.33980000  0.23050000  0.73770000  1.0 0.0990404777
H  H175  1  0.64050000  0.78140000  0.19460000  1.0 0.1089877723
H  H176  1  0.35950000  0.21860000  0.80540000  1.0 0.1089877723
H  H177  1  0.60710000  0.56970000  0.28130000  1.0 0.0990404777
H  H178  1  0.39290000  0.43030000  0.71870000  1.0 0.0990404777
H  H179  1  0.64080000  0.65170000  0.31200000  1.0 0.0990404777
H  H180  1  0.35920000  0.34830000  0.68800000  1.0 0.0990404777
H  H181  1  0.25270000  0.14610000  0.42760000  1.0 0.0903044439
H  H182  1  0.74730000  0.85390000  0.57240000  1.0 0.0903044439
H  H183  1  0.39920000  0.24830000  0.48360000  1.0 0.0903044439
H  H184  1  0.60080000  0.75170000  0.51640000  1.0 0.0903044439
H  H185  1  0.45330000  0.25710000  0.55590000  1.0 0.1089877723
H  H186  1  0.54670000  0.74290000  0.44410000  1.0 0.1089877723
H  H187  1  0.84280000  0.09220000  0.48030000  1.0 0.0903044439
H  H188  1  0.15720000  0.90780000  0.51970000  1.0 0.0903044439
H  H189  1  0.47560000  0.23460000  0.40200000  1.0 0.0816630705
H  H190  1  0.52440000  0.76540000  0.59800000  1.0 0.0816630705
H  H191  1  0.78800000  0.16470000  0.44470000  1.0 0.0990404777
H  H192  1  0.21200000  0.83530000  0.55530000  1.0 0.0990404777
H  H193  1  0.60540000  0.23370000  0.40640000  1.0 0.0903044439
H  H194  1  0.39460000  0.76630000  0.59360000  1.0 0.0903044439
H  H195  1  0.73990000  0.25920000  0.50230000  1.0 0.1089877723
H  H196  1  0.26010000  0.74080000  0.49770000  1.0 0.1089877723
H  H197  1  0.72750000  0.25610000  0.56870000  1.0 0.1089877723
H  H198  1  0.27250000  0.74390000  0.43130000  1.0 0.1089877723
H  H199  1  0.62700000  0.11290000  0.31400000  1.0 0.1089877723
H  H200  1  0.37300000  0.88710000  0.68600000  1.0 0.1089877723
H  H201  1  0.79720000  0.95680000  0.43350000  1.0 0.0903044439
H  H202  1  0.20280000  0.04320000  0.56650000  1.0 0.0903044439
H  H203  1  0.70510000  0.91680000  0.37840000  1.0 0.1089877723
H  H204  1  0.29490000  0.08320000  0.62160000  1.0 0.1089877723
H  H205  1  0.17740000  0.06410000  0.45920000  1.0 0.0816630705
H  H206  1  0.82260000  0.93590000  0.54080000  1.0 0.0816630705
H  H207  1  0.31690000  0.06780000  0.29940000  1.0 0.0903044439
H  H208  1  0.68310000  0.93220000  0.70060000  1.0 0.0903044439
H  H209  1  0.32190000  0.14250000  0.33960000  1.0 0.0990404777
H  H210  1  0.67810000  0.85750000  0.66040000  1.0 0.0990404777
H  H211  1  0.87610000  0.06690000  0.58510000  1.0 0.0903044439
H  H212  1  0.12390000  0.93310000  0.41490000  1.0 0.0903044439
H  H213  1  0.84130000  0.10230000  0.63790000  1.0 0.0990404777
H  H214  1  0.15870000  0.89770000  0.36210000  1.0 0.0990404777
C  C1  1  0.91320000  0.56940000  0.84310000  1.0 0.5873246754
C  C2  1  0.08680000  0.43060000  0.15690000  1.0 0.5873246754
C  C3  1  0.59910000  0.15970000  0.70120000  1.0 -0.1291506114
C  C4  1  0.40090000  0.84030000  0.29880000  1.0 -0.1291506114
C  C5  1  0.91730000  0.68470000  0.83600000  1.0 -0.1551076804
C  C6  1  0.08270000  0.31530000  0.16400000  1.0 -0.1551076804
C  C7  1  0.70690000  0.20090000  0.91140000  1.0 -0.1352078316
C  C8  1  0.29310000  0.79910000  0.08860000  1.0 -0.1352078316
C  C9  1  0.63820000  0.17260000  0.77390000  1.0 0.0990404777
C  C10  1  0.36180000  0.82740000  0.22610000  1.0 0.0990404777
C  C11  1  0.75810000  0.23070000  0.87980000  1.0 -0.0221848262
C  C12  1  0.24190000  0.76930000  0.12020000  1.0 -0.0221848262
C  C13  1  0.74840000  0.62640000  0.75250000  1.0 -0.0999596973
C  C14  1  0.25160000  0.37360000  0.24750000  1.0 -0.0999596973
C  C15  1  0.84530000  0.28490000  0.92230000  1.0 0.538683113
C  C16  1  0.15470000  0.71510000  0.07770000  1.0 0.538683113
C  C17  1  0.92660000  0.28710000  0.65140000  1.0 -0.1728863254
C  C18  1  0.07340000  0.71290000  0.34860000  1.0 -0.1728863254
C  C19  1  0.94880000  0.28330000  0.59580000  1.0 0.0990404777
C  C20  1  0.05120000  0.71670000  0.40420000  1.0 0.0990404777
C  C21  1  0.72300000  0.21540000  0.81160000  1.0 -0.1882004794
C  C22  1  0.27700000  0.78460000  0.18840000  1.0 -0.1882004794
C  C23  1  0.93150000  0.80300000  0.83350000  1.0 -0.1209509755
C  C24  1  0.06850000  0.19700000  0.16650000  1.0 -0.1209509755
C  C25  1  0.87170000  0.61410000  0.81660000  1.0 -0.0148669534
C  C26  1  0.12830000  0.38590000  0.18340000  1.0 -0.0148669534
C  C27  1  0.62390000  0.15670000  0.87360000  1.0 -0.0879659253
C  C28  1  0.37610000  0.84330000  0.12640000  1.0 -0.0879659253
C  C29  1  0.78700000  0.58530000  0.77450000  1.0 -0.1291506114
C  C30  1  0.21300000  0.41470000  0.22550000  1.0 -0.1291506114
C  C31  1  0.88020000  0.72630000  0.81270000  1.0 0.0903044439
C  C32  1  0.11980000  0.27370000  0.18730000  1.0 0.0903044439
C  C33  1  0.79380000  0.69640000  0.77250000  1.0 -0.1209509755
C  C34  1  0.20620000  0.30360000  0.22750000  1.0 -0.1209509755
C  C35  1  0.91820000  0.31950000  0.55180000  1.0 -0.1352078316
C  C36  1  0.08180000  0.68050000  0.44820000  1.0 -0.1352078316
C  C37  1  0.95370000  0.25360000  0.69280000  1.0 -0.0327115093
C  C38  1  0.04630000  0.74640000  0.30720000  1.0 -0.0327115093
C  C39  1  0.92560000  0.25420000  0.75040000  1.0 0.5796056951
C  C40  1  0.07440000  0.74580000  0.24960000  1.0 0.5796056951
C  C41  1  0.53760000  0.07440000  0.58420000  1.0 -0.0879659253
C  C42  1  0.46240000  0.92560000  0.41580000  1.0 -0.0879659253
C  C43  1  0.95240000  0.41980000  0.51940000  1.0 -0.0879659253
C  C44  1  0.04760000  0.58020000  0.48060000  1.0 -0.0879659253
C  C45  1  0.00260000  0.24770000  0.58350000  1.0 -0.1291506114
C  C46  1  0.99740000  0.75230000  0.41650000  1.0 -0.1291506114
C  C47  1  0.52780000  0.00700000  0.53530000  1.0 -0.2103490641
C  C48  1  0.47220000  0.99300000  0.46470000  1.0 -0.2103490641
C  C49  1  0.97780000  0.92080000  0.92140000  1.0 -0.0743814406
C  C50  1  0.02220000  0.07920000  0.07860000  1.0 -0.0743814406
C  C51  1  0.58920000  0.14260000  0.80570000  1.0 -0.1209509755
C  C52  1  0.41080000  0.85740000  0.19430000  1.0 -0.1209509755
C  C53  1  0.97800000  0.96080000  0.98900000  1.0 -0.201213249
C  C54  1  0.02200000  0.03920000  0.01100000  1.0 -0.201213249
C  C55  1  0.02980000  0.21400000  0.62520000  1.0 -0.0999596973
C  C56  1  0.97020000  0.78600000  0.37480000  1.0 -0.0999596973
C  C57  1  0.00660000  0.21770000  0.67950000  1.0 -0.1509664093
C  C58  1  0.99340000  0.78230000  0.32050000  1.0 -0.1509664093
C  C59  1  0.01880000  0.48320000  0.52300000  1.0 -0.220730066
C  C60  1  0.98120000  0.51680000  0.47700000  1.0 -0.220730066
C  C61  1  0.30200000  0.49400000  0.55170000  1.0 0.0990404777
C  C62  1  0.69800000  0.50600000  0.44830000  1.0 0.0990404777
C  C63  1  0.10770000  0.58630000  0.76440000  1.0 0.0296617382
C  C64  1  0.89230000  0.41370000  0.23560000  1.0 0.0296617382
C  C65  1  0.25830000  0.56110000  0.49410000  1.0 0.5006651745
C  C66  1  0.74170000  0.43890000  0.50590000  1.0 0.5006651745
C  C67  1  0.17420000  0.52300000  0.70130000  1.0 0.509852853
C  C68  1  0.82580000  0.47700000  0.29870000  1.0 0.509852853
C  C69  1  0.27080000  0.48290000  0.65440000  1.0 0.0296617382
C  C70  1  0.72920000  0.51710000  0.34560000  1.0 0.0296617382
C  C71  1  0.34550000  0.62420000  0.61460000  1.0 0.0206014349
C  C72  1  0.65450000  0.37580000  0.38540000  1.0 0.0206014349
C  C73  1  0.02860000  0.65980000  0.72110000  1.0 0.0816630705
C  C74  1  0.97140000  0.34020000  0.27890000  1.0 0.0816630705
C  C75  1  0.23750000  0.64410000  0.73980000  1.0 0.0990404777
C  C76  1  0.76250000  0.35590000  0.26020000  1.0 0.0990404777
C  C77  1  0.93500000  0.64070000  0.67960000  1.0 0.0816630705
C  C78  1  0.06500000  0.35930000  0.32040000  1.0 0.0816630705
C  C79  1  0.16440000  0.72500000  0.70940000  1.0 0.0206014349
C  C80  1  0.83560000  0.27500000  0.29060000  1.0 0.0206014349
C  C81  1  0.86970000  0.67310000  0.58200000  1.0 0.0206014349
C  C82  1  0.13030000  0.32690000  0.41800000  1.0 0.0206014349
C  C83  1  0.74600000  0.55230000  0.52340000  1.0 0.0990404777
C  C84  1  0.25400000  0.44770000  0.47660000  1.0 0.0990404777
C  C85  1  0.81600000  0.60030000  0.46230000  1.0 0.509852853
C  C86  1  0.18400000  0.39970000  0.53770000  1.0 0.509852853
C  C87  1  0.29270000  0.61030000  0.70770000  1.0 0.1089877723
C  C88  1  0.70730000  0.38970000  0.29230000  1.0 0.1089877723
C  C89  1  0.02190000  0.69610000  0.63170000  1.0 0.509852853
C  C90  1  0.97810000  0.30390000  0.36830000  1.0 0.509852853
C  C91  1  0.25220000  0.68030000  0.65230000  1.0 0.5006651745
C  C92  1  0.74780000  0.31970000  0.34770000  1.0 0.5006651745
C  C93  1  0.95740000  0.53960000  0.68350000  1.0 0.5264229293
C  C94  1  0.04260000  0.46040000  0.31650000  1.0 0.5264229293
C  C95  1  0.80930000  0.52420000  0.62460000  1.0 0.0296617382
C  C96  1  0.19070000  0.47580000  0.37540000  1.0 0.0296617382
C  C97  1  0.97290000  0.19450000  0.91230000  1.0 0.0296617382
C  C98  1  0.02710000  0.80550000  0.08770000  1.0 0.0296617382
C  C99  1  0.81560000  0.96910000  0.80630000  1.0 0.509852853
C  C100  1  0.18440000  0.03090000  0.19370000  1.0 0.509852853
C  C101  1  0.68600000  0.94750000  0.95380000  1.0 0.0990404777
C  C102  1  0.31400000  0.05250000  0.04620000  1.0 0.0990404777
C  C103  1  0.87140000  0.13490000  0.95600000  1.0 0.5264229293
C  C104  1  0.12860000  0.86510000  0.04400000  1.0 0.5264229293
C  C105  1  0.73820000  0.07370000  0.96920000  1.0 0.0206014349
C  C106  1  0.26180000  0.92630000  0.03080000  1.0 0.0206014349
C  C107  1  0.94830000  0.97550000  0.17930000  1.0 0.509852853
C  C108  1  0.05170000  0.02450000  0.82070000  1.0 0.509852853
C  C109  1  0.85000000  0.86050000  0.11620000  1.0 0.0990404777
C  C110  1  0.15000000  0.13950000  0.88380000  1.0 0.0990404777
C  C111  1  0.79760000  0.96050000  0.12840000  1.0 0.0206014349
C  C112  1  0.20240000  0.03950000  0.87160000  1.0 0.0206014349
C  C113  1  0.83400000  0.08780000  0.83960000  1.0 0.0990404777
C  C114  1  0.16600000  0.91220000  0.16040000  1.0 0.0990404777
C  C115  1  0.76220000  0.04850000  0.85750000  1.0 0.0903044439
C  C116  1  0.23780000  0.95150000  0.14250000  1.0 0.0903044439
C  C117  1  0.74150000  0.80280000  0.99460000  1.0 0.0296617382
C  C118  1  0.25850000  0.19720000  0.00540000  1.0 0.0296617382
C  C119  1  0.70250000  0.91100000  0.00350000  1.0 0.0816630705
C  C120  1  0.29750000  0.08900000  0.99650000  1.0 0.0816630705
C  C121  1  0.11270000  0.19690000  0.97180000  1.0 0.519312803
C  C122  1  0.88730000  0.80310000  0.02820000  1.0 0.519312803
C  C123  1  0.69350000  0.91950000  0.83590000  1.0 0.0206014349
C  C124  1  0.30650000  0.08050000  0.16410000  1.0 0.0206014349
C  C125  1  0.06100000  0.14010000  0.85400000  1.0 0.0990404777
C  C126  1  0.93900000  0.85990000  0.14600000  1.0 0.0990404777
C  C127  1  0.78680000  0.02980000  0.05690000  1.0 0.5006651745
C  C128  1  0.21320000  0.97020000  0.94310000  1.0 0.5006651745
C  C129  1  0.73530000  0.86030000  0.91190000  1.0 0.509852853
C  C130  1  0.26470000  0.13970000  0.08810000  1.0 0.509852853
C  C131  1  0.91980000  0.04190000  0.77390000  1.0 0.0296617382
C  C132  1  0.08020000  0.95810000  0.22610000  1.0 0.0296617382
C  C133  1  0.23690000  0.51140000  0.02890000  1.0 0.0903044439
C  C134  1  0.76310000  0.48860000  0.97110000  1.0 0.0903044439
C  C135  1  0.80130000  0.54290000  0.04380000  1.0 0.0990404777
C  C136  1  0.19870000  0.45710000  0.95620000  1.0 0.1089877723
C  C137  1  0.79160000  0.53030000  0.15160000  1.0 0.0296617382
C  C138  1  0.20840000  0.46970000  0.84840000  1.0 0.0296617382
C  C139  1  0.33010000  0.64080000  0.07960000  1.0 0.0206014349
C  C140  1  0.66990000  0.35920000  0.92040000  1.0 0.0206014349
C  C141  1  0.41460000  0.63350000  0.18830000  1.0 0.0903044439
C  C142  1  0.58540000  0.36650000  0.81170000  1.0 0.0903044439
C  C143  1  0.80610000  0.66620000  0.09120000  1.0 0.0296617382
C  C144  1  0.19390000  0.33380000  0.90880000  1.0 0.0296617382
C  C145  1  0.27330000  0.41350000  0.02710000  1.0 0.519312803
C  C146  1  0.72670000  0.58650000  0.97290000  1.0 0.519312803
C  C147  1  0.73110000  0.67630000  0.23430000  1.0 0.0816630705
C  C148  1  0.26890000  0.32370000  0.76570000  1.0 0.0816630705
C  C149  1  0.46720000  0.54610000  0.19530000  1.0 0.509852853
C  C150  1  0.53280000  0.45390000  0.80470000  1.0 0.509852853
C  C151  1  0.69100000  0.55620000  0.20280000  1.0 0.509852853
C  C152  1  0.30900000  0.44380000  0.79720000  1.0 0.509852853
C  C153  1  0.31250000  0.50370000  0.13950000  1.0 0.0206014349
C  C154  1  0.68750000  0.49630000  0.86050000  1.0 0.0206014349
C  C155  1  0.78530000  0.65210000  0.19710000  1.0 0.0990404777
C  C156  1  0.21470000  0.34790000  0.80290000  1.0 0.0990404777
C  C157  1  0.48470000  0.69790000  0.13710000  1.0 0.5006651745
C  C158  1  0.51530000  0.30210000  0.86290000  1.0 0.5006651745
C  C159  1  0.51230000  0.66730000  0.23030000  1.0 0.0903044439
C  C160  1  0.48770000  0.33270000  0.76970000  1.0 0.0903044439
C  C161  1  0.63460000  0.74570000  0.21360000  1.0 0.0296617382
C  C162  1  0.36540000  0.25430000  0.78640000  1.0 0.0296617382
C  C163  1  0.70870000  0.70540000  0.13930000  1.0 0.509852853
C  C164  1  0.29130000  0.29460000  0.86070000  1.0 0.509852853
C  C165  1  0.61720000  0.61090000  0.27010000  1.0 0.0206014349
C  C166  1  0.38280000  0.38910000  0.72990000  1.0 0.0206014349
C  C167  1  0.71110000  0.43710000  0.03820000  1.0 0.519312803
C  C168  1  0.28890000  0.56290000  0.96180000  1.0 0.519312803
C  C169  1  0.28540000  0.11890000  0.44170000  1.0 0.0990404777
C  C170  1  0.71460000  0.88110000  0.55830000  1.0 0.0990404777
C  C171  1  0.42630000  0.22510000  0.50900000  1.0 0.0206014349
C  C172  1  0.57370000  0.77490000  0.49100000  1.0 0.0206014349
C  C173  1  0.78450000  0.08250000  0.47950000  1.0 0.0990404777
C  C174  1  0.21550000  0.91750000  0.52050000  1.0 0.0990404777
C  C175  1  0.48680000  0.19820000  0.41690000  1.0 0.0990404777
C  C176  1  0.51320000  0.80180000  0.58310000  1.0 0.0990404777
C  C177  1  0.74710000  0.13280000  0.45560000  1.0 0.1089877723
C  C178  1  0.25290000  0.86720000  0.54440000  1.0 0.1089877723
C  C179  1  0.57630000  0.19830000  0.42110000  1.0 0.1089877723
C  C180  1  0.42370000  0.80170000  0.57890000  1.0 0.1089877723
C  C181  1  0.35930000  0.14280000  0.55640000  1.0 0.4783976341
C  C182  1  0.64070000  0.85720000  0.44360000  1.0 0.4783976341
C  C183  1  0.56950000  0.22470000  0.52790000  1.0 0.519312803
C  C184  1  0.43050000  0.77530000  0.47210000  1.0 0.519312803
C  C185  1  0.70900000  0.22960000  0.52070000  1.0 0.0401799421
C  C186  1  0.29100000  0.77040000  0.47930000  1.0 0.0401799421
C  C187  1  0.26710000  0.00800000  0.37110000  1.0 0.5006651745
C  C188  1  0.73290000  0.99200000  0.62890000  1.0 0.5006651745
C  C189  1  0.47260000  0.08850000  0.34430000  1.0 0.5006651745
C  C190  1  0.52740000  0.91150000  0.65570000  1.0 0.5006651745
C  C191  1  0.62080000  0.10990000  0.35340000  1.0 -0.0414716171
C  C192  1  0.37920000  0.89010000  0.64660000  1.0 -0.0414716171
C  C193  1  0.73760000  0.94960000  0.42470000  1.0 0.0296617382
C  C194  1  0.26240000  0.05040000  0.57530000  1.0 0.0296617382
C  C195  1  0.23370000  0.06270000  0.46240000  1.0 0.1089877723
C  C196  1  0.76630000  0.93730000  0.53760000  1.0 0.1089877723
C  C197  1  0.66060000  0.01700000  0.38240000  1.0 0.509852853
C  C198  1  0.33940000  0.98300000  0.61760000  1.0 0.509852853
C  C199  1  0.33940000  0.10440000  0.34400000  1.0 0.0206014349
C  C200  1  0.66060000  0.89560000  0.65600000  1.0 0.0206014349
C  C201  1  0.82460000  0.06960000  0.59210000  1.0 0.0206014349
C  C202  1  0.17540000  0.93040000  0.40790000  1.0 0.0206014349
C  C203  1  0.74960000  0.14470000  0.56440000  1.0 0.509852853
C  C204  1  0.25040000  0.85530000  0.43560000  1.0 0.509852853
N  N1  1  0.59000000  0.09040000  0.65540000  1.0 -0.1728863254
N  N2  1  0.41000000  0.90960000  0.34460000  1.0 -0.1798963035
N  N3  1  0.98660000  0.38510000  0.56320000  1.0 -0.1798963035
N  N4  1  0.01340000  0.61490000  0.43680000  1.0 -0.1798963035
N  N5  1  0.93310000  0.84420000  0.89860000  1.0 -0.1882004794
N  N6  1  0.06690000  0.15580000  0.10140000  1.0 -0.1882004794
N  N7  1  0.17090000  0.58490000  0.73530000  1.0 -0.220730066
N  N8  1  0.82910000  0.41510000  0.26470000  1.0 -0.220730066
N  N9  1  0.21230000  0.68050000  0.69690000  1.0 -0.2397880108
N  N10  1  0.78770000  0.31950000  0.30310000  1.0 -0.2397880108
N  N11  1  0.30030000  0.56230000  0.55530000  1.0 -0.220730066
N  N12  1  0.69970000  0.43770000  0.44470000  1.0 -0.220730066
N  N13  1  0.30030000  0.63980000  0.65840000  1.0 -0.2397880108
N  N14  1  0.69970000  0.36020000  0.34160000  1.0 -0.2397880108
N  N15  1  0.94100000  0.66790000  0.62720000  1.0 -0.2313778625
N  N16  1  0.05900000  0.33210000  0.37280000  1.0 -0.2313778625
N  N17  1  0.07470000  0.68720000  0.68190000  1.0 -0.220730066
N  N18  1  0.92530000  0.31280000  0.31810000  1.0 -0.220730066
N  N19  1  0.24230000  0.53740000  0.68120000  1.0 -0.2703299408
N  N20  1  0.75770000  0.46260000  0.31880000  1.0 -0.2703299408
N  N21  1  0.03310000  0.59440000  0.72330000  1.0 -0.259525334
N  N22  1  0.96690000  0.40560000  0.27670000  1.0 -0.259525334
N  N23  1  0.25040000  0.46120000  0.58320000  1.0 -0.2484627905
N  N24  1  0.74960000  0.53880000  0.41680000  1.0 -0.2484627905
N  N25  1  0.81540000  0.60810000  0.52480000  1.0 -0.2484627905
N  N26  1  0.18460000  0.39190000  0.47520000  1.0 -0.2484627905
N  N27  1  0.89910000  0.56430000  0.65560000  1.0 -0.259525334
N  N28  1  0.10090000  0.43570000  0.34440000  1.0 -0.259525334
N  N29  1  0.77550000  0.50740000  0.55270000  1.0 -0.2867885565
N  N30  1  0.22450000  0.49260000  0.44730000  1.0 -0.2867885565
N  N31  1  0.04430000  0.17480000  0.91340000  1.0 -0.2484627905
N  N32  1  0.95570000  0.82520000  0.08660000  1.0 -0.2484627905
N  N33  1  0.79040000  0.08450000  0.93000000  1.0 -0.259525334
N  N34  1  0.20960000  0.91550000  0.07000000  1.0 -0.259525334
N  N35  1  0.85970000  0.03200000  0.80710000  1.0 -0.259525334
N  N36  1  0.14030000  0.96800000  0.19290000  1.0 -0.259525334
N  N37  1  0.76630000  0.96740000  0.06410000  1.0 -0.2397880108
N  N38  1  0.23370000  0.03260000  0.93590000  1.0 -0.2397880108
N  N39  1  0.74200000  0.01790000  0.99300000  1.0 -0.2397880108
N  N40  1  0.25800000  0.98210000  0.00700000  1.0 -0.2397880108
N  N41  1  0.75900000  0.97770000  0.83630000  1.0 -0.259525334
N  N42  1  0.24100000  0.02230000  0.16370000  1.0 -0.259525334
N  N43  1  0.86390000  0.93390000  0.13620000  1.0 -0.2397880108
N  N44  1  0.13610000  0.06610000  0.86380000  1.0 -0.2397880108
N  N45  1  0.89660000  0.13860000  0.90400000  1.0 -0.2484627905
N  N46  1  0.10340000  0.86140000  0.09600000  1.0 -0.2397880108
N  N47  1  0.00640000  0.06650000  0.81780000  1.0 -0.2397880108
N  N48  1  0.99360000  0.93350000  0.18220000  1.0 -0.2397880108
N  N49  1  0.73200000  0.85790000  0.97040000  1.0 -0.220730066
N  N50  1  0.26800000  0.14210000  0.02960000  1.0 -0.220730066
N  N51  1  0.82590000  0.82310000  0.04420000  1.0 -0.259525334
N  N52  1  0.17410000  0.17690000  0.95580000  1.0 -0.259525334
N  N53  1  0.71030000  0.91080000  0.90110000  1.0 -0.2313778625
N  N54  1  0.28970000  0.08920000  0.09890000  1.0 -0.2313778625
N  N55  1  0.39660000  0.55930000  0.17050000  1.0 -0.2313778625
N  N56  1  0.60340000  0.44070000  0.82950000  1.0 -0.2313778625
N  N57  1  0.77150000  0.59800000  0.03830000  1.0 -0.2397880108
N  N58  1  0.22850000  0.40200000  0.96170000  1.0 -0.2397880108
N  N59  1  0.76420000  0.50420000  0.07930000  1.0 -0.2484627905
N  N60  1  0.23580000  0.49580000  0.92070000  1.0 -0.2484627905
N  N61  1  0.29580000  0.57170000  0.02630000  1.0 -0.259525334
N  N62  1  0.70420000  0.42830000  0.97370000  1.0 -0.259525334
N  N63  1  0.67970000  0.61410000  0.23800000  1.0 -0.2484627905
N  N64  1  0.32030000  0.38590000  0.76200000  1.0 -0.2484627905
N  N65  1  0.28000000  0.47770000  0.06690000  1.0 -0.2397880108
N  N66  1  0.72000000  0.52230000  0.93310000  1.0 -0.2484627905
N  N67  1  0.40920000  0.65610000  0.13210000  1.0 -0.2397880108
N  N68  1  0.59080000  0.34390000  0.86790000  1.0 -0.2397880108
N  N69  1  0.54600000  0.70780000  0.19540000  1.0 -0.2484627905
N  N70  1  0.45400000  0.29220000  0.80460000  1.0 -0.2484627905
N  N71  1  0.75130000  0.57640000  0.17870000  1.0 -0.2313778625
N  N72  1  0.24870000  0.42360000  0.82130000  1.0 -0.2397880108
N  N73  1  0.68290000  0.70450000  0.19240000  1.0 -0.2397880108
N  N74  1  0.31710000  0.29550000  0.80760000  1.0 -0.2397880108
N  N75  1  0.76730000  0.67380000  0.14100000  1.0 -0.259525334
N  N76  1  0.23270000  0.32620000  0.85900000  1.0 -0.259525334
N  N77  1  0.53600000  0.60840000  0.22900000  1.0 -0.2397880108
N  N78  1  0.46400000  0.39160000  0.77100000  1.0 -0.2397880108
N  N79  1  0.28920000  0.08130000  0.53160000  1.0 -0.2703299408
N  N80  1  0.71080000  0.91870000  0.46840000  1.0 -0.2703299408
N  N81  1  0.42990000  0.12910000  0.36830000  1.0 -0.2397880108
N  N82  1  0.57010000  0.87090000  0.63170000  1.0 -0.2397880108
N  N83  1  0.36060000  0.16270000  0.50340000  1.0 -0.2397880108
N  N84  1  0.63940000  0.83730000  0.49660000  1.0 -0.2397880108
N  N85  1  0.62000000  0.21380000  0.49000000  1.0 -0.2484627905
N  N86  1  0.38000000  0.78620000  0.51000000  1.0 -0.2484627905
N  N87  1  0.72810000  0.01420000  0.43090000  1.0 -0.2313778625
N  N88  1  0.27190000  0.98580000  0.56910000  1.0 -0.2313778625
N  N89  1  0.56070000  0.12780000  0.37670000  1.0 -0.1882004794
N  N90  1  0.43930000  0.87220000  0.62330000  1.0 -0.201213249
N  N91  1  0.22820000  0.99800000  0.41520000  1.0 -0.259525334
N  N92  1  0.77180000  0.00200000  0.58480000  1.0 -0.259525334
N  N93  1  0.49050000  0.21150000  0.48550000  1.0 -0.220730066
N  N94  1  0.50950000  0.78850000  0.51450000  1.0 -0.220730066
N  N95  1  0.73080000  0.16970000  0.51130000  1.0 -0.295929942
N  N96  1  0.26920000  0.83030000  0.48870000  1.0 -0.295929942
N  N97  1  0.78330000  0.09630000  0.54580000  1.0 -0.2484627905
N  N98  1  0.21670000  0.90370000  0.45420000  1.0 -0.2484627905
N  N99  1  0.30230000  0.07730000  0.38590000  1.0 -0.2313778625
N  N100  1  0.69770000  0.92270000  0.61410000  1.0 -0.2313778625
N  N101  1  0.67330000  0.08590000  0.39670000  1.0 -0.1882004794
N  N102  1  0.32670000  0.91410000  0.60330000  1.0 -0.1882004794
O  O1  1  0.87890000  0.29179000  0.98268000  1.0 -0.5718834137
O  O2  1  0.12110000  0.70821000  0.01732000  1.0 -0.5718834137
O  O3  1  0.88340000  0.32603000  0.89988000  1.0 -0.690604422
O  O4  1  0.11660000  0.67397000  0.10012000  1.0 -0.690604422
O  O5  1  0.86930000  0.50630000  0.82520000  1.0 -0.6584546799
O  O6  1  0.13070000  0.49370000  0.17480000  1.0 -0.6584546799
O  O7  1  0.99080000  0.59770000  0.88140000  1.0 -0.6392283177
O  O8  1  0.00920000  0.40230000  0.11860000  1.0 -0.6392283177
O  O9  1  0.94330000  0.21910000  0.78130000  1.0 -0.5089019326
O  O10  1  0.05670000  0.78090000  0.21870000  1.0 -0.5089019326
O  O11  1  0.94970000  0.46498000  0.93398000  1.0 -1.2066125905
O  O12  1  0.05030000  0.53502000  0.06602000  1.0 -1.2066125905
O  O13  1  0.87900000  0.28930000  0.76232000  1.0 -0.6655008231
O  O14  1  0.12100000  0.71070000  0.23768000  1.0 -0.6584546799
O  O15  1  0.25320000  0.61180000  0.48090000  1.0 -0.5258337949
O  O16  1  0.74680000  0.38820000  0.51910000  1.0 -0.5258337949
O  O17  1  0.86740000  0.63850000  0.44810000  1.0 -0.5258337949
O  O18  1  0.13260000  0.36150000  0.55190000  1.0 -0.5258337949
O  O19  1  0.12430000  0.46470000  0.69040000  1.0 -0.538778845
O  O20  1  0.87570000  0.53530000  0.30960000  1.0 -0.538778845
O  O21  1  0.04400000  0.72180000  0.59370000  1.0 -0.5258337949
O  O22  1  0.95600000  0.27820000  0.40630000  1.0 -0.5258337949
O  O23  1  0.24840000  0.71210000  0.61450000  1.0 -0.538778845
O  O24  1  0.75160000  0.28790000  0.38550000  1.0 -0.538778845
O  O25  1  0.94340000  0.47800000  0.67480000  1.0 -0.538778845
O  O26  1  0.05660000  0.52200000  0.32520000  1.0 -0.538778845
O  O27  1  0.97570000  0.03910000  0.20800000  1.0 -0.5192115209
O  O28  1  0.02430000  0.96090000  0.79200000  1.0 -0.5192115209
O  O29  1  0.82400000  0.91400000  0.78260000  1.0 -0.5258337949
O  O30  1  0.17600000  0.08600000  0.21740000  1.0 -0.5258337949
O  O31  1  0.11860000  0.23010000  0.02820000  1.0 -0.5192115209
O  O32  1  0.88140000  0.76990000  0.97180000  1.0 -0.5192115209
O  O33  1  0.91290000  0.16930000  0.01600000  1.0 -0.5089019326
O  O34  1  0.08710000  0.83070000  0.98400000  1.0 -0.5089019326
O  O35  1  0.75990000  0.82170000  0.87430000  1.0 -0.5467186009
O  O36  1  0.24010000  0.17830000  0.12570000  1.0 -0.5467186009
O  O37  1  0.83510000  0.08630000  0.10160000  1.0 -0.5258337949
O  O38  1  0.16490000  0.91370000  0.89840000  1.0 -0.5258337949
O  O39  1  0.49700000  0.72380000  0.09640000  1.0 -0.5089019326
O  O40  1  0.50300000  0.27620000  0.90360000  1.0 -0.5089019326
O  O41  1  0.46910000  0.48800000  0.18960000  1.0 -0.5089019326
O  O42  1  0.53090000  0.51200000  0.81040000  1.0 -0.5089019326
O  O43  1  0.65260000  0.49550000  0.19540000  1.0 -0.5192115209
O  O44  1  0.34740000  0.50450000  0.80460000  1.0 -0.5192115209
O  O45  1  0.30290000  0.37390000  0.04590000  1.0 -0.5089019326
O  O46  1  0.69710000  0.62610000  0.95410000  1.0 -0.5089019326
O  O47  1  0.68390000  0.73020000  0.09880000  1.0 -0.5089019326
O  O48  1  0.31610000  0.26980000  0.90120000  1.0 -0.5089019326
O  O49  1  0.67770000  0.39190000  0.05710000  1.0 -0.5192115209
O  O50  1  0.32230000  0.60810000  0.94290000  1.0 -0.5192115209
O  O51  1  0.26980000  0.96030000  0.32470000  1.0 -0.5550429856
O  O52  1  0.73020000  0.03970000  0.67530000  1.0 -0.5550429856
O  O53  1  0.60170000  0.96630000  0.33580000  1.0 -0.5034009104
O  O54  1  0.39830000  0.03370000  0.66420000  1.0 -0.5034009104
O  O55  1  0.59240000  0.24370000  0.58930000  1.0 -0.5089019326
O  O56  1  0.40760000  0.75630000  0.41070000  1.0 -0.5089019326
O  O57  1  0.73880000  0.16540000  0.61680000  1.0 -0.4758635198
O  O58  1  0.26120000  0.83460000  0.38320000  1.0 -0.4758635198
O  O59  1  0.44030000  0.02920000  0.30200000  1.0 -0.5089019326
O  O60  1  0.55970000  0.97080000  0.69800000  1.0 -0.5089019326
O  O61  1  0.40940000  0.17320000  0.61290000  1.0 -0.5192115209
O  O62  1  0.59060000  0.82680000  0.38710000  1.0 -0.5089019326
