# DDEC6 charges by PACMAN v1.1 (https://github.com/mtap-research/PACMAN-charge/)
data_EROJON_ion_pacman
_symmetry_space_group_name_H-M   'P 1'
_cell_length_a   22.27400000
_cell_length_b   22.27400000
_cell_length_c   56.69200000
_cell_angle_alpha   90.00000000
_cell_angle_beta   90.00000000
_cell_angle_gamma   120.00000000
_symmetry_Int_Tables_number   1
_chemical_formula_structural   Fe12P35H1152Pd144C870S6N288(O20F)18
_chemical_formula_sum   'Fe12 P35 H1152 Pd144 C870 S6 N288 O360 F18'
_cell_volume   24358.40464756
_cell_formula_units_Z   1
loop_
 _symmetry_equiv_pos_site_id
 _symmetry_equiv_pos_as_xyz
  1  'x, y, z'
loop_
 _atom_site_type_symbol
 _atom_site_label
 _atom_site_symmetry_multiplicity
 _atom_site_fract_x
 _atom_site_fract_y
 _atom_site_fract_z
 _atom_site_occupancy
 _atom_site_charge
Fe  Fe1  1  0.33320000  0.26150000  0.83206000  1.0 0.7738756155
Fe  Fe2  1  0.99987000  0.59484000  0.49873000  1.0 0.7738756155
Fe  Fe3  1  0.66653000  0.92816000  0.16539000  1.0 0.7738756155
Fe  Fe4  1  0.92830000  0.66680000  0.83206000  1.0 0.7738756155
Fe  Fe5  1  0.59497000  0.00014000  0.49873000  1.0 0.7738756155
Fe  Fe6  1  0.26163000  0.33346000  0.16539000  1.0 0.7738756155
Fe  Fe7  1  0.73850000  0.07170000  0.83206000  1.0 0.7738756155
Fe  Fe8  1  0.40517000  0.40504000  0.49873000  1.0 0.7738756155
Fe  Fe9  1  0.07183000  0.73836000  0.16539000  1.0 0.7738756155
Fe  Fe10  1  0.00000000  0.00000000  0.99920000  1.0 0.7835860731
Fe  Fe11  1  0.66666667  0.33333333  0.66587000  1.0 0.7851235749
Fe  Fe12  1  0.33333333  0.66666667  0.33253000  1.0 0.7835860731
P  P1  1  0.07530000  0.33550000  0.91477000  1.0 0.501747954
P  P2  1  0.92650000  0.26260000  0.08250000  1.0 0.8063314715
P  P3  1  0.92450000  0.26100000  0.08250000  1.0 0.8063314715
P  P4  1  0.74197000  0.66884000  0.58144000  1.0 0.4838727198
P  P5  1  0.59317000  0.59594000  0.74917000  1.0 0.8063314715
P  P6  1  0.74297000  0.66974000  0.58127000  1.0 0.4838727198
P  P7  1  0.59117000  0.59434000  0.74917000  1.0 0.8063314715
P  P8  1  0.40863000  0.00216000  0.24810000  1.0 0.4877608003
P  P9  1  0.25983000  0.92926000  0.41583000  1.0 0.8063314715
P  P10  1  0.40963000  0.00306000  0.24793000  1.0 0.4838727198
P  P11  1  0.25783000  0.92766000  0.41583000  1.0 0.8063314715
P  P12  1  0.26020000  0.92470000  0.91477000  1.0 0.501747954
P  P13  1  0.33610000  0.07350000  0.08250000  1.0 0.8041232111
P  P14  1  0.33650000  0.07550000  0.08250000  1.0 0.8063314715
P  P15  1  0.92687000  0.25804000  0.58144000  1.0 0.501747954
P  P16  1  0.00277000  0.40684000  0.74917000  1.0 0.8041232111
P  P17  1  0.00317000  0.40884000  0.74917000  1.0 0.8041232111
P  P18  1  0.59353000  0.59136000  0.24810000  1.0 0.501747954
P  P19  1  0.66943000  0.74016000  0.41583000  1.0 0.8063314715
P  P20  1  0.66983000  0.74216000  0.41583000  1.0 0.8063314715
P  P21  1  0.66450000  0.73980000  0.91477000  1.0 0.7193508428
P  P22  1  0.73740000  0.66390000  0.08250000  1.0 0.8041232111
P  P23  1  0.73900000  0.66350000  0.08250000  1.0 0.8041232111
P  P24  1  0.33117000  0.07314000  0.58144000  1.0 0.7193508428
P  P25  1  0.40407000  0.99724000  0.74917000  1.0 0.8063314715
P  P26  1  0.40567000  0.99684000  0.74917000  1.0 0.8063314715
P  P27  1  0.99783000  0.40646000  0.24810000  1.0 0.7193508428
P  P28  1  0.07073000  0.33056000  0.41583000  1.0 0.8063314715
P  P29  1  0.07233000  0.33016000  0.41583000  1.0 0.8063314715
P  P30  1  0.00000000  0.00000000  0.74350000  1.0 0.5883638741
P  P31  1  0.66666667  0.33333333  0.41017000  1.0 0.5883638741
P  P32  1  0.33333333  0.66666667  0.07683000  1.0 0.5883638741
P  P33  1  0.66666667  0.33333333  0.91970000  1.0 0.501747954
P  P34  1  0.33333333  0.66666667  0.58637000  1.0 0.501747954
P  P35  1  0.00000000  0.00000000  0.25303000  1.0 0.501747954
H  H1  1  0.24030000  0.34860000  0.90320000  1.0 0.0703928188
H  H2  1  0.27980000  0.46410000  0.89120000  1.0 0.100046815
H  H3  1  0.21740000  0.41070000  0.87480000  1.0 0.0216694383
H  H4  1  0.20360000  0.45270000  0.89490000  1.0 0.0901167993
H  H5  1  0.28380000  0.43100000  0.93420000  1.0 0.0901167993
H  H6  1  0.20750000  0.41840000  0.93890000  1.0 0.1214235126
H  H7  1  0.22410000  0.35740000  0.94360000  1.0 0.0605335431
H  H8  1  0.97320000  0.30290000  0.86240000  1.0 0.0797246828
H  H9  1  0.03670000  0.42310000  0.85490000  1.0 0.110805928
H  H10  1  0.08560000  0.43340000  0.87700000  1.0 0.0797246828
H  H11  1  0.08590000  0.38980000  0.85460000  1.0 0.100046815
H  H12  1  0.92990000  0.37030000  0.87910000  1.0 0.0797246828
H  H13  1  0.90890000  0.30220000  0.89440000  1.0 0.0901167993
H  H14  1  0.97030000  0.37590000  0.90310000  1.0 0.1296953886
H  H15  1  0.98210000  0.21940000  0.96280000  1.0 0.0901167993
H  H16  1  0.93170000  0.28870000  0.97020000  1.0 0.100046815
H  H17  1  0.96830000  0.33333333  0.94710000  1.0 0.110805928
H  H18  1  0.91040000  0.25320000  0.94470000  1.0 0.008008629
H  H19  1  0.04630000  0.31510000  0.98810000  1.0 0.100046815
H  H20  1  0.09630000  0.29600000  0.97370000  1.0 0.0605335431
H  H21  1  0.08900000  0.36120000  0.96600000  1.0 0.1214235126
H  H22  1  0.95810000  0.19840000  0.84480000  1.0 0.1500228789
H  H23  1  0.12300000  0.17910000  0.80280000  1.0 0.1296953886
H  H24  1  0.16320000  0.06120000  0.94830000  1.0 0.1395655519
H  H25  1  0.22790000  0.24390000  0.89720000  1.0 0.1296953886
H  H26  1  0.87250000  0.03860000  0.04780000  1.0 0.110805928
H  H27  1  0.73710000  0.87560000  0.10280000  1.0 0.1395655519
H  H28  1  0.83240000  0.20080000  0.13630000  1.0 0.0797246828
H  H29  1  0.74480000  0.21980000  0.12250000  1.0 0.0605335431
H  H30  1  0.77920000  0.23470000  0.09680000  1.0 0.0901167993
H  H31  1  0.74950000  0.15980000  0.10850000  1.0 0.0605335431
H  H32  1  0.84760000  0.31090000  0.14330000  1.0 0.110805928
H  H33  1  0.91900000  0.30990000  0.14280000  1.0 0.0797246828
H  H34  1  0.89680000  0.33910000  0.12060000  1.0 0.051198672
H  H35  1  0.10910000  0.34790000  0.08980000  1.0 0.0797246828
H  H36  1  0.10660000  0.44750000  0.10190000  1.0 0.0605335431
H  H37  1  0.02380000  0.40310000  0.10280000  1.0 0.100046815
H  H38  1  0.06910000  0.38500000  0.12020000  1.0 0.0797246828
H  H39  1  0.11630000  0.42380000  0.06000000  1.0 0.0605335431
H  H40  1  0.08210000  0.34570000  0.05070000  1.0 0.1214235126
H  H41  1  0.03420000  0.37870000  0.05630000  1.0 0.0901167993
H  H42  1  0.86750000  0.13900000  0.03510000  1.0 0.0605335431
H  H43  1  0.90050000  0.23400000  0.00960000  1.0 0.0703928188
H  H44  1  0.93260000  0.28580000  0.03160000  1.0 0.100046815
H  H45  1  0.96580000  0.23980000  0.02350000  1.0 0.0605335431
H  H46  1  0.78210000  0.16960000  0.02790000  1.0 0.1214235126
H  H47  1  0.77260000  0.13470000  0.05340000  1.0 0.0797246828
H  H48  1  0.80600000  0.21690000  0.05110000  1.0 0.110805928
H  H49  1  0.52060000  0.45370000  0.82200000  1.0 0.1214235126
H  H50  1  0.72130000  0.51040000  0.86170000  1.0 0.1395655519
H  H51  1  0.73450000  0.51180000  0.90440000  1.0 0.0797246828
H  H52  1  0.67800000  0.52540000  0.93700000  1.0 0.1214235126
H  H53  1  0.62430000  0.47410000  0.91780000  1.0 0.110805928
H  H54  1  0.63850000  0.44340000  0.94130000  1.0 0.100046815
H  H55  1  0.79410000  0.53910000  0.94060000  1.0 0.110805928
H  H56  1  0.76630000  0.45850000  0.94500000  1.0 0.100046815
H  H57  1  0.81750000  0.49750000  0.92340000  1.0 0.0703928188
H  H58  1  0.63220000  0.16540000  0.90220000  1.0 0.0797246828
H  H59  1  0.69340000  0.16440000  0.93590000  1.0 0.100046815
H  H60  1  0.74180000  0.22430000  0.91780000  1.0 0.0797246828
H  H61  1  0.71430000  0.24300000  0.94120000  1.0 0.100046815
H  H62  1  0.56680000  0.12030000  0.93660000  1.0 0.0901167993
H  H63  1  0.57500000  0.19450000  0.94220000  1.0 0.110805928
H  H64  1  0.53340000  0.15230000  0.91930000  1.0 0.110805928
H  H65  1  0.12670000  0.17340000  0.76030000  1.0 0.0797246828
H  H66  1  0.19630000  0.17650000  0.72860000  1.0 0.110805928
H  H67  1  0.18660000  0.12050000  0.74810000  1.0 0.0605335431
H  H68  1  0.14380000  0.09590000  0.72400000  1.0 0.008008629
H  H69  1  0.10210000  0.21070000  0.72480000  1.0 0.110805928
H  H70  1  0.04190000  0.13300000  0.71960000  1.0 0.1214235126
H  H71  1  0.03600000  0.17410000  0.74180000  1.0 0.1214235126
H  H72  1  0.90150000  0.07470000  0.75870000  1.0 0.0901167993
H  H73  1  0.97300000  0.18640000  0.74340000  1.0 0.0797246828
H  H74  1  0.89700000  0.08330000  0.71740000  1.0 0.100046815
H  H75  1  0.95440000  0.06060000  0.71480000  1.0 0.100046815
H  H76  1  0.87990000  0.00760000  0.72560000  1.0 0.0605335431
H  H77  1  0.00320000  0.17420000  0.76740000  1.0 0.0402604667
H  H78  1  0.03650000  0.17190000  0.74260000  1.0 0.1214235126
H  H79  1  0.13880000  0.35700000  0.85760000  1.0 0.0703928188
H  H80  1  0.25670000  0.43240000  0.86260000  1.0 0.110805928
H  H81  1  0.24790000  0.41060000  0.88980000  1.0 0.0294904124
H  H82  1  0.23070000  0.35370000  0.86980000  1.0 0.1296953886
H  H83  1  0.17350000  0.47370000  0.86050000  1.0 0.1214235126
H  H84  1  0.09360000  0.42220000  0.86650000  1.0 0.0703928188
H  H85  1  0.14800000  0.46100000  0.88730000  1.0 0.0797246828
H  H86  1  0.89400000  0.22660000  0.90470000  1.0 0.0797246828
H  H87  1  0.88620000  0.32810000  0.90520000  1.0 0.0703928188
H  H88  1  0.96810000  0.37330000  0.90920000  1.0 0.1214235126
H  H89  1  0.93820000  0.33110000  0.88510000  1.0 0.0605335431
H  H90  1  0.86950000  0.25560000  0.94220000  1.0 0.1214235126
H  H91  1  0.90990000  0.21320000  0.94410000  1.0 0.0703928188
H  H92  1  0.95060000  0.29530000  0.94820000  1.0 0.0402604667
H  H93  1  0.16110000  0.27050000  0.94920000  1.0 0.0605335431
H  H94  1  0.15250000  0.31060000  0.98630000  1.0 0.100046815
H  H95  1  0.09440000  0.32600000  0.97630000  1.0 0.0294904124
H  H96  1  0.08030000  0.24820000  0.97710000  1.0 0.100046815
H  H97  1  0.24350000  0.38540000  0.95880000  1.0 0.0901167993
H  H98  1  0.23350000  0.37130000  0.93100000  1.0 0.051198672
H  H99  1  0.19970000  0.41130000  0.94390000  1.0 0.1214235126
H  H100  1  0.13800000  0.23840000  0.84880000  1.0 0.1395655519
H  H101  1  0.94460000  0.13920000  0.80080000  1.0 0.1214235126
H  H102  1  0.85860000  0.96010000  0.94540000  1.0 0.1500228789
H  H103  1  0.86820000  0.12660000  0.89650000  1.0 0.1296953886
H  H104  1  0.76110000  0.11380000  0.09550000  1.0 0.0703928188
H  H105  1  0.72080000  0.19100000  0.10260000  1.0 0.0402604667
H  H106  1  0.78030000  0.20030000  0.12050000  1.0 0.0294904124
H  H107  1  0.79820000  0.25420000  0.09940000  1.0 0.110805928
H  H108  1  0.71270000  0.13870000  0.06310000  1.0 0.110805928
H  H109  1  0.78900000  0.19540000  0.05460000  1.0 0.0703928188
H  H110  1  0.76740000  0.11530000  0.05580000  1.0 0.100046815
H  H111  1  0.98830000  0.32380000  0.13910000  1.0 0.0797246828
H  H112  1  0.93860000  0.39370000  0.13240000  1.0 0.100046815
H  H113  1  0.91710000  0.36150000  0.10640000  1.0 0.1500228789
H  H114  1  0.88480000  0.31270000  0.12910000  1.0 0.0294904124
H  H115  1  0.06770000  0.43690000  0.12730000  1.0 0.0797246828
H  H116  1  0.09180000  0.38230000  0.12070000  1.0 0.0703928188
H  H117  1  0.06100000  0.41010000  0.10070000  1.0 0.0703928188
H  H118  1  0.02660000  0.24470000  0.03690000  1.0 0.0703928188
H  H119  1  0.05940000  0.36000000  0.02670000  1.0 0.110805928
H  H120  1  0.01540000  0.36260000  0.04860000  1.0 0.100046815
H  H121  1  0.08130000  0.35350000  0.05310000  1.0 0.110805928
H  H122  1  0.96190000  0.25880000  0.00720000  1.0 0.0797246828
H  H123  1  0.91690000  0.18780000  0.02140000  1.0 0.0703928188
H  H124  1  0.90650000  0.25270000  0.02650000  1.0 0.0797246828
H  H125  1  0.84270000  0.89530000  0.05100000  1.0 0.1395655519
H  H126  1  0.77830000  0.01800000  0.10050000  1.0 0.1296953886
H  H127  1  0.54360000  0.38650000  0.86030000  1.0 0.1395655519
H  H128  1  0.71220000  0.57100000  0.81860000  1.0 0.1500228789
H  H129  1  0.90697000  0.68194000  0.56987000  1.0 0.0797246828
H  H130  1  0.94647000  0.79744000  0.55787000  1.0 0.110805928
H  H131  1  0.88407000  0.74404000  0.54147000  1.0 0.0216694383
H  H132  1  0.87027000  0.78604000  0.56157000  1.0 0.0901167993
H  H133  1  0.95047000  0.76434000  0.60087000  1.0 0.0901167993
H  H134  1  0.87417000  0.75174000  0.60557000  1.0 0.1214235126
H  H135  1  0.89077000  0.69074000  0.61027000  1.0 0.0605335431
H  H136  1  0.63987000  0.63624000  0.52907000  1.0 0.0901167993
H  H137  1  0.70337000  0.75644000  0.52157000  1.0 0.110805928
H  H138  1  0.75227000  0.76674000  0.54367000  1.0 0.0797246828
H  H139  1  0.75257000  0.72314000  0.52127000  1.0 0.100046815
H  H140  1  0.59657000  0.70364000  0.54577000  1.0 0.0797246828
H  H141  1  0.57557000  0.63554000  0.56107000  1.0 0.0901167993
H  H142  1  0.63697000  0.70924000  0.56977000  1.0 0.1214235126
H  H143  1  0.64877000  0.55274000  0.62947000  1.0 0.0901167993
H  H144  1  0.59837000  0.62204000  0.63687000  1.0 0.100046815
H  H145  1  0.63497000  0.66666667  0.61377000  1.0 0.110805928
H  H146  1  0.57707000  0.58654000  0.61137000  1.0 0.008008629
H  H147  1  0.71297000  0.64844000  0.65477000  1.0 0.110805928
H  H148  1  0.76297000  0.62934000  0.64037000  1.0 0.0605335431
H  H149  1  0.75567000  0.69454000  0.63267000  1.0 0.110805928
H  H150  1  0.62477000  0.53174000  0.51147000  1.0 0.1500228789
H  H151  1  0.78967000  0.51244000  0.46947000  1.0 0.1296953886
H  H152  1  0.82987000  0.39454000  0.61497000  1.0 0.1395655519
H  H153  1  0.89457000  0.57724000  0.56387000  1.0 0.1296953886
H  H154  1  0.53917000  0.37194000  0.71447000  1.0 0.110805928
H  H155  1  0.40377000  0.20894000  0.76947000  1.0 0.1395655519
H  H156  1  0.49907000  0.53414000  0.80297000  1.0 0.0797246828
H  H157  1  0.41147000  0.55314000  0.78917000  1.0 0.0605335431
H  H158  1  0.44587000  0.56804000  0.76347000  1.0 0.0901167993
H  H159  1  0.41617000  0.49314000  0.77517000  1.0 0.0605335431
H  H160  1  0.51427000  0.64424000  0.80997000  1.0 0.110805928
H  H161  1  0.58567000  0.64324000  0.80947000  1.0 0.0797246828
H  H162  1  0.56347000  0.67244000  0.78727000  1.0 0.051198672
H  H163  1  0.77577000  0.68124000  0.75647000  1.0 0.0797246828
H  H164  1  0.77327000  0.78084000  0.76857000  1.0 0.0605335431
H  H165  1  0.69047000  0.73644000  0.76947000  1.0 0.100046815
H  H166  1  0.73577000  0.71834000  0.78687000  1.0 0.0797246828
H  H167  1  0.78297000  0.75714000  0.72667000  1.0 0.0605335431
H  H168  1  0.74877000  0.67904000  0.71737000  1.0 0.1214235126
H  H169  1  0.70087000  0.71204000  0.72297000  1.0 0.0901167993
H  H170  1  0.53417000  0.47234000  0.70177000  1.0 0.0605335431
H  H171  1  0.56717000  0.56734000  0.67627000  1.0 0.0703928188
H  H172  1  0.59927000  0.61914000  0.69827000  1.0 0.100046815
H  H173  1  0.63247000  0.57314000  0.69017000  1.0 0.0605335431
H  H174  1  0.44877000  0.50294000  0.69457000  1.0 0.1214235126
H  H175  1  0.43927000  0.46804000  0.72007000  1.0 0.0797246828
H  H176  1  0.47267000  0.55024000  0.71777000  1.0 0.110805928
H  H177  1  0.18727000  0.78704000  0.48867000  1.0 0.1296953886
H  H178  1  0.38797000  0.84374000  0.52837000  1.0 0.1395655519
H  H179  1  0.40117000  0.84514000  0.57107000  1.0 0.0797246828
H  H180  1  0.34467000  0.85874000  0.60367000  1.0 0.1214235126
H  H181  1  0.29097000  0.80744000  0.58447000  1.0 0.110805928
H  H182  1  0.30517000  0.77674000  0.60797000  1.0 0.100046815
H  H183  1  0.46077000  0.87244000  0.60727000  1.0 0.110805928
H  H184  1  0.43297000  0.79184000  0.61167000  1.0 0.100046815
H  H185  1  0.48417000  0.83084000  0.59007000  1.0 0.0703928188
H  H186  1  0.29887000  0.49874000  0.56887000  1.0 0.0797246828
H  H187  1  0.36007000  0.49774000  0.60257000  1.0 0.100046815
H  H188  1  0.40847000  0.55764000  0.58447000  1.0 0.0797246828
H  H189  1  0.38097000  0.57634000  0.60787000  1.0 0.100046815
H  H190  1  0.23347000  0.45364000  0.60327000  1.0 0.0901167993
H  H191  1  0.24167000  0.52784000  0.60887000  1.0 0.110805928
H  H192  1  0.20007000  0.48564000  0.58597000  1.0 0.110805928
H  H193  1  0.79337000  0.50674000  0.42697000  1.0 0.0797246828
H  H194  1  0.86297000  0.50984000  0.39527000  1.0 0.110805928
H  H195  1  0.85327000  0.45384000  0.41477000  1.0 0.0605335431
H  H196  1  0.81047000  0.42924000  0.39067000  1.0 0.008008629
H  H197  1  0.76877000  0.54404000  0.39147000  1.0 0.110805928
H  H198  1  0.70857000  0.46634000  0.38627000  1.0 0.1214235126
H  H199  1  0.70267000  0.50744000  0.40847000  1.0 0.1296953886
H  H200  1  0.56817000  0.40804000  0.42537000  1.0 0.0901167993
H  H201  1  0.63967000  0.51974000  0.41007000  1.0 0.0797246828
H  H202  1  0.56367000  0.41664000  0.38407000  1.0 0.100046815
H  H203  1  0.62107000  0.39394000  0.38147000  1.0 0.100046815
H  H204  1  0.54657000  0.34094000  0.39227000  1.0 0.0605335431
H  H205  1  0.66987000  0.50754000  0.43407000  1.0 0.0402604667
H  H206  1  0.70317000  0.50524000  0.40927000  1.0 0.1214235126
H  H207  1  0.80547000  0.69034000  0.52427000  1.0 0.0703928188
H  H208  1  0.92337000  0.76574000  0.52927000  1.0 0.110805928
H  H209  1  0.91457000  0.74394000  0.55647000  1.0 0.0294904124
H  H210  1  0.89737000  0.68704000  0.53647000  1.0 0.1296953886
H  H211  1  0.84017000  0.80704000  0.52717000  1.0 0.1214235126
H  H212  1  0.76027000  0.75554000  0.53317000  1.0 0.0703928188
H  H213  1  0.81467000  0.79434000  0.55397000  1.0 0.0703928188
H  H214  1  0.56067000  0.55994000  0.57137000  1.0 0.0797246828
H  H215  1  0.55287000  0.66144000  0.57187000  1.0 0.0703928188
H  H216  1  0.63477000  0.70664000  0.57587000  1.0 0.1214235126
H  H217  1  0.60487000  0.66444000  0.55177000  1.0 0.0605335431
H  H218  1  0.53617000  0.58894000  0.60887000  1.0 0.1214235126
H  H219  1  0.57657000  0.54654000  0.61077000  1.0 0.0703928188
H  H220  1  0.61727000  0.62864000  0.61487000  1.0 0.0402604667
H  H221  1  0.82777000  0.60384000  0.61587000  1.0 0.0605335431
H  H222  1  0.81917000  0.64394000  0.65297000  1.0 0.100046815
H  H223  1  0.76107000  0.65934000  0.64297000  1.0 0.0294904124
H  H224  1  0.74697000  0.58154000  0.64377000  1.0 0.100046815
H  H225  1  0.91017000  0.71874000  0.62547000  1.0 0.100046815
H  H226  1  0.90017000  0.70464000  0.59767000  1.0 0.0605335431
H  H227  1  0.86637000  0.74464000  0.61057000  1.0 0.1214235126
H  H228  1  0.80467000  0.57174000  0.51547000  1.0 0.1395655519
H  H229  1  0.61127000  0.47254000  0.46747000  1.0 0.1214235126
H  H230  1  0.52527000  0.29344000  0.61207000  1.0 0.1500228789
H  H231  1  0.53487000  0.45994000  0.56317000  1.0 0.1296953886
H  H232  1  0.42777000  0.44714000  0.76217000  1.0 0.0703928188
H  H233  1  0.38747000  0.52434000  0.76927000  1.0 0.0402604667
H  H234  1  0.44697000  0.53364000  0.78717000  1.0 0.0294904124
H  H235  1  0.46487000  0.58754000  0.76607000  1.0 0.110805928
H  H236  1  0.37937000  0.47204000  0.72977000  1.0 0.110805928
H  H237  1  0.45567000  0.52874000  0.72127000  1.0 0.0703928188
H  H238  1  0.43407000  0.44864000  0.72247000  1.0 0.100046815
H  H239  1  0.65497000  0.65714000  0.80577000  1.0 0.0797246828
H  H240  1  0.60527000  0.72704000  0.79907000  1.0 0.100046815
H  H241  1  0.58377000  0.69484000  0.77307000  1.0 0.1500228789
H  H242  1  0.55147000  0.64604000  0.79577000  1.0 0.0294904124
H  H243  1  0.73437000  0.77024000  0.79397000  1.0 0.0797246828
H  H244  1  0.75847000  0.71564000  0.78737000  1.0 0.0703928188
H  H245  1  0.72767000  0.74344000  0.76737000  1.0 0.0703928188
H  H246  1  0.69327000  0.57804000  0.70357000  1.0 0.0703928188
H  H247  1  0.72607000  0.69334000  0.69337000  1.0 0.110805928
H  H248  1  0.68207000  0.69594000  0.71527000  1.0 0.100046815
H  H249  1  0.74797000  0.68684000  0.71977000  1.0 0.110805928
H  H250  1  0.62857000  0.59214000  0.67387000  1.0 0.0797246828
H  H251  1  0.58357000  0.52114000  0.68807000  1.0 0.0703928188
H  H252  1  0.57317000  0.58604000  0.69317000  1.0 0.0797246828
H  H253  1  0.50937000  0.22864000  0.71767000  1.0 0.1395655519
H  H254  1  0.44497000  0.35134000  0.76717000  1.0 0.1296953886
H  H255  1  0.21027000  0.71984000  0.52697000  1.0 0.1395655519
H  H256  1  0.37887000  0.90434000  0.48527000  1.0 0.1500228789
H  H257  1  0.57363000  0.01526000  0.23653000  1.0 0.0797246828
H  H258  1  0.61313000  0.13076000  0.22453000  1.0 0.110805928
H  H259  1  0.55073000  0.07736000  0.20813000  1.0 0.0216694383
H  H260  1  0.53693000  0.11936000  0.22823000  1.0 0.0901167993
H  H261  1  0.61713000  0.09766000  0.26753000  1.0 0.0901167993
H  H262  1  0.54083000  0.08506000  0.27223000  1.0 0.1214235126
H  H263  1  0.55743000  0.02406000  0.27693000  1.0 0.0605335431
H  H264  1  0.30653000  0.96956000  0.19573000  1.0 0.0901167993
H  H265  1  0.37003000  0.08976000  0.18823000  1.0 0.110805928
H  H266  1  0.41893000  0.10006000  0.21033000  1.0 0.0797246828
H  H267  1  0.41923000  0.05646000  0.18793000  1.0 0.100046815
H  H268  1  0.26323000  0.03696000  0.21243000  1.0 0.0797246828
H  H269  1  0.24223000  0.96886000  0.22773000  1.0 0.0901167993
H  H270  1  0.30363000  0.04256000  0.23643000  1.0 0.1214235126
H  H271  1  0.31543000  0.88606000  0.29613000  1.0 0.0901167993
H  H272  1  0.26503000  0.95536000  0.30353000  1.0 0.100046815
H  H273  1  0.30163000  0.99996000  0.28043000  1.0 0.110805928
H  H274  1  0.24373000  0.91986000  0.27803000  1.0 0.008008629
H  H275  1  0.37963000  0.98176000  0.32143000  1.0 0.110805928
H  H276  1  0.42963000  0.96266000  0.30703000  1.0 0.0605335431
H  H277  1  0.42233000  0.02786000  0.29933000  1.0 0.110805928
H  H278  1  0.29143000  0.86506000  0.17813000  1.0 0.1500228789
H  H279  1  0.45633000  0.84576000  0.13613000  1.0 0.1296953886
H  H280  1  0.49653000  0.72786000  0.28163000  1.0 0.1395655519
H  H281  1  0.56123000  0.91056000  0.23053000  1.0 0.1296953886
H  H282  1  0.20583000  0.70526000  0.38113000  1.0 0.110805928
H  H283  1  0.07043000  0.54226000  0.43613000  1.0 0.1395655519
H  H284  1  0.16573000  0.86746000  0.46963000  1.0 0.0797246828
H  H285  1  0.07813000  0.88646000  0.45583000  1.0 0.0605335431
H  H286  1  0.11253000  0.90136000  0.43013000  1.0 0.0901167993
H  H287  1  0.08283000  0.82646000  0.44183000  1.0 0.0605335431
H  H288  1  0.18093000  0.97756000  0.47663000  1.0 0.110805928
H  H289  1  0.25233000  0.97656000  0.47613000  1.0 0.0797246828
H  H290  1  0.23013000  0.00576000  0.45393000  1.0 0.051198672
H  H291  1  0.44243000  0.01456000  0.42313000  1.0 0.0797246828
H  H292  1  0.43993000  0.11416000  0.43523000  1.0 0.0605335431
H  H293  1  0.35713000  0.06976000  0.43613000  1.0 0.100046815
H  H294  1  0.40243000  0.05166000  0.45353000  1.0 0.0797246828
H  H295  1  0.44963000  0.09046000  0.39333000  1.0 0.0605335431
H  H296  1  0.41543000  0.01236000  0.38403000  1.0 0.1214235126
H  H297  1  0.36753000  0.04536000  0.38963000  1.0 0.0901167993
H  H298  1  0.20083000  0.80566000  0.36843000  1.0 0.0605335431
H  H299  1  0.23383000  0.90066000  0.34293000  1.0 0.0703928188
H  H300  1  0.26593000  0.95246000  0.36493000  1.0 0.100046815
H  H301  1  0.29913000  0.90646000  0.35683000  1.0 0.0605335431
H  H302  1  0.11543000  0.83626000  0.36123000  1.0 0.110805928
H  H303  1  0.10593000  0.80136000  0.38673000  1.0 0.0797246828
H  H304  1  0.13933000  0.88356000  0.38443000  1.0 0.110805928
H  H305  1  0.85393000  0.12036000  0.15533000  1.0 0.1296953886
H  H306  1  0.05463000  0.17706000  0.19503000  1.0 0.1395655519
H  H307  1  0.06783000  0.17846000  0.23773000  1.0 0.0797246828
H  H308  1  0.01133000  0.19206000  0.27033000  1.0 0.1214235126
H  H309  1  0.95763000  0.14076000  0.25113000  1.0 0.110805928
H  H310  1  0.97183000  0.11006000  0.27463000  1.0 0.100046815
H  H311  1  0.12743000  0.20576000  0.27393000  1.0 0.110805928
H  H312  1  0.09963000  0.12516000  0.27833000  1.0 0.100046815
H  H313  1  0.15083000  0.16416000  0.25673000  1.0 0.0703928188
H  H314  1  0.96553000  0.83206000  0.23553000  1.0 0.0797246828
H  H315  1  0.02673000  0.83106000  0.26923000  1.0 0.100046815
H  H316  1  0.07513000  0.89096000  0.25113000  1.0 0.0797246828
H  H317  1  0.04763000  0.90966000  0.27453000  1.0 0.100046815
H  H318  1  0.90013000  0.78696000  0.26993000  1.0 0.0901167993
H  H319  1  0.90833000  0.86116000  0.27553000  1.0 0.110805928
H  H320  1  0.86673000  0.81896000  0.25263000  1.0 0.110805928
H  H321  1  0.46003000  0.84006000  0.09363000  1.0 0.0797246828
H  H322  1  0.52963000  0.84316000  0.06193000  1.0 0.110805928
H  H323  1  0.51993000  0.78716000  0.08143000  1.0 0.0605335431
H  H324  1  0.47713000  0.76256000  0.05733000  1.0 0.008008629
H  H325  1  0.43543000  0.87736000  0.05813000  1.0 0.110805928
H  H326  1  0.37523000  0.79966000  0.05293000  1.0 0.1214235126
H  H327  1  0.36933000  0.84076000  0.07513000  1.0 0.1214235126
H  H328  1  0.23483000  0.74136000  0.09203000  1.0 0.0901167993
H  H329  1  0.30633000  0.85306000  0.07673000  1.0 0.0797246828
H  H330  1  0.23033000  0.74996000  0.05073000  1.0 0.100046815
H  H331  1  0.28773000  0.72726000  0.04813000  1.0 0.100046815
H  H332  1  0.21323000  0.67426000  0.05893000  1.0 0.0605335431
H  H333  1  0.33653000  0.84086000  0.10073000  1.0 0.0402604667
H  H334  1  0.36983000  0.83856000  0.07593000  1.0 0.1214235126
H  H335  1  0.47213000  0.02366000  0.19093000  1.0 0.0703928188
H  H336  1  0.59003000  0.09906000  0.19593000  1.0 0.110805928
H  H337  1  0.58123000  0.07726000  0.22313000  1.0 0.0294904124
H  H338  1  0.56403000  0.02036000  0.20313000  1.0 0.1296953886
H  H339  1  0.50683000  0.14036000  0.19383000  1.0 0.1214235126
H  H340  1  0.42693000  0.08886000  0.19983000  1.0 0.0703928188
H  H341  1  0.48133000  0.12766000  0.22063000  1.0 0.0703928188
H  H342  1  0.22733000  0.89326000  0.23803000  1.0 0.0797246828
H  H343  1  0.21953000  0.99476000  0.23853000  1.0 0.0703928188
H  H344  1  0.30143000  0.03996000  0.24253000  1.0 0.1214235126
H  H345  1  0.27153000  0.99776000  0.21843000  1.0 0.0605335431
H  H346  1  0.20283000  0.92226000  0.27553000  1.0 0.1214235126
H  H347  1  0.24323000  0.87986000  0.27743000  1.0 0.0703928188
H  H348  1  0.28393000  0.96196000  0.28153000  1.0 0.0402604667
H  H349  1  0.49443000  0.93716000  0.28253000  1.0 0.0605335431
H  H350  1  0.48583000  0.97726000  0.31963000  1.0 0.100046815
H  H351  1  0.42773000  0.99266000  0.30963000  1.0 0.0294904124
H  H352  1  0.41363000  0.91486000  0.31043000  1.0 0.100046815
H  H353  1  0.57683000  0.05206000  0.29213000  1.0 0.100046815
H  H354  1  0.56683000  0.03796000  0.26433000  1.0 0.0605335431
H  H355  1  0.53303000  0.07796000  0.27723000  1.0 0.1214235126
H  H356  1  0.47133000  0.90506000  0.18213000  1.0 0.1395655519
H  H357  1  0.27793000  0.80586000  0.13413000  1.0 0.1214235126
H  H358  1  0.19193000  0.62676000  0.27873000  1.0 0.1620679231
H  H359  1  0.20153000  0.79326000  0.22983000  1.0 0.1296953886
H  H360  1  0.09443000  0.78046000  0.42883000  1.0 0.0703928188
H  H361  1  0.05413000  0.85766000  0.43593000  1.0 0.0294904124
H  H362  1  0.11363000  0.86696000  0.45383000  1.0 0.0294904124
H  H363  1  0.13153000  0.92086000  0.43273000  1.0 0.110805928
H  H364  1  0.04603000  0.80536000  0.39643000  1.0 0.110805928
H  H365  1  0.12233000  0.86206000  0.38793000  1.0 0.0703928188
H  H366  1  0.10073000  0.78196000  0.38913000  1.0 0.100046815
H  H367  1  0.32163000  0.99046000  0.47243000  1.0 0.0797246828
H  H368  1  0.27193000  0.06036000  0.46573000  1.0 0.100046815
H  H369  1  0.25043000  0.02816000  0.43973000  1.0 0.1500228789
H  H370  1  0.21813000  0.97936000  0.46243000  1.0 0.0294904124
H  H371  1  0.40103000  0.10356000  0.46063000  1.0 0.0797246828
H  H372  1  0.42513000  0.04896000  0.45403000  1.0 0.0703928188
H  H373  1  0.39433000  0.07676000  0.43403000  1.0 0.0703928188
H  H374  1  0.35993000  0.91136000  0.37023000  1.0 0.0703928188
H  H375  1  0.39273000  0.02666000  0.36003000  1.0 0.110805928
H  H376  1  0.34873000  0.02926000  0.38193000  1.0 0.100046815
H  H377  1  0.41463000  0.02016000  0.38643000  1.0 0.110805928
H  H378  1  0.29523000  0.92546000  0.34053000  1.0 0.0797246828
H  H379  1  0.25023000  0.85446000  0.35473000  1.0 0.0703928188
H  H380  1  0.23983000  0.91936000  0.35983000  1.0 0.0797246828
H  H381  1  0.17603000  0.56196000  0.38433000  1.0 0.1395655519
H  H382  1  0.11163000  0.68466000  0.43383000  1.0 0.1296953886
H  H383  1  0.87693000  0.05316000  0.19363000  1.0 0.1395655519
H  H384  1  0.04553000  0.23766000  0.15193000  1.0 0.1500228789
H  H385  1  0.10830000  0.75970000  0.90320000  1.0 0.0703928188
H  H386  1  0.18430000  0.72020000  0.89120000  1.0 0.100046815
H  H387  1  0.19330000  0.78260000  0.87480000  1.0 0.0216694383
H  H388  1  0.24910000  0.79640000  0.89490000  1.0 0.0901167993
H  H389  1  0.14720000  0.71620000  0.93420000  1.0 0.0901167993
H  H390  1  0.21090000  0.79250000  0.93890000  1.0 0.1214235126
H  H391  1  0.13330000  0.77590000  0.94360000  1.0 0.0605335431
H  H392  1  0.32970000  0.02680000  0.86240000  1.0 0.0797246828
H  H393  1  0.38640000  0.96330000  0.85490000  1.0 0.110805928
H  H394  1  0.34780000  0.91440000  0.87700000  1.0 0.0797246828
H  H395  1  0.30390000  0.91410000  0.85460000  1.0 0.100046815
H  H396  1  0.44040000  0.07010000  0.87910000  1.0 0.0797246828
H  H397  1  0.39330000  0.09110000  0.89440000  1.0 0.0901167993
H  H398  1  0.40560000  0.02970000  0.90310000  1.0 0.1296953886
H  H399  1  0.23730000  0.01790000  0.96280000  1.0 0.0901167993
H  H400  1  0.35700000  0.06830000  0.97020000  1.0 0.100046815
H  H401  1  0.36500000  0.03167000  0.94710000  1.0 0.110805928
H  H402  1  0.34280000  0.08960000  0.94470000  1.0 0.008008629
H  H403  1  0.26880000  0.95370000  0.98810000  1.0 0.100046815
H  H404  1  0.19970000  0.90370000  0.97370000  1.0 0.0605335431
H  H405  1  0.27220000  0.91100000  0.96600000  1.0 0.1214235126
H  H406  1  0.24030000  0.04190000  0.84480000  1.0 0.1500228789
H  H407  1  0.05610000  0.87700000  0.80280000  1.0 0.1296953886
H  H408  1  0.89800000  0.83680000  0.94830000  1.0 0.1395655519
H  H409  1  0.01600000  0.77210000  0.89720000  1.0 0.1296953886
H  H410  1  0.16610000  0.12750000  0.04780000  1.0 0.110805928
H  H411  1  0.13850000  0.26290000  0.10280000  1.0 0.1395655519
H  H412  1  0.36840000  0.16760000  0.13630000  1.0 0.0797246828
H  H413  1  0.47500000  0.25520000  0.12250000  1.0 0.0605335431
H  H414  1  0.45550000  0.22080000  0.09680000  1.0 0.0901167993
H  H415  1  0.41030000  0.25050000  0.10850000  1.0 0.0605335431
H  H416  1  0.46330000  0.15240000  0.14330000  1.0 0.110805928
H  H417  1  0.39090000  0.08100000  0.14280000  1.0 0.0797246828
H  H418  1  0.44230000  0.10320000  0.12060000  1.0 0.051198672
H  H419  1  0.23880000  0.89090000  0.08980000  1.0 0.0797246828
H  H420  1  0.34090000  0.89340000  0.10190000  1.0 0.0605335431
H  H421  1  0.37930000  0.97620000  0.10280000  1.0 0.100046815
H  H422  1  0.31590000  0.93090000  0.12020000  1.0 0.0797246828
H  H423  1  0.30750000  0.88370000  0.06000000  1.0 0.0605335431
H  H424  1  0.26360000  0.91790000  0.05070000  1.0 0.1214235126
H  H425  1  0.34450000  0.96580000  0.05630000  1.0 0.0901167993
H  H426  1  0.27150000  0.13250000  0.03510000  1.0 0.0605335431
H  H427  1  0.33350000  0.09950000  0.00960000  1.0 0.0703928188
H  H428  1  0.35320000  0.06740000  0.03160000  1.0 0.100046815
H  H429  1  0.27400000  0.03420000  0.02350000  1.0 0.0605335431
H  H430  1  0.38750000  0.21790000  0.02790000  1.0 0.1214235126
H  H431  1  0.36210000  0.22740000  0.05340000  1.0 0.0797246828
H  H432  1  0.41090000  0.19400000  0.05110000  1.0 0.110805928
H  H433  1  0.93310000  0.47940000  0.82200000  1.0 0.1214235126
H  H434  1  0.78910000  0.27870000  0.86170000  1.0 0.1395655519
H  H435  1  0.77730000  0.26550000  0.90440000  1.0 0.0797246828
H  H436  1  0.84740000  0.32200000  0.93700000  1.0 0.110805928
H  H437  1  0.84980000  0.37570000  0.91780000  1.0 0.110805928
H  H438  1  0.80490000  0.36150000  0.94130000  1.0 0.100046815
H  H439  1  0.74500000  0.20590000  0.94060000  1.0 0.110805928
H  H440  1  0.69220000  0.23370000  0.94500000  1.0 0.100046815
H  H441  1  0.68000000  0.18250000  0.92340000  1.0 0.0703928188
H  H442  1  0.53320000  0.36780000  0.90220000  1.0 0.0797246828
H  H443  1  0.47100000  0.30660000  0.93590000  1.0 0.100046815
H  H444  1  0.48250000  0.25820000  0.91780000  1.0 0.0797246828
H  H445  1  0.52870000  0.28570000  0.94120000  1.0 0.100046815
H  H446  1  0.55350000  0.43320000  0.93660000  1.0 0.100046815
H  H447  1  0.61950000  0.42500000  0.94220000  1.0 0.110805928
H  H448  1  0.61890000  0.46660000  0.91930000  1.0 0.110805928
H  H449  1  0.04670000  0.87330000  0.76030000  1.0 0.0797246828
H  H450  1  0.98020000  0.80370000  0.72860000  1.0 0.110805928
H  H451  1  0.93390000  0.81340000  0.74810000  1.0 0.0605335431
H  H452  1  0.95210000  0.85620000  0.72400000  1.0 0.008008629
H  H453  1  0.10860000  0.89790000  0.72480000  1.0 0.110805928
H  H454  1  0.09110000  0.95810000  0.71960000  1.0 0.1214235126
H  H455  1  0.13810000  0.96400000  0.74180000  1.0 0.1214235126
H  H456  1  0.17320000  0.09850000  0.75870000  1.0 0.0901167993
H  H457  1  0.21340000  0.02700000  0.74340000  1.0 0.0797246828
H  H458  1  0.18630000  0.10300000  0.71740000  1.0 0.100046815
H  H459  1  0.10620000  0.04560000  0.71480000  1.0 0.100046815
H  H460  1  0.12770000  0.12010000  0.72560000  1.0 0.0605335431
H  H461  1  0.17100000  0.99680000  0.76740000  1.0 0.0402604667
H  H462  1  0.13540000  0.96350000  0.74260000  1.0 0.1214235126
H  H463  1  0.21820000  0.86120000  0.85760000  1.0 0.0703928188
H  H464  1  0.17570000  0.74330000  0.86260000  1.0 0.110805928
H  H465  1  0.16270000  0.75210000  0.88980000  1.0 0.0294904124
H  H466  1  0.12300000  0.76930000  0.86980000  1.0 0.1296953886
H  H467  1  0.30020000  0.82650000  0.86050000  1.0 0.1214235126
H  H468  1  0.32860000  0.90640000  0.86650000  1.0 0.0703928188
H  H469  1  0.31300000  0.85200000  0.88730000  1.0 0.0797246828
H  H470  1  0.33260000  0.10600000  0.90470000  1.0 0.0797246828
H  H471  1  0.44190000  0.11380000  0.90520000  1.0 0.0703928188
H  H472  1  0.40520000  0.03190000  0.90920000  1.0 0.1214235126
H  H473  1  0.39290000  0.06180000  0.88510000  1.0 0.0605335431
H  H474  1  0.38610000  0.13050000  0.94220000  1.0 0.1214235126
H  H475  1  0.30330000  0.09010000  0.94410000  1.0 0.0703928188
H  H476  1  0.34470000  0.04940000  0.94820000  1.0 0.0402604667
H  H477  1  0.10940000  0.83890000  0.94920000  1.0 0.0605335431
H  H478  1  0.15810000  0.84750000  0.98630000  1.0 0.100046815
H  H479  1  0.23160000  0.90560000  0.97630000  1.0 0.0294904124
H  H480  1  0.16790000  0.91970000  0.97710000  1.0 0.100046815
H  H481  1  0.14190000  0.75650000  0.95880000  1.0 0.100046815
H  H482  1  0.13780000  0.76650000  0.93100000  1.0 0.051198672
H  H483  1  0.21160000  0.80030000  0.94390000  1.0 0.1214235126
H  H484  1  0.10040000  0.86200000  0.84880000  1.0 0.1395655519
H  H485  1  0.19460000  0.05540000  0.80080000  1.0 0.1214235126
H  H486  1  0.10150000  0.14140000  0.94540000  1.0 0.1500228789
H  H487  1  0.25840000  0.13180000  0.89650000  1.0 0.1296953886
H  H488  1  0.35270000  0.23890000  0.09550000  1.0 0.0703928188
H  H489  1  0.47020000  0.27920000  0.10260000  1.0 0.0294904124
H  H490  1  0.42000000  0.21970000  0.12050000  1.0 0.0294904124
H  H491  1  0.45600000  0.20180000  0.09940000  1.0 0.110805928
H  H492  1  0.42600000  0.28730000  0.06310000  1.0 0.110805928
H  H493  1  0.40640000  0.21100000  0.05460000  1.0 0.0703928188
H  H494  1  0.34790000  0.23260000  0.05580000  1.0 0.100046815
H  H495  1  0.33550000  0.01170000  0.13910000  1.0 0.0797246828
H  H496  1  0.45510000  0.06140000  0.13240000  1.0 0.100046815
H  H497  1  0.44440000  0.08290000  0.10640000  1.0 0.1500228789
H  H498  1  0.42790000  0.11520000  0.12910000  1.0 0.0294904124
H  H499  1  0.36920000  0.93230000  0.12730000  1.0 0.0797246828
H  H500  1  0.29050000  0.90820000  0.12070000  1.0 0.0703928188
H  H501  1  0.34910000  0.93900000  0.10070000  1.0 0.0703928188
H  H502  1  0.21810000  0.97340000  0.03690000  1.0 0.0703928188
H  H503  1  0.30060000  0.94060000  0.02670000  1.0 0.110805928
H  H504  1  0.34720000  0.98460000  0.04860000  1.0 0.100046815
H  H505  1  0.27220000  0.91870000  0.05310000  1.0 0.110805928
H  H506  1  0.29690000  0.03810000  0.00720000  1.0 0.0797246828
H  H507  1  0.27090000  0.08310000  0.02140000  1.0 0.0703928188
H  H508  1  0.34620000  0.09350000  0.02650000  1.0 0.0797246828
H  H509  1  0.05260000  0.15730000  0.05100000  1.0 0.1395655519
H  H510  1  0.23970000  0.22170000  0.10050000  1.0 0.1296953886
H  H511  1  0.84290000  0.45640000  0.86030000  1.0 0.1395655519
H  H512  1  0.85880000  0.28780000  0.81860000  1.0 0.1500228789
H  H513  1  0.77497000  0.09304000  0.56987000  1.0 0.0703928188
H  H514  1  0.85097000  0.05354000  0.55787000  1.0 0.100046815
H  H515  1  0.85997000  0.11594000  0.54147000  1.0 0.0216694383
H  H516  1  0.91577000  0.12974000  0.56157000  1.0 0.0901167993
H  H517  1  0.81387000  0.04954000  0.60087000  1.0 0.0901167993
H  H518  1  0.87757000  0.12584000  0.60557000  1.0 0.1214235126
H  H519  1  0.79997000  0.10924000  0.61027000  1.0 0.0605335431
H  H520  1  0.99637000  0.36014000  0.52907000  1.0 0.0797246828
H  H521  1  0.05307000  0.29664000  0.52157000  1.0 0.110805928
H  H522  1  0.01447000  0.24774000  0.54367000  1.0 0.0797246828
H  H523  1  0.97057000  0.24744000  0.52127000  1.0 0.100046815
H  H524  1  0.10707000  0.40344000  0.54577000  1.0 0.0797246828
H  H525  1  0.05997000  0.42444000  0.56107000  1.0 0.0901167993
H  H526  1  0.07227000  0.36304000  0.56977000  1.0 0.1296953886
H  H527  1  0.90397000  0.35124000  0.62947000  1.0 0.0901167993
H  H528  1  0.02367000  0.40164000  0.63687000  1.0 0.100046815
H  H529  1  0.03167000  0.36500000  0.61377000  1.0 0.110805928
H  H530  1  0.00947000  0.42294000  0.61137000  1.0 0.008008629
H  H531  1  0.93547000  0.28704000  0.65477000  1.0 0.100046815
H  H532  1  0.86637000  0.23704000  0.64037000  1.0 0.0605335431
H  H533  1  0.93887000  0.24434000  0.63267000  1.0 0.1214235126
H  H534  1  0.90697000  0.37524000  0.51147000  1.0 0.1500228789
H  H535  1  0.72277000  0.21034000  0.46947000  1.0 0.1296953886
H  H536  1  0.56467000  0.17014000  0.61497000  1.0 0.1395655519
H  H537  1  0.68267000  0.10544000  0.56387000  1.0 0.1296953886
H  H538  1  0.83277000  0.46084000  0.71447000  1.0 0.110805928
H  H539  1  0.80517000  0.59624000  0.76947000  1.0 0.1395655519
H  H540  1  0.03507000  0.50094000  0.80297000  1.0 0.0797246828
H  H541  1  0.14167000  0.58854000  0.78917000  1.0 0.0605335431
H  H542  1  0.12217000  0.55414000  0.76347000  1.0 0.0901167993
H  H543  1  0.07697000  0.58384000  0.77517000  1.0 0.0605335431
H  H544  1  0.12997000  0.48574000  0.80997000  1.0 0.110805928
H  H545  1  0.05757000  0.41434000  0.80947000  1.0 0.0797246828
H  H546  1  0.10897000  0.43654000  0.78727000  1.0 0.051198672
H  H547  1  0.90547000  0.22424000  0.75647000  1.0 0.0797246828
H  H548  1  0.00757000  0.22674000  0.76857000  1.0 0.0605335431
H  H549  1  0.04597000  0.30954000  0.76947000  1.0 0.100046815
H  H550  1  0.98257000  0.26424000  0.78687000  1.0 0.0797246828
H  H551  1  0.97417000  0.21704000  0.72667000  1.0 0.0605335431
H  H552  1  0.93027000  0.25124000  0.71737000  1.0 0.1214235126
H  H553  1  0.01117000  0.29914000  0.72297000  1.0 0.0901167993
H  H554  1  0.93817000  0.46584000  0.70177000  1.0 0.0605335431
H  H555  1  0.00017000  0.43284000  0.67627000  1.0 0.0703928188
H  H556  1  0.01987000  0.40074000  0.69827000  1.0 0.100046815
H  H557  1  0.94067000  0.36754000  0.69017000  1.0 0.0605335431
H  H558  1  0.05417000  0.55124000  0.69457000  1.0 0.1214235126
H  H559  1  0.02877000  0.56074000  0.72007000  1.0 0.0797246828
H  H560  1  0.07757000  0.52734000  0.71777000  1.0 0.110805928
H  H561  1  0.59977000  0.81274000  0.48867000  1.0 0.1214235126
H  H562  1  0.45577000  0.61204000  0.52837000  1.0 0.1395655519
H  H563  1  0.44397000  0.59884000  0.57107000  1.0 0.0797246828
H  H564  1  0.51407000  0.65534000  0.60367000  1.0 0.1214235126
H  H565  1  0.51647000  0.70904000  0.58447000  1.0 0.110805928
H  H566  1  0.47157000  0.69484000  0.60797000  1.0 0.100046815
H  H567  1  0.41167000  0.53924000  0.60727000  1.0 0.110805928
H  H568  1  0.35887000  0.56704000  0.61167000  1.0 0.100046815
H  H569  1  0.34667000  0.51584000  0.59007000  1.0 0.0703928188
H  H570  1  0.19987000  0.70114000  0.56887000  1.0 0.0797246828
H  H571  1  0.13767000  0.63994000  0.60257000  1.0 0.100046815
H  H572  1  0.14917000  0.59154000  0.58447000  1.0 0.0797246828
H  H573  1  0.19537000  0.61904000  0.60787000  1.0 0.100046815
H  H574  1  0.22017000  0.76654000  0.60327000  1.0 0.100046815
H  H575  1  0.28617000  0.75834000  0.60887000  1.0 0.110805928
H  H576  1  0.28557000  0.79994000  0.58597000  1.0 0.110805928
H  H577  1  0.71337000  0.20664000  0.42697000  1.0 0.0797246828
H  H578  1  0.64687000  0.13704000  0.39527000  1.0 0.110805928
H  H579  1  0.60057000  0.14674000  0.41477000  1.0 0.0605335431
H  H580  1  0.61877000  0.18954000  0.39067000  1.0 0.008008629
H  H581  1  0.77527000  0.23124000  0.39147000  1.0 0.110805928
H  H582  1  0.75777000  0.29144000  0.38627000  1.0 0.1214235126
H  H583  1  0.80477000  0.29734000  0.40847000  1.0 0.1214235126
H  H584  1  0.83987000  0.43184000  0.42537000  1.0 0.0901167993
H  H585  1  0.88007000  0.36034000  0.41007000  1.0 0.0797246828
H  H586  1  0.85297000  0.43634000  0.38407000  1.0 0.100046815
H  H587  1  0.77287000  0.37894000  0.38147000  1.0 0.100046815
H  H588  1  0.79437000  0.45344000  0.39227000  1.0 0.0605335431
H  H589  1  0.83767000  0.33014000  0.43407000  1.0 0.0402604667
H  H590  1  0.80207000  0.29684000  0.40927000  1.0 0.1214235126
H  H591  1  0.88487000  0.19454000  0.52427000  1.0 0.0703928188
H  H592  1  0.84237000  0.07664000  0.52927000  1.0 0.110805928
H  H593  1  0.82937000  0.08544000  0.55647000  1.0 0.0294904124
H  H594  1  0.78967000  0.10264000  0.53647000  1.0 0.1296953886
H  H595  1  0.96687000  0.15984000  0.52717000  1.0 0.1214235126
H  H596  1  0.99527000  0.23974000  0.53317000  1.0 0.0703928188
H  H597  1  0.97967000  0.18534000  0.55397000  1.0 0.0797246828
H  H598  1  0.99927000  0.43934000  0.57137000  1.0 0.0797246828
H  H599  1  0.10857000  0.44714000  0.57187000  1.0 0.0703928188
H  H600  1  0.07187000  0.36524000  0.57587000  1.0 0.1214235126
H  H601  1  0.05957000  0.39514000  0.55177000  1.0 0.0605335431
H  H602  1  0.05277000  0.46384000  0.60887000  1.0 0.1214235126
H  H603  1  0.96997000  0.42344000  0.61077000  1.0 0.0703928188
H  H604  1  0.01137000  0.38274000  0.61487000  1.0 0.0402604667
H  H605  1  0.77607000  0.17224000  0.61587000  1.0 0.0605335431
H  H606  1  0.82477000  0.18084000  0.65297000  1.0 0.100046815
H  H607  1  0.89827000  0.23894000  0.64297000  1.0 0.0294904124
H  H608  1  0.83457000  0.25304000  0.64377000  1.0 0.100046815
H  H609  1  0.80857000  0.08984000  0.62547000  1.0 0.100046815
H  H610  1  0.80447000  0.09984000  0.59767000  1.0 0.051198672
H  H611  1  0.87827000  0.13364000  0.61057000  1.0 0.1214235126
H  H612  1  0.76707000  0.19534000  0.51547000  1.0 0.1395655519
H  H613  1  0.86127000  0.38874000  0.46747000  1.0 0.1214235126
H  H614  1  0.76817000  0.47474000  0.61207000  1.0 0.1500228789
H  H615  1  0.92507000  0.46514000  0.56317000  1.0 0.1296953886
H  H616  1  0.01937000  0.57224000  0.76217000  1.0 0.0703928188
H  H617  1  0.13687000  0.61254000  0.76927000  1.0 0.0294904124
H  H618  1  0.08667000  0.55304000  0.78717000  1.0 0.0294904124
H  H619  1  0.12267000  0.53514000  0.76607000  1.0 0.110805928
H  H620  1  0.09267000  0.62064000  0.72977000  1.0 0.110805928
H  H621  1  0.07307000  0.54434000  0.72127000  1.0 0.0703928188
H  H622  1  0.01457000  0.56594000  0.72247000  1.0 0.100046815
H  H623  1  0.00217000  0.34504000  0.80577000  1.0 0.0797246828
H  H624  1  0.12177000  0.39474000  0.79907000  1.0 0.100046815
H  H625  1  0.11107000  0.41624000  0.77307000  1.0 0.1500228789
H  H626  1  0.09457000  0.44854000  0.79577000  1.0 0.0294904124
H  H627  1  0.03587000  0.26564000  0.79397000  1.0 0.0797246828
H  H628  1  0.95717000  0.24154000  0.78737000  1.0 0.0703928188
H  H629  1  0.01577000  0.27234000  0.76737000  1.0 0.0703928188
H  H630  1  0.88477000  0.30674000  0.70357000  1.0 0.0703928188
H  H631  1  0.96727000  0.27394000  0.69337000  1.0 0.110805928
H  H632  1  0.01387000  0.31794000  0.71527000  1.0 0.100046815
H  H633  1  0.93887000  0.25204000  0.71977000  1.0 0.110805928
H  H634  1  0.96357000  0.37144000  0.67387000  1.0 0.0797246828
H  H635  1  0.93757000  0.41644000  0.68807000  1.0 0.0703928188
H  H636  1  0.01287000  0.42684000  0.69317000  1.0 0.0797246828
H  H637  1  0.71927000  0.49064000  0.71767000  1.0 0.1395655519
H  H638  1  0.90637000  0.55504000  0.76717000  1.0 0.1296953886
H  H639  1  0.50957000  0.78974000  0.52697000  1.0 0.1395655519
H  H640  1  0.52547000  0.62114000  0.48527000  1.0 0.1500228789
H  H641  1  0.44163000  0.42636000  0.23653000  1.0 0.0703928188
H  H642  1  0.51763000  0.38686000  0.22453000  1.0 0.100046815
H  H643  1  0.52663000  0.44926000  0.20813000  1.0 0.0216694383
H  H644  1  0.58243000  0.46306000  0.22823000  1.0 0.0901167993
H  H645  1  0.48053000  0.38286000  0.26753000  1.0 0.0901167993
H  H646  1  0.54423000  0.45916000  0.27223000  1.0 0.1214235126
H  H647  1  0.46663000  0.44256000  0.27693000  1.0 0.0605335431
H  H648  1  0.66303000  0.69346000  0.19573000  1.0 0.0797246828
H  H649  1  0.71973000  0.62996000  0.18823000  1.0 0.110805928
H  H650  1  0.68113000  0.58106000  0.21033000  1.0 0.0797246828
H  H651  1  0.63723000  0.58076000  0.18793000  1.0 0.100046815
H  H652  1  0.77373000  0.73676000  0.21243000  1.0 0.0797246828
H  H653  1  0.72663000  0.75776000  0.22773000  1.0 0.0901167993
H  H654  1  0.73893000  0.69636000  0.23643000  1.0 0.1296953886
H  H655  1  0.57063000  0.68456000  0.29613000  1.0 0.0901167993
H  H656  1  0.69033000  0.73496000  0.30353000  1.0 0.100046815
H  H657  1  0.69833000  0.69836000  0.28043000  1.0 0.110805928
H  H658  1  0.67613000  0.75626000  0.27803000  1.0 0.008008629
H  H659  1  0.60213000  0.62036000  0.32143000  1.0 0.100046815
H  H660  1  0.53303000  0.57036000  0.30703000  1.0 0.0605335431
H  H661  1  0.60553000  0.57766000  0.29933000  1.0 0.1214235126
H  H662  1  0.57363000  0.70856000  0.17813000  1.0 0.1500228789
H  H663  1  0.38943000  0.54366000  0.13613000  1.0 0.1296953886
H  H664  1  0.23133000  0.50346000  0.28163000  1.0 0.1395655519
H  H665  1  0.34933000  0.43876000  0.23053000  1.0 0.1296953886
H  H666  1  0.49943000  0.79416000  0.38113000  1.0 0.110805928
H  H667  1  0.47183000  0.92956000  0.43613000  1.0 0.1395655519
H  H668  1  0.70173000  0.83426000  0.46963000  1.0 0.0797246828
H  H669  1  0.80833000  0.92186000  0.45583000  1.0 0.0605335431
H  H670  1  0.78883000  0.88746000  0.43013000  1.0 0.0901167993
H  H671  1  0.74363000  0.91716000  0.44183000  1.0 0.0605335431
H  H672  1  0.79663000  0.81906000  0.47663000  1.0 0.110805928
H  H673  1  0.72423000  0.74766000  0.47613000  1.0 0.0797246828
H  H674  1  0.77563000  0.76986000  0.45393000  1.0 0.051198672
H  H675  1  0.57213000  0.55756000  0.42313000  1.0 0.0797246828
H  H676  1  0.67423000  0.56006000  0.43523000  1.0 0.0605335431
H  H677  1  0.71263000  0.64286000  0.43613000  1.0 0.100046815
H  H678  1  0.64923000  0.59756000  0.45353000  1.0 0.0797246828
H  H679  1  0.64083000  0.55036000  0.39333000  1.0 0.0605335431
H  H680  1  0.59693000  0.58456000  0.38403000  1.0 0.1214235126
H  H681  1  0.67783000  0.63246000  0.38963000  1.0 0.0901167993
H  H682  1  0.60483000  0.79916000  0.36843000  1.0 0.0605335431
H  H683  1  0.66683000  0.76616000  0.34293000  1.0 0.0703928188
H  H684  1  0.68653000  0.73406000  0.36493000  1.0 0.100046815
H  H685  1  0.60733000  0.70086000  0.35683000  1.0 0.0605335431
H  H686  1  0.72083000  0.88456000  0.36123000  1.0 0.1214235126
H  H687  1  0.69543000  0.89406000  0.38673000  1.0 0.0797246828
H  H688  1  0.74423000  0.86066000  0.38443000  1.0 0.110805928
H  H689  1  0.26643000  0.14606000  0.15533000  1.0 0.1296953886
H  H690  1  0.12243000  0.94536000  0.19503000  1.0 0.1395655519
H  H691  1  0.11063000  0.93216000  0.23773000  1.0 0.0797246828
H  H692  1  0.18073000  0.98866000  0.27033000  1.0 0.1214235126
H  H693  1  0.18313000  0.04236000  0.25113000  1.0 0.110805928
H  H694  1  0.13823000  0.02816000  0.27463000  1.0 0.100046815
H  H695  1  0.07833000  0.87256000  0.27393000  1.0 0.110805928
H  H696  1  0.02553000  0.90036000  0.27833000  1.0 0.100046815
H  H697  1  0.01333000  0.84916000  0.25673000  1.0 0.0703928188
H  H698  1  0.86653000  0.03446000  0.23553000  1.0 0.0797246828
H  H699  1  0.80433000  0.97326000  0.26923000  1.0 0.100046815
H  H700  1  0.81583000  0.92486000  0.25113000  1.0 0.0797246828
H  H701  1  0.86203000  0.95236000  0.27453000  1.0 0.100046815
H  H702  1  0.88683000  0.09986000  0.26993000  1.0 0.100046815
H  H703  1  0.95283000  0.09166000  0.27553000  1.0 0.110805928
H  H704  1  0.95223000  0.13326000  0.25263000  1.0 0.110805928
H  H705  1  0.38003000  0.53996000  0.09363000  1.0 0.0797246828
H  H706  1  0.31353000  0.47036000  0.06193000  1.0 0.110805928
H  H707  1  0.26723000  0.48006000  0.08143000  1.0 0.0605335431
H  H708  1  0.28543000  0.52286000  0.05733000  1.0 0.008008629
H  H709  1  0.44193000  0.56456000  0.05813000  1.0 0.110805928
H  H710  1  0.42443000  0.62476000  0.05293000  1.0 0.1214235126
H  H711  1  0.47143000  0.63066000  0.07513000  1.0 0.1214235126
H  H712  1  0.50653000  0.76516000  0.09203000  1.0 0.0901167993
H  H713  1  0.54673000  0.69366000  0.07673000  1.0 0.0797246828
H  H714  1  0.51963000  0.76966000  0.05073000  1.0 0.100046815
H  H715  1  0.43953000  0.71226000  0.04813000  1.0 0.100046815
H  H716  1  0.46103000  0.78676000  0.05893000  1.0 0.0605335431
H  H717  1  0.50433000  0.66346000  0.10073000  1.0 0.0402604667
H  H718  1  0.46873000  0.63016000  0.07593000  1.0 0.1214235126
H  H719  1  0.55153000  0.52786000  0.19093000  1.0 0.0703928188
H  H720  1  0.50903000  0.40996000  0.19593000  1.0 0.110805928
H  H721  1  0.49603000  0.41876000  0.22313000  1.0 0.0294904124
H  H722  1  0.45633000  0.43596000  0.20313000  1.0 0.1296953886
H  H723  1  0.63353000  0.49316000  0.19383000  1.0 0.1214235126
H  H724  1  0.66193000  0.57306000  0.19983000  1.0 0.0703928188
H  H725  1  0.64633000  0.51866000  0.22063000  1.0 0.0797246828
H  H726  1  0.66593000  0.77266000  0.23803000  1.0 0.0797246828
H  H727  1  0.77523000  0.78046000  0.23853000  1.0 0.0703928188
H  H728  1  0.73853000  0.69856000  0.24253000  1.0 0.1214235126
H  H729  1  0.72623000  0.72846000  0.21843000  1.0 0.0605335431
H  H730  1  0.71943000  0.79716000  0.27553000  1.0 0.1214235126
H  H731  1  0.63663000  0.75676000  0.27743000  1.0 0.0703928188
H  H732  1  0.67803000  0.71606000  0.28153000  1.0 0.0402604667
H  H733  1  0.44273000  0.50556000  0.28253000  1.0 0.0605335431
H  H734  1  0.49143000  0.51416000  0.31963000  1.0 0.100046815
H  H735  1  0.56493000  0.57226000  0.30963000  1.0 0.0294904124
H  H736  1  0.50123000  0.58636000  0.31043000  1.0 0.100046815
H  H737  1  0.47523000  0.42316000  0.29213000  1.0 0.100046815
H  H738  1  0.47113000  0.43316000  0.26433000  1.0 0.051198672
H  H739  1  0.54493000  0.46696000  0.27723000  1.0 0.1214235126
H  H740  1  0.43373000  0.52866000  0.18213000  1.0 0.1395655519
H  H741  1  0.52793000  0.72206000  0.13413000  1.0 0.1214235126
H  H742  1  0.43483000  0.80806000  0.27873000  1.0 0.1500228789
H  H743  1  0.59173000  0.79846000  0.22983000  1.0 0.1296953886
H  H744  1  0.68603000  0.90556000  0.42883000  1.0 0.0703928188
H  H745  1  0.80353000  0.94586000  0.43593000  1.0 0.0402604667
H  H746  1  0.75333000  0.88636000  0.45383000  1.0 0.0294904124
H  H747  1  0.78933000  0.86846000  0.43273000  1.0 0.110805928
H  H748  1  0.75933000  0.95396000  0.39643000  1.0 0.110805928
H  H749  1  0.73973000  0.87766000  0.38793000  1.0 0.0703928188
H  H750  1  0.68123000  0.89926000  0.38913000  1.0 0.100046815
H  H751  1  0.66883000  0.67836000  0.47243000  1.0 0.0797246828
H  H752  1  0.78843000  0.72806000  0.46573000  1.0 0.100046815
H  H753  1  0.77773000  0.74956000  0.43973000  1.0 0.1500228789
H  H754  1  0.76123000  0.78186000  0.46243000  1.0 0.0294904124
H  H755  1  0.70253000  0.59896000  0.46063000  1.0 0.0797246828
H  H756  1  0.62383000  0.57486000  0.45403000  1.0 0.0703928188
H  H757  1  0.68243000  0.60566000  0.43403000  1.0 0.0703928188
H  H758  1  0.55143000  0.64006000  0.37023000  1.0 0.0703928188
H  H759  1  0.63393000  0.60726000  0.36003000  1.0 0.110805928
H  H760  1  0.68053000  0.65126000  0.38193000  1.0 0.100046815
H  H761  1  0.60553000  0.58536000  0.38643000  1.0 0.110805928
H  H762  1  0.63023000  0.70476000  0.34053000  1.0 0.0797246828
H  H763  1  0.60423000  0.74976000  0.35473000  1.0 0.0703928188
H  H764  1  0.67953000  0.76016000  0.35983000  1.0 0.0797246828
H  H765  1  0.38593000  0.82396000  0.38433000  1.0 0.1395655519
H  H766  1  0.57303000  0.88836000  0.43383000  1.0 0.1296953886
H  H767  1  0.17623000  0.12306000  0.19363000  1.0 0.1395655519
H  H768  1  0.19213000  0.95446000  0.15193000  1.0 0.1500228789
H  H769  1  0.65140000  0.89170000  0.90320000  1.0 0.0703928188
H  H770  1  0.53590000  0.81570000  0.89120000  1.0 0.110805928
H  H771  1  0.58930000  0.80670000  0.87480000  1.0 0.008008629
H  H772  1  0.54730000  0.75090000  0.89490000  1.0 0.100046815
H  H773  1  0.56900000  0.85280000  0.93420000  1.0 0.0901167993
H  H774  1  0.58160000  0.78910000  0.93890000  1.0 0.1296953886
H  H775  1  0.64260000  0.86670000  0.94360000  1.0 0.0605335431
H  H776  1  0.69710000  0.67030000  0.86240000  1.0 0.0797246828
H  H777  1  0.57690000  0.61360000  0.85490000  1.0 0.100046815
H  H778  1  0.56660000  0.65220000  0.87700000  1.0 0.0797246828
H  H779  1  0.61020000  0.69610000  0.85460000  1.0 0.0901167993
H  H780  1  0.62970000  0.55960000  0.87910000  1.0 0.0703928188
H  H781  1  0.69780000  0.60670000  0.89440000  1.0 0.0797246828
H  H782  1  0.62410000  0.59440000  0.90310000  1.0 0.1296953886
H  H783  1  0.78060000  0.76270000  0.96280000  1.0 0.0901167993
H  H784  1  0.71130000  0.64300000  0.97020000  1.0 0.0901167993
H  H785  1  0.66666667  0.63497000  0.94710000  1.0 0.110805928
H  H786  1  0.74680000  0.65720000  0.94470000  1.0 0.008008629
H  H787  1  0.68490000  0.73120000  0.98810000  1.0 0.100046815
H  H788  1  0.70400000  0.80030000  0.97370000  1.0 0.0605335431
H  H789  1  0.63880000  0.72780000  0.96600000  1.0 0.1296953886
H  H790  1  0.80160000  0.75970000  0.84480000  1.0 0.1500228789
H  H791  1  0.82090000  0.94390000  0.80280000  1.0 0.1296953886
H  H792  1  0.93880000  0.10200000  0.94830000  1.0 0.1395655519
H  H793  1  0.75610000  0.98400000  0.89720000  1.0 0.1296953886
H  H794  1  0.96140000  0.83390000  0.04780000  1.0 0.110805928
H  H795  1  0.12440000  0.86150000  0.10280000  1.0 0.1395655519
H  H796  1  0.79920000  0.63160000  0.13630000  1.0 0.0797246828
H  H797  1  0.78020000  0.52500000  0.12250000  1.0 0.0605335431
H  H798  1  0.76530000  0.54450000  0.09680000  1.0 0.0901167993
H  H799  1  0.84020000  0.58970000  0.10850000  1.0 0.0605335431
H  H800  1  0.68910000  0.53670000  0.14330000  1.0 0.110805928
H  H801  1  0.69010000  0.60910000  0.14280000  1.0 0.0797246828
H  H802  1  0.66090000  0.55770000  0.12060000  1.0 0.051198672
H  H803  1  0.65210000  0.76120000  0.08980000  1.0 0.0797246828
H  H804  1  0.55250000  0.65910000  0.10190000  1.0 0.0605335431
H  H805  1  0.59690000  0.62070000  0.10280000  1.0 0.100046815
H  H806  1  0.61500000  0.68410000  0.12020000  1.0 0.0797246828
H  H807  1  0.57620000  0.69250000  0.06000000  1.0 0.0605335431
H  H808  1  0.65430000  0.73640000  0.05070000  1.0 0.1214235126
H  H809  1  0.62130000  0.65550000  0.05630000  1.0 0.0901167993
H  H810  1  0.86100000  0.72850000  0.03510000  1.0 0.0605335431
H  H811  1  0.76600000  0.66650000  0.00960000  1.0 0.0703928188
H  H812  1  0.71420000  0.64680000  0.03160000  1.0 0.100046815
H  H813  1  0.76020000  0.72600000  0.02350000  1.0 0.0605335431
H  H814  1  0.83040000  0.61250000  0.02790000  1.0 0.1214235126
H  H815  1  0.86530000  0.63790000  0.05340000  1.0 0.0797246828
H  H816  1  0.78310000  0.58910000  0.05110000  1.0 0.110805928
H  H817  1  0.54630000  0.06690000  0.82200000  1.0 0.1214235126
H  H818  1  0.48960000  0.21090000  0.86170000  1.0 0.1395655519
H  H819  1  0.48820000  0.22270000  0.90440000  1.0 0.0797246828
H  H820  1  0.47460000  0.15260000  0.93700000  1.0 0.110805928
H  H821  1  0.52590000  0.15020000  0.91780000  1.0 0.110805928
H  H822  1  0.55660000  0.19510000  0.94130000  1.0 0.100046815
H  H823  1  0.46090000  0.25500000  0.94060000  1.0 0.110805928
H  H824  1  0.54150000  0.30780000  0.94500000  1.0 0.100046815
H  H825  1  0.50250000  0.32000000  0.92340000  1.0 0.0703928188
H  H826  1  0.83460000  0.46680000  0.90220000  1.0 0.0797246828
H  H827  1  0.83560000  0.52900000  0.93590000  1.0 0.100046815
H  H828  1  0.77570000  0.51750000  0.91780000  1.0 0.0797246828
H  H829  1  0.75700000  0.47130000  0.94120000  1.0 0.100046815
H  H830  1  0.87970000  0.44650000  0.93660000  1.0 0.0901167993
H  H831  1  0.80550000  0.38050000  0.94220000  1.0 0.110805928
H  H832  1  0.84770000  0.38110000  0.91930000  1.0 0.110805928
H  H833  1  0.82660000  0.95330000  0.76030000  1.0 0.0797246828
H  H834  1  0.82350000  0.01980000  0.72860000  1.0 0.110805928
H  H835  1  0.87950000  0.06610000  0.74810000  1.0 0.0605335431
H  H836  1  0.90410000  0.04790000  0.72400000  1.0 0.008008629
H  H837  1  0.78930000  0.89140000  0.72480000  1.0 0.110805928
H  H838  1  0.86700000  0.90890000  0.71960000  1.0 0.1214235126
H  H839  1  0.82590000  0.86190000  0.74180000  1.0 0.1214235126
H  H840  1  0.92530000  0.82680000  0.75870000  1.0 0.0901167993
H  H841  1  0.81360000  0.78660000  0.74340000  1.0 0.0797246828
H  H842  1  0.91670000  0.81370000  0.71740000  1.0 0.100046815
H  H843  1  0.93940000  0.89380000  0.71480000  1.0 0.100046815
H  H844  1  0.99240000  0.87230000  0.72560000  1.0 0.0605335431
H  H845  1  0.82580000  0.82900000  0.76740000  1.0 0.0402604667
H  H846  1  0.82810000  0.86460000  0.74260000  1.0 0.1214235126
H  H847  1  0.64300000  0.78180000  0.85760000  1.0 0.0703928188
H  H848  1  0.56760000  0.82430000  0.86260000  1.0 0.110805928
H  H849  1  0.58940000  0.83730000  0.88980000  1.0 0.0294904124
H  H850  1  0.64630000  0.87700000  0.86980000  1.0 0.1296953886
H  H851  1  0.52630000  0.69980000  0.86050000  1.0 0.110805928
H  H852  1  0.57780000  0.67140000  0.86650000  1.0 0.0703928188
H  H853  1  0.53900000  0.68700000  0.88730000  1.0 0.0901167993
H  H854  1  0.77340000  0.66740000  0.90470000  1.0 0.0797246828
H  H855  1  0.67190000  0.55810000  0.90520000  1.0 0.0605335431
H  H856  1  0.62670000  0.59480000  0.90920000  1.0 0.1296953886
H  H857  1  0.66890000  0.60710000  0.88510000  1.0 0.051198672
H  H858  1  0.74440000  0.61390000  0.94220000  1.0 0.1214235126
H  H859  1  0.78680000  0.69670000  0.94410000  1.0 0.0703928188
H  H860  1  0.70470000  0.65530000  0.94820000  1.0 0.0402604667
H  H861  1  0.72950000  0.89060000  0.94920000  1.0 0.0605335431
H  H862  1  0.68940000  0.84190000  0.98630000  1.0 0.100046815
H  H863  1  0.67400000  0.76840000  0.97630000  1.0 0.0216694383
H  H864  1  0.75180000  0.83210000  0.97710000  1.0 0.100046815
H  H865  1  0.61460000  0.85810000  0.95880000  1.0 0.100046815
H  H866  1  0.62870000  0.86220000  0.93100000  1.0 0.051198672
H  H867  1  0.58870000  0.78840000  0.94390000  1.0 0.1296953886
H  H868  1  0.76160000  0.89960000  0.84880000  1.0 0.1395655519
H  H869  1  0.86080000  0.80540000  0.80080000  1.0 0.1214235126
H  H870  1  0.03990000  0.89850000  0.94540000  1.0 0.1500228789
H  H871  1  0.87340000  0.74160000  0.89650000  1.0 0.1296953886
H  H872  1  0.88620000  0.64730000  0.09550000  1.0 0.0703928188
H  H873  1  0.80900000  0.52980000  0.10260000  1.0 0.0402604667
H  H874  1  0.79970000  0.58000000  0.12050000  1.0 0.0294904124
H  H875  1  0.74580000  0.54400000  0.09940000  1.0 0.110805928
H  H876  1  0.86130000  0.57400000  0.06310000  1.0 0.110805928
H  H877  1  0.80460000  0.59360000  0.05460000  1.0 0.0703928188
H  H878  1  0.88470000  0.65210000  0.05580000  1.0 0.100046815
H  H879  1  0.67620000  0.66450000  0.13910000  1.0 0.0797246828
H  H880  1  0.60630000  0.54490000  0.13240000  1.0 0.100046815
H  H881  1  0.63850000  0.55560000  0.10640000  1.0 0.1500228789
H  H882  1  0.68730000  0.57210000  0.12910000  1.0 0.0294904124
H  H883  1  0.56310000  0.63080000  0.12730000  1.0 0.0797246828
H  H884  1  0.61770000  0.70950000  0.12070000  1.0 0.0703928188
H  H885  1  0.58990000  0.65090000  0.10070000  1.0 0.0703928188
H  H886  1  0.75530000  0.78190000  0.03690000  1.0 0.0703928188
H  H887  1  0.64000000  0.69940000  0.02670000  1.0 0.110805928
H  H888  1  0.63740000  0.65280000  0.04860000  1.0 0.100046815
H  H889  1  0.64650000  0.72780000  0.05310000  1.0 0.110805928
H  H890  1  0.74120000  0.70310000  0.00720000  1.0 0.0797246828
H  H891  1  0.81220000  0.72910000  0.02140000  1.0 0.0703928188
H  H892  1  0.74730000  0.65380000  0.02650000  1.0 0.0797246828
H  H893  1  0.10470000  0.94740000  0.05100000  1.0 0.1395655519
H  H894  1  0.98200000  0.76030000  0.10050000  1.0 0.1296953886
H  H895  1  0.61350000  0.15710000  0.86030000  1.0 0.1395655519
H  H896  1  0.42900000  0.14120000  0.81860000  1.0 0.1500228789
H  H897  1  0.31807000  0.22504000  0.56987000  1.0 0.0703928188
H  H898  1  0.20257000  0.14904000  0.55787000  1.0 0.110805928
H  H899  1  0.25597000  0.14004000  0.54147000  1.0 0.008008629
H  H900  1  0.21397000  0.08424000  0.56157000  1.0 0.100046815
H  H901  1  0.23567000  0.18614000  0.60087000  1.0 0.0901167993
H  H902  1  0.24827000  0.12244000  0.60557000  1.0 0.1296953886
H  H903  1  0.30927000  0.20004000  0.61027000  1.0 0.0605335431
H  H904  1  0.36377000  0.00364000  0.52907000  1.0 0.0797246828
H  H905  1  0.24357000  0.94694000  0.52157000  1.0 0.100046815
H  H906  1  0.23327000  0.98554000  0.54367000  1.0 0.0797246828
H  H907  1  0.27687000  0.02944000  0.52127000  1.0 0.0901167993
H  H908  1  0.29637000  0.89294000  0.54577000  1.0 0.0703928188
H  H909  1  0.36447000  0.94004000  0.56107000  1.0 0.0797246828
H  H910  1  0.29077000  0.92774000  0.56977000  1.0 0.1296953886
H  H911  1  0.44727000  0.09604000  0.62947000  1.0 0.0901167993
H  H912  1  0.37797000  0.97634000  0.63687000  1.0 0.0901167993
H  H913  1  0.33333333  0.96834000  0.61377000  1.0 0.110805928
H  H914  1  0.41347000  0.99054000  0.61137000  1.0 0.008008629
H  H915  1  0.35157000  0.06454000  0.65477000  1.0 0.100046815
H  H916  1  0.37067000  0.13364000  0.64037000  1.0 0.0605335431
H  H917  1  0.30547000  0.06114000  0.63267000  1.0 0.1296953886
H  H918  1  0.46827000  0.09304000  0.51147000  1.0 0.1500228789
H  H919  1  0.48757000  0.27724000  0.46947000  1.0 0.1296953886
H  H920  1  0.60547000  0.43534000  0.61497000  1.0 0.1395655519
H  H921  1  0.42277000  0.31734000  0.56387000  1.0 0.1296953886
H  H922  1  0.62807000  0.16724000  0.71447000  1.0 0.110805928
H  H923  1  0.79107000  0.19484000  0.76947000  1.0 0.1395655519
H  H924  1  0.46587000  0.96494000  0.80297000  1.0 0.0797246828
H  H925  1  0.44687000  0.85834000  0.78917000  1.0 0.0605335431
H  H926  1  0.43197000  0.87784000  0.76347000  1.0 0.0901167993
H  H927  1  0.50687000  0.92304000  0.77517000  1.0 0.0605335431
H  H928  1  0.35577000  0.87004000  0.80997000  1.0 0.110805928
H  H929  1  0.35677000  0.94244000  0.80947000  1.0 0.0797246828
H  H930  1  0.32757000  0.89104000  0.78727000  1.0 0.051198672
H  H931  1  0.31877000  0.09454000  0.75647000  1.0 0.0797246828
H  H932  1  0.21917000  0.99244000  0.76857000  1.0 0.0605335431
H  H933  1  0.26357000  0.95404000  0.76947000  1.0 0.100046815
H  H934  1  0.28167000  0.01744000  0.78687000  1.0 0.0797246828
H  H935  1  0.24287000  0.02584000  0.72667000  1.0 0.0605335431
H  H936  1  0.32097000  0.06974000  0.71737000  1.0 0.1214235126
H  H937  1  0.28797000  0.98884000  0.72297000  1.0 0.0901167993
H  H938  1  0.52767000  0.06184000  0.70177000  1.0 0.0605335431
H  H939  1  0.43267000  0.99984000  0.67627000  1.0 0.0703928188
H  H940  1  0.38087000  0.98014000  0.69827000  1.0 0.100046815
H  H941  1  0.42687000  0.05934000  0.69017000  1.0 0.0605335431
H  H942  1  0.49707000  0.94584000  0.69457000  1.0 0.1214235126
H  H943  1  0.53197000  0.97124000  0.72007000  1.0 0.0797246828
H  H944  1  0.44977000  0.92244000  0.71777000  1.0 0.110805928
H  H945  1  0.21297000  0.40024000  0.48867000  1.0 0.1296953886
H  H946  1  0.15627000  0.54424000  0.52837000  1.0 0.1395655519
H  H947  1  0.15487000  0.55604000  0.57107000  1.0 0.0797246828
H  H948  1  0.14127000  0.48594000  0.60367000  1.0 0.110805928
H  H949  1  0.19257000  0.48354000  0.58447000  1.0 0.110805928
H  H950  1  0.22327000  0.52844000  0.60797000  1.0 0.100046815
H  H951  1  0.12757000  0.58834000  0.60727000  1.0 0.110805928
H  H952  1  0.20817000  0.64114000  0.61167000  1.0 0.100046815
H  H953  1  0.16917000  0.65334000  0.59007000  1.0 0.0703928188
H  H954  1  0.50127000  0.80014000  0.56887000  1.0 0.0797246828
H  H955  1  0.50227000  0.86234000  0.60257000  1.0 0.100046815
H  H956  1  0.44237000  0.85084000  0.58447000  1.0 0.0797246828
H  H957  1  0.42367000  0.80464000  0.60787000  1.0 0.100046815
H  H958  1  0.54637000  0.77984000  0.60327000  1.0 0.0901167993
H  H959  1  0.47217000  0.71384000  0.60887000  1.0 0.110805928
H  H960  1  0.51437000  0.71444000  0.58597000  1.0 0.110805928
H  H961  1  0.49327000  0.28664000  0.42697000  1.0 0.0797246828
H  H962  1  0.49017000  0.35314000  0.39527000  1.0 0.110805928
H  H963  1  0.54617000  0.39944000  0.41477000  1.0 0.0605335431
H  H964  1  0.57077000  0.38124000  0.39067000  1.0 0.008008629
H  H965  1  0.45597000  0.22474000  0.39147000  1.0 0.110805928
H  H966  1  0.53367000  0.24224000  0.38627000  1.0 0.1214235126
H  H967  1  0.49257000  0.19524000  0.40847000  1.0 0.1214235126
H  H968  1  0.59197000  0.16014000  0.42537000  1.0 0.0901167993
H  H969  1  0.48027000  0.11994000  0.41007000  1.0 0.0797246828
H  H970  1  0.58337000  0.14704000  0.38407000  1.0 0.100046815
H  H971  1  0.60607000  0.22714000  0.38147000  1.0 0.100046815
H  H972  1  0.65907000  0.20564000  0.39227000  1.0 0.0605335431
H  H973  1  0.49247000  0.16234000  0.43407000  1.0 0.0402604667
H  H974  1  0.49477000  0.19794000  0.40927000  1.0 0.1214235126
H  H975  1  0.30967000  0.11514000  0.52427000  1.0 0.0703928188
H  H976  1  0.23427000  0.15764000  0.52927000  1.0 0.110805928
H  H977  1  0.25607000  0.17064000  0.55647000  1.0 0.0294904124
H  H978  1  0.31297000  0.21034000  0.53647000  1.0 0.1296953886
H  H979  1  0.19297000  0.03314000  0.52717000  1.0 0.110805928
H  H980  1  0.24447000  0.00474000  0.53317000  1.0 0.0703928188
H  H981  1  0.20567000  0.02034000  0.55397000  1.0 0.0901167993
H  H982  1  0.44007000  0.00074000  0.57137000  1.0 0.0797246828
H  H983  1  0.33857000  0.89144000  0.57187000  1.0 0.0605335431
H  H984  1  0.29337000  0.92814000  0.57587000  1.0 0.1296953886
H  H985  1  0.33557000  0.94044000  0.55177000  1.0 0.051198672
H  H986  1  0.41107000  0.94724000  0.60887000  1.0 0.1214235126
H  H987  1  0.45347000  0.03004000  0.61077000  1.0 0.0703928188
H  H988  1  0.37137000  0.98864000  0.61487000  1.0 0.0402604667
H  H989  1  0.39617000  0.22394000  0.61587000  1.0 0.0605335431
H  H990  1  0.35607000  0.17524000  0.65297000  1.0 0.100046815
H  H991  1  0.34067000  0.10174000  0.64297000  1.0 0.0216694383
H  H992  1  0.41847000  0.16544000  0.64377000  1.0 0.100046815
H  H993  1  0.28127000  0.19144000  0.62547000  1.0 0.100046815
H  H994  1  0.29537000  0.19554000  0.59767000  1.0 0.051198672
H  H995  1  0.25537000  0.12174000  0.61057000  1.0 0.1296953886
H  H996  1  0.42827000  0.23294000  0.51547000  1.0 0.1395655519
H  H997  1  0.52747000  0.13874000  0.46747000  1.0 0.1214235126
H  H998  1  0.70657000  0.23184000  0.61207000  1.0 0.1500228789
H  H999  1  0.54007000  0.07494000  0.56317000  1.0 0.1296953886
H  H1000  1  0.55287000  0.98064000  0.76217000  1.0 0.0703928188
H  H1001  1  0.47567000  0.86314000  0.76927000  1.0 0.0402604667
H  H1002  1  0.46637000  0.91334000  0.78717000  1.0 0.0294904124
H  H1003  1  0.41247000  0.87734000  0.76607000  1.0 0.110805928
H  H1004  1  0.52797000  0.90734000  0.72977000  1.0 0.110805928
H  H1005  1  0.47127000  0.92694000  0.72127000  1.0 0.0703928188
H  H1006  1  0.55137000  0.98544000  0.72247000  1.0 0.100046815
H  H1007  1  0.34287000  0.99784000  0.80577000  1.0 0.0797246828
H  H1008  1  0.27297000  0.87824000  0.79907000  1.0 0.100046815
H  H1009  1  0.30517000  0.88894000  0.77307000  1.0 0.1500228789
H  H1010  1  0.35397000  0.90544000  0.79577000  1.0 0.0294904124
H  H1011  1  0.22977000  0.96414000  0.79397000  1.0 0.0797246828
H  H1012  1  0.28437000  0.04284000  0.78737000  1.0 0.0703928188
H  H1013  1  0.25657000  0.98424000  0.76737000  1.0 0.0703928188
H  H1014  1  0.42197000  0.11524000  0.70357000  1.0 0.0703928188
H  H1015  1  0.30667000  0.03274000  0.69337000  1.0 0.110805928
H  H1016  1  0.30407000  0.98614000  0.71527000  1.0 0.100046815
H  H1017  1  0.31317000  0.06114000  0.71977000  1.0 0.110805928
H  H1018  1  0.40787000  0.03644000  0.67387000  1.0 0.0797246828
H  H1019  1  0.47887000  0.06244000  0.68807000  1.0 0.0703928188
H  H1020  1  0.41397000  0.98714000  0.69317000  1.0 0.0797246828
H  H1021  1  0.77137000  0.28074000  0.71767000  1.0 0.1395655519
H  H1022  1  0.64867000  0.09364000  0.76717000  1.0 0.1296953886
H  H1023  1  0.28017000  0.49044000  0.52697000  1.0 0.1395655519
H  H1024  1  0.09567000  0.47454000  0.48527000  1.0 0.1500228789
H  H1025  1  0.98473000  0.55836000  0.23653000  1.0 0.0703928188
H  H1026  1  0.86923000  0.48236000  0.22453000  1.0 0.110805928
H  H1027  1  0.92263000  0.47336000  0.20813000  1.0 0.008008629
H  H1028  1  0.88063000  0.41756000  0.22823000  1.0 0.100046815
H  H1029  1  0.90233000  0.51946000  0.26753000  1.0 0.0901167993
H  H1030  1  0.91493000  0.45576000  0.27223000  1.0 0.1296953886
H  H1031  1  0.97593000  0.53336000  0.27693000  1.0 0.0605335431
H  H1032  1  0.03043000  0.33696000  0.19573000  1.0 0.0797246828
H  H1033  1  0.91023000  0.28026000  0.18823000  1.0 0.100046815
H  H1034  1  0.89993000  0.31886000  0.21033000  1.0 0.0797246828
H  H1035  1  0.94353000  0.36276000  0.18793000  1.0 0.100046815
H  H1036  1  0.96303000  0.22626000  0.21243000  1.0 0.0703928188
H  H1037  1  0.03113000  0.27336000  0.22773000  1.0 0.0797246828
H  H1038  1  0.95743000  0.26106000  0.23643000  1.0 0.1296953886
H  H1039  1  0.11393000  0.42936000  0.29613000  1.0 0.0901167993
H  H1040  1  0.04463000  0.30966000  0.30353000  1.0 0.0901167993
H  H1041  1  0.00003000  0.30166000  0.28043000  1.0 0.110805928
H  H1042  1  0.08013000  0.32386000  0.27803000  1.0 0.008008629
H  H1043  1  0.01823000  0.39786000  0.32143000  1.0 0.100046815
H  H1044  1  0.03733000  0.46696000  0.30703000  1.0 0.0605335431
H  H1045  1  0.97213000  0.39446000  0.29933000  1.0 0.1296953886
H  H1046  1  0.13493000  0.42636000  0.17813000  1.0 0.1500228789
H  H1047  1  0.15423000  0.61056000  0.13613000  1.0 0.1296953886
H  H1048  1  0.27213000  0.76866000  0.28163000  1.0 0.1395655519
H  H1049  1  0.08943000  0.65066000  0.23053000  1.0 0.1296953886
H  H1050  1  0.29473000  0.50056000  0.38113000  1.0 0.110805928
H  H1051  1  0.45773000  0.52816000  0.43613000  1.0 0.1395655519
H  H1052  1  0.13253000  0.29826000  0.46963000  1.0 0.0797246828
H  H1053  1  0.11353000  0.19166000  0.45583000  1.0 0.0605335431
H  H1054  1  0.09863000  0.21116000  0.43013000  1.0 0.0901167993
H  H1055  1  0.17353000  0.25636000  0.44183000  1.0 0.0605335431
H  H1056  1  0.02243000  0.20336000  0.47663000  1.0 0.110805928
H  H1057  1  0.02343000  0.27576000  0.47613000  1.0 0.0797246828
H  H1058  1  0.99423000  0.22436000  0.45393000  1.0 0.051198672
H  H1059  1  0.98543000  0.42786000  0.42313000  1.0 0.0797246828
H  H1060  1  0.88583000  0.32576000  0.43523000  1.0 0.0605335431
H  H1061  1  0.93023000  0.28736000  0.43613000  1.0 0.100046815
H  H1062  1  0.94833000  0.35076000  0.45353000  1.0 0.0797246828
H  H1063  1  0.90953000  0.35916000  0.39333000  1.0 0.0605335431
H  H1064  1  0.98763000  0.40306000  0.38403000  1.0 0.1214235126
H  H1065  1  0.95463000  0.32216000  0.38963000  1.0 0.0901167993
H  H1066  1  0.19433000  0.39516000  0.36843000  1.0 0.0605335431
H  H1067  1  0.09933000  0.33316000  0.34293000  1.0 0.0703928188
H  H1068  1  0.04753000  0.31346000  0.36493000  1.0 0.100046815
H  H1069  1  0.09353000  0.39266000  0.35683000  1.0 0.0605335431
H  H1070  1  0.16373000  0.27916000  0.36123000  1.0 0.1214235126
H  H1071  1  0.19863000  0.30456000  0.38673000  1.0 0.0797246828
H  H1072  1  0.11643000  0.25576000  0.38443000  1.0 0.110805928
H  H1073  1  0.87963000  0.73356000  0.15533000  1.0 0.1214235126
H  H1074  1  0.82293000  0.87756000  0.19503000  1.0 0.1395655519
H  H1075  1  0.82153000  0.88936000  0.23773000  1.0 0.0797246828
H  H1076  1  0.80793000  0.81926000  0.27033000  1.0 0.110805928
H  H1077  1  0.85923000  0.81686000  0.25113000  1.0 0.110805928
H  H1078  1  0.88993000  0.86176000  0.27463000  1.0 0.100046815
H  H1079  1  0.79423000  0.92166000  0.27393000  1.0 0.110805928
H  H1080  1  0.87483000  0.97446000  0.27833000  1.0 0.100046815
H  H1081  1  0.83583000  0.98666000  0.25673000  1.0 0.0703928188
H  H1082  1  0.16793000  0.13346000  0.23553000  1.0 0.0797246828
H  H1083  1  0.16893000  0.19566000  0.26923000  1.0 0.100046815
H  H1084  1  0.10903000  0.18416000  0.25113000  1.0 0.0797246828
H  H1085  1  0.09033000  0.13796000  0.27453000  1.0 0.100046815
H  H1086  1  0.21303000  0.11316000  0.26993000  1.0 0.0901167993
H  H1087  1  0.13883000  0.04716000  0.27553000  1.0 0.110805928
H  H1088  1  0.18103000  0.04776000  0.25263000  1.0 0.110805928
H  H1089  1  0.15993000  0.61996000  0.09363000  1.0 0.0797246828
H  H1090  1  0.15683000  0.68646000  0.06193000  1.0 0.110805928
H  H1091  1  0.21283000  0.73276000  0.08143000  1.0 0.0605335431
H  H1092  1  0.23743000  0.71456000  0.05733000  1.0 0.008008629
H  H1093  1  0.12263000  0.55806000  0.05813000  1.0 0.110805928
H  H1094  1  0.20033000  0.57556000  0.05293000  1.0 0.1214235126
H  H1095  1  0.15923000  0.52856000  0.07513000  1.0 0.1214235126
H  H1096  1  0.25863000  0.49346000  0.09203000  1.0 0.0901167993
H  H1097  1  0.14693000  0.45326000  0.07673000  1.0 0.0797246828
H  H1098  1  0.25003000  0.48036000  0.05073000  1.0 0.100046815
H  H1099  1  0.27273000  0.56046000  0.04813000  1.0 0.100046815
H  H1100  1  0.32573000  0.53896000  0.05893000  1.0 0.0605335431
H  H1101  1  0.15913000  0.49566000  0.10073000  1.0 0.0402604667
H  H1102  1  0.16143000  0.53126000  0.07593000  1.0 0.1214235126
H  H1103  1  0.97633000  0.44846000  0.19093000  1.0 0.0703928188
H  H1104  1  0.90093000  0.49096000  0.19593000  1.0 0.110805928
H  H1105  1  0.92273000  0.50396000  0.22313000  1.0 0.0294904124
H  H1106  1  0.97963000  0.54366000  0.20313000  1.0 0.1296953886
H  H1107  1  0.85963000  0.36646000  0.19383000  1.0 0.110805928
H  H1108  1  0.91113000  0.33806000  0.19983000  1.0 0.0703928188
H  H1109  1  0.87233000  0.35366000  0.22063000  1.0 0.0901167993
H  H1110  1  0.10673000  0.33406000  0.23803000  1.0 0.0797246828
H  H1111  1  0.00523000  0.22476000  0.23853000  1.0 0.0605335431
H  H1112  1  0.96003000  0.26146000  0.24253000  1.0 0.1296953886
H  H1113  1  0.00223000  0.27376000  0.21843000  1.0 0.051198672
H  H1114  1  0.07773000  0.28056000  0.27553000  1.0 0.1214235126
H  H1115  1  0.12013000  0.36336000  0.27743000  1.0 0.0703928188
H  H1116  1  0.03803000  0.32196000  0.28153000  1.0 0.0402604667
H  H1117  1  0.06283000  0.55726000  0.28253000  1.0 0.0605335431
H  H1118  1  0.02273000  0.50856000  0.31963000  1.0 0.100046815
H  H1119  1  0.00733000  0.43506000  0.30963000  1.0 0.0216694383
H  H1120  1  0.08513000  0.49876000  0.31043000  1.0 0.100046815
H  H1121  1  0.94793000  0.52476000  0.29213000  1.0 0.100046815
H  H1122  1  0.96203000  0.52886000  0.26433000  1.0 0.051198672
H  H1123  1  0.92203000  0.45506000  0.27723000  1.0 0.1296953886
H  H1124  1  0.09493000  0.56626000  0.18213000  1.0 0.1395655519
H  H1125  1  0.19413000  0.47206000  0.13413000  1.0 0.1214235126
H  H1126  1  0.37323000  0.56516000  0.27873000  1.0 0.1500228789
H  H1127  1  0.20673000  0.40826000  0.22983000  1.0 0.1296953886
H  H1128  1  0.21953000  0.31396000  0.42883000  1.0 0.0703928188
H  H1129  1  0.14233000  0.19646000  0.43593000  1.0 0.0294904124
H  H1130  1  0.13303000  0.24666000  0.45383000  1.0 0.0294904124
H  H1131  1  0.07913000  0.21066000  0.43273000  1.0 0.110805928
H  H1132  1  0.19463000  0.24066000  0.39643000  1.0 0.110805928
H  H1133  1  0.13793000  0.26026000  0.38793000  1.0 0.0703928188
H  H1134  1  0.21803000  0.31876000  0.38913000  1.0 0.100046815
H  H1135  1  0.00953000  0.33116000  0.47243000  1.0 0.0797246828
H  H1136  1  0.93963000  0.21156000  0.46573000  1.0 0.100046815
H  H1137  1  0.97183000  0.22226000  0.43973000  1.0 0.1500228789
H  H1138  1  0.02063000  0.23876000  0.46243000  1.0 0.0294904124
H  H1139  1  0.89643000  0.29746000  0.46063000  1.0 0.0797246828
H  H1140  1  0.95103000  0.37616000  0.45403000  1.0 0.0703928188
H  H1141  1  0.92323000  0.31756000  0.43403000  1.0 0.0703928188
H  H1142  1  0.08863000  0.44856000  0.37023000  1.0 0.0703928188
H  H1143  1  0.97333000  0.36606000  0.36003000  1.0 0.110805928
H  H1144  1  0.97073000  0.31946000  0.38193000  1.0 0.100046815
H  H1145  1  0.97983000  0.39446000  0.38643000  1.0 0.110805928
H  H1146  1  0.07453000  0.36976000  0.34053000  1.0 0.0797246828
H  H1147  1  0.14553000  0.39576000  0.35473000  1.0 0.0703928188
H  H1148  1  0.08063000  0.32046000  0.35983000  1.0 0.0797246828
H  H1149  1  0.43803000  0.61406000  0.38433000  1.0 0.1395655519
H  H1150  1  0.31533000  0.42696000  0.43383000  1.0 0.1296953886
H  H1151  1  0.94683000  0.82376000  0.19363000  1.0 0.1395655519
H  H1152  1  0.76233000  0.80786000  0.15193000  1.0 0.1500228789
Pd  Pd1  1  0.97654000  0.06831000  0.77964000  1.0 0.1712933268
Pd  Pd2  1  0.10167000  0.23397000  0.92907000  1.0 0.191083643
Pd  Pd3  1  0.09842000  0.27735000  0.87606000  1.0 0.1797933613
Pd  Pd4  1  0.96013000  0.21087000  0.90585000  1.0 0.1797933613
Pd  Pd5  1  0.85353000  0.12319000  0.09208000  1.0 0.1500228789
Pd  Pd6  1  0.60580000  0.36700000  0.88425000  1.0 0.1500228789
Pd  Pd7  1  0.64726000  0.56831000  0.78871000  1.0 0.1797933613
Pd  Pd8  1  0.79692000  0.80028000  0.06885000  1.0 0.1797933613
Pd  Pd9  1  0.06120000  0.09250000  0.78000000  1.0 0.1620679231
Pd  Pd10  1  0.14900000  0.26910000  0.90650000  1.0 0.1797933613
Pd  Pd11  1  0.02270000  0.25440000  0.87560000  1.0 0.1712933268
Pd  Pd12  1  0.99920000  0.20100000  0.92920000  1.0 0.1395655519
Pd  Pd13  1  0.27820000  0.09850000  0.12158000  1.0 0.1797933613
Pd  Pd14  1  0.74970000  0.78920000  0.09166000  1.0 0.1712933268
Pd  Pd15  1  0.90820000  0.93200000  0.21738000  1.0 0.1395655519
Pd  Pd16  1  0.89830000  0.13220000  0.06876000  1.0 0.1395655519
Pd  Pd17  1  0.64321000  0.40165000  0.44631000  1.0 0.1712933268
Pd  Pd18  1  0.76834000  0.56731000  0.59574000  1.0 0.1797933613
Pd  Pd19  1  0.76509000  0.61069000  0.54273000  1.0 0.1797933613
Pd  Pd20  1  0.62680000  0.54421000  0.57252000  1.0 0.1797933613
Pd  Pd21  1  0.52020000  0.45653000  0.75875000  1.0 0.1500228789
Pd  Pd22  1  0.27247000  0.70034000  0.55092000  1.0 0.1500228789
Pd  Pd23  1  0.31393000  0.90165000  0.45538000  1.0 0.191083643
Pd  Pd24  1  0.46359000  0.13362000  0.73552000  1.0 0.1797933613
Pd  Pd25  1  0.72787000  0.42584000  0.44667000  1.0 0.1620679231
Pd  Pd26  1  0.81567000  0.60244000  0.57317000  1.0 0.1712933268
Pd  Pd27  1  0.68937000  0.58774000  0.54227000  1.0 0.1712933268
Pd  Pd28  1  0.66587000  0.53434000  0.59587000  1.0 0.1620679231
Pd  Pd29  1  0.94487000  0.43184000  0.78825000  1.0 0.1797933613
Pd  Pd30  1  0.41637000  0.12254000  0.75833000  1.0 0.1712933268
Pd  Pd31  1  0.57487000  0.26534000  0.88405000  1.0 0.1395655519
Pd  Pd32  1  0.56497000  0.46554000  0.73543000  1.0 0.1395655519
Pd  Pd33  1  0.30987000  0.73497000  0.11297000  1.0 0.1712933268
Pd  Pd34  1  0.43500000  0.90063000  0.26240000  1.0 0.191083643
Pd  Pd35  1  0.43175000  0.94401000  0.20939000  1.0 0.1797933613
Pd  Pd36  1  0.29346000  0.87753000  0.23918000  1.0 0.1797933613
Pd  Pd37  1  0.18686000  0.78985000  0.42541000  1.0 0.1500228789
Pd  Pd38  1  0.93913000  0.03366000  0.21758000  1.0 0.1500228789
Pd  Pd39  1  0.98059000  0.23497000  0.12204000  1.0 0.1797933613
Pd  Pd40  1  0.13025000  0.46694000  0.40218000  1.0 0.1797933613
Pd  Pd41  1  0.39453000  0.75916000  0.11333000  1.0 0.1620679231
Pd  Pd42  1  0.48233000  0.93576000  0.23983000  1.0 0.1712933268
Pd  Pd43  1  0.35603000  0.92106000  0.20893000  1.0 0.1797933613
Pd  Pd44  1  0.33253000  0.86766000  0.26253000  1.0 0.1620679231
Pd  Pd45  1  0.61153000  0.76516000  0.45491000  1.0 0.1797933613
Pd  Pd46  1  0.08303000  0.45586000  0.42499000  1.0 0.1797933613
Pd  Pd47  1  0.24153000  0.59866000  0.55071000  1.0 0.1395655519
Pd  Pd48  1  0.23163000  0.79886000  0.40209000  1.0 0.1500228789
Pd  Pd49  1  0.09177000  0.02346000  0.77964000  1.0 0.1712933268
Pd  Pd50  1  0.13230000  0.89833000  0.92907000  1.0 0.191083643
Pd  Pd51  1  0.17893000  0.90158000  0.87606000  1.0 0.1712933268
Pd  Pd52  1  0.25074000  0.03987000  0.90585000  1.0 0.1797933613
Pd  Pd53  1  0.26966000  0.14647000  0.09208000  1.0 0.1500228789
Pd  Pd54  1  0.76120000  0.39420000  0.88425000  1.0 0.1500228789
Pd  Pd55  1  0.92105000  0.35274000  0.78871000  1.0 0.1797933613
Pd  Pd56  1  0.00336000  0.20308000  0.06885000  1.0 0.1797933613
Pd  Pd57  1  0.03130000  0.93880000  0.78000000  1.0 0.1620679231
Pd  Pd58  1  0.12010000  0.85100000  0.90650000  1.0 0.1797933613
Pd  Pd59  1  0.23170000  0.97730000  0.87560000  1.0 0.1712933268
Pd  Pd60  1  0.20180000  0.00080000  0.92920000  1.0 0.1395655519
Pd  Pd61  1  0.82030000  0.72180000  0.12158000  1.0 0.1797933613
Pd  Pd62  1  0.03950000  0.25030000  0.09166000  1.0 0.1712933268
Pd  Pd63  1  0.02380000  0.09180000  0.21738000  1.0 0.1395655519
Pd  Pd64  1  0.23390000  0.10170000  0.06876000  1.0 0.1395655519
Pd  Pd65  1  0.75844000  0.35680000  0.44631000  1.0 0.1712933268
Pd  Pd66  1  0.79897000  0.23167000  0.59574000  1.0 0.191083643
Pd  Pd67  1  0.84560000  0.23492000  0.54273000  1.0 0.1712933268
Pd  Pd68  1  0.91741000  0.37321000  0.57252000  1.0 0.1797933613
Pd  Pd69  1  0.93633000  0.47981000  0.75875000  1.0 0.1500228789
Pd  Pd70  1  0.42787000  0.72754000  0.55092000  1.0 0.1500228789
Pd  Pd71  1  0.58772000  0.68608000  0.45538000  1.0 0.1797933613
Pd  Pd72  1  0.67003000  0.53642000  0.73552000  1.0 0.1797933613
Pd  Pd73  1  0.69797000  0.27214000  0.44667000  1.0 0.1620679231
Pd  Pd74  1  0.78677000  0.18434000  0.57317000  1.0 0.1712933268
Pd  Pd75  1  0.89837000  0.31064000  0.54227000  1.0 0.1712933268
Pd  Pd76  1  0.86847000  0.33414000  0.59587000  1.0 0.1395655519
Pd  Pd77  1  0.48697000  0.05514000  0.78825000  1.0 0.1797933613
Pd  Pd78  1  0.70617000  0.58364000  0.75833000  1.0 0.1712933268
Pd  Pd79  1  0.69047000  0.42514000  0.88405000  1.0 0.1395655519
Pd  Pd80  1  0.90057000  0.43504000  0.73543000  1.0 0.1395655519
Pd  Pd81  1  0.42510000  0.69012000  0.11297000  1.0 0.1712933268
Pd  Pd82  1  0.46563000  0.56499000  0.26240000  1.0 0.191083643
Pd  Pd83  1  0.51226000  0.56824000  0.20939000  1.0 0.1712933268
Pd  Pd84  1  0.58407000  0.70653000  0.23918000  1.0 0.1797933613
Pd  Pd85  1  0.60299000  0.81313000  0.42541000  1.0 0.1500228789
Pd  Pd86  1  0.09453000  0.06086000  0.21758000  1.0 0.1500228789
Pd  Pd87  1  0.25438000  0.01940000  0.12204000  1.0 0.1797933613
Pd  Pd88  1  0.33669000  0.86974000  0.40218000  1.0 0.1797933613
Pd  Pd89  1  0.36463000  0.60546000  0.11333000  1.0 0.1620679231
Pd  Pd90  1  0.45343000  0.51766000  0.23983000  1.0 0.1712933268
Pd  Pd91  1  0.56503000  0.64396000  0.20893000  1.0 0.1712933268
Pd  Pd92  1  0.53513000  0.66746000  0.26253000  1.0 0.1395655519
Pd  Pd93  1  0.15363000  0.38846000  0.45491000  1.0 0.1797933613
Pd  Pd94  1  0.37283000  0.91696000  0.42499000  1.0 0.1797933613
Pd  Pd95  1  0.35713000  0.75846000  0.55071000  1.0 0.1395655519
Pd  Pd96  1  0.56723000  0.76836000  0.40209000  1.0 0.1395655519
Pd  Pd97  1  0.93169000  0.90823000  0.77964000  1.0 0.1712933268
Pd  Pd98  1  0.76603000  0.86770000  0.92907000  1.0 0.191083643
Pd  Pd99  1  0.72265000  0.82107000  0.87606000  1.0 0.1712933268
Pd  Pd100  1  0.78913000  0.74926000  0.90585000  1.0 0.1797933613
Pd  Pd101  1  0.87681000  0.73034000  0.09208000  1.0 0.1500228789
Pd  Pd102  1  0.63300000  0.23880000  0.88425000  1.0 0.1500228789
Pd  Pd103  1  0.43169000  0.07895000  0.78871000  1.0 0.1797933613
Pd  Pd104  1  0.19972000  0.99664000  0.06885000  1.0 0.1797933613
Pd  Pd105  1  0.90750000  0.96870000  0.78000000  1.0 0.1712933268
Pd  Pd106  1  0.73090000  0.87990000  0.90650000  1.0 0.1797933613
Pd  Pd107  1  0.74560000  0.76830000  0.87560000  1.0 0.1712933268
Pd  Pd108  1  0.79900000  0.79820000  0.92920000  1.0 0.1395655519
Pd  Pd109  1  0.90150000  0.17970000  0.12158000  1.0 0.1797933613
Pd  Pd110  1  0.21080000  0.96050000  0.09166000  1.0 0.1712933268
Pd  Pd111  1  0.06800000  0.97620000  0.21738000  1.0 0.1395655519
Pd  Pd112  1  0.86780000  0.76610000  0.06876000  1.0 0.1395655519
Pd  Pd113  1  0.59836000  0.24157000  0.44631000  1.0 0.1712933268
Pd  Pd114  1  0.43270000  0.20104000  0.59574000  1.0 0.191083643
Pd  Pd115  1  0.38932000  0.15441000  0.54273000  1.0 0.1712933268
Pd  Pd116  1  0.45580000  0.08260000  0.57252000  1.0 0.1712933268
Pd  Pd117  1  0.54348000  0.06368000  0.75875000  1.0 0.1500228789
Pd  Pd118  1  0.29967000  0.57214000  0.55092000  1.0 0.1500228789
Pd  Pd119  1  0.09836000  0.41229000  0.45538000  1.0 0.1797933613
Pd  Pd120  1  0.86639000  0.32998000  0.73552000  1.0 0.1797933613
Pd  Pd121  1  0.57417000  0.30204000  0.44667000  1.0 0.1620679231
Pd  Pd122  1  0.39757000  0.21324000  0.57317000  1.0 0.1797933613
Pd  Pd123  1  0.41227000  0.10164000  0.54227000  1.0 0.1712933268
Pd  Pd124  1  0.46567000  0.13154000  0.59587000  1.0 0.1395655519
Pd  Pd125  1  0.56817000  0.51304000  0.78825000  1.0 0.1797933613
Pd  Pd126  1  0.87747000  0.29384000  0.75833000  1.0 0.1712933268
Pd  Pd127  1  0.73467000  0.30954000  0.88405000  1.0 0.1395655519
Pd  Pd128  1  0.53447000  0.09944000  0.73543000  1.0 0.1395655519
Pd  Pd129  1  0.26502000  0.57489000  0.11297000  1.0 0.1712933268
Pd  Pd130  1  0.09936000  0.53436000  0.26240000  1.0 0.191083643
Pd  Pd131  1  0.05598000  0.48773000  0.20939000  1.0 0.1712933268
Pd  Pd132  1  0.12246000  0.41592000  0.23918000  1.0 0.1797933613
Pd  Pd133  1  0.21014000  0.39700000  0.42541000  1.0 0.1500228789
Pd  Pd134  1  0.96633000  0.90546000  0.21758000  1.0 0.1500228789
Pd  Pd135  1  0.76502000  0.74561000  0.12204000  1.0 0.1797933613
Pd  Pd136  1  0.53305000  0.66330000  0.40218000  1.0 0.1797933613
Pd  Pd137  1  0.24083000  0.63536000  0.11333000  1.0 0.1620679231
Pd  Pd138  1  0.06423000  0.54656000  0.23983000  1.0 0.1797933613
Pd  Pd139  1  0.07893000  0.43496000  0.20893000  1.0 0.1712933268
Pd  Pd140  1  0.13233000  0.46486000  0.26253000  1.0 0.1395655519
Pd  Pd141  1  0.23483000  0.84636000  0.45491000  1.0 0.1797933613
Pd  Pd142  1  0.54413000  0.62716000  0.42499000  1.0 0.1712933268
Pd  Pd143  1  0.40133000  0.64286000  0.55071000  1.0 0.1395655519
Pd  Pd144  1  0.20113000  0.43276000  0.40209000  1.0 0.1500228789
C  C1  1  0.21420000  0.37230000  0.90810000  1.0 -0.1312350695
C  C2  1  0.23020000  0.43010000  0.89070000  1.0 -0.1487886894
C  C3  1  0.23420000  0.39700000  0.93350000  1.0 -0.2200345489
C  C4  1  0.99920000  0.33530000  0.87570000  1.0 -0.0984381228
C  C5  1  0.05700000  0.40130000  0.86450000  1.0 -0.2303251119
C  C6  1  0.94750000  0.34690000  0.88930000  1.0 -0.2200345489
C  C7  1  0.00440000  0.26760000  0.95620000  1.0 -0.1092745217
C  C8  1  0.94880000  0.28740000  0.95440000  1.0 -0.17137269
C  C9  1  0.06440000  0.31420000  0.97240000  1.0 -0.1998140443
C  C10  1  0.97450000  0.15020000  0.81810000  1.0 0.0294904124
C  C11  1  0.99270000  0.19280000  0.83690000  1.0 0.0797246828
C  C12  1  0.89920000  0.10560000  0.80950000  1.0 0.0901167993
C  C13  1  0.10280000  0.21620000  0.83200000  1.0 0.0216694383
C  C14  1  0.08730000  0.17970000  0.81180000  1.0 0.0901167993
C  C15  1  0.17470000  0.24520000  0.84430000  1.0 0.0294904124
C  C16  1  0.14800000  0.13930000  0.93840000  1.0 0.0402604667
C  C17  1  0.17460000  0.09640000  0.93680000  1.0 0.0703928188
C  C18  1  0.09000000  0.12400000  0.95650000  1.0 0.0216694383
C  C19  1  0.23340000  0.15850000  0.90430000  1.0 -0.008051598
C  C20  1  0.21140000  0.20470000  0.90720000  1.0 0.0797246828
C  C21  1  0.27510000  0.16020000  0.88190000  1.0 0.0216694383
C  C22  1  0.83900000  0.94200000  0.05920000  1.0 0.0402604667
C  C23  1  0.84990000  0.00720000  0.06040000  1.0 0.0797246828
C  C24  1  0.87630000  0.91880000  0.04120000  1.0 0.0402604667
C  C25  1  0.78300000  0.97650000  0.09370000  1.0 -0.008051598
C  C26  1  0.76800000  0.90980000  0.09180000  1.0 0.100046815
C  C27  1  0.76060000  0.00210000  0.11560000  1.0 0.0797246828
C  C28  1  0.84270000  0.23270000  0.12260000  1.0 -0.0687915306
C  C29  1  0.77290000  0.21000000  0.11160000  1.0 -0.17137269
C  C30  1  0.88000000  0.30440000  0.13330000  1.0 -0.17137269
C  C31  1  0.06720000  0.35170000  0.08630000  1.0 -0.1312350695
C  C32  1  0.06660000  0.40120000  0.10440000  1.0 -0.1487886894
C  C33  1  0.07600000  0.37700000  0.06110000  1.0 -0.2303251119
C  C34  1  0.87390000  0.18340000  0.04170000  1.0 -0.0582007132
C  C35  1  0.92300000  0.24100000  0.02510000  1.0 -0.1892162569
C  C36  1  0.80230000  0.17500000  0.04370000  1.0 -0.2752716692
C  C37  1  0.56370000  0.42210000  0.84630000  1.0 -0.008051598
C  C38  1  0.56340000  0.46160000  0.82840000  1.0 0.0797246828
C  C39  1  0.49850000  0.35660000  0.85570000  1.0 0.0703928188
C  C40  1  0.68040000  0.52640000  0.83230000  1.0 0.051198672
C  C41  1  0.68050000  0.49390000  0.85240000  1.0 0.0797246828
C  C42  1  0.74960000  0.58090000  0.82060000  1.0 0.0216694383
C  C43  1  0.71750000  0.47600000  0.91720000  1.0 -0.020302094
C  C44  1  0.65950000  0.48040000  0.92940000  1.0 -0.3196586323
C  C45  1  0.77930000  0.49440000  0.93290000  1.0 -0.2103209194
C  C46  1  0.63900000  0.19780000  0.91550000  1.0 -0.0802373651
C  C47  1  0.70300000  0.20900000  0.92880000  1.0 -0.2103209194
C  C48  1  0.57300000  0.16400000  0.92960000  1.0 -0.3069441469
C  C49  1  0.10500000  0.13940000  0.74720000  1.0 -0.0984381228
C  C50  1  0.16310000  0.13250000  0.73600000  1.0 -0.1487886894
C  C51  1  0.06800000  0.16670000  0.73200000  1.0 -0.4016604044
C  C52  1  0.94300000  0.08410000  0.74910000  1.0 -0.020302094
C  C53  1  0.99300000  0.16100000  0.75100000  1.0 -0.3903176778
C  C54  1  0.91600000  0.05600000  0.72460000  1.0 -0.17137269
C  C55  1  0.15500000  0.38000000  0.87330000  1.0 -0.0892334925
C  C56  1  0.22900000  0.39500000  0.87400000  1.0 -0.1998140443
C  C57  1  0.14100000  0.43900000  0.87200000  1.0 -0.2200345489
C  C58  1  0.93100000  0.26900000  0.91310000  1.0 -0.1092745217
C  C59  1  0.93100000  0.33100000  0.90220000  1.0 -0.248636106
C  C60  1  0.91400000  0.25700000  0.93920000  1.0 -0.2200345489
C  C61  1  0.14600000  0.30600000  0.95010000  1.0 -0.1207617319
C  C62  1  0.11600000  0.29700000  0.97460000  1.0 -0.1487886894
C  C63  1  0.21100000  0.37400000  0.94560000  1.0 -0.2200345489
C  C64  1  0.09800000  0.19300000  0.81760000  1.0 0.0216694383
C  C65  1  0.09800000  0.22000000  0.83890000  1.0 0.0797246828
C  C66  1  0.16300000  0.19300000  0.80800000  1.0 0.051198672
C  C67  1  0.98500000  0.18600000  0.83180000  1.0 0.0216694383
C  C68  1  0.98400000  0.15700000  0.81080000  1.0 0.100046815
C  C69  1  0.91600000  0.16300000  0.84570000  1.0 0.0797246828
C  C70  1  0.88900000  0.06100000  0.94260000  1.0 0.008008629
C  C71  1  0.85200000  0.99300000  0.93700000  1.0 0.0703928188
C  C72  1  0.95200000  0.09300000  0.96000000  1.0 -0.0027961274
C  C73  1  0.81600000  0.02400000  0.90380000  1.0 0.051198672
C  C74  1  0.85800000  0.09200000  0.90840000  1.0 0.0605335431
C  C75  1  0.76900000  0.99900000  0.88170000  1.0 0.0402604667
C  C76  1  0.78680000  0.16100000  0.08840000  1.0 -0.1092745217
C  C77  1  0.77000000  0.20600000  0.10410000  1.0 -0.1606220332
C  C78  1  0.76200000  0.15200000  0.06330000  1.0 -0.248636106
C  C79  1  0.98600000  0.33820000  0.12260000  1.0 -0.0582007132
C  C80  1  0.92600000  0.35300000  0.12260000  1.0 -0.2103209194
C  C81  1  0.05800000  0.39700000  0.11730000  1.0 -0.2103209194
C  C82  1  0.99600000  0.26300000  0.04130000  1.0 -0.0802373651
C  C83  1  0.04200000  0.34200000  0.04250000  1.0 -0.2853669211
C  C84  1  0.94000000  0.23900000  0.02250000  1.0 -0.1892162569
C  C85  1  0.91600000  0.03480000  0.04190000  1.0 0.051198672
C  C86  1  0.85700000  0.98900000  0.05940000  1.0 0.0216694383
C  C87  1  0.83000000  0.92000000  0.06160000  1.0 0.0901167993
C  C88  1  0.76600000  0.92400000  0.09290000  1.0 0.0294904124
C  C89  1  0.79200000  0.99300000  0.09000000  1.0 0.0797246828
C  C90  1  0.72300000  0.88500000  0.11500000  1.0 0.0402604667
C  C91  1  0.56500000  0.45000000  0.83220000  1.0 0.051198672
C  C92  1  0.57900000  0.42600000  0.85220000  1.0 0.0797246828
C  C93  1  0.49170000  0.41040000  0.82100000  1.0 0.0703928188
C  C94  1  0.69180000  0.50740000  0.84610000  1.0 0.008008629
C  C95  1  0.67620000  0.53340000  0.82690000  1.0 0.0901167993
C  C96  1  0.76660000  0.53340000  0.85510000  1.0 0.0797246828
C  C97  1  0.88087000  0.70564000  0.57477000  1.0 -0.1487886894
C  C98  1  0.89687000  0.76344000  0.55737000  1.0 -0.1606220332
C  C99  1  0.90087000  0.73034000  0.60017000  1.0 -0.2200345489
C  C100  1  0.66587000  0.66864000  0.54237000  1.0 -0.1312350695
C  C101  1  0.72367000  0.73464000  0.53117000  1.0 -0.2400661987
C  C102  1  0.61417000  0.68024000  0.55597000  1.0 -0.2200345489
C  C103  1  0.67107000  0.60094000  0.62287000  1.0 -0.1398900029
C  C104  1  0.61547000  0.62074000  0.62107000  1.0 -0.1808424059
C  C105  1  0.73107000  0.64754000  0.63907000  1.0 -0.2103209194
C  C106  1  0.64117000  0.48354000  0.48477000  1.0 0.0294904124
C  C107  1  0.65937000  0.52614000  0.50357000  1.0 0.0797246828
C  C108  1  0.56587000  0.43894000  0.47617000  1.0 0.0901167993
C  C109  1  0.76947000  0.54954000  0.49867000  1.0 0.0216694383
C  C110  1  0.75397000  0.51304000  0.47847000  1.0 0.0901167993
C  C111  1  0.84137000  0.57854000  0.51097000  1.0 0.0294904124
C  C112  1  0.81467000  0.47264000  0.60507000  1.0 0.0402604667
C  C113  1  0.84127000  0.42974000  0.60347000  1.0 0.0703928188
C  C114  1  0.75667000  0.45734000  0.62317000  1.0 0.0216694383
C  C115  1  0.90007000  0.49184000  0.57097000  1.0 -0.008051598
C  C116  1  0.87807000  0.53804000  0.57387000  1.0 0.0797246828
C  C117  1  0.94177000  0.49354000  0.54857000  1.0 0.0216694383
C  C118  1  0.50567000  0.27534000  0.72587000  1.0 0.0402604667
C  C119  1  0.51657000  0.34054000  0.72707000  1.0 0.0797246828
C  C120  1  0.54297000  0.25214000  0.70787000  1.0 0.0402604667
C  C121  1  0.44967000  0.30984000  0.76037000  1.0 -0.008051598
C  C122  1  0.43467000  0.24314000  0.75847000  1.0 0.100046815
C  C123  1  0.42727000  0.33544000  0.78227000  1.0 0.0797246828
C  C124  1  0.50937000  0.56604000  0.78927000  1.0 -0.0687915306
C  C125  1  0.43957000  0.54334000  0.77827000  1.0 -0.17137269
C  C126  1  0.54667000  0.63774000  0.79997000  1.0 -0.17137269
C  C127  1  0.73387000  0.68504000  0.75297000  1.0 -0.1312350695
C  C128  1  0.73327000  0.73454000  0.77107000  1.0 -0.1487886894
C  C129  1  0.74267000  0.71034000  0.72777000  1.0 -0.2303251119
C  C130  1  0.54057000  0.51674000  0.70837000  1.0 -0.0582007132
C  C131  1  0.58967000  0.57434000  0.69177000  1.0 -0.1892162569
C  C132  1  0.46897000  0.50834000  0.71037000  1.0 -0.2752716692
C  C133  1  0.23037000  0.75544000  0.51297000  1.0 -0.008051598
C  C134  1  0.23007000  0.79494000  0.49507000  1.0 0.0797246828
C  C135  1  0.16517000  0.68994000  0.52237000  1.0 0.0703928188
C  C136  1  0.34707000  0.85974000  0.49897000  1.0 0.051198672
C  C137  1  0.34717000  0.82724000  0.51907000  1.0 0.0797246828
C  C138  1  0.41627000  0.91424000  0.48727000  1.0 0.0216694383
C  C139  1  0.38417000  0.80934000  0.58387000  1.0 -0.020302094
C  C140  1  0.32617000  0.81374000  0.59607000  1.0 -0.3196586323
C  C141  1  0.44597000  0.82774000  0.59957000  1.0 -0.2103209194
C  C142  1  0.30567000  0.53114000  0.58217000  1.0 -0.0802373651
C  C143  1  0.36967000  0.54234000  0.59547000  1.0 -0.2103209194
C  C144  1  0.23967000  0.49734000  0.59627000  1.0 -0.3069441469
C  C145  1  0.77167000  0.47274000  0.41387000  1.0 -0.0984381228
C  C146  1  0.82977000  0.46584000  0.40267000  1.0 -0.1487886894
C  C147  1  0.73467000  0.50004000  0.39867000  1.0 -0.4016604044
C  C148  1  0.60967000  0.41744000  0.41577000  1.0 -0.020302094
C  C149  1  0.65967000  0.49434000  0.41767000  1.0 -0.3903176778
C  C150  1  0.58267000  0.38934000  0.39127000  1.0 -0.17137269
C  C151  1  0.82167000  0.71334000  0.53997000  1.0 -0.1207617319
C  C152  1  0.89567000  0.72834000  0.54067000  1.0 -0.1998140443
C  C153  1  0.80767000  0.77234000  0.53867000  1.0 -0.2303251119
C  C154  1  0.59767000  0.60234000  0.57977000  1.0 -0.1312350695
C  C155  1  0.59767000  0.66434000  0.56887000  1.0 -0.248636106
C  C156  1  0.58067000  0.59034000  0.60587000  1.0 -0.2303251119
C  C157  1  0.81267000  0.63934000  0.61677000  1.0 -0.1398900029
C  C158  1  0.78267000  0.63034000  0.64127000  1.0 -0.1606220332
C  C159  1  0.87767000  0.70734000  0.61227000  1.0 -0.2200345489
C  C160  1  0.76467000  0.52634000  0.48427000  1.0 0.0216694383
C  C161  1  0.76467000  0.55334000  0.50557000  1.0 0.0797246828
C  C162  1  0.82967000  0.52634000  0.47467000  1.0 0.051198672
C  C163  1  0.65167000  0.51934000  0.49847000  1.0 0.0216694383
C  C164  1  0.65067000  0.49034000  0.47747000  1.0 0.100046815
C  C165  1  0.58267000  0.49634000  0.51237000  1.0 0.0797246828
C  C166  1  0.55567000  0.39434000  0.60927000  1.0 0.008008629
C  C167  1  0.51867000  0.32634000  0.60367000  1.0 0.0605335431
C  C168  1  0.61867000  0.42634000  0.62667000  1.0 -0.0027961274
C  C169  1  0.48267000  0.35734000  0.57047000  1.0 0.051198672
C  C170  1  0.52467000  0.42534000  0.57507000  1.0 0.0605335431
C  C171  1  0.43567000  0.33234000  0.54837000  1.0 0.0294904124
C  C172  1  0.45347000  0.49434000  0.75507000  1.0 -0.1092745217
C  C173  1  0.43667000  0.53934000  0.77077000  1.0 -0.1606220332
C  C174  1  0.42867000  0.48534000  0.72997000  1.0 -0.248636106
C  C175  1  0.65267000  0.67154000  0.78927000  1.0 -0.0582007132
C  C176  1  0.59267000  0.68634000  0.78927000  1.0 -0.2103209194
C  C177  1  0.72467000  0.73034000  0.78397000  1.0 -0.2103209194
C  C178  1  0.66267000  0.59634000  0.70797000  1.0 -0.0802373651
C  C179  1  0.70867000  0.67534000  0.70917000  1.0 -0.2853669211
C  C180  1  0.60667000  0.57234000  0.68917000  1.0 -0.1892162569
C  C181  1  0.58267000  0.36814000  0.70857000  1.0 0.051198672
C  C182  1  0.52367000  0.32234000  0.72607000  1.0 0.0216694383
C  C183  1  0.49667000  0.25334000  0.72827000  1.0 0.0901167993
C  C184  1  0.43267000  0.25734000  0.75957000  1.0 0.0294904124
C  C185  1  0.45867000  0.32634000  0.75667000  1.0 0.0797246828
C  C186  1  0.38967000  0.21834000  0.78167000  1.0 0.0402604667
C  C187  1  0.23167000  0.78334000  0.49887000  1.0 0.051198672
C  C188  1  0.24567000  0.75934000  0.51887000  1.0 0.0797246828
C  C189  1  0.15837000  0.74374000  0.48767000  1.0 0.0703928188
C  C190  1  0.35847000  0.84074000  0.51277000  1.0 0.008008629
C  C191  1  0.34287000  0.86674000  0.49357000  1.0 0.0901167993
C  C192  1  0.43327000  0.86674000  0.52177000  1.0 0.0797246828
C  C193  1  0.54753000  0.03896000  0.24143000  1.0 -0.1487886894
C  C194  1  0.56353000  0.09676000  0.22403000  1.0 -0.1606220332
C  C195  1  0.56753000  0.06366000  0.26683000  1.0 -0.2200345489
C  C196  1  0.33253000  0.00196000  0.20903000  1.0 -0.1207617319
C  C197  1  0.39033000  0.06796000  0.19783000  1.0 -0.2400661987
C  C198  1  0.28083000  0.01356000  0.22263000  1.0 -0.2200345489
C  C199  1  0.33773000  0.93426000  0.28953000  1.0 -0.1398900029
C  C200  1  0.28213000  0.95406000  0.28773000  1.0 -0.1808424059
C  C201  1  0.39773000  0.98086000  0.30573000  1.0 -0.2103209194
C  C202  1  0.30783000  0.81686000  0.15143000  1.0 0.0294904124
C  C203  1  0.32603000  0.85946000  0.17023000  1.0 0.0797246828
C  C204  1  0.23253000  0.77226000  0.14283000  1.0 0.0901167993
C  C205  1  0.43613000  0.88286000  0.16533000  1.0 0.0216694383
C  C206  1  0.42063000  0.84636000  0.14513000  1.0 0.0901167993
C  C207  1  0.50803000  0.91186000  0.17763000  1.0 0.0294904124
C  C208  1  0.48133000  0.80596000  0.27173000  1.0 0.0402604667
C  C209  1  0.50793000  0.76306000  0.27013000  1.0 0.0703928188
C  C210  1  0.42333000  0.79066000  0.28983000  1.0 0.0216694383
C  C211  1  0.56673000  0.82516000  0.23763000  1.0 -0.008051598
C  C212  1  0.54473000  0.87136000  0.24053000  1.0 0.0797246828
C  C213  1  0.60843000  0.82686000  0.21523000  1.0 0.0216694383
C  C214  1  0.17233000  0.60866000  0.39253000  1.0 0.0402604667
C  C215  1  0.18323000  0.67386000  0.39373000  1.0 0.0797246828
C  C216  1  0.20963000  0.58546000  0.37453000  1.0 0.0402604667
C  C217  1  0.11633000  0.64316000  0.42703000  1.0 -0.008051598
C  C218  1  0.10133000  0.57646000  0.42513000  1.0 0.100046815
C  C219  1  0.09393000  0.66876000  0.44893000  1.0 0.0797246828
C  C220  1  0.17603000  0.89936000  0.45593000  1.0 -0.0687915306
C  C221  1  0.10623000  0.87666000  0.44493000  1.0 -0.17137269
C  C222  1  0.21333000  0.97106000  0.46663000  1.0 -0.17137269
C  C223  1  0.40053000  0.01836000  0.41963000  1.0 -0.1312350695
C  C224  1  0.39993000  0.06786000  0.43773000  1.0 -0.1487886894
C  C225  1  0.40933000  0.04366000  0.39443000  1.0 -0.2303251119
C  C226  1  0.20723000  0.85006000  0.37503000  1.0 -0.0582007132
C  C227  1  0.25633000  0.90766000  0.35843000  1.0 -0.1892162569
C  C228  1  0.13563000  0.84166000  0.37703000  1.0 -0.2752716692
C  C229  1  0.89703000  0.08876000  0.17963000  1.0 -0.008051598
C  C230  1  0.89673000  0.12826000  0.16173000  1.0 0.0797246828
C  C231  1  0.83183000  0.02326000  0.18903000  1.0 0.0703928188
C  C232  1  0.01373000  0.19306000  0.16563000  1.0 0.051198672
C  C233  1  0.01383000  0.16056000  0.18573000  1.0 0.0797246828
C  C234  1  0.08293000  0.24756000  0.15393000  1.0 0.0216694383
C  C235  1  0.05083000  0.14266000  0.25053000  1.0 -0.020302094
C  C236  1  0.99283000  0.14706000  0.26273000  1.0 -0.3196586323
C  C237  1  0.11263000  0.16106000  0.26623000  1.0 -0.2103209194
C  C238  1  0.97233000  0.86446000  0.24883000  1.0 -0.0802373651
C  C239  1  0.03633000  0.87566000  0.26213000  1.0 -0.2103209194
C  C240  1  0.90633000  0.83066000  0.26293000  1.0 -0.3069441469
C  C241  1  0.43833000  0.80606000  0.08053000  1.0 -0.0984381228
C  C242  1  0.49643000  0.79916000  0.06933000  1.0 -0.1487886894
C  C243  1  0.40133000  0.83336000  0.06533000  1.0 -0.4016604044
C  C244  1  0.27633000  0.75076000  0.08243000  1.0 -0.020302094
C  C245  1  0.32633000  0.82766000  0.08433000  1.0 -0.3903176778
C  C246  1  0.24933000  0.72266000  0.05793000  1.0 -0.17137269
C  C247  1  0.48833000  0.04666000  0.20663000  1.0 -0.1207617319
C  C248  1  0.56233000  0.06166000  0.20733000  1.0 -0.1998140443
C  C249  1  0.47433000  0.10566000  0.20533000  1.0 -0.2303251119
C  C250  1  0.26433000  0.93566000  0.24643000  1.0 -0.1312350695
C  C251  1  0.26433000  0.99766000  0.23553000  1.0 -0.248636106
C  C252  1  0.24733000  0.92366000  0.27253000  1.0 -0.2303251119
C  C253  1  0.47933000  0.97266000  0.28343000  1.0 -0.1398900029
C  C254  1  0.44933000  0.96366000  0.30793000  1.0 -0.1606220332
C  C255  1  0.54433000  0.04066000  0.27893000  1.0 -0.2200345489
C  C256  1  0.43133000  0.85966000  0.15093000  1.0 0.0216694383
C  C257  1  0.43133000  0.88666000  0.17223000  1.0 0.0797246828
C  C258  1  0.49633000  0.85966000  0.14133000  1.0 0.051198672
C  C259  1  0.31833000  0.85266000  0.16513000  1.0 0.0216694383
C  C260  1  0.31733000  0.82366000  0.14413000  1.0 0.100046815
C  C261  1  0.24933000  0.82966000  0.17903000  1.0 0.0797246828
C  C262  1  0.22233000  0.72766000  0.27593000  1.0 0.008008629
C  C263  1  0.18533000  0.65966000  0.27033000  1.0 0.0703928188
C  C264  1  0.28533000  0.75966000  0.29333000  1.0 -0.0027961274
C  C265  1  0.14933000  0.69066000  0.23713000  1.0 0.051198672
C  C266  1  0.19133000  0.75866000  0.24173000  1.0 0.0605335431
C  C267  1  0.10233000  0.66566000  0.21503000  1.0 0.0294904124
C  C268  1  0.12013000  0.82766000  0.42173000  1.0 -0.1092745217
C  C269  1  0.10333000  0.87266000  0.43743000  1.0 -0.1606220332
C  C270  1  0.09533000  0.81866000  0.39663000  1.0 -0.248636106
C  C271  1  0.31933000  0.00486000  0.45593000  1.0 -0.0582007132
C  C272  1  0.25933000  0.01966000  0.45593000  1.0 -0.2103209194
C  C273  1  0.39133000  0.06366000  0.45063000  1.0 -0.2103209194
C  C274  1  0.32933000  0.92966000  0.37463000  1.0 -0.0802373651
C  C275  1  0.37533000  0.00866000  0.37583000  1.0 -0.2853669211
C  C276  1  0.27333000  0.90566000  0.35583000  1.0 -0.1892162569
C  C277  1  0.24933000  0.70146000  0.37523000  1.0 0.051198672
C  C278  1  0.19033000  0.65566000  0.39273000  1.0 0.0216694383
C  C279  1  0.16333000  0.58666000  0.39493000  1.0 0.0901167993
C  C280  1  0.09933000  0.59066000  0.42623000  1.0 0.0294904124
C  C281  1  0.12533000  0.65966000  0.42333000  1.0 0.0797246828
C  C282  1  0.05633000  0.55166000  0.44833000  1.0 0.0402604667
C  C283  1  0.89833000  0.11666000  0.16553000  1.0 0.051198672
C  C284  1  0.91233000  0.09266000  0.18553000  1.0 0.0797246828
C  C285  1  0.82503000  0.07706000  0.15433000  1.0 0.0703928188
C  C286  1  0.02513000  0.17406000  0.17943000  1.0 0.008008629
C  C287  1  0.00953000  0.20006000  0.16023000  1.0 0.0901167993
C  C288  1  0.09993000  0.20006000  0.18843000  1.0 0.0797246828
C  C289  1  0.15810000  0.78580000  0.90810000  1.0 -0.1312350695
C  C290  1  0.19990000  0.76980000  0.89070000  1.0 -0.1487886894
C  C291  1  0.16280000  0.76580000  0.93350000  1.0 -0.2200345489
C  C292  1  0.33610000  0.00080000  0.87570000  1.0 -0.0984381228
C  C293  1  0.34430000  0.94300000  0.86450000  1.0 -0.2303251119
C  C294  1  0.39940000  0.05250000  0.88930000  1.0 -0.2200345489
C  C295  1  0.26320000  0.99560000  0.95620000  1.0 -0.1092745217
C  C296  1  0.33860000  0.05120000  0.95440000  1.0 -0.17137269
C  C297  1  0.24980000  0.93560000  0.97240000  1.0 -0.1998140443
C  C298  1  0.17570000  0.02550000  0.81810000  1.0 0.0294904124
C  C299  1  0.20010000  0.00730000  0.83690000  1.0 0.0797246828
C  C300  1  0.20640000  0.10080000  0.80950000  1.0 0.0901167993
C  C301  1  0.11340000  0.89720000  0.83200000  1.0 0.0216694383
C  C302  1  0.09240000  0.91270000  0.81180000  1.0 0.0901167993
C  C303  1  0.07050000  0.82530000  0.84430000  1.0 0.0294904124
C  C304  1  0.99130000  0.85200000  0.93840000  1.0 0.0402604667
C  C305  1  0.92180000  0.82540000  0.93680000  1.0 0.0703928188
C  C306  1  0.03400000  0.91000000  0.95650000  1.0 0.0216694383
C  C307  1  0.92510000  0.76660000  0.90430000  1.0 -0.0027961274
C  C308  1  0.99330000  0.78860000  0.90720000  1.0 0.0797246828
C  C309  1  0.88510000  0.72490000  0.88190000  1.0 0.0216694383
C  C310  1  0.10300000  0.16100000  0.05920000  1.0 0.0402604667
C  C311  1  0.15730000  0.15010000  0.06040000  1.0 0.0797246828
C  C312  1  0.04250000  0.12370000  0.04120000  1.0 0.0402604667
C  C313  1  0.19350000  0.21700000  0.09370000  1.0 -0.008051598
C  C314  1  0.14180000  0.23200000  0.09180000  1.0 0.100046815
C  C315  1  0.24150000  0.23940000  0.11560000  1.0 0.0797246828
C  C316  1  0.39000000  0.15730000  0.12260000  1.0 -0.0687915306
C  C317  1  0.43710000  0.22710000  0.11160000  1.0 -0.17137269
C  C318  1  0.42440000  0.12000000  0.13330000  1.0 -0.17137269
C  C319  1  0.28450000  0.93280000  0.08630000  1.0 -0.1312350695
C  C320  1  0.33460000  0.93340000  0.10440000  1.0 -0.1487886894
C  C321  1  0.30100000  0.92400000  0.06110000  1.0 -0.2303251119
C  C322  1  0.30950000  0.12610000  0.04170000  1.0 -0.0582007132
C  C323  1  0.31800000  0.07700000  0.02510000  1.0 -0.1892162569
C  C324  1  0.37270000  0.19770000  0.04370000  1.0 -0.2752716692
C  C325  1  0.85840000  0.43630000  0.84630000  1.0 -0.008051598
C  C326  1  0.89820000  0.43660000  0.82840000  1.0 0.0797246828
C  C327  1  0.85810000  0.50150000  0.85570000  1.0 0.0703928188
C  C328  1  0.84600000  0.31960000  0.83230000  1.0 0.051198672
C  C329  1  0.81340000  0.31950000  0.85240000  1.0 0.0797246828
C  C330  1  0.83130000  0.25040000  0.82060000  1.0 0.0216694383
C  C331  1  0.75850000  0.28250000  0.91720000  1.0 -0.020302094
C  C332  1  0.82090000  0.34050000  0.92940000  1.0 -0.3196586323
C  C333  1  0.71510000  0.22070000  0.93290000  1.0 -0.2103209194
C  C334  1  0.55880000  0.36100000  0.91550000  1.0 -0.0802373651
C  C335  1  0.50600000  0.29700000  0.92880000  1.0 -0.2103209194
C  C336  1  0.59100000  0.42700000  0.92960000  1.0 -0.3069441469
C  C337  1  0.03440000  0.89500000  0.74720000  1.0 -0.0984381228
C  C338  1  0.96940000  0.83690000  0.73600000  1.0 -0.1487886894
C  C339  1  0.09870000  0.93200000  0.73200000  1.0 -0.4016604044
C  C340  1  0.14110000  0.05700000  0.74910000  1.0 -0.020302094
C  C341  1  0.16800000  0.00700000  0.75100000  1.0 -0.3903176778
C  C342  1  0.14000000  0.08400000  0.72460000  1.0 -0.17137269
C  C343  1  0.22500000  0.84500000  0.87330000  1.0 -0.0892334925
C  C344  1  0.16600000  0.77100000  0.87400000  1.0 -0.1998140443
C  C345  1  0.29800000  0.85900000  0.87200000  1.0 -0.2200345489
C  C346  1  0.33800000  0.06900000  0.91310000  1.0 -0.1092745217
C  C347  1  0.40000000  0.06900000  0.90220000  1.0 -0.248636106
C  C348  1  0.34300000  0.08600000  0.93920000  1.0 -0.2200345489
C  C349  1  0.16000000  0.85400000  0.95010000  1.0 -0.1207617319
C  C350  1  0.18100000  0.88400000  0.97460000  1.0 -0.1487886894
C  C351  1  0.16300000  0.78900000  0.94560000  1.0 -0.2200345489
C  C352  1  0.09500000  0.90200000  0.81760000  1.0 0.0216694383
C  C353  1  0.12200000  0.90200000  0.83890000  1.0 0.0797246828
C  C354  1  0.03000000  0.83700000  0.80800000  1.0 0.051198672
C  C355  1  0.20100000  0.01500000  0.83180000  1.0 0.0216694383
C  C356  1  0.17300000  0.01600000  0.81080000  1.0 0.100046815
C  C357  1  0.24700000  0.08400000  0.84570000  1.0 0.0797246828
C  C358  1  0.17200000  0.11100000  0.94260000  1.0 0.008008629
C  C359  1  0.14100000  0.14800000  0.93700000  1.0 0.0605335431
C  C360  1  0.14100000  0.04800000  0.96000000  1.0 -0.008051598
C  C361  1  0.20800000  0.18400000  0.90380000  1.0 0.051198672
C  C362  1  0.23400000  0.14200000  0.90840000  1.0 0.0605335431
C  C363  1  0.23000000  0.23100000  0.88170000  1.0 0.0294904124
C  C364  1  0.37420000  0.21320000  0.08840000  1.0 -0.1092745217
C  C365  1  0.43600000  0.23000000  0.10410000  1.0 -0.1606220332
C  C366  1  0.39000000  0.23800000  0.06330000  1.0 -0.248636106
C  C367  1  0.35220000  0.01400000  0.12260000  1.0 -0.0582007132
C  C368  1  0.42700000  0.07400000  0.12260000  1.0 -0.2103209194
C  C369  1  0.33900000  0.94200000  0.11730000  1.0 -0.2103209194
C  C370  1  0.26700000  0.00400000  0.04130000  1.0 -0.0687915306
C  C371  1  0.30000000  0.95800000  0.04250000  1.0 -0.2853669211
C  C372  1  0.29900000  0.06000000  0.02250000  1.0 -0.1892162569
C  C373  1  0.11880000  0.08400000  0.04190000  1.0 0.051198672
C  C374  1  0.13200000  0.14300000  0.05940000  1.0 0.0216694383
C  C375  1  0.09000000  0.17000000  0.06160000  1.0 0.0901167993
C  C376  1  0.15800000  0.23400000  0.09290000  1.0 0.0294904124
C  C377  1  0.20100000  0.20800000  0.09000000  1.0 0.0797246828
C  C378  1  0.16200000  0.27700000  0.11500000  1.0 0.0402604667
C  C379  1  0.88500000  0.43500000  0.83220000  1.0 0.051198672
C  C380  1  0.84700000  0.42100000  0.85220000  1.0 0.0797246828
C  C381  1  0.91870000  0.50830000  0.82100000  1.0 0.0703928188
C  C382  1  0.81560000  0.30820000  0.84610000  1.0 0.008008629
C  C383  1  0.85720000  0.32380000  0.82690000  1.0 0.0901167993
C  C384  1  0.76680000  0.23340000  0.85510000  1.0 0.0797246828
C  C385  1  0.82477000  0.11914000  0.57477000  1.0 -0.1312350695
C  C386  1  0.86657000  0.10314000  0.55737000  1.0 -0.1487886894
C  C387  1  0.82947000  0.09914000  0.60017000  1.0 -0.2200345489
C  C388  1  0.00277000  0.33414000  0.54237000  1.0 -0.0984381228
C  C389  1  0.01097000  0.27634000  0.53117000  1.0 -0.2303251119
C  C390  1  0.06607000  0.38584000  0.55597000  1.0 -0.2200345489
C  C391  1  0.92987000  0.32894000  0.62287000  1.0 -0.1092745217
C  C392  1  0.00527000  0.38454000  0.62107000  1.0 -0.17137269
C  C393  1  0.91647000  0.26894000  0.63907000  1.0 -0.1998140443
C  C394  1  0.84237000  0.35884000  0.48477000  1.0 0.0294904124
C  C395  1  0.86677000  0.34064000  0.50357000  1.0 0.0797246828
C  C396  1  0.87307000  0.43414000  0.47617000  1.0 0.0901167993
C  C397  1  0.78007000  0.23054000  0.49867000  1.0 0.0216694383
C  C398  1  0.75907000  0.24604000  0.47847000  1.0 0.0901167993
C  C399  1  0.73717000  0.15864000  0.51097000  1.0 0.0294904124
C  C400  1  0.65797000  0.18534000  0.60507000  1.0 0.0402604667
C  C401  1  0.58847000  0.15874000  0.60347000  1.0 0.0703928188
C  C402  1  0.70067000  0.24334000  0.62317000  1.0 0.0216694383
C  C403  1  0.59177000  0.09994000  0.57097000  1.0 -0.0027961274
C  C404  1  0.65997000  0.12194000  0.57387000  1.0 0.0797246828
C  C405  1  0.55177000  0.05824000  0.54857000  1.0 0.0216694383
C  C406  1  0.76967000  0.49434000  0.72587000  1.0 0.0402604667
C  C407  1  0.82397000  0.48344000  0.72707000  1.0 0.0797246828
C  C408  1  0.70917000  0.45704000  0.70787000  1.0 0.0402604667
C  C409  1  0.86017000  0.55034000  0.76037000  1.0 -0.008051598
C  C410  1  0.80847000  0.56534000  0.75847000  1.0 0.100046815
C  C411  1  0.90817000  0.57274000  0.78227000  1.0 0.0797246828
C  C412  1  0.05667000  0.49064000  0.78927000  1.0 -0.0687915306
C  C413  1  0.10377000  0.56044000  0.77827000  1.0 -0.17137269
C  C414  1  0.09107000  0.45334000  0.79997000  1.0 -0.17137269
C  C415  1  0.95117000  0.26614000  0.75297000  1.0 -0.1312350695
C  C416  1  0.00127000  0.26674000  0.77107000  1.0 -0.1487886894
C  C417  1  0.96767000  0.25734000  0.72777000  1.0 -0.2303251119
C  C418  1  0.97617000  0.45944000  0.70837000  1.0 -0.0582007132
C  C419  1  0.98467000  0.41034000  0.69177000  1.0 -0.1892162569
C  C420  1  0.03937000  0.53104000  0.71037000  1.0 -0.2752716692
C  C421  1  0.52507000  0.76964000  0.51297000  1.0 -0.008051598
C  C422  1  0.56487000  0.76994000  0.49507000  1.0 0.0797246828
C  C423  1  0.52477000  0.83484000  0.52237000  1.0 0.0703928188
C  C424  1  0.51267000  0.65294000  0.49897000  1.0 0.051198672
C  C425  1  0.48007000  0.65284000  0.51907000  1.0 0.0797246828
C  C426  1  0.49797000  0.58374000  0.48727000  1.0 0.0216694383
C  C427  1  0.42517000  0.61584000  0.58387000  1.0 -0.020302094
C  C428  1  0.48757000  0.67384000  0.59607000  1.0 -0.3196586323
C  C429  1  0.38177000  0.55404000  0.59957000  1.0 -0.2103209194
C  C430  1  0.22547000  0.69434000  0.58217000  1.0 -0.0802373651
C  C431  1  0.17267000  0.63034000  0.59547000  1.0 -0.2103209194
C  C432  1  0.25767000  0.76034000  0.59627000  1.0 -0.3069441469
C  C433  1  0.70107000  0.22834000  0.41387000  1.0 -0.0984381228
C  C434  1  0.63607000  0.17024000  0.40267000  1.0 -0.1487886894
C  C435  1  0.76537000  0.26534000  0.39867000  1.0 -0.4016604044
C  C436  1  0.80777000  0.39034000  0.41577000  1.0 -0.020302094
C  C437  1  0.83467000  0.34034000  0.41767000  1.0 -0.3903176778
C  C438  1  0.80667000  0.41734000  0.39127000  1.0 -0.17137269
C  C439  1  0.89167000  0.17834000  0.53997000  1.0 -0.0892334925
C  C440  1  0.83267000  0.10434000  0.54067000  1.0 -0.1998140443
C  C441  1  0.96467000  0.19234000  0.53867000  1.0 -0.2200345489
C  C442  1  0.00467000  0.40234000  0.57977000  1.0 -0.1092745217
C  C443  1  0.06667000  0.40234000  0.56887000  1.0 -0.248636106
C  C444  1  0.00967000  0.41934000  0.60587000  1.0 -0.2200345489
C  C445  1  0.82667000  0.18734000  0.61677000  1.0 -0.1207617319
C  C446  1  0.84767000  0.21734000  0.64127000  1.0 -0.1487886894
C  C447  1  0.82967000  0.12234000  0.61227000  1.0 -0.2200345489
C  C448  1  0.76167000  0.23534000  0.48427000  1.0 0.0216694383
C  C449  1  0.78867000  0.23534000  0.50557000  1.0 0.0797246828
C  C450  1  0.69667000  0.17034000  0.47467000  1.0 0.051198672
C  C451  1  0.86767000  0.34834000  0.49847000  1.0 0.0216694383
C  C452  1  0.83967000  0.34934000  0.47747000  1.0 0.100046815
C  C453  1  0.91367000  0.41734000  0.51237000  1.0 0.0797246828
C  C454  1  0.83867000  0.44434000  0.60927000  1.0 0.008008629
C  C455  1  0.80767000  0.48134000  0.60367000  1.0 0.0703928188
C  C456  1  0.80767000  0.38134000  0.62667000  1.0 -0.008051598
C  C457  1  0.87467000  0.51734000  0.57047000  1.0 0.051198672
C  C458  1  0.90067000  0.47534000  0.57507000  1.0 0.0605335431
C  C459  1  0.89667000  0.56434000  0.54837000  1.0 0.0294904124
C  C460  1  0.04087000  0.54654000  0.75507000  1.0 -0.1092745217
C  C461  1  0.10267000  0.56334000  0.77077000  1.0 -0.1606220332
C  C462  1  0.05667000  0.57134000  0.72997000  1.0 -0.248636106
C  C463  1  0.01887000  0.34734000  0.78927000  1.0 -0.0582007132
C  C464  1  0.09367000  0.40734000  0.78927000  1.0 -0.2103209194
C  C465  1  0.00567000  0.27534000  0.78397000  1.0 -0.2103209194
C  C466  1  0.93367000  0.33734000  0.70797000  1.0 -0.0802373651
C  C467  1  0.96667000  0.29134000  0.70917000  1.0 -0.2853669211
C  C468  1  0.96567000  0.39334000  0.68917000  1.0 -0.1892162569
C  C469  1  0.78547000  0.41734000  0.70857000  1.0 0.051198672
C  C470  1  0.79867000  0.47634000  0.72607000  1.0 0.0216694383
C  C471  1  0.75667000  0.50334000  0.72827000  1.0 0.0901167993
C  C472  1  0.82467000  0.56734000  0.75957000  1.0 0.0294904124
C  C473  1  0.86767000  0.54134000  0.75667000  1.0 0.0797246828
C  C474  1  0.82867000  0.61034000  0.78167000  1.0 0.0402604667
C  C475  1  0.55167000  0.76834000  0.49887000  1.0 0.051198672
C  C476  1  0.51367000  0.75434000  0.51887000  1.0 0.0797246828
C  C477  1  0.58537000  0.84164000  0.48767000  1.0 0.0703928188
C  C478  1  0.48227000  0.64154000  0.51277000  1.0 0.008008629
C  C479  1  0.52387000  0.65714000  0.49357000  1.0 0.0901167993
C  C480  1  0.43347000  0.56674000  0.52177000  1.0 0.0797246828
C  C481  1  0.49143000  0.45246000  0.24143000  1.0 -0.1312350695
C  C482  1  0.53323000  0.43646000  0.22403000  1.0 -0.1487886894
C  C483  1  0.49613000  0.43246000  0.26683000  1.0 -0.2200345489
C  C484  1  0.66943000  0.66746000  0.20903000  1.0 -0.0984381228
C  C485  1  0.67763000  0.60966000  0.19783000  1.0 -0.2303251119
C  C486  1  0.73273000  0.71916000  0.22263000  1.0 -0.2200345489
C  C487  1  0.59653000  0.66226000  0.28953000  1.0 -0.1092745217
C  C488  1  0.67193000  0.71786000  0.28773000  1.0 -0.17137269
C  C489  1  0.58313000  0.60226000  0.30573000  1.0 -0.1998140443
C  C490  1  0.50903000  0.69216000  0.15143000  1.0 0.0294904124
C  C491  1  0.53343000  0.67396000  0.17023000  1.0 0.0797246828
C  C492  1  0.53973000  0.76746000  0.14283000  1.0 0.0901167993
C  C493  1  0.44673000  0.56386000  0.16533000  1.0 0.0216694383
C  C494  1  0.42573000  0.57936000  0.14513000  1.0 0.0901167993
C  C495  1  0.40383000  0.49196000  0.17763000  1.0 0.0294904124
C  C496  1  0.32463000  0.51866000  0.27173000  1.0 0.0402604667
C  C497  1  0.25513000  0.49206000  0.27013000  1.0 0.0703928188
C  C498  1  0.36733000  0.57666000  0.28983000  1.0 0.0294904124
C  C499  1  0.25843000  0.43326000  0.23763000  1.0 -0.008051598
C  C500  1  0.32663000  0.45526000  0.24053000  1.0 0.0797246828
C  C501  1  0.21843000  0.39156000  0.21523000  1.0 0.0216694383
C  C502  1  0.43633000  0.82766000  0.39253000  1.0 0.0402604667
C  C503  1  0.49063000  0.81676000  0.39373000  1.0 0.0797246828
C  C504  1  0.37583000  0.79036000  0.37453000  1.0 0.0402604667
C  C505  1  0.52683000  0.88366000  0.42703000  1.0 -0.008051598
C  C506  1  0.47513000  0.89866000  0.42513000  1.0 0.100046815
C  C507  1  0.57483000  0.90606000  0.44893000  1.0 0.0797246828
C  C508  1  0.72333000  0.82396000  0.45593000  1.0 -0.0687915306
C  C509  1  0.77043000  0.89376000  0.44493000  1.0 -0.17137269
C  C510  1  0.75773000  0.78666000  0.46663000  1.0 -0.17137269
C  C511  1  0.61783000  0.59946000  0.41963000  1.0 -0.1312350695
C  C512  1  0.66793000  0.60006000  0.43773000  1.0 -0.1487886894
C  C513  1  0.63433000  0.59066000  0.39443000  1.0 -0.2303251119
C  C514  1  0.64283000  0.79276000  0.37503000  1.0 -0.0582007132
C  C515  1  0.65133000  0.74366000  0.35843000  1.0 -0.1892162569
C  C516  1  0.70603000  0.86436000  0.37703000  1.0 -0.2752716692
C  C517  1  0.19173000  0.10296000  0.17963000  1.0 -0.008051598
C  C518  1  0.23153000  0.10326000  0.16173000  1.0 0.0797246828
C  C519  1  0.19143000  0.16816000  0.18903000  1.0 0.0703928188
C  C520  1  0.17933000  0.98626000  0.16563000  1.0 0.051198672
C  C521  1  0.14673000  0.98616000  0.18573000  1.0 0.0797246828
C  C522  1  0.16463000  0.91706000  0.15393000  1.0 0.0216694383
C  C523  1  0.09183000  0.94916000  0.25053000  1.0 -0.020302094
C  C524  1  0.15423000  0.00716000  0.26273000  1.0 -0.3196586323
C  C525  1  0.04843000  0.88736000  0.26623000  1.0 -0.2103209194
C  C526  1  0.89213000  0.02766000  0.24883000  1.0 -0.0802373651
C  C527  1  0.83933000  0.96366000  0.26213000  1.0 -0.2103209194
C  C528  1  0.92433000  0.09366000  0.26293000  1.0 -0.3069441469
C  C529  1  0.36773000  0.56166000  0.08053000  1.0 -0.0984381228
C  C530  1  0.30273000  0.50356000  0.06933000  1.0 -0.1487886894
C  C531  1  0.43203000  0.59866000  0.06533000  1.0 -0.4016604044
C  C532  1  0.47443000  0.72366000  0.08243000  1.0 -0.020302094
C  C533  1  0.50133000  0.67366000  0.08433000  1.0 -0.3903176778
C  C534  1  0.47333000  0.75066000  0.05793000  1.0 -0.17137269
C  C535  1  0.55833000  0.51166000  0.20663000  1.0 -0.0892334925
C  C536  1  0.49933000  0.43766000  0.20733000  1.0 -0.1998140443
C  C537  1  0.63133000  0.52566000  0.20533000  1.0 -0.2200345489
C  C538  1  0.67133000  0.73566000  0.24643000  1.0 -0.1092745217
C  C539  1  0.73333000  0.73566000  0.23553000  1.0 -0.248636106
C  C540  1  0.67633000  0.75266000  0.27253000  1.0 -0.2200345489
C  C541  1  0.49333000  0.52066000  0.28343000  1.0 -0.1207617319
C  C542  1  0.51433000  0.55066000  0.30793000  1.0 -0.1487886894
C  C543  1  0.49633000  0.45566000  0.27893000  1.0 -0.2200345489
C  C544  1  0.42833000  0.56866000  0.15093000  1.0 0.0216694383
C  C545  1  0.45533000  0.56866000  0.17223000  1.0 0.0797246828
C  C546  1  0.36333000  0.50366000  0.14133000  1.0 0.051198672
C  C547  1  0.53433000  0.68166000  0.16513000  1.0 0.0216694383
C  C548  1  0.50633000  0.68266000  0.14413000  1.0 0.100046815
C  C549  1  0.58033000  0.75066000  0.17903000  1.0 0.0797246828
C  C550  1  0.50533000  0.77766000  0.27593000  1.0 0.008008629
C  C551  1  0.47433000  0.81466000  0.27033000  1.0 0.0703928188
C  C552  1  0.47433000  0.71466000  0.29333000  1.0 -0.0027961274
C  C553  1  0.54133000  0.85066000  0.23713000  1.0 0.051198672
C  C554  1  0.56733000  0.80866000  0.24173000  1.0 0.0605335431
C  C555  1  0.56333000  0.89766000  0.21503000  1.0 0.0294904124
C  C556  1  0.70753000  0.87986000  0.42173000  1.0 -0.1092745217
C  C557  1  0.76933000  0.89666000  0.43743000  1.0 -0.1606220332
C  C558  1  0.72333000  0.90466000  0.39663000  1.0 -0.248636106
C  C559  1  0.68553000  0.68066000  0.45593000  1.0 -0.0582007132
C  C560  1  0.76033000  0.74066000  0.45593000  1.0 -0.2103209194
C  C561  1  0.67233000  0.60866000  0.45063000  1.0 -0.2103209194
C  C562  1  0.60033000  0.67066000  0.37463000  1.0 -0.0802373651
C  C563  1  0.63333000  0.62466000  0.37583000  1.0 -0.2853669211
C  C564  1  0.63233000  0.72666000  0.35583000  1.0 -0.1892162569
C  C565  1  0.45213000  0.75066000  0.37523000  1.0 0.051198672
C  C566  1  0.46533000  0.80966000  0.39273000  1.0 0.0216694383
C  C567  1  0.42333000  0.83666000  0.39493000  1.0 0.0901167993
C  C568  1  0.49133000  0.90066000  0.42623000  1.0 0.0294904124
C  C569  1  0.53433000  0.87466000  0.42333000  1.0 0.0797246828
C  C570  1  0.49533000  0.94366000  0.44833000  1.0 0.0402604667
C  C571  1  0.21833000  0.10166000  0.16553000  1.0 0.051198672
C  C572  1  0.18033000  0.08766000  0.18553000  1.0 0.0797246828
C  C573  1  0.25203000  0.17496000  0.15433000  1.0 0.0703928188
C  C574  1  0.14893000  0.97486000  0.17943000  1.0 0.008008629
C  C575  1  0.19053000  0.99046000  0.16023000  1.0 0.0901167993
C  C576  1  0.10013000  0.90006000  0.18843000  1.0 0.0797246828
C  C577  1  0.62770000  0.84190000  0.90810000  1.0 -0.1092745217
C  C578  1  0.56990000  0.80010000  0.89070000  1.0 -0.1487886894
C  C579  1  0.60300000  0.83720000  0.93350000  1.0 -0.2103209194
C  C580  1  0.66470000  0.66390000  0.87570000  1.0 -0.0892334925
C  C581  1  0.59870000  0.65570000  0.86450000  1.0 -0.2200345489
C  C582  1  0.65310000  0.60060000  0.88930000  1.0 -0.2103209194
C  C583  1  0.73240000  0.73680000  0.95620000  1.0 -0.0984381228
C  C584  1  0.71260000  0.66140000  0.95440000  1.0 -0.17137269
C  C585  1  0.68580000  0.75020000  0.97240000  1.0 -0.1892162569
C  C586  1  0.84980000  0.82430000  0.81810000  1.0 0.0294904124
C  C587  1  0.80720000  0.79990000  0.83690000  1.0 0.0797246828
C  C588  1  0.89440000  0.79360000  0.80950000  1.0 0.0901167993
C  C589  1  0.78380000  0.88660000  0.83200000  1.0 0.0216694383
C  C590  1  0.82030000  0.90760000  0.81180000  1.0 0.0901167993
C  C591  1  0.75480000  0.92950000  0.84430000  1.0 0.0294904124
C  C592  1  0.86070000  0.00870000  0.93840000  1.0 0.0402604667
C  C593  1  0.90360000  0.07820000  0.93680000  1.0 0.0703928188
C  C594  1  0.87600000  0.96600000  0.95650000  1.0 0.0294904124
C  C595  1  0.84150000  0.07490000  0.90430000  1.0 -0.0027961274
C  C596  1  0.79530000  0.00670000  0.90720000  1.0 0.0797246828
C  C597  1  0.83980000  0.11490000  0.88190000  1.0 0.0216694383
C  C598  1  0.05800000  0.89700000  0.05920000  1.0 0.0402604667
C  C599  1  0.99280000  0.84270000  0.06040000  1.0 0.0797246828
C  C600  1  0.08120000  0.95750000  0.04120000  1.0 0.0402604667
C  C601  1  0.02350000  0.80650000  0.09370000  1.0 -0.008051598
C  C602  1  0.09020000  0.85820000  0.09180000  1.0 0.100046815
C  C603  1  0.99790000  0.75850000  0.11560000  1.0 0.0797246828
C  C604  1  0.76730000  0.61000000  0.12260000  1.0 -0.0687915306
C  C605  1  0.79000000  0.56290000  0.11160000  1.0 -0.17137269
C  C606  1  0.69560000  0.57560000  0.13330000  1.0 -0.17137269
C  C607  1  0.64830000  0.71550000  0.08630000  1.0 -0.1312350695
C  C608  1  0.59880000  0.66540000  0.10440000  1.0 -0.1487886894
C  C609  1  0.62300000  0.69900000  0.06110000  1.0 -0.2303251119
C  C610  1  0.81660000  0.69050000  0.04170000  1.0 -0.0582007132
C  C611  1  0.75900000  0.68200000  0.02510000  1.0 -0.1892162569
C  C612  1  0.82500000  0.62730000  0.04370000  1.0 -0.2752716692
C  C613  1  0.57790000  0.14160000  0.84630000  1.0 -0.008051598
C  C614  1  0.53840000  0.10180000  0.82840000  1.0 0.0797246828
C  C615  1  0.64340000  0.14190000  0.85570000  1.0 0.0703928188
C  C616  1  0.47360000  0.15400000  0.83230000  1.0 0.051198672
C  C617  1  0.50610000  0.18660000  0.85240000  1.0 0.0797246828
C  C618  1  0.41910000  0.16870000  0.82060000  1.0 0.0216694383
C  C619  1  0.52400000  0.24150000  0.91720000  1.0 -0.020302094
C  C620  1  0.51960000  0.17910000  0.92940000  1.0 -0.3196586323
C  C621  1  0.50560000  0.28490000  0.93290000  1.0 -0.2103209194
C  C622  1  0.80220000  0.44120000  0.91550000  1.0 -0.0802373651
C  C623  1  0.79100000  0.49400000  0.92880000  1.0 -0.2103209194
C  C624  1  0.83600000  0.40900000  0.92960000  1.0 -0.3069441469
C  C625  1  0.86060000  0.96560000  0.74720000  1.0 -0.0984381228
C  C626  1  0.86750000  0.03060000  0.73600000  1.0 -0.1487886894
C  C627  1  0.83330000  0.90130000  0.73200000  1.0 -0.4016604044
C  C628  1  0.91590000  0.85890000  0.74910000  1.0 -0.020302094
C  C629  1  0.83900000  0.83200000  0.75100000  1.0 -0.3903176778
C  C630  1  0.94400000  0.86000000  0.72460000  1.0 -0.17137269
C  C631  1  0.62000000  0.77500000  0.87330000  1.0 -0.0802373651
C  C632  1  0.60500000  0.83400000  0.87400000  1.0 -0.1892162569
C  C633  1  0.56100000  0.70200000  0.87200000  1.0 -0.2200345489
C  C634  1  0.73100000  0.66200000  0.91310000  1.0 -0.0984381228
C  C635  1  0.66900000  0.60000000  0.90220000  1.0 -0.248636106
C  C636  1  0.74300000  0.65700000  0.93920000  1.0 -0.2200345489
C  C637  1  0.69400000  0.84000000  0.95010000  1.0 -0.1092745217
C  C638  1  0.70300000  0.81900000  0.97460000  1.0 -0.1487886894
C  C639  1  0.62600000  0.83700000  0.94560000  1.0 -0.2200345489
C  C640  1  0.80700000  0.90500000  0.81760000  1.0 0.0216694383
C  C641  1  0.78000000  0.87800000  0.83890000  1.0 0.0797246828
C  C642  1  0.80700000  0.97000000  0.80800000  1.0 0.051198672
C  C643  1  0.81400000  0.79900000  0.83180000  1.0 0.0216694383
C  C644  1  0.84300000  0.82700000  0.81080000  1.0 0.100046815
C  C645  1  0.83700000  0.75300000  0.84570000  1.0 0.0797246828
C  C646  1  0.93900000  0.82800000  0.94260000  1.0 0.008008629
C  C647  1  0.00700000  0.85900000  0.93700000  1.0 0.0605335431
C  C648  1  0.90700000  0.85900000  0.96000000  1.0 -0.0027961274
C  C649  1  0.97600000  0.79200000  0.90380000  1.0 0.051198672
C  C650  1  0.90800000  0.76600000  0.90840000  1.0 0.0605335431
C  C651  1  0.00100000  0.77000000  0.88170000  1.0 0.0294904124
C  C652  1  0.83900000  0.62580000  0.08840000  1.0 -0.1092745217
C  C653  1  0.79400000  0.56400000  0.10410000  1.0 -0.1606220332
C  C654  1  0.84800000  0.61000000  0.06330000  1.0 -0.248636106
C  C655  1  0.66180000  0.64780000  0.12260000  1.0 -0.0582007132
C  C656  1  0.64700000  0.57300000  0.12260000  1.0 -0.2103209194
C  C657  1  0.60300000  0.66100000  0.11730000  1.0 -0.2103209194
C  C658  1  0.73700000  0.73300000  0.04130000  1.0 -0.0687915306
C  C659  1  0.65800000  0.70000000  0.04250000  1.0 -0.2853669211
C  C660  1  0.76100000  0.70100000  0.02250000  1.0 -0.1892162569
C  C661  1  0.96520000  0.88120000  0.04190000  1.0 0.051198672
C  C662  1  0.01100000  0.86800000  0.05940000  1.0 0.0216694383
C  C663  1  0.08000000  0.91000000  0.06160000  1.0 0.0901167993
C  C664  1  0.07600000  0.84200000  0.09290000  1.0 0.0294904124
C  C665  1  0.00700000  0.79900000  0.09000000  1.0 0.0797246828
C  C666  1  0.11500000  0.83800000  0.11500000  1.0 0.0402604667
C  C667  1  0.55000000  0.11500000  0.83220000  1.0 0.051198672
C  C668  1  0.57400000  0.15300000  0.85220000  1.0 0.0797246828
C  C669  1  0.58960000  0.08130000  0.82100000  1.0 0.0703928188
C  C670  1  0.49260000  0.18440000  0.84610000  1.0 0.008008629
C  C671  1  0.46660000  0.14280000  0.82690000  1.0 0.0901167993
C  C672  1  0.46660000  0.23320000  0.85510000  1.0 0.0797246828
C  C673  1  0.29437000  0.17524000  0.57477000  1.0 -0.1092745217
C  C674  1  0.23657000  0.13344000  0.55737000  1.0 -0.1487886894
C  C675  1  0.26967000  0.17054000  0.60017000  1.0 -0.2200345489
C  C676  1  0.33137000  0.99724000  0.54237000  1.0 -0.0892334925
C  C677  1  0.26537000  0.98904000  0.53117000  1.0 -0.2200345489
C  C678  1  0.31977000  0.93394000  0.55597000  1.0 -0.2103209194
C  C679  1  0.39907000  0.07014000  0.62287000  1.0 -0.0984381228
C  C680  1  0.37927000  0.99474000  0.62107000  1.0 -0.17137269
C  C681  1  0.35247000  0.08354000  0.63907000  1.0 -0.1892162569
C  C682  1  0.51647000  0.15764000  0.48477000  1.0 0.0294904124
C  C683  1  0.47387000  0.13324000  0.50357000  1.0 0.0797246828
C  C684  1  0.56107000  0.12694000  0.47617000  1.0 0.0901167993
C  C685  1  0.45047000  0.21994000  0.49867000  1.0 0.0216694383
C  C686  1  0.48697000  0.24094000  0.47847000  1.0 0.0901167993
C  C687  1  0.42147000  0.26284000  0.51097000  1.0 0.0294904124
C  C688  1  0.52737000  0.34204000  0.60507000  1.0 0.0402604667
C  C689  1  0.57027000  0.41154000  0.60347000  1.0 0.0703928188
C  C690  1  0.54267000  0.29934000  0.62317000  1.0 0.0294904124
C  C691  1  0.50817000  0.40824000  0.57097000  1.0 -0.008051598
C  C692  1  0.46197000  0.34004000  0.57387000  1.0 0.0797246828
C  C693  1  0.50647000  0.44824000  0.54857000  1.0 0.0216694383
C  C694  1  0.72467000  0.23034000  0.72587000  1.0 0.0402604667
C  C695  1  0.65947000  0.17604000  0.72707000  1.0 0.0797246828
C  C696  1  0.74787000  0.29084000  0.70787000  1.0 0.0402604667
C  C697  1  0.69017000  0.13984000  0.76037000  1.0 -0.008051598
C  C698  1  0.75687000  0.19154000  0.75847000  1.0 0.100046815
C  C699  1  0.66457000  0.09184000  0.78227000  1.0 0.0797246828
C  C700  1  0.43397000  0.94334000  0.78927000  1.0 -0.0687915306
C  C701  1  0.45667000  0.89624000  0.77827000  1.0 -0.17137269
C  C702  1  0.36227000  0.90894000  0.79997000  1.0 -0.17137269
C  C703  1  0.31497000  0.04884000  0.75297000  1.0 -0.1312350695
C  C704  1  0.26547000  0.99874000  0.77107000  1.0 -0.1487886894
C  C705  1  0.28967000  0.03234000  0.72777000  1.0 -0.2303251119
C  C706  1  0.48327000  0.02384000  0.70837000  1.0 -0.0582007132
C  C707  1  0.42567000  0.01534000  0.69177000  1.0 -0.1892162569
C  C708  1  0.49167000  0.96064000  0.71037000  1.0 -0.2752716692
C  C709  1  0.24457000  0.47494000  0.51297000  1.0 -0.008051598
C  C710  1  0.20507000  0.43514000  0.49507000  1.0 0.0797246828
C  C711  1  0.31007000  0.47524000  0.52237000  1.0 0.0703928188
C  C712  1  0.14027000  0.48734000  0.49897000  1.0 0.051198672
C  C713  1  0.17277000  0.51994000  0.51907000  1.0 0.0797246828
C  C714  1  0.08577000  0.50204000  0.48727000  1.0 0.0216694383
C  C715  1  0.19067000  0.57484000  0.58387000  1.0 -0.020302094
C  C716  1  0.18627000  0.51244000  0.59607000  1.0 -0.3196586323
C  C717  1  0.17227000  0.61824000  0.59957000  1.0 -0.2103209194
C  C718  1  0.46887000  0.77454000  0.58217000  1.0 -0.0802373651
C  C719  1  0.45767000  0.82734000  0.59547000  1.0 -0.2103209194
C  C720  1  0.50267000  0.74234000  0.59627000  1.0 -0.3069441469
C  C721  1  0.52727000  0.29894000  0.41387000  1.0 -0.0984381228
C  C722  1  0.53417000  0.36394000  0.40267000  1.0 -0.1487886894
C  C723  1  0.49997000  0.23464000  0.39867000  1.0 -0.4016604044
C  C724  1  0.58257000  0.19224000  0.41577000  1.0 -0.020302094
C  C725  1  0.50567000  0.16534000  0.41767000  1.0 -0.3903176778
C  C726  1  0.61067000  0.19334000  0.39127000  1.0 -0.17137269
C  C727  1  0.28667000  0.10834000  0.53997000  1.0 -0.0802373651
C  C728  1  0.27167000  0.16734000  0.54067000  1.0 -0.1892162569
C  C729  1  0.22767000  0.03534000  0.53867000  1.0 -0.2200345489
C  C730  1  0.39767000  0.99534000  0.57977000  1.0 -0.0984381228
C  C731  1  0.33567000  0.93334000  0.56887000  1.0 -0.248636106
C  C732  1  0.40967000  0.99034000  0.60587000  1.0 -0.2200345489
C  C733  1  0.36067000  0.17334000  0.61677000  1.0 -0.1092745217
C  C734  1  0.36967000  0.15234000  0.64127000  1.0 -0.1487886894
C  C735  1  0.29267000  0.17034000  0.61227000  1.0 -0.2200345489
C  C736  1  0.47367000  0.23834000  0.48427000  1.0 0.0216694383
C  C737  1  0.44667000  0.21134000  0.50557000  1.0 0.0797246828
C  C738  1  0.47367000  0.30334000  0.47467000  1.0 0.051198672
C  C739  1  0.48067000  0.13234000  0.49847000  1.0 0.0216694383
C  C740  1  0.50967000  0.16034000  0.47747000  1.0 0.100046815
C  C741  1  0.50367000  0.08634000  0.51237000  1.0 0.0797246828
C  C742  1  0.60567000  0.16134000  0.60927000  1.0 0.008008629
C  C743  1  0.67367000  0.19234000  0.60367000  1.0 0.0605335431
C  C744  1  0.57367000  0.19234000  0.62667000  1.0 -0.0027961274
C  C745  1  0.64267000  0.12534000  0.57047000  1.0 0.051198672
C  C746  1  0.57467000  0.09934000  0.57507000  1.0 0.0605335431
C  C747  1  0.66767000  0.10334000  0.54837000  1.0 0.0294904124
C  C748  1  0.50567000  0.95914000  0.75507000  1.0 -0.1092745217
C  C749  1  0.46067000  0.89734000  0.77077000  1.0 -0.1606220332
C  C750  1  0.51467000  0.94334000  0.72997000  1.0 -0.248636106
C  C751  1  0.32847000  0.98114000  0.78927000  1.0 -0.0582007132
C  C752  1  0.31367000  0.90634000  0.78927000  1.0 -0.2103209194
C  C753  1  0.26967000  0.99434000  0.78397000  1.0 -0.2103209194
C  C754  1  0.40367000  0.06634000  0.70797000  1.0 -0.0802373651
C  C755  1  0.32467000  0.03334000  0.70917000  1.0 -0.2853669211
C  C756  1  0.42767000  0.03434000  0.68917000  1.0 -0.1892162569
C  C757  1  0.63187000  0.21454000  0.70857000  1.0 0.051198672
C  C758  1  0.67767000  0.20134000  0.72607000  1.0 0.0216694383
C  C759  1  0.74667000  0.24334000  0.72827000  1.0 0.0901167993
C  C760  1  0.74267000  0.17534000  0.75957000  1.0 0.0294904124
C  C761  1  0.67367000  0.13234000  0.75667000  1.0 0.0797246828
C  C762  1  0.78167000  0.17134000  0.78167000  1.0 0.0402604667
C  C763  1  0.21667000  0.44834000  0.49887000  1.0 0.051198672
C  C764  1  0.24067000  0.48634000  0.51887000  1.0 0.0797246828
C  C765  1  0.25627000  0.41464000  0.48767000  1.0 0.0703928188
C  C766  1  0.15927000  0.51774000  0.51277000  1.0 0.008008629
C  C767  1  0.13327000  0.47614000  0.49357000  1.0 0.0901167993
C  C768  1  0.13327000  0.56654000  0.52177000  1.0 0.0797246828
C  C769  1  0.96103000  0.50856000  0.24143000  1.0 -0.1092745217
C  C770  1  0.90323000  0.46676000  0.22403000  1.0 -0.1487886894
C  C771  1  0.93633000  0.50386000  0.26683000  1.0 -0.2103209194
C  C772  1  0.99803000  0.33056000  0.20903000  1.0 -0.0802373651
C  C773  1  0.93203000  0.32236000  0.19783000  1.0 -0.2200345489
C  C774  1  0.98643000  0.26726000  0.22263000  1.0 -0.2103209194
C  C775  1  0.06573000  0.40346000  0.28953000  1.0 -0.0892334925
C  C776  1  0.04593000  0.32806000  0.28773000  1.0 -0.17137269
C  C777  1  0.01913000  0.41686000  0.30573000  1.0 -0.1998140443
C  C778  1  0.18313000  0.49096000  0.15143000  1.0 0.0294904124
C  C779  1  0.14053000  0.46656000  0.17023000  1.0 0.0797246828
C  C780  1  0.22773000  0.46026000  0.14283000  1.0 0.0901167993
C  C781  1  0.11713000  0.55326000  0.16533000  1.0 0.0216694383
C  C782  1  0.15363000  0.57426000  0.14513000  1.0 0.0901167993
C  C783  1  0.08813000  0.59616000  0.17763000  1.0 0.0294904124
C  C784  1  0.19403000  0.67536000  0.27173000  1.0 0.0402604667
C  C785  1  0.23693000  0.74486000  0.27013000  1.0 0.0703928188
C  C786  1  0.20933000  0.63266000  0.28983000  1.0 0.0294904124
C  C787  1  0.17483000  0.74156000  0.23763000  1.0 -0.008051598
C  C788  1  0.12863000  0.67336000  0.24053000  1.0 0.0797246828
C  C789  1  0.17313000  0.78156000  0.21523000  1.0 0.0216694383
C  C790  1  0.39133000  0.56366000  0.39253000  1.0 0.0402604667
C  C791  1  0.32613000  0.50936000  0.39373000  1.0 0.0797246828
C  C792  1  0.41453000  0.62416000  0.37453000  1.0 0.0402604667
C  C793  1  0.35683000  0.47316000  0.42703000  1.0 -0.008051598
C  C794  1  0.42353000  0.52486000  0.42513000  1.0 0.100046815
C  C795  1  0.33123000  0.42516000  0.44893000  1.0 0.0797246828
C  C796  1  0.10063000  0.27666000  0.45593000  1.0 -0.0687915306
C  C797  1  0.12333000  0.22956000  0.44493000  1.0 -0.17137269
C  C798  1  0.02893000  0.24226000  0.46663000  1.0 -0.17137269
C  C799  1  0.98163000  0.38216000  0.41963000  1.0 -0.1312350695
C  C800  1  0.93213000  0.33206000  0.43773000  1.0 -0.1487886894
C  C801  1  0.95633000  0.36566000  0.39443000  1.0 -0.2303251119
C  C802  1  0.14993000  0.35716000  0.37503000  1.0 -0.0582007132
C  C803  1  0.09233000  0.34866000  0.35843000  1.0 -0.1892162569
C  C804  1  0.15833000  0.29396000  0.37703000  1.0 -0.2752716692
C  C805  1  0.91123000  0.80826000  0.17963000  1.0 -0.008051598
C  C806  1  0.87173000  0.76846000  0.16173000  1.0 0.0797246828
C  C807  1  0.97673000  0.80856000  0.18903000  1.0 0.0703928188
C  C808  1  0.80693000  0.82066000  0.16563000  1.0 0.051198672
C  C809  1  0.83943000  0.85326000  0.18573000  1.0 0.0797246828
C  C810  1  0.75243000  0.83536000  0.15393000  1.0 0.0216694383
C  C811  1  0.85733000  0.90816000  0.25053000  1.0 -0.020302094
C  C812  1  0.85293000  0.84576000  0.26273000  1.0 -0.3196586323
C  C813  1  0.83893000  0.95156000  0.26623000  1.0 -0.2103209194
C  C814  1  0.13553000  0.10786000  0.24883000  1.0 -0.0802373651
C  C815  1  0.12433000  0.16066000  0.26213000  1.0 -0.2103209194
C  C816  1  0.16933000  0.07566000  0.26293000  1.0 -0.3069441469
C  C817  1  0.19393000  0.63226000  0.08053000  1.0 -0.0984381228
C  C818  1  0.20083000  0.69726000  0.06933000  1.0 -0.1487886894
C  C819  1  0.16663000  0.56796000  0.06533000  1.0 -0.4016604044
C  C820  1  0.24923000  0.52556000  0.08243000  1.0 -0.020302094
C  C821  1  0.17233000  0.49866000  0.08433000  1.0 -0.3903176778
C  C822  1  0.27733000  0.52666000  0.05793000  1.0 -0.17137269
C  C823  1  0.95333000  0.44166000  0.20663000  1.0 -0.0802373651
C  C824  1  0.93833000  0.50066000  0.20733000  1.0 -0.1892162569
C  C825  1  0.89433000  0.36866000  0.20533000  1.0 -0.2200345489
C  C826  1  0.06433000  0.32866000  0.24643000  1.0 -0.0984381228
C  C827  1  0.00233000  0.26666000  0.23553000  1.0 -0.248636106
C  C828  1  0.07633000  0.32366000  0.27253000  1.0 -0.2200345489
C  C829  1  0.02733000  0.50666000  0.28343000  1.0 -0.1092745217
C  C830  1  0.03633000  0.48566000  0.30793000  1.0 -0.1487886894
C  C831  1  0.95933000  0.50366000  0.27893000  1.0 -0.2200345489
C  C832  1  0.14033000  0.57166000  0.15093000  1.0 0.0216694383
C  C833  1  0.11333000  0.54466000  0.17223000  1.0 0.0797246828
C  C834  1  0.14033000  0.63666000  0.14133000  1.0 0.051198672
C  C835  1  0.14733000  0.46566000  0.16513000  1.0 0.0216694383
C  C836  1  0.17633000  0.49366000  0.14413000  1.0 0.100046815
C  C837  1  0.17033000  0.41966000  0.17903000  1.0 0.0797246828
C  C838  1  0.27233000  0.49466000  0.27593000  1.0 0.008008629
C  C839  1  0.34033000  0.52566000  0.27033000  1.0 0.0605335431
C  C840  1  0.24033000  0.52566000  0.29333000  1.0 -0.0027961274
C  C841  1  0.30933000  0.45866000  0.23713000  1.0 0.051198672
C  C842  1  0.24133000  0.43266000  0.24173000  1.0 0.0605335431
C  C843  1  0.33433000  0.43666000  0.21503000  1.0 0.0402604667
C  C844  1  0.17233000  0.29246000  0.42173000  1.0 -0.1092745217
C  C845  1  0.12733000  0.23066000  0.43743000  1.0 -0.1606220332
C  C846  1  0.18133000  0.27666000  0.39663000  1.0 -0.248636106
C  C847  1  0.99513000  0.31446000  0.45593000  1.0 -0.0582007132
C  C848  1  0.98033000  0.23966000  0.45593000  1.0 -0.2103209194
C  C849  1  0.93633000  0.32766000  0.45063000  1.0 -0.2103209194
C  C850  1  0.07033000  0.39966000  0.37463000  1.0 -0.0687915306
C  C851  1  0.99133000  0.36666000  0.37583000  1.0 -0.2853669211
C  C852  1  0.09433000  0.36766000  0.35583000  1.0 -0.1892162569
C  C853  1  0.29853000  0.54786000  0.37523000  1.0 0.051198672
C  C854  1  0.34433000  0.53466000  0.39273000  1.0 0.0216694383
C  C855  1  0.41333000  0.57666000  0.39493000  1.0 0.0901167993
C  C856  1  0.40933000  0.50866000  0.42623000  1.0 0.0294904124
C  C857  1  0.34033000  0.46566000  0.42333000  1.0 0.0797246828
C  C858  1  0.44833000  0.50466000  0.44833000  1.0 0.0402604667
C  C859  1  0.88333000  0.78166000  0.16553000  1.0 0.051198672
C  C860  1  0.90733000  0.81966000  0.18553000  1.0 0.0797246828
C  C861  1  0.92293000  0.74796000  0.15433000  1.0 0.0703928188
C  C862  1  0.82593000  0.85106000  0.17943000  1.0 0.008008629
C  C863  1  0.79993000  0.80946000  0.16023000  1.0 0.0901167993
C  C864  1  0.79993000  0.89986000  0.18843000  1.0 0.0797246828
C  C865  1  0.33333333  0.66666667  0.44893000  1.0 0.1797933613
C  C866  1  0.33333333  0.66666667  0.21593000  1.0 0.2163753094
C  C867  1  0.66666667  0.33333333  0.78227000  1.0 0.1797933613
C  C868  1  0.66666667  0.33333333  0.54927000  1.0 0.2163753094
C  C869  1  0.00000000  0.00000000  0.11560000  1.0 0.1797933613
C  C870  1  0.00000000  0.00000000  0.88260000  1.0 0.2097137701
S  S1  1  0.33333333  0.66666667  0.48113000  1.0 0.20303652
S  S2  1  0.33333333  0.66666667  0.18333000  1.0 0.2494731031
S  S3  1  0.66666667  0.33333333  0.81447000  1.0 0.2097137701
S  S4  1  0.66666667  0.33333333  0.51667000  1.0 0.2494731031
S  S5  1  0.00000000  0.00000000  0.14780000  1.0 0.2097137701
S  S6  1  0.00000000  0.00000000  0.85000000  1.0 0.2494731031
N  N1  1  0.13850000  0.32050000  0.90730000  1.0 -0.0892334925
N  N2  1  0.02710000  0.29980000  0.89060000  1.0 -0.0802373651
N  N3  1  0.03100000  0.26540000  0.93220000  1.0 -0.0892334925
N  N4  1  0.02200000  0.14470000  0.80430000  1.0 -0.1398900029
N  N5  1  0.05740000  0.22720000  0.84490000  1.0 -0.1312350695
N  N6  1  0.16690000  0.19480000  0.92410000  1.0 -0.1487886894
N  N7  1  0.21670000  0.10390000  0.91900000  1.0 -0.020302094
N  N8  1  0.79590000  0.89140000  0.07450000  1.0 -0.1398900029
N  N9  1  0.82910000  0.02800000  0.07930000  1.0 -0.0802373651
N  N10  1  0.88820000  0.21880000  0.10710000  1.0 -0.1207617319
N  N11  1  0.00710000  0.28140000  0.08980000  1.0 -0.1487886894
N  N12  1  0.90650000  0.19260000  0.06580000  1.0 -0.1398900029
N  N13  1  0.62240000  0.43860000  0.85880000  1.0 -0.0479872758
N  N14  1  0.62320000  0.51210000  0.81950000  1.0 -0.1487886894
N  N15  1  0.69290000  0.40770000  0.90510000  1.0 -0.0892334925
N  N16  1  0.65100000  0.26330000  0.90440000  1.0 -0.0802373651
N  N17  1  0.05410000  0.07190000  0.75850000  1.0 -0.0687915306
N  N18  1  0.97230000  0.04330000  0.76010000  1.0 -0.0687915306
N  N19  1  0.11000000  0.32510000  0.88990000  1.0 -0.0802373651
N  N20  1  0.99760000  0.27060000  0.90890000  1.0 -0.0582007132
N  N21  1  0.09580000  0.28680000  0.93080000  1.0 -0.0892334925
N  N22  1  0.04000000  0.15400000  0.80460000  1.0 -0.1312350695
N  N23  1  0.04200000  0.22300000  0.84540000  1.0 -0.1312350695
N  N24  1  0.88500000  0.11100000  0.92970000  1.0 -0.0582007132
N  N25  1  0.80700000  0.97400000  0.91910000  1.0 -0.1487886894
N  N26  1  0.86140000  0.18130000  0.09010000  1.0 -0.1312350695
N  N27  1  0.96860000  0.27620000  0.10780000  1.0 -0.1487886894
N  N28  1  0.96940000  0.23600000  0.06540000  1.0 -0.1398900029
N  N29  1  0.78400000  0.88600000  0.07880000  1.0 -0.1398900029
N  N30  1  0.83500000  0.02600000  0.07250000  1.0 -0.0802373651
N  N31  1  0.64360000  0.45740000  0.86030000  1.0 -0.0582007132
N  N32  1  0.61100000  0.50600000  0.81950000  1.0 -0.1487886894
N  N33  1  0.80517000  0.65384000  0.57397000  1.0 -0.0984381228
N  N34  1  0.69377000  0.63314000  0.55727000  1.0 -0.0892334925
N  N35  1  0.69767000  0.59874000  0.59887000  1.0 -0.0984381228
N  N36  1  0.68867000  0.47804000  0.47097000  1.0 -0.1398900029
N  N37  1  0.72407000  0.56054000  0.51157000  1.0 -0.1312350695
N  N38  1  0.83357000  0.52814000  0.59077000  1.0 -0.1606220332
N  N39  1  0.88337000  0.43724000  0.58567000  1.0 -0.020302094
N  N40  1  0.46257000  0.22474000  0.74117000  1.0 -0.1398900029
N  N41  1  0.49577000  0.36134000  0.74597000  1.0 -0.0802373651
N  N42  1  0.55487000  0.55214000  0.77377000  1.0 -0.1207617319
N  N43  1  0.67377000  0.61474000  0.75647000  1.0 -0.1487886894
N  N44  1  0.57317000  0.52594000  0.73247000  1.0 -0.1398900029
N  N45  1  0.28907000  0.77194000  0.52547000  1.0 -0.0479872758
N  N46  1  0.28987000  0.84544000  0.48617000  1.0 -0.1487886894
N  N47  1  0.35957000  0.74104000  0.57177000  1.0 -0.0892334925
N  N48  1  0.31767000  0.59664000  0.57107000  1.0 -0.0892334925
N  N49  1  0.72077000  0.40524000  0.42517000  1.0 -0.0687915306
N  N50  1  0.63897000  0.37664000  0.42677000  1.0 -0.0687915306
N  N51  1  0.77667000  0.65844000  0.55657000  1.0 -0.0892334925
N  N52  1  0.66427000  0.60394000  0.57557000  1.0 -0.0479872758
N  N53  1  0.76247000  0.62014000  0.59747000  1.0 -0.0984381228
N  N54  1  0.70667000  0.48734000  0.47127000  1.0 -0.1312350695
N  N55  1  0.70867000  0.55634000  0.51207000  1.0 -0.1312350695
N  N56  1  0.55167000  0.44434000  0.59637000  1.0 -0.0582007132
N  N57  1  0.47367000  0.30734000  0.58577000  1.0 -0.1487886894
N  N58  1  0.52807000  0.51464000  0.75677000  1.0 -0.1312350695
N  N59  1  0.63527000  0.60954000  0.77447000  1.0 -0.1487886894
N  N60  1  0.63607000  0.56934000  0.73207000  1.0 -0.1398900029
N  N61  1  0.45067000  0.21934000  0.74547000  1.0 -0.1398900029
N  N62  1  0.50167000  0.35934000  0.73917000  1.0 -0.0802373651
N  N63  1  0.31027000  0.79074000  0.52697000  1.0 -0.0582007132
N  N64  1  0.27767000  0.83934000  0.48617000  1.0 -0.1487886894
N  N65  1  0.47183000  0.98716000  0.24063000  1.0 -0.1092745217
N  N66  1  0.36043000  0.96646000  0.22393000  1.0 -0.0892334925
N  N67  1  0.36433000  0.93206000  0.26553000  1.0 -0.0984381228
N  N68  1  0.35533000  0.81136000  0.13763000  1.0 -0.1398900029
N  N69  1  0.39073000  0.89386000  0.17823000  1.0 -0.1312350695
N  N70  1  0.50023000  0.86146000  0.25743000  1.0 -0.1606220332
N  N71  1  0.55003000  0.77056000  0.25233000  1.0 -0.020302094
N  N72  1  0.12923000  0.55806000  0.40783000  1.0 -0.1398900029
N  N73  1  0.16243000  0.69466000  0.41263000  1.0 -0.0802373651
N  N74  1  0.22153000  0.88546000  0.44043000  1.0 -0.1207617319
N  N75  1  0.34043000  0.94806000  0.42313000  1.0 -0.1487886894
N  N76  1  0.23983000  0.85926000  0.39913000  1.0 -0.1398900029
N  N77  1  0.95573000  0.10526000  0.19213000  1.0 -0.0479872758
N  N78  1  0.95653000  0.17876000  0.15283000  1.0 -0.1487886894
N  N79  1  0.02623000  0.07436000  0.23843000  1.0 -0.0892334925
N  N80  1  0.98433000  0.92996000  0.23773000  1.0 -0.0802373651
N  N81  1  0.38743000  0.73856000  0.09183000  1.0 -0.0687915306
N  N82  1  0.30563000  0.70996000  0.09343000  1.0 -0.0687915306
N  N83  1  0.44333000  0.99176000  0.22323000  1.0 -0.0892334925
N  N84  1  0.33093000  0.93726000  0.24223000  1.0 -0.0479872758
N  N85  1  0.42913000  0.95346000  0.26413000  1.0 -0.0984381228
N  N86  1  0.37333000  0.82066000  0.13793000  1.0 -0.1312350695
N  N87  1  0.37533000  0.88966000  0.17873000  1.0 -0.1312350695
N  N88  1  0.21833000  0.77766000  0.26303000  1.0 -0.0582007132
N  N89  1  0.14033000  0.64066000  0.25243000  1.0 -0.1487886894
N  N90  1  0.19473000  0.84796000  0.42343000  1.0 -0.1312350695
N  N91  1  0.30193000  0.94286000  0.44113000  1.0 -0.1487886894
N  N92  1  0.30273000  0.90266000  0.39873000  1.0 -0.1398900029
N  N93  1  0.11733000  0.55266000  0.41213000  1.0 -0.1398900029
N  N94  1  0.16833000  0.69266000  0.40583000  1.0 -0.0802373651
N  N95  1  0.97693000  0.12406000  0.19363000  1.0 -0.0582007132
N  N96  1  0.94433000  0.17266000  0.15283000  1.0 -0.1487886894
N  N97  1  0.18200000  0.86150000  0.90730000  1.0 -0.0892334925
N  N98  1  0.27270000  0.97290000  0.89060000  1.0 -0.0802373651
N  N99  1  0.23440000  0.96900000  0.93220000  1.0 -0.0892334925
N  N100  1  0.12270000  0.97800000  0.80430000  1.0 -0.1398900029
N  N101  1  0.16980000  0.94260000  0.84490000  1.0 -0.1312350695
N  N102  1  0.02790000  0.83310000  0.92410000  1.0 -0.1487886894
N  N103  1  0.88720000  0.78330000  0.91900000  1.0 -0.020302094
N  N104  1  0.09550000  0.20410000  0.07450000  1.0 -0.1398900029
N  N105  1  0.19890000  0.17090000  0.07930000  1.0 -0.0802373651
N  N106  1  0.33060000  0.11180000  0.10710000  1.0 -0.1207617319
N  N107  1  0.27430000  0.99290000  0.08980000  1.0 -0.1487886894
N  N108  1  0.28610000  0.09350000  0.06580000  1.0 -0.1398900029
N  N109  1  0.81620000  0.37760000  0.85880000  1.0 -0.0479872758
N  N110  1  0.88890000  0.37680000  0.81950000  1.0 -0.1487886894
N  N111  1  0.71480000  0.30710000  0.90510000  1.0 -0.0892334925
N  N112  1  0.61230000  0.34900000  0.90440000  1.0 -0.0892334925
N  N113  1  0.01780000  0.94590000  0.75850000  1.0 -0.0687915306
N  N114  1  0.07100000  0.02770000  0.76010000  1.0 -0.0687915306
N  N115  1  0.21510000  0.89000000  0.88990000  1.0 -0.0802373651
N  N116  1  0.27300000  0.00240000  0.90890000  1.0 -0.0582007132
N  N117  1  0.19100000  0.90420000  0.93080000  1.0 -0.0892334925
N  N118  1  0.11400000  0.96000000  0.80460000  1.0 -0.1312350695
N  N119  1  0.18100000  0.95800000  0.84540000  1.0 -0.1312350695
N  N120  1  0.22600000  0.11500000  0.92970000  1.0 -0.0582007132
N  N121  1  0.16700000  0.19300000  0.91910000  1.0 -0.1487886894
N  N122  1  0.31990000  0.13860000  0.09010000  1.0 -0.1312350695
N  N123  1  0.30760000  0.03140000  0.10780000  1.0 -0.1487886894
N  N124  1  0.26660000  0.03060000  0.06540000  1.0 -0.1398900029
N  N125  1  0.10200000  0.21600000  0.07880000  1.0 -0.1398900029
N  N126  1  0.19100000  0.16500000  0.07250000  1.0 -0.0802373651
N  N127  1  0.81380000  0.35640000  0.86030000  1.0 -0.0582007132
N  N128  1  0.89500000  0.38900000  0.81950000  1.0 -0.1487886894
N  N129  1  0.84867000  0.19484000  0.57397000  1.0 -0.0892334925
N  N130  1  0.93937000  0.30624000  0.55727000  1.0 -0.0802373651
N  N131  1  0.90107000  0.30234000  0.59887000  1.0 -0.0892334925
N  N132  1  0.78937000  0.31134000  0.47097000  1.0 -0.1398900029
N  N133  1  0.83647000  0.27594000  0.51157000  1.0 -0.1312350695
N  N134  1  0.69457000  0.16644000  0.59077000  1.0 -0.1487886894
N  N135  1  0.55387000  0.11664000  0.58567000  1.0 -0.020302094
N  N136  1  0.76217000  0.53744000  0.74117000  1.0 -0.1398900029
N  N137  1  0.86557000  0.50424000  0.74597000  1.0 -0.0802373651
N  N138  1  0.99727000  0.44514000  0.77377000  1.0 -0.1207617319
N  N139  1  0.94097000  0.32624000  0.75647000  1.0 -0.1487886894
N  N140  1  0.95277000  0.42684000  0.73247000  1.0 -0.1398900029
N  N141  1  0.48287000  0.71094000  0.52547000  1.0 -0.0479872758
N  N142  1  0.55557000  0.71014000  0.48617000  1.0 -0.1487886894
N  N143  1  0.38147000  0.64044000  0.57177000  1.0 -0.0892334925
N  N144  1  0.27897000  0.68234000  0.57107000  1.0 -0.0892334925
N  N145  1  0.68447000  0.27924000  0.42517000  1.0 -0.0687915306
N  N146  1  0.73767000  0.36104000  0.42677000  1.0 -0.0687915306
N  N147  1  0.88177000  0.22334000  0.55657000  1.0 -0.0802373651
N  N148  1  0.93967000  0.33574000  0.57557000  1.0 -0.0582007132
N  N149  1  0.85767000  0.23754000  0.59747000  1.0 -0.0892334925
N  N150  1  0.78067000  0.29334000  0.47127000  1.0 -0.1312350695
N  N151  1  0.84767000  0.29134000  0.51207000  1.0 -0.1312350695
N  N152  1  0.89267000  0.44834000  0.59637000  1.0 -0.0582007132
N  N153  1  0.83367000  0.52634000  0.58577000  1.0 -0.1606220332
N  N154  1  0.98657000  0.47194000  0.75677000  1.0 -0.1312350695
N  N155  1  0.97427000  0.36474000  0.77447000  1.0 -0.1487886894
N  N156  1  0.93327000  0.36394000  0.73207000  1.0 -0.1398900029
N  N157  1  0.76867000  0.54934000  0.74547000  1.0 -0.1398900029
N  N158  1  0.85767000  0.49834000  0.73917000  1.0 -0.0802373651
N  N159  1  0.48047000  0.68974000  0.52697000  1.0 -0.0582007132
N  N160  1  0.56167000  0.72234000  0.48617000  1.0 -0.1487886894
N  N161  1  0.51533000  0.52816000  0.24063000  1.0 -0.0892334925
N  N162  1  0.60603000  0.63956000  0.22393000  1.0 -0.0802373651
N  N163  1  0.56773000  0.63566000  0.26553000  1.0 -0.0802373651
N  N164  1  0.45603000  0.64466000  0.13763000  1.0 -0.1398900029
N  N165  1  0.50313000  0.60926000  0.17823000  1.0 -0.1312350695
N  N166  1  0.36123000  0.49976000  0.25743000  1.0 -0.1487886894
N  N167  1  0.22053000  0.44996000  0.25233000  1.0 -0.020302094
N  N168  1  0.42883000  0.87076000  0.40783000  1.0 -0.1398900029
N  N169  1  0.53223000  0.83756000  0.41263000  1.0 -0.0802373651
N  N170  1  0.66393000  0.77846000  0.44043000  1.0 -0.1207617319
N  N171  1  0.60763000  0.65956000  0.42313000  1.0 -0.1487886894
N  N172  1  0.61943000  0.76016000  0.39913000  1.0 -0.1398900029
N  N173  1  0.14953000  0.04426000  0.19213000  1.0 -0.0479872758
N  N174  1  0.22223000  0.04346000  0.15283000  1.0 -0.1487886894
N  N175  1  0.04813000  0.97376000  0.23843000  1.0 -0.0892334925
N  N176  1  0.94563000  0.01566000  0.23773000  1.0 -0.0802373651
N  N177  1  0.35113000  0.61256000  0.09183000  1.0 -0.0687915306
N  N178  1  0.40433000  0.69436000  0.09343000  1.0 -0.0687915306
N  N179  1  0.54843000  0.55666000  0.22323000  1.0 -0.0802373651
N  N180  1  0.60633000  0.66906000  0.24223000  1.0 -0.0582007132
N  N181  1  0.52433000  0.57086000  0.26413000  1.0 -0.0892334925
N  N182  1  0.44733000  0.62666000  0.13793000  1.0 -0.1312350695
N  N183  1  0.51433000  0.62466000  0.17873000  1.0 -0.1312350695
N  N184  1  0.55933000  0.78166000  0.26303000  1.0 -0.0582007132
N  N185  1  0.50033000  0.85966000  0.25243000  1.0 -0.1606220332
N  N186  1  0.65323000  0.80526000  0.42343000  1.0 -0.1312350695
N  N187  1  0.64093000  0.69806000  0.44113000  1.0 -0.1487886894
N  N188  1  0.59993000  0.69726000  0.39873000  1.0 -0.1398900029
N  N189  1  0.43533000  0.88266000  0.41213000  1.0 -0.1398900029
N  N190  1  0.52433000  0.83166000  0.40583000  1.0 -0.0802373651
N  N191  1  0.14713000  0.02306000  0.19363000  1.0 -0.0582007132
N  N192  1  0.22833000  0.05566000  0.15283000  1.0 -0.1487886894
N  N193  1  0.67950000  0.81800000  0.90730000  1.0 -0.0984381228
N  N194  1  0.70020000  0.72730000  0.89060000  1.0 -0.0892334925
N  N195  1  0.73460000  0.76560000  0.93220000  1.0 -0.0984381228
N  N196  1  0.85530000  0.87730000  0.80430000  1.0 -0.1398900029
N  N197  1  0.77280000  0.83020000  0.84490000  1.0 -0.1312350695
N  N198  1  0.80520000  0.97210000  0.92410000  1.0 -0.1487886894
N  N199  1  0.89610000  0.11280000  0.91900000  1.0 -0.020302094
N  N200  1  0.10860000  0.90450000  0.07450000  1.0 -0.1398900029
N  N201  1  0.97200000  0.80110000  0.07930000  1.0 -0.0802373651
N  N202  1  0.78120000  0.66940000  0.10710000  1.0 -0.1207617319
N  N203  1  0.71860000  0.72570000  0.08980000  1.0 -0.1487886894
N  N204  1  0.80740000  0.71390000  0.06580000  1.0 -0.1398900029
N  N205  1  0.56140000  0.18380000  0.85880000  1.0 -0.0479872758
N  N206  1  0.48790000  0.11110000  0.81950000  1.0 -0.1487886894
N  N207  1  0.59230000  0.28520000  0.90510000  1.0 -0.0892334925
N  N208  1  0.73670000  0.38770000  0.90440000  1.0 -0.0802373651
N  N209  1  0.92810000  0.98220000  0.75850000  1.0 -0.0687915306
N  N210  1  0.95670000  0.92900000  0.76010000  1.0 -0.0687915306
N  N211  1  0.67490000  0.78490000  0.88990000  1.0 -0.0892334925
N  N212  1  0.72940000  0.72700000  0.90890000  1.0 -0.0687915306
N  N213  1  0.71320000  0.80900000  0.93080000  1.0 -0.0984381228
N  N214  1  0.84600000  0.88600000  0.80460000  1.0 -0.1312350695
N  N215  1  0.77700000  0.81900000  0.84540000  1.0 -0.1312350695
N  N216  1  0.88900000  0.77400000  0.92970000  1.0 -0.0582007132
N  N217  1  0.02600000  0.83300000  0.91910000  1.0 -0.1487886894
N  N218  1  0.81870000  0.68010000  0.09010000  1.0 -0.1312350695
N  N219  1  0.72380000  0.69240000  0.10780000  1.0 -0.1487886894
N  N220  1  0.76400000  0.73340000  0.06540000  1.0 -0.1398900029
N  N221  1  0.11400000  0.89800000  0.07880000  1.0 -0.1398900029
N  N222  1  0.97400000  0.80900000  0.07250000  1.0 -0.0802373651
N  N223  1  0.54260000  0.18620000  0.86030000  1.0 -0.0582007132
N  N224  1  0.49400000  0.10500000  0.81950000  1.0 -0.1487886894
N  N225  1  0.34617000  0.15134000  0.57397000  1.0 -0.0892334925
N  N226  1  0.36687000  0.06064000  0.55727000  1.0 -0.0892334925
N  N227  1  0.40127000  0.09894000  0.59887000  1.0 -0.0984381228
N  N228  1  0.52197000  0.21064000  0.47097000  1.0 -0.1398900029
N  N229  1  0.43947000  0.16354000  0.51157000  1.0 -0.1312350695
N  N230  1  0.47187000  0.30544000  0.59077000  1.0 -0.1487886894
N  N231  1  0.56277000  0.44614000  0.58567000  1.0 -0.020302094
N  N232  1  0.77527000  0.23784000  0.74117000  1.0 -0.1398900029
N  N233  1  0.63867000  0.13444000  0.74597000  1.0 -0.0802373651
N  N234  1  0.44787000  0.00274000  0.77377000  1.0 -0.1207617319
N  N235  1  0.38527000  0.05904000  0.75647000  1.0 -0.1487886894
N  N236  1  0.47407000  0.04724000  0.73247000  1.0 -0.1398900029
N  N237  1  0.22807000  0.51714000  0.52547000  1.0 -0.0479872758
N  N238  1  0.15457000  0.44444000  0.48617000  1.0 -0.1487886894
N  N239  1  0.25897000  0.61854000  0.57177000  1.0 -0.0892334925
N  N240  1  0.40337000  0.72104000  0.57107000  1.0 -0.0892334925
N  N241  1  0.59477000  0.31554000  0.42517000  1.0 -0.0687915306
N  N242  1  0.62337000  0.26234000  0.42677000  1.0 -0.0687915306
N  N243  1  0.34157000  0.11824000  0.55657000  1.0 -0.0892334925
N  N244  1  0.39607000  0.06034000  0.57557000  1.0 -0.0687915306
N  N245  1  0.37987000  0.14234000  0.59747000  1.0 -0.0984381228
N  N246  1  0.51267000  0.21934000  0.47127000  1.0 -0.1312350695
N  N247  1  0.44367000  0.15234000  0.51207000  1.0 -0.1312350695
N  N248  1  0.55567000  0.10734000  0.59637000  1.0 -0.0582007132
N  N249  1  0.69267000  0.16634000  0.58577000  1.0 -0.1487886894
N  N250  1  0.48537000  0.01344000  0.75677000  1.0 -0.1312350695
N  N251  1  0.39047000  0.02574000  0.77447000  1.0 -0.1487886894
N  N252  1  0.43067000  0.06674000  0.73207000  1.0 -0.1398900029
N  N253  1  0.78067000  0.23134000  0.74547000  1.0 -0.1398900029
N  N254  1  0.64067000  0.14234000  0.73917000  1.0 -0.0802373651
N  N255  1  0.20927000  0.51954000  0.52697000  1.0 -0.0582007132
N  N256  1  0.16067000  0.43834000  0.48617000  1.0 -0.1487886894
N  N257  1  0.01283000  0.48466000  0.24063000  1.0 -0.0892334925
N  N258  1  0.03353000  0.39396000  0.22393000  1.0 -0.0892334925
N  N259  1  0.06793000  0.43226000  0.26553000  1.0 -0.0984381228
N  N260  1  0.18863000  0.54396000  0.13763000  1.0 -0.1398900029
N  N261  1  0.10613000  0.49686000  0.17823000  1.0 -0.1312350695
N  N262  1  0.13853000  0.63876000  0.25743000  1.0 -0.1487886894
N  N263  1  0.22943000  0.77946000  0.25233000  1.0 -0.020302094
N  N264  1  0.44193000  0.57116000  0.40783000  1.0 -0.1398900029
N  N265  1  0.30533000  0.46776000  0.41263000  1.0 -0.0802373651
N  N266  1  0.11453000  0.33606000  0.44043000  1.0 -0.1207617319
N  N267  1  0.05193000  0.39236000  0.42313000  1.0 -0.1487886894
N  N268  1  0.14073000  0.38056000  0.39913000  1.0 -0.1398900029
N  N269  1  0.89473000  0.85046000  0.19213000  1.0 -0.0479872758
N  N270  1  0.82123000  0.77776000  0.15283000  1.0 -0.1487886894
N  N271  1  0.92563000  0.95186000  0.23843000  1.0 -0.0892334925
N  N272  1  0.07003000  0.05436000  0.23773000  1.0 -0.0892334925
N  N273  1  0.26143000  0.64886000  0.09183000  1.0 -0.0687915306
N  N274  1  0.29003000  0.59566000  0.09343000  1.0 -0.0687915306
N  N275  1  0.00823000  0.45156000  0.22323000  1.0 -0.0892334925
N  N276  1  0.06273000  0.39366000  0.24223000  1.0 -0.0687915306
N  N277  1  0.04653000  0.47566000  0.26413000  1.0 -0.0984381228
N  N278  1  0.17933000  0.55266000  0.13793000  1.0 -0.1312350695
N  N279  1  0.11033000  0.48566000  0.17873000  1.0 -0.1312350695
N  N280  1  0.22233000  0.44066000  0.26303000  1.0 -0.0582007132
N  N281  1  0.35933000  0.49966000  0.25243000  1.0 -0.1487886894
N  N282  1  0.15203000  0.34676000  0.42343000  1.0 -0.1312350695
N  N283  1  0.05713000  0.35906000  0.44113000  1.0 -0.1487886894
N  N284  1  0.09733000  0.40006000  0.39873000  1.0 -0.1398900029
N  N285  1  0.44733000  0.56466000  0.41213000  1.0 -0.1398900029
N  N286  1  0.30733000  0.47566000  0.40583000  1.0 -0.0802373651
N  N287  1  0.87593000  0.85286000  0.19363000  1.0 -0.0582007132
N  N288  1  0.82733000  0.77166000  0.15283000  1.0 -0.1487886894
O  O1  1  0.33260000  0.36830000  0.83360000  1.0 -0.2303251119
O  O2  1  0.08920000  0.40370000  0.92320000  1.0 -0.4109370453
O  O3  1  0.88720000  0.06090000  0.79370000  1.0 -0.1998140443
O  O4  1  0.85440000  0.11440000  0.82000000  1.0 -0.1808424059
O  O5  1  0.18140000  0.26830000  0.86520000  1.0 -0.1312350695
O  O6  1  0.21770000  0.24000000  0.83170000  1.0 -0.0984381228
O  O7  1  0.05880000  0.15810000  0.95300000  1.0 -0.1398900029
O  O8  1  0.08090000  0.08120000  0.97270000  1.0 -0.1398900029
O  O9  1  0.28480000  0.10970000  0.87940000  1.0 -0.1892162569
O  O10  1  0.30100000  0.21650000  0.87100000  1.0 -0.1487886894
O  O11  1  0.86650000  0.85790000  0.04400000  1.0 -0.1398900029
O  O12  1  0.90750000  0.96000000  0.02460000  1.0 -0.1606220332
O  O13  1  0.79300000  0.06660000  0.11940000  1.0 -0.1808424059
O  O14  1  0.71440000  0.95600000  0.12790000  1.0 -0.1207617319
O  O15  1  0.91570000  0.31760000  0.07350000  1.0 -0.5822345997
O  O16  1  0.50990000  0.32050000  0.87060000  1.0 -0.17137269
O  O17  1  0.44200000  0.34270000  0.84640000  1.0 -0.1808424059
O  O18  1  0.74660000  0.60440000  0.80030000  1.0 -0.1606220332
O  O19  1  0.80330000  0.59750000  0.83290000  1.0 -0.1207617319
O  O20  1  0.15200000  0.14100000  0.79570000  1.0 -0.1312350695
O  O21  1  0.21800000  0.23500000  0.81810000  1.0 -0.1312350695
O  O22  1  0.92200000  0.20400000  0.86250000  1.0 -0.2303251119
O  O23  1  0.86300000  0.12500000  0.83330000  1.0 -0.1092745217
O  O24  1  0.00400000  0.14800000  0.95270000  1.0 -0.1808424059
O  O25  1  0.95600000  0.05000000  0.97370000  1.0 -0.1892162569
O  O26  1  0.72700000  0.93500000  0.88020000  1.0 -0.17137269
O  O27  1  0.76500000  0.04700000  0.87110000  1.0 -0.1207617319
O  O28  1  0.90500000  0.31100000  0.07430000  1.0 -0.5822345997
O  O29  1  0.26700000  0.18000000  0.13240000  1.0 -0.1487886894
O  O30  1  0.93800000  0.10000000  0.04260000  1.0 -0.1808424059
O  O31  1  0.92200000  0.00200000  0.02460000  1.0 -0.1606220332
O  O32  1  0.70900000  0.92000000  0.12870000  1.0 -0.1092745217
O  O33  1  0.71800000  0.82700000  0.11950000  1.0 -0.1892162569
O  O34  1  0.05700000  0.89100000  0.20480000  1.0 -0.1892162569
O  O35  1  0.44900000  0.35900000  0.83250000  1.0 -0.1092745217
O  O36  1  0.81070000  0.59410000  0.84950000  1.0 -0.1998140443
O  O37  1  0.76830000  0.56690000  0.92950000  1.0 -0.2200345489
O  O38  1  0.99927000  0.70164000  0.50027000  1.0 -0.2303251119
O  O39  1  0.75587000  0.73704000  0.58987000  1.0 -0.5421368001
O  O40  1  0.55387000  0.39424000  0.46037000  1.0 -0.1998140443
O  O41  1  0.52107000  0.44774000  0.48667000  1.0 -0.1808424059
O  O42  1  0.84807000  0.60164000  0.53187000  1.0 -0.1398900029
O  O43  1  0.88437000  0.57334000  0.49837000  1.0 -0.0984381228
O  O44  1  0.72547000  0.49144000  0.61967000  1.0 -0.1487886894
O  O45  1  0.74757000  0.41454000  0.63937000  1.0 -0.1398900029
O  O46  1  0.95147000  0.44304000  0.54607000  1.0 -0.1892162569
O  O47  1  0.96767000  0.54984000  0.53767000  1.0 -0.1487886894
O  O48  1  0.53317000  0.19124000  0.71067000  1.0 -0.1398900029
O  O49  1  0.57417000  0.29334000  0.69127000  1.0 -0.1606220332
O  O50  1  0.45967000  0.39994000  0.78607000  1.0 -0.1808424059
O  O51  1  0.38107000  0.28934000  0.79457000  1.0 -0.1207617319
O  O52  1  0.58237000  0.65094000  0.74017000  1.0 -0.5822345997
O  O53  1  0.17657000  0.65384000  0.53727000  1.0 -0.17137269
O  O54  1  0.10867000  0.67604000  0.51307000  1.0 -0.1808424059
O  O55  1  0.41327000  0.93774000  0.46697000  1.0 -0.1606220332
O  O56  1  0.46997000  0.93084000  0.49957000  1.0 -0.1207617319
O  O57  1  0.81867000  0.47434000  0.46237000  1.0 -0.1312350695
O  O58  1  0.88467000  0.56834000  0.48477000  1.0 -0.1312350695
O  O59  1  0.58867000  0.53734000  0.52917000  1.0 -0.2303251119
O  O60  1  0.52967000  0.45834000  0.49997000  1.0 -0.1092745217
O  O61  1  0.67067000  0.48134000  0.61937000  1.0 -0.1808424059
O  O62  1  0.62267000  0.38334000  0.64037000  1.0 -0.1892162569
O  O63  1  0.39367000  0.26834000  0.54687000  1.0 -0.17137269
O  O64  1  0.43167000  0.38034000  0.53777000  1.0 -0.1207617319
O  O65  1  0.57167000  0.64434000  0.74097000  1.0 -0.5822345997
O  O66  1  0.93367000  0.51334000  0.79907000  1.0 -0.1487886894
O  O67  1  0.60467000  0.43334000  0.70927000  1.0 -0.1892162569
O  O68  1  0.58867000  0.33534000  0.69127000  1.0 -0.1606220332
O  O69  1  0.37567000  0.25334000  0.79537000  1.0 -0.1092745217
O  O70  1  0.38467000  0.16034000  0.78617000  1.0 -0.1892162569
O  O71  1  0.72367000  0.22434000  0.87147000  1.0 -0.1892162569
O  O72  1  0.11567000  0.69234000  0.49917000  1.0 -0.1092745217
O  O73  1  0.47737000  0.92744000  0.51617000  1.0 -0.1998140443
O  O74  1  0.43497000  0.90024000  0.59617000  1.0 -0.2200345489
O  O75  1  0.66593000  0.03496000  0.16693000  1.0 -0.2200345489
O  O76  1  0.42253000  0.07036000  0.25653000  1.0 -0.5421368001
O  O77  1  0.22053000  0.72756000  0.12703000  1.0 -0.1998140443
O  O78  1  0.18773000  0.78106000  0.15333000  1.0 -0.1808424059
O  O79  1  0.51473000  0.93496000  0.19853000  1.0 -0.1398900029
O  O80  1  0.55103000  0.90666000  0.16503000  1.0 -0.0984381228
O  O81  1  0.39213000  0.82476000  0.28633000  1.0 -0.1487886894
O  O82  1  0.41423000  0.74786000  0.30603000  1.0 -0.1398900029
O  O83  1  0.61813000  0.77636000  0.21273000  1.0 -0.1892162569
O  O84  1  0.63433000  0.88316000  0.20433000  1.0 -0.1487886894
O  O85  1  0.19983000  0.52456000  0.37733000  1.0 -0.1398900029
O  O86  1  0.24083000  0.62666000  0.35793000  1.0 -0.1606220332
O  O87  1  0.12633000  0.73326000  0.45273000  1.0 -0.1808424059
O  O88  1  0.04773000  0.62266000  0.46123000  1.0 -0.1207617319
O  O89  1  0.24903000  0.98426000  0.40683000  1.0 -0.5822345997
O  O90  1  0.84323000  0.98716000  0.20393000  1.0 -0.17137269
O  O91  1  0.77533000  0.00936000  0.17973000  1.0 -0.1808424059
O  O92  1  0.07993000  0.27106000  0.13363000  1.0 -0.1606220332
O  O93  1  0.13663000  0.26416000  0.16623000  1.0 -0.1207617319
O  O94  1  0.48533000  0.80766000  0.12903000  1.0 -0.1398900029
O  O95  1  0.55133000  0.90166000  0.15143000  1.0 -0.1312350695
O  O96  1  0.25533000  0.87066000  0.19583000  1.0 -0.2303251119
O  O97  1  0.19633000  0.79166000  0.16663000  1.0 -0.1092745217
O  O98  1  0.33733000  0.81466000  0.28603000  1.0 -0.1892162569
O  O99  1  0.28933000  0.71666000  0.30703000  1.0 -0.1892162569
O  O100  1  0.06033000  0.60166000  0.21353000  1.0 -0.17137269
O  O101  1  0.09833000  0.71366000  0.20443000  1.0 -0.1312350695
O  O102  1  0.23833000  0.97766000  0.40763000  1.0 -0.5822345997
O  O103  1  0.60033000  0.84666000  0.46573000  1.0 -0.1487886894
O  O104  1  0.27133000  0.76666000  0.37593000  1.0 -0.1892162569
O  O105  1  0.25533000  0.66866000  0.35793000  1.0 -0.1606220332
O  O106  1  0.04233000  0.58666000  0.46203000  1.0 -0.1092745217
O  O107  1  0.05133000  0.49366000  0.45283000  1.0 -0.1892162569
O  O108  1  0.39033000  0.55766000  0.53813000  1.0 -0.1892162569
O  O109  1  0.78233000  0.02566000  0.16583000  1.0 -0.1092745217
O  O110  1  0.14403000  0.26076000  0.18283000  1.0 -0.1998140443
O  O111  1  0.10163000  0.23356000  0.26283000  1.0 -0.2200345489
O  O112  1  0.03570000  0.66740000  0.83360000  1.0 -0.2303251119
O  O113  1  0.31450000  0.91080000  0.92320000  1.0 -0.4109370453
O  O114  1  0.17370000  0.11280000  0.79370000  1.0 -0.1998140443
O  O115  1  0.26000000  0.14560000  0.82000000  1.0 -0.1808424059
O  O116  1  0.08690000  0.81860000  0.86520000  1.0 -0.1312350695
O  O117  1  0.02230000  0.78230000  0.83170000  1.0 -0.0984381228
O  O118  1  0.09930000  0.94120000  0.95300000  1.0 -0.1398900029
O  O119  1  0.00030000  0.91910000  0.97270000  1.0 -0.1398900029
O  O120  1  0.82490000  0.71520000  0.87940000  1.0 -0.1892162569
O  O121  1  0.91550000  0.69900000  0.87100000  1.0 -0.1487886894
O  O122  1  0.99140000  0.13350000  0.04400000  1.0 -0.1398900029
O  O123  1  0.05250000  0.09250000  0.02460000  1.0 -0.1606220332
O  O124  1  0.27360000  0.20700000  0.11940000  1.0 -0.1808424059
O  O125  1  0.24160000  0.28560000  0.12790000  1.0 -0.1207617319
O  O126  1  0.40190000  0.08430000  0.07350000  1.0 -0.5822345997
O  O127  1  0.81060000  0.49010000  0.87060000  1.0 -0.17137269
O  O128  1  0.90070000  0.55800000  0.84640000  1.0 -0.1808424059
O  O129  1  0.85780000  0.25340000  0.80030000  1.0 -0.1606220332
O  O130  1  0.79420000  0.19670000  0.83290000  1.0 -0.1207617319
O  O131  1  0.98900000  0.84800000  0.79570000  1.0 -0.1312350695
O  O132  1  0.01700000  0.78200000  0.81810000  1.0 -0.1312350695
O  O133  1  0.28200000  0.07800000  0.86250000  1.0 -0.2303251119
O  O134  1  0.26200000  0.13700000  0.83330000  1.0 -0.1092745217
O  O135  1  0.14400000  0.99600000  0.95270000  1.0 -0.1808424059
O  O136  1  0.09400000  0.04400000  0.97370000  1.0 -0.1892162569
O  O137  1  0.20800000  0.27300000  0.88020000  1.0 -0.17137269
O  O138  1  0.28200000  0.23500000  0.87110000  1.0 -0.1312350695
O  O139  1  0.40600000  0.09500000  0.07430000  1.0 -0.5822345997
O  O140  1  0.91300000  0.73300000  0.13240000  1.0 -0.1487886894
O  O141  1  0.16200000  0.06200000  0.04260000  1.0 -0.1892162569
O  O142  1  0.08000000  0.07800000  0.02460000  1.0 -0.1606220332
O  O143  1  0.21100000  0.29100000  0.12870000  1.0 -0.1092745217
O  O144  1  0.10900000  0.28200000  0.11950000  1.0 -0.1892162569
O  O145  1  0.83400000  0.94300000  0.20480000  1.0 -0.1892162569
O  O146  1  0.91000000  0.55100000  0.83250000  1.0 -0.1092745217
O  O147  1  0.78340000  0.18930000  0.84950000  1.0 -0.1998140443
O  O148  1  0.79860000  0.23170000  0.92950000  1.0 -0.2200345489
O  O149  1  0.70237000  0.00074000  0.50027000  1.0 -0.2200345489
O  O150  1  0.98117000  0.24414000  0.58987000  1.0 -0.4109370453
O  O151  1  0.84037000  0.44614000  0.46037000  1.0 -0.1998140443
O  O152  1  0.92667000  0.47894000  0.48667000  1.0 -0.1808424059
O  O153  1  0.75357000  0.15194000  0.53187000  1.0 -0.1312350695
O  O154  1  0.68897000  0.11564000  0.49837000  1.0 -0.0984381228
O  O155  1  0.76597000  0.27454000  0.61967000  1.0 -0.1398900029
O  O156  1  0.66697000  0.25244000  0.63937000  1.0 -0.1398900029
O  O157  1  0.49157000  0.04854000  0.54607000  1.0 -0.1892162569
O  O158  1  0.58217000  0.03234000  0.53767000  1.0 -0.1487886894
O  O159  1  0.65807000  0.46684000  0.71067000  1.0 -0.1398900029
O  O160  1  0.71917000  0.42584000  0.69127000  1.0 -0.1606220332
O  O161  1  0.94027000  0.54034000  0.78607000  1.0 -0.1808424059
O  O162  1  0.90827000  0.61894000  0.79457000  1.0 -0.1207617319
O  O163  1  0.06857000  0.41764000  0.74017000  1.0 -0.5822345997
O  O164  1  0.47727000  0.82344000  0.53727000  1.0 -0.17137269
O  O165  1  0.56737000  0.89134000  0.51307000  1.0 -0.1808424059
O  O166  1  0.52447000  0.58674000  0.46697000  1.0 -0.1606220332
O  O167  1  0.46087000  0.53004000  0.49957000  1.0 -0.1207617319
O  O168  1  0.65567000  0.18134000  0.46237000  1.0 -0.1312350695
O  O169  1  0.68367000  0.11534000  0.48477000  1.0 -0.1312350695
O  O170  1  0.94867000  0.41134000  0.52917000  1.0 -0.2303251119
O  O171  1  0.92867000  0.47034000  0.49997000  1.0 -0.1092745217
O  O172  1  0.81067000  0.32934000  0.61937000  1.0 -0.17137269
O  O173  1  0.76067000  0.37734000  0.64037000  1.0 -0.1892162569
O  O174  1  0.87467000  0.60634000  0.54687000  1.0 -0.1808424059
O  O175  1  0.94867000  0.56834000  0.53777000  1.0 -0.1312350695
O  O176  1  0.07267000  0.42834000  0.74097000  1.0 -0.5822345997
O  O177  1  0.57967000  0.06634000  0.79907000  1.0 -0.1487886894
O  O178  1  0.82867000  0.39534000  0.70927000  1.0 -0.1892162569
O  O179  1  0.74667000  0.41134000  0.69127000  1.0 -0.1606220332
O  O180  1  0.87767000  0.62434000  0.79537000  1.0 -0.1092745217
O  O181  1  0.77567000  0.61534000  0.78617000  1.0 -0.1892162569
O  O182  1  0.50067000  0.27634000  0.87147000  1.0 -0.1892162569
O  O183  1  0.57667000  0.88434000  0.49917000  1.0 -0.1092745217
O  O184  1  0.45007000  0.52264000  0.51617000  1.0 -0.1998140443
O  O185  1  0.46527000  0.56504000  0.59617000  1.0 -0.2200345489
O  O186  1  0.36903000  0.33406000  0.16693000  1.0 -0.2200345489
O  O187  1  0.64783000  0.57746000  0.25653000  1.0 -0.4109370453
O  O188  1  0.50703000  0.77946000  0.12703000  1.0 -0.1998140443
O  O189  1  0.59333000  0.81226000  0.15333000  1.0 -0.1808424059
O  O190  1  0.42023000  0.48526000  0.19853000  1.0 -0.1312350695
O  O191  1  0.35563000  0.44896000  0.16503000  1.0 -0.0984381228
O  O192  1  0.43263000  0.60786000  0.28633000  1.0 -0.1398900029
O  O193  1  0.33363000  0.58576000  0.30603000  1.0 -0.1398900029
O  O194  1  0.15823000  0.38186000  0.21273000  1.0 -0.1892162569
O  O195  1  0.24883000  0.36566000  0.20433000  1.0 -0.1487886894
O  O196  1  0.32473000  0.80016000  0.37733000  1.0 -0.1398900029
O  O197  1  0.38583000  0.75916000  0.35793000  1.0 -0.1606220332
O  O198  1  0.60693000  0.87366000  0.45273000  1.0 -0.1808424059
O  O199  1  0.57493000  0.95226000  0.46123000  1.0 -0.1312350695
O  O200  1  0.73523000  0.75096000  0.40683000  1.0 -0.5822345997
O  O201  1  0.14393000  0.15676000  0.20393000  1.0 -0.1606220332
O  O202  1  0.23403000  0.22466000  0.17973000  1.0 -0.1808424059
O  O203  1  0.19113000  0.92006000  0.13363000  1.0 -0.1606220332
O  O204  1  0.12753000  0.86336000  0.16623000  1.0 -0.1207617319
O  O205  1  0.32233000  0.51466000  0.12903000  1.0 -0.1398900029
O  O206  1  0.35033000  0.44866000  0.15143000  1.0 -0.1312350695
O  O207  1  0.61533000  0.74466000  0.19583000  1.0 -0.2303251119
O  O208  1  0.59533000  0.80366000  0.16663000  1.0 -0.1092745217
O  O209  1  0.47733000  0.66266000  0.28603000  1.0 -0.1808424059
O  O210  1  0.42733000  0.71066000  0.30703000  1.0 -0.1892162569
O  O211  1  0.54133000  0.93966000  0.21353000  1.0 -0.1808424059
O  O212  1  0.61533000  0.90166000  0.20443000  1.0 -0.1312350695
O  O213  1  0.73933000  0.76166000  0.40763000  1.0 -0.5822345997
O  O214  1  0.24633000  0.39966000  0.46573000  1.0 -0.1487886894
O  O215  1  0.49533000  0.72866000  0.37593000  1.0 -0.1892162569
O  O216  1  0.41333000  0.74466000  0.35793000  1.0 -0.1606220332
O  O217  1  0.54433000  0.95766000  0.46203000  1.0 -0.1092745217
O  O218  1  0.44233000  0.94866000  0.45283000  1.0 -0.1892162569
O  O219  1  0.16733000  0.60966000  0.53813000  1.0 -0.1892162569
O  O220  1  0.24333000  0.21766000  0.16583000  1.0 -0.1092745217
O  O221  1  0.11673000  0.85596000  0.18283000  1.0 -0.1998140443
O  O222  1  0.13193000  0.89836000  0.26283000  1.0 -0.2200345489
O  O223  1  0.63170000  0.96430000  0.83360000  1.0 -0.2303251119
O  O224  1  0.59630000  0.68550000  0.92320000  1.0 -0.4620476085
O  O225  1  0.93910000  0.82630000  0.79370000  1.0 -0.1998140443
O  O226  1  0.88560000  0.74000000  0.82000000  1.0 -0.1808424059
O  O227  1  0.73170000  0.91310000  0.86520000  1.0 -0.1312350695
O  O228  1  0.76000000  0.97770000  0.83170000  1.0 -0.0984381228
O  O229  1  0.84190000  0.90070000  0.95300000  1.0 -0.1398900029
O  O230  1  0.91880000  0.99970000  0.97270000  1.0 -0.1398900029
O  O231  1  0.89030000  0.17510000  0.87940000  1.0 -0.1892162569
O  O232  1  0.78350000  0.08450000  0.87100000  1.0 -0.1487886894
O  O233  1  0.14210000  0.00860000  0.04400000  1.0 -0.1398900029
O  O234  1  0.04000000  0.94750000  0.02460000  1.0 -0.1606220332
O  O235  1  0.93340000  0.72640000  0.11940000  1.0 -0.1808424059
O  O236  1  0.04400000  0.75840000  0.12790000  1.0 -0.1207617319
O  O237  1  0.68240000  0.59810000  0.07350000  1.0 -0.5822345997
O  O238  1  0.67950000  0.18940000  0.87060000  1.0 -0.1606220332
O  O239  1  0.65730000  0.09930000  0.84640000  1.0 -0.1808424059
O  O240  1  0.39560000  0.14220000  0.80030000  1.0 -0.1606220332
O  O241  1  0.40250000  0.20580000  0.83290000  1.0 -0.1207617319
O  O242  1  0.59500000  0.68500000  0.92240000  1.0 -0.4620476085
O  O243  1  0.85900000  0.01100000  0.79570000  1.0 -0.1312350695
O  O244  1  0.76500000  0.98300000  0.81810000  1.0 -0.1312350695
O  O245  1  0.79600000  0.71800000  0.86250000  1.0 -0.2303251119
O  O246  1  0.87500000  0.73800000  0.83330000  1.0 -0.1092745217
O  O247  1  0.85200000  0.85600000  0.95270000  1.0 -0.1808424059
O  O248  1  0.95000000  0.90600000  0.97370000  1.0 -0.1892162569
O  O249  1  0.06500000  0.79200000  0.88020000  1.0 -0.17137269
O  O250  1  0.95300000  0.71800000  0.87110000  1.0 -0.1312350695
O  O251  1  0.68900000  0.59400000  0.07430000  1.0 -0.5822345997
O  O252  1  0.82000000  0.08700000  0.13240000  1.0 -0.1487886894
O  O253  1  0.90000000  0.83800000  0.04260000  1.0 -0.1892162569
O  O254  1  0.99800000  0.92000000  0.02460000  1.0 -0.1606220332
O  O255  1  0.08000000  0.78900000  0.12870000  1.0 -0.1092745217
O  O256  1  0.17300000  0.89100000  0.11950000  1.0 -0.1892162569
O  O257  1  0.10900000  0.16600000  0.20480000  1.0 -0.1892162569
O  O258  1  0.64100000  0.09000000  0.83250000  1.0 -0.1092745217
O  O259  1  0.40590000  0.21660000  0.84950000  1.0 -0.1998140443
O  O260  1  0.43310000  0.20140000  0.92950000  1.0 -0.2200345489
O  O261  1  0.29837000  0.29764000  0.50027000  1.0 -0.2200345489
O  O262  1  0.26297000  0.01884000  0.58987000  1.0 -0.4620476085
O  O263  1  0.60577000  0.15964000  0.46037000  1.0 -0.1998140443
O  O264  1  0.55227000  0.07334000  0.48667000  1.0 -0.1808424059
O  O265  1  0.39837000  0.24644000  0.53187000  1.0 -0.1312350695
O  O266  1  0.42667000  0.31104000  0.49837000  1.0 -0.0984381228
O  O267  1  0.50857000  0.23404000  0.61967000  1.0 -0.1398900029
O  O268  1  0.58547000  0.33304000  0.63937000  1.0 -0.1398900029
O  O269  1  0.55697000  0.50844000  0.54607000  1.0 -0.1998140443
O  O270  1  0.45017000  0.41784000  0.53767000  1.0 -0.1487886894
O  O271  1  0.80877000  0.34194000  0.71067000  1.0 -0.1398900029
O  O272  1  0.70667000  0.28084000  0.69127000  1.0 -0.1606220332
O  O273  1  0.60007000  0.05974000  0.78607000  1.0 -0.1808424059
O  O274  1  0.71067000  0.09174000  0.79457000  1.0 -0.1207617319
O  O275  1  0.34907000  0.93144000  0.74017000  1.0 -0.5822345997
O  O276  1  0.34617000  0.52274000  0.53727000  1.0 -0.17137269
O  O277  1  0.32397000  0.43264000  0.51307000  1.0 -0.1808424059
O  O278  1  0.06227000  0.47554000  0.46697000  1.0 -0.1606220332
O  O279  1  0.06917000  0.53914000  0.49957000  1.0 -0.1207617319
O  O280  1  0.26167000  0.01834000  0.58907000  1.0 -0.4620476085
O  O281  1  0.52567000  0.34434000  0.46237000  1.0 -0.1312350695
O  O282  1  0.43167000  0.31634000  0.48477000  1.0 -0.1312350695
O  O283  1  0.46267000  0.05134000  0.52917000  1.0 -0.2303251119
O  O284  1  0.54167000  0.07134000  0.49997000  1.0 -0.1092745217
O  O285  1  0.51867000  0.18934000  0.61937000  1.0 -0.1808424059
O  O286  1  0.61667000  0.23934000  0.64037000  1.0 -0.1892162569
O  O287  1  0.73167000  0.12534000  0.54687000  1.0 -0.17137269
O  O288  1  0.61967000  0.05134000  0.53777000  1.0 -0.1312350695
O  O289  1  0.35567000  0.92734000  0.74097000  1.0 -0.5822345997
O  O290  1  0.48667000  0.42034000  0.79907000  1.0 -0.1487886894
O  O291  1  0.56667000  0.17134000  0.70927000  1.0 -0.1892162569
O  O292  1  0.66467000  0.25334000  0.69127000  1.0 -0.1606220332
O  O293  1  0.74667000  0.12234000  0.79537000  1.0 -0.1092745217
O  O294  1  0.83967000  0.22434000  0.78617000  1.0 -0.1892162569
O  O295  1  0.77567000  0.49934000  0.87147000  1.0 -0.1892162569
O  O296  1  0.30767000  0.42334000  0.49917000  1.0 -0.1092745217
O  O297  1  0.07257000  0.54994000  0.51617000  1.0 -0.1998140443
O  O298  1  0.09977000  0.53474000  0.59617000  1.0 -0.2200345489
O  O299  1  0.96503000  0.63096000  0.16693000  1.0 -0.2200345489
O  O300  1  0.92963000  0.35216000  0.25653000  1.0 -0.4620476085
O  O301  1  0.27243000  0.49296000  0.12703000  1.0 -0.1998140443
O  O302  1  0.21893000  0.40666000  0.15333000  1.0 -0.1808424059
O  O303  1  0.06503000  0.57976000  0.19853000  1.0 -0.1312350695
O  O304  1  0.09333000  0.64436000  0.16503000  1.0 -0.0984381228
O  O305  1  0.17523000  0.56736000  0.28633000  1.0 -0.1398900029
O  O306  1  0.25213000  0.66636000  0.30603000  1.0 -0.1398900029
O  O307  1  0.22363000  0.84176000  0.21273000  1.0 -0.1892162569
O  O308  1  0.11683000  0.75116000  0.20433000  1.0 -0.1487886894
O  O309  1  0.47543000  0.67526000  0.37733000  1.0 -0.1398900029
O  O310  1  0.37333000  0.61416000  0.35793000  1.0 -0.1606220332
O  O311  1  0.26673000  0.39306000  0.45273000  1.0 -0.1892162569
O  O312  1  0.37733000  0.42506000  0.46123000  1.0 -0.1207617319
O  O313  1  0.01573000  0.26476000  0.40683000  1.0 -0.5822345997
O  O314  1  0.01283000  0.85606000  0.20393000  1.0 -0.17137269
O  O315  1  0.99063000  0.76596000  0.17973000  1.0 -0.1808424059
O  O316  1  0.72893000  0.80886000  0.13363000  1.0 -0.1606220332
O  O317  1  0.73583000  0.87246000  0.16623000  1.0 -0.1207617319
O  O318  1  0.92833000  0.35166000  0.25573000  1.0 -0.4620476085
O  O319  1  0.19233000  0.67766000  0.12903000  1.0 -0.1398900029
O  O320  1  0.09833000  0.64966000  0.15143000  1.0 -0.1312350695
O  O321  1  0.12933000  0.38466000  0.19583000  1.0 -0.2303251119
O  O322  1  0.20833000  0.40466000  0.16663000  1.0 -0.1092745217
O  O323  1  0.18533000  0.52266000  0.28603000  1.0 -0.17137269
O  O324  1  0.28333000  0.57266000  0.30703000  1.0 -0.1892162569
O  O325  1  0.39833000  0.45866000  0.21353000  1.0 -0.1808424059
O  O326  1  0.28633000  0.38466000  0.20443000  1.0 -0.1312350695
O  O327  1  0.02233000  0.26066000  0.40763000  1.0 -0.5822345997
O  O328  1  0.15333000  0.75366000  0.46573000  1.0 -0.1487886894
O  O329  1  0.23333000  0.50466000  0.37593000  1.0 -0.1892162569
O  O330  1  0.33133000  0.58666000  0.35793000  1.0 -0.1606220332
O  O331  1  0.41333000  0.45566000  0.46203000  1.0 -0.1092745217
O  O332  1  0.50633000  0.55766000  0.45283000  1.0 -0.1892162569
O  O333  1  0.44233000  0.83266000  0.53813000  1.0 -0.1892162569
O  O334  1  0.97433000  0.75666000  0.16583000  1.0 -0.1092745217
O  O335  1  0.73923000  0.88326000  0.18283000  1.0 -0.1998140443
O  O336  1  0.76643000  0.86806000  0.26283000  1.0 -0.2200345489
O  O337  1  0.00000000  0.00000000  0.71800000  1.0 -0.4261290251
O  O338  1  0.66666667  0.33333333  0.38467000  1.0 -0.4261290251
O  O339  1  0.33333333  0.66666667  0.05133000  1.0 -0.4261290251
O  O340  1  0.66666667  0.33333333  0.94550000  1.0 -0.3903176778
O  O341  1  0.33333333  0.66666667  0.61217000  1.0 -0.3903176778
O  O342  1  0.00000000  0.00000000  0.27883000  1.0 -0.3903176778
O  O343  1  0.26533000  0.66066000  0.48793000  1.0 -0.4495187751
O  O344  1  0.39533000  0.73466000  0.48793000  1.0 -0.4495187751
O  O345  1  0.33933000  0.60466000  0.48793000  1.0 -0.4495187751
O  O346  1  0.40443000  0.71846000  0.17713000  1.0 -0.4800805567
O  O347  1  0.31403000  0.59556000  0.17713000  1.0 -0.4800805567
O  O348  1  0.28153000  0.68596000  0.17713000  1.0 -0.4800805567
O  O349  1  0.59867000  0.32734000  0.82127000  1.0 -0.4495187751
O  O350  1  0.72867000  0.40134000  0.82127000  1.0 -0.4495187751
O  O351  1  0.67267000  0.27134000  0.82127000  1.0 -0.4495187751
O  O352  1  0.73777000  0.38514000  0.51047000  1.0 -0.4800805567
O  O353  1  0.64737000  0.26224000  0.51047000  1.0 -0.4800805567
O  O354  1  0.61487000  0.35264000  0.51047000  1.0 -0.4800805567
O  O355  1  0.93200000  0.99400000  0.15460000  1.0 -0.4495187751
O  O356  1  0.06200000  0.06800000  0.15460000  1.0 -0.4495187751
O  O357  1  0.00600000  0.93800000  0.15460000  1.0 -0.4495187751
O  O358  1  0.07110000  0.05180000  0.84380000  1.0 -0.4800805567
O  O359  1  0.98070000  0.92890000  0.84380000  1.0 -0.4800805567
O  O360  1  0.94820000  0.01930000  0.84380000  1.0 -0.4800805567
F  F1  1  0.28503000  0.61236000  0.44063000  1.0 -0.2400661987
F  F2  1  0.32733000  0.71496000  0.44063000  1.0 -0.2400661987
F  F3  1  0.38763000  0.67266000  0.44063000  1.0 -0.2400661987
F  F4  1  0.37433000  0.65036000  0.22393000  1.0 -0.2303251119
F  F5  1  0.27603000  0.62566000  0.22393000  1.0 -0.2303251119
F  F6  1  0.34963000  0.72396000  0.22393000  1.0 -0.2303251119
F  F7  1  0.61837000  0.27904000  0.77397000  1.0 -0.2400661987
F  F8  1  0.66067000  0.38164000  0.77397000  1.0 -0.2400661987
F  F9  1  0.72097000  0.33934000  0.77397000  1.0 -0.2400661987
F  F10  1  0.70767000  0.31704000  0.55727000  1.0 -0.2303251119
F  F11  1  0.60937000  0.29234000  0.55727000  1.0 -0.2303251119
F  F12  1  0.68297000  0.39064000  0.55727000  1.0 -0.2303251119
F  F13  1  0.95170000  0.94570000  0.10730000  1.0 -0.2400661987
F  F14  1  0.99400000  0.04830000  0.10730000  1.0 -0.2400661987
F  F15  1  0.05430000  0.00600000  0.10730000  1.0 -0.2400661987
F  F16  1  0.04100000  0.98370000  0.89060000  1.0 -0.2303251119
F  F17  1  0.94270000  0.95900000  0.89060000  1.0 -0.2303251119
F  F18  1  0.01630000  0.05730000  0.89060000  1.0 -0.2303251119
