# DDEC6 charges by PACMAN v1.1 (https://github.com/mtap-research/PACMAN-charge/)
data_ERUHIL_ASR_pacman
_chemical_formula_sum              "C4896 O3536 Ti672 Co144"
_cell_length_a       73.645
_cell_length_b       73.645
_cell_length_c       73.645
_cell_angle_alpha    90
_cell_angle_beta     90
_cell_angle_gamma    90

_symmetry_space_group_name_H-M    "P 1"
_symmetry_Int_Tables_number       1

loop_
  _symmetry_equiv_pos_as_xyz
  'x, y, z'

loop_
  _atom_site_type_symbol
  _atom_site_label
  _atom_site_symmetry_multiplicity
  _atom_site_fract_x
  _atom_site_fract_y
  _atom_site_fract_z
  _atom_site_occupancy
 _atom_site_charge
C   C1        1.0  0.21400  0.10060  0.91010  1.0000 0.0614820425
C   C2        1.0  0.19380  0.11620  0.88750  1.0000 0.0501834124
C   C3        1.0  0.19890  0.09980  0.92290  1.0000 -0.1718156922
C   C4        1.0  0.17890  0.11530  0.90040  1.0000 -0.189473289
C   C5        1.0  0.18150  0.10720  0.91800  1.0000 0.0978843566
C   C6        1.0  0.21140  0.10880  0.89220  1.0000 -0.1087284717
C   C7        1.0  0.16400  0.12640  0.89670  1.0000 0.6285624754
C   C8        1.0  0.22750  0.10970  0.87800  1.0000 0.6861819945
C   C9        1.0  0.20000  0.08890  0.93810  1.0000 0.6215376561
O   O1        1.0  0.18700  0.08960  0.95010  1.0000 -0.6397820246
O   O2        1.0  0.21500  0.08080  0.94170  1.0000 -0.6517776188
O   O3        1.0  0.22600  0.11980  0.86390  1.0000 -0.6587408496
O   O4        1.0  0.24140  0.09910  0.87970  1.0000 -0.6587408496
O   O5        1.0  0.16020  0.13040  0.88000  1.0000 -0.609555034
O   O6        1.0  0.15220  0.12940  0.90930  1.0000 -0.6397820246
C   C10       1.0  0.20800  0.09640  0.01830  1.0000 0.0501834124
C   C11       1.0  0.22000  0.08790  0.00530  1.0000 -0.0708048282
C   C12       1.0  0.21210  0.07960  0.98760  1.0000 0.6800795649
O   O7        1.0  0.18260  0.09770  0.04610  1.0000 -0.6517776188
O   O8        1.0  0.19520  0.08120  0.98440  1.0000 -0.6162038559
O   O9        1.0  0.22300  0.07280  0.97490  1.0000 -0.6782680781
Ti  Ti1       1.0  0.22611  0.05791  0.95066  1.0000 2.0212494802
O   O10       1.0  0.24080  0.03120  0.96460  1.0000 -0.6397820246
C   C13       1.0  0.26700  0.13970  0.79100  1.0000 0.0286004543
C   C14       1.0  0.26550  0.12010  0.78960  1.0000 -0.1004600406
C   C15       1.0  0.25360  0.10960  0.80310  1.0000 0.6629974542
O   O11       1.0  0.29400  0.17830  0.77230  1.0000 -0.6951936574
O   O12       1.0  0.25680  0.09260  0.80620  1.0000 -0.5677502138
O   O13       1.0  0.24140  0.11820  0.81260  1.0000 -0.6587408496
Co  Co1       1.0  0.23635  0.11764  0.83985  1.0000 1.9421053842
O   O14       1.0  0.14990  0.12150  0.84900  1.0000 -0.6397820246
O   O15       1.0  0.22230  0.07780  0.82350  1.0000 -0.5856416578
O   O16       1.0  0.21440  0.10720  0.82630  1.0000 -0.6517776188
C   C16       1.0  0.17570  0.09820  0.83060  1.0000 0.0210823154
C   C17       1.0  0.18950  0.08470  0.82640  1.0000 -0.1004600406
C   C18       1.0  0.20990  0.09020  0.82620  1.0000 0.653666533
O   O17       1.0  0.15930  0.11370  0.06890  1.0000 -0.609555034
Ti  Ti2       1.0  0.11764  0.23635  0.83985  1.0000 1.1911382492
C   C19       1.0  0.21400  0.60060  0.41010  1.0000 0.0614820425
C   C20       1.0  0.19380  0.61620  0.38750  1.0000 0.0501834124
C   C21       1.0  0.19890  0.59980  0.42290  1.0000 -0.1718156922
C   C22       1.0  0.17890  0.61530  0.40040  1.0000 -0.189473289
C   C23       1.0  0.18150  0.60720  0.41800  1.0000 0.0978843566
C   C24       1.0  0.21140  0.60880  0.39220  1.0000 -0.1087284717
C   C25       1.0  0.16400  0.62640  0.39670  1.0000 0.6285624754
C   C26       1.0  0.22750  0.60970  0.37800  1.0000 0.6861819945
C   C27       1.0  0.20000  0.58890  0.43810  1.0000 0.6215376561
O   O18       1.0  0.18700  0.58960  0.45010  1.0000 -0.6397820246
O   O19       1.0  0.21500  0.58080  0.44170  1.0000 -0.6517776188
O   O20       1.0  0.22600  0.61980  0.36390  1.0000 -0.6587408496
O   O21       1.0  0.24140  0.59910  0.37970  1.0000 -0.6587408496
O   O22       1.0  0.16020  0.63040  0.38000  1.0000 -0.609555034
O   O23       1.0  0.15220  0.62940  0.40930  1.0000 -0.6397820246
C   C28       1.0  0.20800  0.59640  0.51830  1.0000 0.0501834124
C   C29       1.0  0.22000  0.58790  0.50530  1.0000 -0.0708048282
C   C30       1.0  0.21210  0.57960  0.48760  1.0000 0.6800795649
O   O24       1.0  0.18260  0.59770  0.54610  1.0000 -0.6517776188
O   O25       1.0  0.19520  0.58120  0.48440  1.0000 -0.6162038559
O   O26       1.0  0.22300  0.57280  0.47490  1.0000 -0.6782680781
Ti  Ti3       1.0  0.22611  0.55791  0.45066  1.0000 2.0212494802
O   O27       1.0  0.24080  0.53120  0.46460  1.0000 -0.6397820246
C   C31       1.0  0.26700  0.63970  0.29100  1.0000 0.0286004543
C   C32       1.0  0.26550  0.62010  0.28960  1.0000 -0.1004600406
C   C33       1.0  0.25360  0.60960  0.30310  1.0000 0.6629974542
O   O28       1.0  0.29400  0.67830  0.27230  1.0000 -0.6939314659
O   O29       1.0  0.25680  0.59260  0.30620  1.0000 -0.5677502138
O   O30       1.0  0.24140  0.61820  0.31260  1.0000 -0.6587408496
Co  Co2       1.0  0.23635  0.61764  0.33985  1.0000 1.9421053842
O   O31       1.0  0.14990  0.62150  0.34900  1.0000 -0.6397820246
O   O32       1.0  0.22230  0.57780  0.32350  1.0000 -0.5856416578
O   O33       1.0  0.21440  0.60720  0.32630  1.0000 -0.6517776188
C   C34       1.0  0.17570  0.59820  0.33060  1.0000 0.0210823154
C   C35       1.0  0.18950  0.58470  0.32640  1.0000 -0.1004600406
C   C36       1.0  0.20990  0.59020  0.32620  1.0000 0.653666533
O   O34       1.0  0.15930  0.61370  0.56890  1.0000 -0.609555034
Ti  Ti4       1.0  0.11764  0.73635  0.33985  1.0000 1.1911382492
C   C37       1.0  0.71400  0.10060  0.41010  1.0000 0.0614820425
C   C38       1.0  0.69380  0.11620  0.38750  1.0000 0.0501834124
C   C39       1.0  0.69890  0.09980  0.42290  1.0000 -0.1718156922
C   C40       1.0  0.67890  0.11530  0.40040  1.0000 -0.189473289
C   C41       1.0  0.68150  0.10720  0.41800  1.0000 0.0978843566
C   C42       1.0  0.71140  0.10880  0.39220  1.0000 -0.1087284717
C   C43       1.0  0.66400  0.12640  0.39670  1.0000 0.637843934
C   C44       1.0  0.72750  0.10970  0.37800  1.0000 0.6861819945
C   C45       1.0  0.70000  0.08890  0.43810  1.0000 0.6215376561
O   O35       1.0  0.68700  0.08960  0.45010  1.0000 -0.6397820246
O   O36       1.0  0.71500  0.08080  0.44170  1.0000 -0.6517776188
O   O37       1.0  0.72600  0.11980  0.36390  1.0000 -0.6587408496
O   O38       1.0  0.74140  0.09910  0.37970  1.0000 -0.6587408496
O   O39       1.0  0.66020  0.13040  0.38000  1.0000 -0.609555034
O   O40       1.0  0.65220  0.12940  0.40930  1.0000 -0.6397820246
C   C46       1.0  0.70800  0.09640  0.51830  1.0000 0.0501834124
C   C47       1.0  0.72000  0.08790  0.50530  1.0000 -0.0708048282
C   C48       1.0  0.71210  0.07960  0.48760  1.0000 0.6800795649
O   O41       1.0  0.68260  0.09770  0.54610  1.0000 -0.6517776188
O   O42       1.0  0.69520  0.08120  0.48440  1.0000 -0.6162038559
O   O43       1.0  0.72300  0.07280  0.47490  1.0000 -0.6782680781
Ti  Ti5       1.0  0.72611  0.05791  0.45066  1.0000 2.0212494802
O   O44       1.0  0.74080  0.03120  0.46460  1.0000 -0.6397820246
C   C49       1.0  0.76700  0.13970  0.29100  1.0000 0.0286004543
C   C50       1.0  0.76550  0.12010  0.28960  1.0000 -0.1004600406
C   C51       1.0  0.75360  0.10960  0.30310  1.0000 0.6629974542
O   O45       1.0  0.79400  0.17830  0.27230  1.0000 -0.6951936574
O   O46       1.0  0.75680  0.09260  0.30620  1.0000 -0.5677502138
O   O47       1.0  0.74140  0.11820  0.31260  1.0000 -0.6587408496
Co  Co3       1.0  0.73635  0.11764  0.33985  1.0000 1.9421053842
O   O48       1.0  0.64990  0.12150  0.34900  1.0000 -0.6397820246
O   O49       1.0  0.72230  0.07780  0.32350  1.0000 -0.5856416578
O   O50       1.0  0.71440  0.10720  0.32630  1.0000 -0.6587408496
C   C52       1.0  0.67570  0.09820  0.33060  1.0000 0.0210823154
C   C53       1.0  0.68950  0.08470  0.32640  1.0000 -0.1004600406
C   C54       1.0  0.70990  0.09020  0.32620  1.0000 0.653666533
O   O51       1.0  0.65930  0.11370  0.56890  1.0000 -0.609555034
Ti  Ti6       1.0  0.61764  0.23635  0.33985  1.0000 1.1911382492
C   C55       1.0  0.71400  0.60060  0.91010  1.0000 0.0614820425
C   C56       1.0  0.69380  0.61620  0.88750  1.0000 0.0501834124
C   C57       1.0  0.69890  0.59980  0.92290  1.0000 -0.1718156922
C   C58       1.0  0.67890  0.61530  0.90040  1.0000 -0.189473289
C   C59       1.0  0.68150  0.60720  0.91800  1.0000 0.0978843566
C   C60       1.0  0.71140  0.60880  0.89220  1.0000 -0.1087284717
C   C61       1.0  0.66400  0.62640  0.89670  1.0000 0.637843934
C   C62       1.0  0.72750  0.60970  0.87800  1.0000 0.6861819945
C   C63       1.0  0.70000  0.58890  0.93810  1.0000 0.6215376561
O   O52       1.0  0.68700  0.58960  0.95010  1.0000 -0.6397820246
O   O53       1.0  0.71500  0.58080  0.94170  1.0000 -0.6517776188
O   O54       1.0  0.72600  0.61980  0.86390  1.0000 -0.6587408496
O   O55       1.0  0.74140  0.59910  0.87970  1.0000 -0.6587408496
O   O56       1.0  0.66020  0.63040  0.88000  1.0000 -0.609555034
O   O57       1.0  0.65220  0.62940  0.90930  1.0000 -0.6346473784
C   C64       1.0  0.70800  0.59640  0.01830  1.0000 0.0614820425
C   C65       1.0  0.72000  0.58790  0.00530  1.0000 -0.0708048282
C   C66       1.0  0.71210  0.57960  0.98760  1.0000 0.6800795649
O   O58       1.0  0.68260  0.59770  0.04610  1.0000 -0.5303997674
O   O59       1.0  0.69520  0.58120  0.98440  1.0000 -0.609555034
O   O60       1.0  0.72300  0.57280  0.97490  1.0000 -0.6782680781
Ti  Ti7       1.0  0.72611  0.55791  0.95066  1.0000 2.0212494802
O   O61       1.0  0.74080  0.53120  0.96460  1.0000 -0.6397820246
C   C67       1.0  0.76700  0.63970  0.79100  1.0000 0.0286004543
C   C68       1.0  0.76550  0.62010  0.78960  1.0000 -0.1004600406
C   C69       1.0  0.75360  0.60960  0.80310  1.0000 0.6629974542
O   O62       1.0  0.79400  0.67830  0.77230  1.0000 -0.6939314659
O   O63       1.0  0.75680  0.59260  0.80620  1.0000 -0.5677502138
O   O64       1.0  0.74140  0.61820  0.81260  1.0000 -0.6587408496
Co  Co4       1.0  0.73635  0.61764  0.83985  1.0000 1.9421053842
O   O65       1.0  0.64990  0.62150  0.84900  1.0000 -0.6397820246
O   O66       1.0  0.72230  0.57780  0.82350  1.0000 -0.5856416578
O   O67       1.0  0.71440  0.60720  0.82630  1.0000 -0.6517776188
C   C70       1.0  0.67570  0.59820  0.83060  1.0000 0.0210823154
C   C71       1.0  0.68950  0.58470  0.82640  1.0000 -0.1004600406
C   C72       1.0  0.70990  0.59020  0.82620  1.0000 0.653666533
O   O68       1.0  0.65930  0.61370  0.06890  1.0000 -0.5037077391
Ti  Ti8       1.0  0.61764  0.73635  0.83985  1.0000 1.1911382492
C   C73       1.0  0.53600  0.14940  0.41010  1.0000 0.0614820425
C   C74       1.0  0.55620  0.13380  0.38750  1.0000 0.0501834124
C   C75       1.0  0.55110  0.15020  0.42290  1.0000 -0.1718156922
C   C76       1.0  0.57110  0.13470  0.40040  1.0000 -0.189473289
C   C77       1.0  0.56850  0.14280  0.41800  1.0000 0.0978843566
C   C78       1.0  0.53860  0.14120  0.39220  1.0000 -0.1087284717
C   C79       1.0  0.58600  0.12360  0.39670  1.0000 0.637843934
C   C80       1.0  0.52250  0.14030  0.37800  1.0000 0.6861819945
C   C81       1.0  0.55000  0.16110  0.43810  1.0000 0.6215376561
O   O69       1.0  0.56300  0.16040  0.45010  1.0000 -0.6397820246
O   O70       1.0  0.53500  0.16920  0.44170  1.0000 -0.6517776188
O   O71       1.0  0.52400  0.13020  0.36390  1.0000 -0.6587408496
O   O72       1.0  0.50860  0.15090  0.37970  1.0000 -0.6587408496
O   O73       1.0  0.58980  0.11960  0.38000  1.0000 -0.609555034
O   O74       1.0  0.59780  0.12060  0.40930  1.0000 -0.6397820246
C   C82       1.0  0.54200  0.15360  0.51830  1.0000 0.0614820425
C   C83       1.0  0.53000  0.16210  0.50530  1.0000 -0.0708048282
C   C84       1.0  0.53790  0.17040  0.48760  1.0000 0.6800795649
O   O75       1.0  0.56740  0.15230  0.54610  1.0000 -0.5303997674
O   O76       1.0  0.55480  0.16880  0.48440  1.0000 -0.609555034
O   O77       1.0  0.52700  0.17720  0.47490  1.0000 -0.6782680781
Ti  Ti9       1.0  0.52389  0.19209  0.45066  1.0000 2.0212494802
O   O78       1.0  0.50920  0.21880  0.46460  1.0000 -0.6397820246
C   C85       1.0  0.48300  0.11030  0.29100  1.0000 0.0286004543
C   C86       1.0  0.48450  0.12990  0.28960  1.0000 -0.1004600406
C   C87       1.0  0.49640  0.14040  0.30310  1.0000 0.6629974542
O   O79       1.0  0.45600  0.07170  0.27230  1.0000 -0.6951936574
O   O80       1.0  0.49320  0.15740  0.30620  1.0000 -0.5677502138
O   O81       1.0  0.50860  0.13180  0.31260  1.0000 -0.6587408496
Co  Co5       1.0  0.51365  0.13236  0.33985  1.0000 1.9421053842
O   O82       1.0  0.60010  0.12850  0.34900  1.0000 -0.6397820246
O   O83       1.0  0.52770  0.17220  0.32350  1.0000 -0.5856416578
O   O84       1.0  0.53560  0.14280  0.32630  1.0000 -0.6587408496
C   C88       1.0  0.57430  0.15180  0.33060  1.0000 0.0210823154
C   C89       1.0  0.56050  0.16530  0.32640  1.0000 -0.1004600406
C   C90       1.0  0.54010  0.15980  0.32620  1.0000 0.653666533
O   O85       1.0  0.59070  0.13630  0.56890  1.0000 -0.521012765
Ti  Ti10      1.0  0.63236  0.01365  0.33985  1.0000 1.1911382492
C   C91       1.0  0.53600  0.64940  0.91010  1.0000 0.0614820425
C   C92       1.0  0.55620  0.63380  0.88750  1.0000 0.0501834124
C   C93       1.0  0.55110  0.65020  0.92290  1.0000 -0.1718156922
C   C94       1.0  0.57110  0.63470  0.90040  1.0000 -0.189473289
C   C95       1.0  0.56850  0.64280  0.91800  1.0000 0.0978843566
C   C96       1.0  0.53860  0.64120  0.89220  1.0000 -0.1087284717
C   C97       1.0  0.58600  0.62360  0.89670  1.0000 0.637843934
C   C98       1.0  0.52250  0.64030  0.87800  1.0000 0.6861819945
C   C99       1.0  0.55000  0.66110  0.93810  1.0000 0.6215376561
O   O86       1.0  0.56300  0.66040  0.95010  1.0000 -0.6397820246
O   O87       1.0  0.53500  0.66920  0.94170  1.0000 -0.6517776188
O   O88       1.0  0.52400  0.63020  0.86390  1.0000 -0.6587408496
O   O89       1.0  0.50860  0.65090  0.87970  1.0000 -0.6587408496
O   O90       1.0  0.58980  0.61960  0.88000  1.0000 -0.609555034
O   O91       1.0  0.59780  0.62060  0.90930  1.0000 -0.6346473784
C   C100      1.0  0.54200  0.65360  0.01830  1.0000 0.0614820425
C   C101      1.0  0.53000  0.66210  0.00530  1.0000 -0.0708048282
C   C102      1.0  0.53790  0.67040  0.98760  1.0000 0.6800795649
O   O92       1.0  0.56740  0.65230  0.04610  1.0000 -0.6517776188
O   O93       1.0  0.55480  0.66880  0.98440  1.0000 -0.6162038559
O   O94       1.0  0.52700  0.67720  0.97490  1.0000 -0.6782680781
Ti  Ti11      1.0  0.52389  0.69209  0.95066  1.0000 2.0212494802
O   O95       1.0  0.50920  0.71880  0.96460  1.0000 -0.6397820246
C   C103      1.0  0.48300  0.61030  0.79100  1.0000 0.0286004543
C   C104      1.0  0.48450  0.62990  0.78960  1.0000 -0.1004600406
C   C105      1.0  0.49640  0.64040  0.80310  1.0000 0.6629974542
O   O96       1.0  0.45600  0.57170  0.77230  1.0000 -0.6939314659
O   O97       1.0  0.49320  0.65740  0.80620  1.0000 -0.5677502138
O   O98       1.0  0.50860  0.63180  0.81260  1.0000 -0.6587408496
Co  Co6       1.0  0.51365  0.63236  0.83985  1.0000 1.9421053842
O   O99       1.0  0.60010  0.62850  0.84900  1.0000 -0.6397820246
O   O100      1.0  0.52770  0.67220  0.82350  1.0000 -0.5777560007
O   O101      1.0  0.53560  0.64280  0.82630  1.0000 -0.6517776188
C   C106      1.0  0.57430  0.65180  0.83060  1.0000 0.0210823154
C   C107      1.0  0.56050  0.66530  0.82640  1.0000 -0.1004600406
C   C108      1.0  0.54010  0.65980  0.82620  1.0000 0.653666533
O   O102      1.0  0.59070  0.63630  0.06890  1.0000 -0.6007274885
Ti  Ti12      1.0  0.63236  0.51365  0.83985  1.0000 1.1911382492
C   C109      1.0  0.03600  0.14940  0.91010  1.0000 0.0614820425
C   C110      1.0  0.05620  0.13380  0.88750  1.0000 0.0501834124
C   C111      1.0  0.05110  0.15020  0.92290  1.0000 -0.1718156922
C   C112      1.0  0.07110  0.13470  0.90040  1.0000 -0.189473289
C   C113      1.0  0.06850  0.14280  0.91800  1.0000 0.0978843566
C   C114      1.0  0.03860  0.14120  0.89220  1.0000 -0.1087284717
C   C115      1.0  0.08600  0.12360  0.89670  1.0000 0.6285624754
C   C116      1.0  0.02250  0.14030  0.87800  1.0000 0.6861819945
C   C117      1.0  0.05000  0.16110  0.93810  1.0000 0.6215376561
O   O103      1.0  0.06300  0.16040  0.95010  1.0000 -0.6397820246
O   O104      1.0  0.03500  0.16920  0.94170  1.0000 -0.6517776188
O   O105      1.0  0.02400  0.13020  0.86390  1.0000 -0.6587408496
O   O106      1.0  0.00860  0.15090  0.87970  1.0000 -0.6587408496
O   O107      1.0  0.08980  0.11960  0.88000  1.0000 -0.609555034
O   O108      1.0  0.09780  0.12060  0.90930  1.0000 -0.6397820246
C   C118      1.0  0.04200  0.15360  0.01830  1.0000 0.0501834124
C   C119      1.0  0.03000  0.16210  0.00530  1.0000 -0.0708048282
C   C120      1.0  0.03790  0.17040  0.98760  1.0000 0.6800795649
O   O109      1.0  0.06740  0.15230  0.04610  1.0000 -0.5303997674
O   O110      1.0  0.05480  0.16880  0.98440  1.0000 -0.609555034
O   O111      1.0  0.02700  0.17720  0.97490  1.0000 -0.6782680781
Ti  Ti13      1.0  0.02389  0.19209  0.95066  1.0000 2.0212494802
O   O112      1.0  0.00920  0.21880  0.96460  1.0000 -0.6397820246
C   C121      1.0  0.98300  0.11030  0.79100  1.0000 0.0286004543
C   C122      1.0  0.98450  0.12990  0.78960  1.0000 -0.1004600406
C   C123      1.0  0.99640  0.14040  0.80310  1.0000 0.6629974542
O   O113      1.0  0.95600  0.07170  0.77230  1.0000 -0.6939314659
O   O114      1.0  0.99320  0.15740  0.80620  1.0000 -0.5677502138
O   O115      1.0  0.00860  0.13180  0.81260  1.0000 -0.6587408496
Co  Co7       1.0  0.01365  0.13236  0.83985  1.0000 1.9421053842
O   O116      1.0  0.10010  0.12850  0.84900  1.0000 -0.6397820246
O   O117      1.0  0.02770  0.17220  0.82350  1.0000 -0.5777560007
O   O118      1.0  0.03560  0.14280  0.82630  1.0000 -0.6517776188
C   C124      1.0  0.07430  0.15180  0.83060  1.0000 0.0210823154
C   C125      1.0  0.06050  0.16530  0.82640  1.0000 -0.1004600406
C   C126      1.0  0.04010  0.15980  0.82620  1.0000 0.6629974542
O   O119      1.0  0.09070  0.13630  0.06890  1.0000 -0.5106411624
Ti  Ti14      1.0  0.13236  0.01365  0.83985  1.0000 1.1911382492
C   C127      1.0  0.03600  0.64940  0.41010  1.0000 0.0614820425
C   C128      1.0  0.05620  0.63380  0.38750  1.0000 0.0501834124
C   C129      1.0  0.05110  0.65020  0.42290  1.0000 -0.1718156922
C   C130      1.0  0.07110  0.63470  0.40040  1.0000 -0.189473289
C   C131      1.0  0.06850  0.64280  0.41800  1.0000 0.0978843566
C   C132      1.0  0.03860  0.64120  0.39220  1.0000 -0.1087284717
C   C133      1.0  0.08600  0.62360  0.39670  1.0000 0.6285624754
C   C134      1.0  0.02250  0.64030  0.37800  1.0000 0.6861819945
C   C135      1.0  0.05000  0.66110  0.43810  1.0000 0.6215376561
O   O120      1.0  0.06300  0.66040  0.45010  1.0000 -0.6397820246
O   O121      1.0  0.03500  0.66920  0.44170  1.0000 -0.6517776188
O   O122      1.0  0.02400  0.63020  0.36390  1.0000 -0.6587408496
O   O123      1.0  0.00860  0.65090  0.37970  1.0000 -0.6587408496
O   O124      1.0  0.08980  0.61960  0.38000  1.0000 -0.609555034
O   O125      1.0  0.09780  0.62060  0.40930  1.0000 -0.6346473784
C   C136      1.0  0.04200  0.65360  0.51830  1.0000 0.0501834124
C   C137      1.0  0.03000  0.66210  0.50530  1.0000 -0.0708048282
C   C138      1.0  0.03790  0.67040  0.48760  1.0000 0.6800795649
O   O126      1.0  0.06740  0.65230  0.54610  1.0000 -0.5303997674
O   O127      1.0  0.05480  0.66880  0.48440  1.0000 -0.609555034
O   O128      1.0  0.02700  0.67720  0.47490  1.0000 -0.6782680781
Ti  Ti15      1.0  0.02389  0.69209  0.45066  1.0000 2.0212494802
O   O129      1.0  0.00920  0.71880  0.46460  1.0000 -0.6397820246
C   C139      1.0  0.98300  0.61030  0.29100  1.0000 0.0286004543
C   C140      1.0  0.98450  0.62990  0.28960  1.0000 -0.1004600406
C   C141      1.0  0.99640  0.64040  0.30310  1.0000 0.6629974542
O   O130      1.0  0.95600  0.57170  0.27230  1.0000 -0.6939314659
O   O131      1.0  0.99320  0.65740  0.30620  1.0000 -0.5677502138
O   O132      1.0  0.00860  0.63180  0.31260  1.0000 -0.6587408496
Co  Co8       1.0  0.01365  0.63236  0.33985  1.0000 1.9421053842
O   O133      1.0  0.10010  0.62850  0.34900  1.0000 -0.6397820246
O   O134      1.0  0.02770  0.67220  0.32350  1.0000 -0.5777560007
O   O135      1.0  0.03560  0.64280  0.32630  1.0000 -0.6517776188
C   C142      1.0  0.07430  0.65180  0.33060  1.0000 0.0210823154
C   C143      1.0  0.06050  0.66530  0.32640  1.0000 -0.1004600406
C   C144      1.0  0.04010  0.65980  0.32620  1.0000 0.6629974542
O   O136      1.0  0.09070  0.63630  0.56890  1.0000 -0.5106411624
Ti  Ti16      1.0  0.13236  0.51365  0.33985  1.0000 1.1911382492
C   C145      1.0  0.03600  0.60060  0.83990  1.0000 0.0614820425
C   C146      1.0  0.05620  0.61620  0.86250  1.0000 0.0501834124
C   C147      1.0  0.05110  0.59980  0.82710  1.0000 -0.1718156922
C   C148      1.0  0.07110  0.61530  0.84960  1.0000 -0.189473289
C   C149      1.0  0.06850  0.60720  0.83200  1.0000 0.0978843566
C   C150      1.0  0.03860  0.60880  0.85780  1.0000 -0.1087284717
C   C151      1.0  0.08600  0.62640  0.85330  1.0000 0.6285624754
C   C152      1.0  0.02250  0.60970  0.87200  1.0000 0.6861819945
C   C153      1.0  0.05000  0.58890  0.81190  1.0000 0.6215376561
O   O137      1.0  0.06300  0.58960  0.79990  1.0000 -0.6397820246
O   O138      1.0  0.03500  0.58080  0.80830  1.0000 -0.6517776188
O   O139      1.0  0.02400  0.61980  0.88610  1.0000 -0.6587408496
O   O140      1.0  0.00860  0.59910  0.87030  1.0000 -0.6587408496
O   O141      1.0  0.08980  0.63040  0.87000  1.0000 -0.609555034
O   O142      1.0  0.09780  0.62940  0.84070  1.0000 -0.6346473784
C   C154      1.0  0.04200  0.59640  0.73170  1.0000 0.0614820425
C   C155      1.0  0.03000  0.58790  0.74470  1.0000 -0.0708048282
C   C156      1.0  0.03790  0.57960  0.76240  1.0000 0.6800795649
O   O143      1.0  0.06740  0.59770  0.70390  1.0000 -0.6517776188
O   O144      1.0  0.05480  0.58120  0.76560  1.0000 -0.6162038559
O   O145      1.0  0.02700  0.57280  0.77510  1.0000 -0.6782680781
Ti  Ti17      1.0  0.02389  0.55791  0.79934  1.0000 2.0212494802
O   O146      1.0  0.00920  0.53120  0.78540  1.0000 -0.6397820246
C   C157      1.0  0.98300  0.63970  0.95900  1.0000 0.0286004543
C   C158      1.0  0.98450  0.62010  0.96040  1.0000 -0.1004600406
C   C159      1.0  0.99640  0.60960  0.94690  1.0000 0.6629974542
O   O147      1.0  0.95600  0.67830  0.97770  1.0000 -0.6939314659
O   O148      1.0  0.99320  0.59260  0.94380  1.0000 -0.5677502138
O   O149      1.0  0.00860  0.61820  0.93740  1.0000 -0.6587408496
Co  Co9       1.0  0.01365  0.61764  0.91015  1.0000 1.9421053842
O   O150      1.0  0.10010  0.62150  0.90100  1.0000 -0.6397820246
O   O151      1.0  0.02770  0.57780  0.92650  1.0000 -0.5777560007
O   O152      1.0  0.03560  0.60720  0.92370  1.0000 -0.6517776188
C   C160      1.0  0.07430  0.59820  0.91940  1.0000 0.0210823154
C   C161      1.0  0.06050  0.58470  0.92360  1.0000 -0.1004600406
C   C162      1.0  0.04010  0.59020  0.92380  1.0000 0.6629974542
O   O153      1.0  0.09070  0.61370  0.68110  1.0000 -0.6007274885
Ti  Ti18      1.0  0.13236  0.73635  0.91015  1.0000 1.1911382492
C   C163      1.0  0.03600  0.10060  0.33990  1.0000 0.0614820425
C   C164      1.0  0.05620  0.11620  0.36250  1.0000 0.0501834124
C   C165      1.0  0.05110  0.09980  0.32710  1.0000 -0.1718156922
C   C166      1.0  0.07110  0.11530  0.34960  1.0000 -0.189473289
C   C167      1.0  0.06850  0.10720  0.33200  1.0000 0.0978843566
C   C168      1.0  0.03860  0.10880  0.35780  1.0000 -0.1087284717
C   C169      1.0  0.08600  0.12640  0.35330  1.0000 0.6285624754
C   C170      1.0  0.02250  0.10970  0.37200  1.0000 0.6861819945
C   C171      1.0  0.05000  0.08890  0.31190  1.0000 0.6215376561
O   O154      1.0  0.06300  0.08960  0.29990  1.0000 -0.6397820246
O   O155      1.0  0.03500  0.08080  0.30830  1.0000 -0.6517776188
O   O156      1.0  0.02400  0.11980  0.38610  1.0000 -0.6587408496
O   O157      1.0  0.00860  0.09910  0.37030  1.0000 -0.6587408496
O   O158      1.0  0.08980  0.13040  0.37000  1.0000 -0.609555034
O   O159      1.0  0.09780  0.12940  0.34070  1.0000 -0.6397820246
C   C172      1.0  0.04200  0.09640  0.23170  1.0000 0.0614820425
C   C173      1.0  0.03000  0.08790  0.24470  1.0000 -0.0708048282
C   C174      1.0  0.03790  0.07960  0.26240  1.0000 0.6800795649
O   O160      1.0  0.06740  0.09770  0.20390  1.0000 -0.6517776188
O   O161      1.0  0.05480  0.08120  0.26560  1.0000 -0.6162038559
O   O162      1.0  0.02700  0.07280  0.27510  1.0000 -0.6782680781
Ti  Ti19      1.0  0.02389  0.05791  0.29934  1.0000 2.0212494802
O   O163      1.0  0.00920  0.03120  0.28540  1.0000 -0.6397820246
C   C175      1.0  0.98300  0.13970  0.45900  1.0000 0.0286004543
C   C176      1.0  0.98450  0.12010  0.46040  1.0000 -0.1004600406
C   C177      1.0  0.99640  0.10960  0.44690  1.0000 0.6629974542
O   O164      1.0  0.95600  0.17830  0.47770  1.0000 -0.6939314659
O   O165      1.0  0.99320  0.09260  0.44380  1.0000 -0.5677502138
O   O166      1.0  0.00860  0.11820  0.43740  1.0000 -0.6587408496
Co  Co10      1.0  0.01365  0.11764  0.41015  1.0000 1.9421053842
O   O167      1.0  0.10010  0.12150  0.40100  1.0000 -0.6397820246
O   O168      1.0  0.02770  0.07780  0.42650  1.0000 -0.5856416578
O   O169      1.0  0.03560  0.10720  0.42370  1.0000 -0.6587408496
C   C178      1.0  0.07430  0.09820  0.41940  1.0000 0.0210823154
C   C179      1.0  0.06050  0.08470  0.42360  1.0000 -0.1004600406
C   C180      1.0  0.04010  0.09020  0.42380  1.0000 0.6629974542
O   O170      1.0  0.09070  0.11370  0.18110  1.0000 -0.6007274885
Ti  Ti20      1.0  0.13236  0.23635  0.41015  1.0000 1.1911382492
C   C181      1.0  0.53600  0.60060  0.33990  1.0000 0.0614820425
C   C182      1.0  0.55620  0.61620  0.36250  1.0000 0.0501834124
C   C183      1.0  0.55110  0.59980  0.32710  1.0000 -0.1718156922
C   C184      1.0  0.57110  0.61530  0.34960  1.0000 -0.189473289
C   C185      1.0  0.56850  0.60720  0.33200  1.0000 0.0978843566
C   C186      1.0  0.53860  0.60880  0.35780  1.0000 -0.1087284717
C   C187      1.0  0.58600  0.62640  0.35330  1.0000 0.637843934
C   C188      1.0  0.52250  0.60970  0.37200  1.0000 0.6861819945
C   C189      1.0  0.55000  0.58890  0.31190  1.0000 0.6215376561
O   O171      1.0  0.56300  0.58960  0.29990  1.0000 -0.6397820246
O   O172      1.0  0.53500  0.58080  0.30830  1.0000 -0.6517776188
O   O173      1.0  0.52400  0.61980  0.38610  1.0000 -0.6587408496
O   O174      1.0  0.50860  0.59910  0.37030  1.0000 -0.6587408496
O   O175      1.0  0.58980  0.63040  0.37000  1.0000 -0.609555034
O   O176      1.0  0.59780  0.62940  0.34070  1.0000 -0.6346473784
C   C190      1.0  0.54200  0.59640  0.23170  1.0000 0.0501834124
C   C191      1.0  0.53000  0.58790  0.24470  1.0000 -0.0708048282
C   C192      1.0  0.53790  0.57960  0.26240  1.0000 0.6800795649
O   O177      1.0  0.56740  0.59770  0.20390  1.0000 -0.6517776188
O   O178      1.0  0.55480  0.58120  0.26560  1.0000 -0.6162038559
O   O179      1.0  0.52700  0.57280  0.27510  1.0000 -0.6782680781
Ti  Ti21      1.0  0.52389  0.55791  0.29934  1.0000 2.0212494802
O   O180      1.0  0.50920  0.53120  0.28540  1.0000 -0.6397820246
C   C193      1.0  0.48300  0.63970  0.45900  1.0000 0.0286004543
C   C194      1.0  0.48450  0.62010  0.46040  1.0000 -0.1004600406
C   C195      1.0  0.49640  0.60960  0.44690  1.0000 0.6629974542
O   O181      1.0  0.45600  0.67830  0.47770  1.0000 -0.6939314659
O   O182      1.0  0.49320  0.59260  0.44380  1.0000 -0.5677502138
O   O183      1.0  0.50860  0.61820  0.43740  1.0000 -0.6587408496
Co  Co11      1.0  0.51365  0.61764  0.41015  1.0000 1.9421053842
O   O184      1.0  0.60010  0.62150  0.40100  1.0000 -0.6397820246
O   O185      1.0  0.52770  0.57780  0.42650  1.0000 -0.5856416578
O   O186      1.0  0.53560  0.60720  0.42370  1.0000 -0.6517776188
C   C196      1.0  0.57430  0.59820  0.41940  1.0000 0.0210823154
C   C197      1.0  0.56050  0.58470  0.42360  1.0000 -0.1004600406
C   C198      1.0  0.54010  0.59020  0.42380  1.0000 0.653666533
O   O187      1.0  0.59070  0.61370  0.18110  1.0000 -0.609555034
Ti  Ti22      1.0  0.63236  0.73635  0.41015  1.0000 1.1911382492
C   C199      1.0  0.53600  0.10060  0.83990  1.0000 0.0614820425
C   C200      1.0  0.55620  0.11620  0.86250  1.0000 0.0501834124
C   C201      1.0  0.55110  0.09980  0.82710  1.0000 -0.1718156922
C   C202      1.0  0.57110  0.11530  0.84960  1.0000 -0.189473289
C   C203      1.0  0.56850  0.10720  0.83200  1.0000 0.0978843566
C   C204      1.0  0.53860  0.10880  0.85780  1.0000 -0.1087284717
C   C205      1.0  0.58600  0.12640  0.85330  1.0000 0.637843934
C   C206      1.0  0.52250  0.10970  0.87200  1.0000 0.6861819945
C   C207      1.0  0.55000  0.08890  0.81190  1.0000 0.6215376561
O   O188      1.0  0.56300  0.08960  0.79990  1.0000 -0.6397820246
O   O189      1.0  0.53500  0.08080  0.80830  1.0000 -0.6517776188
O   O190      1.0  0.52400  0.11980  0.88610  1.0000 -0.6587408496
O   O191      1.0  0.50860  0.09910  0.87030  1.0000 -0.6587408496
O   O192      1.0  0.58980  0.13040  0.87000  1.0000 -0.609555034
O   O193      1.0  0.59780  0.12940  0.84070  1.0000 -0.6346473784
C   C208      1.0  0.54200  0.09640  0.73170  1.0000 0.0614820425
C   C209      1.0  0.53000  0.08790  0.74470  1.0000 -0.0708048282
C   C210      1.0  0.53790  0.07960  0.76240  1.0000 0.6800795649
O   O194      1.0  0.56740  0.09770  0.70390  1.0000 -0.5303997674
O   O195      1.0  0.55480  0.08120  0.76560  1.0000 -0.609555034
O   O196      1.0  0.52700  0.07280  0.77510  1.0000 -0.6782680781
Ti  Ti23      1.0  0.52389  0.05791  0.79934  1.0000 2.0212494802
O   O197      1.0  0.50920  0.03120  0.78540  1.0000 -0.6397820246
C   C211      1.0  0.48300  0.13970  0.95900  1.0000 0.0286004543
C   C212      1.0  0.48450  0.12010  0.96040  1.0000 -0.1004600406
C   C213      1.0  0.49640  0.10960  0.94690  1.0000 0.6629974542
O   O198      1.0  0.45600  0.17830  0.97770  1.0000 -0.6951936574
O   O199      1.0  0.49320  0.09260  0.94380  1.0000 -0.5677502138
O   O200      1.0  0.50860  0.11820  0.93740  1.0000 -0.6587408496
Co  Co12      1.0  0.51365  0.11764  0.91015  1.0000 1.9421053842
O   O201      1.0  0.60010  0.12150  0.90100  1.0000 -0.6397820246
O   O202      1.0  0.52770  0.07780  0.92650  1.0000 -0.5856416578
O   O203      1.0  0.53560  0.10720  0.92370  1.0000 -0.6517776188
C   C214      1.0  0.57430  0.09820  0.91940  1.0000 0.0210823154
C   C215      1.0  0.56050  0.08470  0.92360  1.0000 -0.1004600406
C   C216      1.0  0.54010  0.09020  0.92380  1.0000 0.653666533
O   O204      1.0  0.59070  0.11370  0.68110  1.0000 -0.5037077391
Ti  Ti24      1.0  0.63236  0.23635  0.91015  1.0000 1.1911382492
C   C217      1.0  0.71400  0.64940  0.33990  1.0000 0.0614820425
C   C218      1.0  0.69380  0.63380  0.36250  1.0000 0.0501834124
C   C219      1.0  0.69890  0.65020  0.32710  1.0000 -0.1718156922
C   C220      1.0  0.67890  0.63470  0.34960  1.0000 -0.189473289
C   C221      1.0  0.68150  0.64280  0.33200  1.0000 0.0978843566
C   C222      1.0  0.71140  0.64120  0.35780  1.0000 -0.1087284717
C   C223      1.0  0.66400  0.62360  0.35330  1.0000 0.637843934
C   C224      1.0  0.72750  0.64030  0.37200  1.0000 0.6861819945
C   C225      1.0  0.70000  0.66110  0.31190  1.0000 0.6215376561
O   O205      1.0  0.68700  0.66040  0.29990  1.0000 -0.6397820246
O   O206      1.0  0.71500  0.66920  0.30830  1.0000 -0.6517776188
O   O207      1.0  0.72600  0.63020  0.38610  1.0000 -0.6587408496
O   O208      1.0  0.74140  0.65090  0.37030  1.0000 -0.6587408496
O   O209      1.0  0.66020  0.61960  0.37000  1.0000 -0.609555034
O   O210      1.0  0.65220  0.62060  0.34070  1.0000 -0.6397820246
C   C226      1.0  0.70800  0.65360  0.23170  1.0000 0.0501834124
C   C227      1.0  0.72000  0.66210  0.24470  1.0000 -0.0708048282
C   C228      1.0  0.71210  0.67040  0.26240  1.0000 0.6800795649
O   O211      1.0  0.68260  0.65230  0.20390  1.0000 -0.5303997674
O   O212      1.0  0.69520  0.66880  0.26560  1.0000 -0.609555034
O   O213      1.0  0.72300  0.67720  0.27510  1.0000 -0.6782680781
Ti  Ti25      1.0  0.72611  0.69209  0.29934  1.0000 2.0212494802
O   O214      1.0  0.74080  0.71880  0.28540  1.0000 -0.6397820246
C   C229      1.0  0.76700  0.61030  0.45900  1.0000 0.0286004543
C   C230      1.0  0.76550  0.62990  0.46040  1.0000 -0.1004600406
C   C231      1.0  0.75360  0.64040  0.44690  1.0000 0.6629974542
O   O215      1.0  0.79400  0.57170  0.47770  1.0000 -0.6939314659
O   O216      1.0  0.75680  0.65740  0.44380  1.0000 -0.5677502138
O   O217      1.0  0.74140  0.63180  0.43740  1.0000 -0.6587408496
Co  Co13      1.0  0.73635  0.63236  0.41015  1.0000 1.9421053842
O   O218      1.0  0.64990  0.62850  0.40100  1.0000 -0.6397820246
O   O219      1.0  0.72230  0.67220  0.42650  1.0000 -0.5856416578
O   O220      1.0  0.71440  0.64280  0.42370  1.0000 -0.6517776188
C   C232      1.0  0.67570  0.65180  0.41940  1.0000 0.0210823154
C   C233      1.0  0.68950  0.66530  0.42360  1.0000 -0.1004600406
C   C234      1.0  0.70990  0.65980  0.42380  1.0000 0.653666533
O   O221      1.0  0.65930  0.63630  0.18110  1.0000 -0.5106411624
Ti  Ti26      1.0  0.61764  0.51365  0.41015  1.0000 1.1911382492
C   C235      1.0  0.71400  0.14940  0.83990  1.0000 0.0614820425
C   C236      1.0  0.69380  0.13380  0.86250  1.0000 0.0501834124
C   C237      1.0  0.69890  0.15020  0.82710  1.0000 -0.1718156922
C   C238      1.0  0.67890  0.13470  0.84960  1.0000 -0.189473289
C   C239      1.0  0.68150  0.14280  0.83200  1.0000 0.0978843566
C   C240      1.0  0.71140  0.14120  0.85780  1.0000 -0.1087284717
C   C241      1.0  0.66400  0.12360  0.85330  1.0000 0.637843934
C   C242      1.0  0.72750  0.14030  0.87200  1.0000 0.6861819945
C   C243      1.0  0.70000  0.16110  0.81190  1.0000 0.6215376561
O   O222      1.0  0.68700  0.16040  0.79990  1.0000 -0.6397820246
O   O223      1.0  0.71500  0.16920  0.80830  1.0000 -0.6517776188
O   O224      1.0  0.72600  0.13020  0.88610  1.0000 -0.6587408496
O   O225      1.0  0.74140  0.15090  0.87030  1.0000 -0.6587408496
O   O226      1.0  0.66020  0.11960  0.87000  1.0000 -0.609555034
O   O227      1.0  0.65220  0.12060  0.84070  1.0000 -0.6397820246
C   C244      1.0  0.70800  0.15360  0.73170  1.0000 0.0614820425
C   C245      1.0  0.72000  0.16210  0.74470  1.0000 -0.0708048282
C   C246      1.0  0.71210  0.17040  0.76240  1.0000 0.6800795649
O   O228      1.0  0.68260  0.15230  0.70390  1.0000 -0.6517776188
O   O229      1.0  0.69520  0.16880  0.76560  1.0000 -0.6162038559
O   O230      1.0  0.72300  0.17720  0.77510  1.0000 -0.6782680781
Ti  Ti27      1.0  0.72611  0.19209  0.79934  1.0000 2.0212494802
O   O231      1.0  0.74080  0.21880  0.78540  1.0000 -0.6397820246
C   C247      1.0  0.76700  0.11030  0.95900  1.0000 0.0286004543
C   C248      1.0  0.76550  0.12990  0.96040  1.0000 -0.1004600406
C   C249      1.0  0.75360  0.14040  0.94690  1.0000 0.6629974542
O   O232      1.0  0.79400  0.07170  0.97770  1.0000 -0.6939314659
O   O233      1.0  0.75680  0.15740  0.94380  1.0000 -0.5677502138
O   O234      1.0  0.74140  0.13180  0.93740  1.0000 -0.6587408496
Co  Co14      1.0  0.73635  0.13236  0.91015  1.0000 1.9421053842
O   O235      1.0  0.64990  0.12850  0.90100  1.0000 -0.6397820246
O   O236      1.0  0.72230  0.17220  0.92650  1.0000 -0.5856416578
O   O237      1.0  0.71440  0.14280  0.92370  1.0000 -0.6517776188
C   C250      1.0  0.67570  0.15180  0.91940  1.0000 0.0210823154
C   C251      1.0  0.68950  0.16530  0.92360  1.0000 -0.1004600406
C   C252      1.0  0.70990  0.15980  0.92380  1.0000 0.653666533
O   O238      1.0  0.65930  0.13630  0.68110  1.0000 -0.6007274885
Ti  Ti28      1.0  0.61764  0.01365  0.91015  1.0000 1.1911382492
C   C253      1.0  0.21400  0.64940  0.83990  1.0000 0.0614820425
C   C254      1.0  0.19380  0.63380  0.86250  1.0000 0.0501834124
C   C255      1.0  0.19890  0.65020  0.82710  1.0000 -0.1718156922
C   C256      1.0  0.17890  0.63470  0.84960  1.0000 -0.189473289
C   C257      1.0  0.18150  0.64280  0.83200  1.0000 0.0978843566
C   C258      1.0  0.21140  0.64120  0.85780  1.0000 -0.1087284717
C   C259      1.0  0.16400  0.62360  0.85330  1.0000 0.6285624754
C   C260      1.0  0.22750  0.64030  0.87200  1.0000 0.6861819945
C   C261      1.0  0.20000  0.66110  0.81190  1.0000 0.6215376561
O   O239      1.0  0.18700  0.66040  0.79990  1.0000 -0.6397820246
O   O240      1.0  0.21500  0.66920  0.80830  1.0000 -0.6517776188
O   O241      1.0  0.22600  0.63020  0.88610  1.0000 -0.6587408496
O   O242      1.0  0.24140  0.65090  0.87030  1.0000 -0.6587408496
O   O243      1.0  0.16020  0.61960  0.87000  1.0000 -0.609555034
O   O244      1.0  0.15220  0.62060  0.84070  1.0000 -0.6346473784
C   C262      1.0  0.20800  0.65360  0.73170  1.0000 0.0614820425
C   C263      1.0  0.22000  0.66210  0.74470  1.0000 -0.0708048282
C   C264      1.0  0.21210  0.67040  0.76240  1.0000 0.6800795649
O   O245      1.0  0.18260  0.65230  0.70390  1.0000 -0.5303997674
O   O246      1.0  0.19520  0.66880  0.76560  1.0000 -0.609555034
O   O247      1.0  0.22300  0.67720  0.77510  1.0000 -0.6782680781
Ti  Ti29      1.0  0.22611  0.69209  0.79934  1.0000 2.0212494802
O   O248      1.0  0.24080  0.71880  0.78540  1.0000 -0.6397820246
C   C265      1.0  0.26700  0.61030  0.95900  1.0000 0.0286004543
C   C266      1.0  0.26550  0.62990  0.96040  1.0000 -0.1004600406
C   C267      1.0  0.25360  0.64040  0.94690  1.0000 0.6629974542
O   O249      1.0  0.29400  0.57170  0.97770  1.0000 -0.6939314659
O   O250      1.0  0.25680  0.65740  0.94380  1.0000 -0.5677502138
O   O251      1.0  0.24140  0.63180  0.93740  1.0000 -0.6587408496
Co  Co15      1.0  0.23635  0.63236  0.91015  1.0000 1.9421053842
O   O252      1.0  0.14990  0.62850  0.90100  1.0000 -0.6397820246
O   O253      1.0  0.22230  0.67220  0.92650  1.0000 -0.5777560007
O   O254      1.0  0.21440  0.64280  0.92370  1.0000 -0.6517776188
C   C268      1.0  0.17570  0.65180  0.91940  1.0000 0.0210823154
C   C269      1.0  0.18950  0.66530  0.92360  1.0000 -0.1004600406
C   C270      1.0  0.20990  0.65980  0.92380  1.0000 0.653666533
O   O255      1.0  0.15930  0.63630  0.68110  1.0000 -0.5106411624
Ti  Ti30      1.0  0.11764  0.51365  0.91015  1.0000 1.1911382492
C   C271      1.0  0.21400  0.14940  0.33990  1.0000 0.0614820425
C   C272      1.0  0.19380  0.13380  0.36250  1.0000 0.0501834124
C   C273      1.0  0.19890  0.15020  0.32710  1.0000 -0.1718156922
C   C274      1.0  0.17890  0.13470  0.34960  1.0000 -0.189473289
C   C275      1.0  0.18150  0.14280  0.33200  1.0000 0.0978843566
C   C276      1.0  0.21140  0.14120  0.35780  1.0000 -0.1087284717
C   C277      1.0  0.16400  0.12360  0.35330  1.0000 0.6285624754
C   C278      1.0  0.22750  0.14030  0.37200  1.0000 0.6861819945
C   C279      1.0  0.20000  0.16110  0.31190  1.0000 0.6215376561
O   O256      1.0  0.18700  0.16040  0.29990  1.0000 -0.6397820246
O   O257      1.0  0.21500  0.16920  0.30830  1.0000 -0.6517776188
O   O258      1.0  0.22600  0.13020  0.38610  1.0000 -0.6587408496
O   O259      1.0  0.24140  0.15090  0.37030  1.0000 -0.6587408496
O   O260      1.0  0.16020  0.11960  0.37000  1.0000 -0.609555034
O   O261      1.0  0.15220  0.12060  0.34070  1.0000 -0.6397820246
C   C280      1.0  0.20800  0.15360  0.23170  1.0000 0.0614820425
C   C281      1.0  0.22000  0.16210  0.24470  1.0000 -0.0708048282
C   C282      1.0  0.21210  0.17040  0.26240  1.0000 0.6800795649
O   O262      1.0  0.18260  0.15230  0.20390  1.0000 -0.5303997674
O   O263      1.0  0.19520  0.16880  0.26560  1.0000 -0.609555034
O   O264      1.0  0.22300  0.17720  0.27510  1.0000 -0.6782680781
Ti  Ti31      1.0  0.22611  0.19209  0.29934  1.0000 2.0212494802
O   O265      1.0  0.24080  0.21880  0.28540  1.0000 -0.6397820246
C   C283      1.0  0.26700  0.11030  0.45900  1.0000 0.0286004543
C   C284      1.0  0.26550  0.12990  0.46040  1.0000 -0.1004600406
C   C285      1.0  0.25360  0.14040  0.44690  1.0000 0.6629974542
O   O266      1.0  0.29400  0.07170  0.47770  1.0000 -0.6951936574
O   O267      1.0  0.25680  0.15740  0.44380  1.0000 -0.5677502138
O   O268      1.0  0.24140  0.13180  0.43740  1.0000 -0.6587408496
Co  Co16      1.0  0.23635  0.13236  0.41015  1.0000 1.9421053842
O   O269      1.0  0.14990  0.12850  0.40100  1.0000 -0.6397820246
O   O270      1.0  0.22230  0.17220  0.42650  1.0000 -0.5856416578
O   O271      1.0  0.21440  0.14280  0.42370  1.0000 -0.6587408496
C   C286      1.0  0.17570  0.15180  0.41940  1.0000 0.0210823154
C   C287      1.0  0.18950  0.16530  0.42360  1.0000 -0.1004600406
C   C288      1.0  0.20990  0.15980  0.42380  1.0000 0.653666533
O   O272      1.0  0.15930  0.13630  0.18110  1.0000 -0.5106411624
Ti  Ti32      1.0  0.11764  0.01365  0.41015  1.0000 1.1911382492
C   C289      1.0  0.91010  0.21400  0.10060  1.0000 0.0614820425
C   C290      1.0  0.88750  0.19380  0.11620  1.0000 0.0501834124
C   C291      1.0  0.92290  0.19890  0.09980  1.0000 -0.1718156922
C   C292      1.0  0.90040  0.17890  0.11530  1.0000 -0.189473289
C   C293      1.0  0.91800  0.18150  0.10720  1.0000 0.0978843566
C   C294      1.0  0.89220  0.21140  0.10880  1.0000 -0.1087284717
C   C295      1.0  0.89670  0.16400  0.12640  1.0000 0.637843934
C   C296      1.0  0.87800  0.22750  0.10970  1.0000 0.6861819945
C   C297      1.0  0.93810  0.20000  0.08890  1.0000 0.6215376561
O   O273      1.0  0.95010  0.18700  0.08960  1.0000 -0.6397820246
O   O274      1.0  0.94170  0.21500  0.08080  1.0000 -0.6517776188
O   O275      1.0  0.86390  0.22600  0.11980  1.0000 -0.6587408496
O   O276      1.0  0.87970  0.24140  0.09910  1.0000 -0.6587408496
O   O277      1.0  0.88000  0.16020  0.13040  1.0000 -0.609555034
O   O278      1.0  0.90930  0.15220  0.12940  1.0000 -0.6397820246
C   C298      1.0  0.01830  0.20800  0.09640  1.0000 0.0614820425
C   C299      1.0  0.00530  0.22000  0.08790  1.0000 -0.0708048282
C   C300      1.0  0.98760  0.21210  0.07960  1.0000 0.6800795649
O   O279      1.0  0.04610  0.18260  0.09770  1.0000 -0.6517776188
O   O280      1.0  0.98440  0.19520  0.08120  1.0000 -0.6162038559
O   O281      1.0  0.97490  0.22300  0.07280  1.0000 -0.6782680781
Ti  Ti33      1.0  0.95066  0.22611  0.05791  1.0000 2.0212494802
O   O282      1.0  0.96460  0.24080  0.03120  1.0000 -0.6397820246
C   C301      1.0  0.79100  0.26700  0.13970  1.0000 0.0286004543
C   C302      1.0  0.78960  0.26550  0.12010  1.0000 -0.1004600406
C   C303      1.0  0.80310  0.25360  0.10960  1.0000 0.6629974542
O   O283      1.0  0.77230  0.29400  0.17830  1.0000 -0.6951936574
O   O284      1.0  0.80620  0.25680  0.09260  1.0000 -0.5677502138
O   O285      1.0  0.81260  0.24140  0.11820  1.0000 -0.6587408496
Co  Co17      1.0  0.83985  0.23635  0.11764  1.0000 1.9421053842
O   O286      1.0  0.84900  0.14990  0.12150  1.0000 -0.6397820246
O   O287      1.0  0.82350  0.22230  0.07780  1.0000 -0.5856416578
O   O288      1.0  0.82630  0.21440  0.10720  1.0000 -0.6587408496
C   C304      1.0  0.83060  0.17570  0.09820  1.0000 0.0210823154
C   C305      1.0  0.82640  0.18950  0.08470  1.0000 -0.1004600406
C   C306      1.0  0.82620  0.20990  0.09020  1.0000 0.653666533
O   O289      1.0  0.06890  0.15930  0.11370  1.0000 -0.6007274885
Ti  Ti34      1.0  0.83985  0.11764  0.23635  1.0000 1.1911382492
C   C307      1.0  0.91010  0.71400  0.60060  1.0000 0.0614820425
C   C308      1.0  0.88750  0.69380  0.61620  1.0000 0.0501834124
C   C309      1.0  0.92290  0.69890  0.59980  1.0000 -0.1718156922
C   C310      1.0  0.90040  0.67890  0.61530  1.0000 -0.189473289
C   C311      1.0  0.91800  0.68150  0.60720  1.0000 0.0978843566
C   C312      1.0  0.89220  0.71140  0.60880  1.0000 -0.1087284717
C   C313      1.0  0.89670  0.66400  0.62640  1.0000 0.637843934
C   C314      1.0  0.87800  0.72750  0.60970  1.0000 0.6861819945
C   C315      1.0  0.93810  0.70000  0.58890  1.0000 0.6215376561
O   O290      1.0  0.95010  0.68700  0.58960  1.0000 -0.6397820246
O   O291      1.0  0.94170  0.71500  0.58080  1.0000 -0.6517776188
O   O292      1.0  0.86390  0.72600  0.61980  1.0000 -0.6587408496
O   O293      1.0  0.87970  0.74140  0.59910  1.0000 -0.6587408496
O   O294      1.0  0.88000  0.66020  0.63040  1.0000 -0.609555034
O   O295      1.0  0.90930  0.65220  0.62940  1.0000 -0.6346473784
C   C316      1.0  0.01830  0.70800  0.59640  1.0000 0.0614820425
C   C317      1.0  0.00530  0.72000  0.58790  1.0000 -0.0708048282
C   C318      1.0  0.98760  0.71210  0.57960  1.0000 0.6800795649
O   O296      1.0  0.04610  0.68260  0.59770  1.0000 -0.6517776188
O   O297      1.0  0.98440  0.69520  0.58120  1.0000 -0.6162038559
O   O298      1.0  0.97490  0.72300  0.57280  1.0000 -0.6782680781
Ti  Ti35      1.0  0.95066  0.72611  0.55791  1.0000 2.0212494802
O   O299      1.0  0.96460  0.74080  0.53120  1.0000 -0.6397820246
C   C319      1.0  0.79100  0.76700  0.63970  1.0000 0.0286004543
C   C320      1.0  0.78960  0.76550  0.62010  1.0000 -0.1004600406
C   C321      1.0  0.80310  0.75360  0.60960  1.0000 0.6629974542
O   O300      1.0  0.77230  0.79400  0.67830  1.0000 -0.6939314659
O   O301      1.0  0.80620  0.75680  0.59260  1.0000 -0.5677502138
O   O302      1.0  0.81260  0.74140  0.61820  1.0000 -0.6587408496
Co  Co18      1.0  0.83985  0.73635  0.61764  1.0000 1.9421053842
O   O303      1.0  0.84900  0.64990  0.62150  1.0000 -0.6397820246
O   O304      1.0  0.82350  0.72230  0.57780  1.0000 -0.5856416578
O   O305      1.0  0.82630  0.71440  0.60720  1.0000 -0.6517776188
C   C322      1.0  0.83060  0.67570  0.59820  1.0000 0.0210823154
C   C323      1.0  0.82640  0.68950  0.58470  1.0000 -0.1004600406
C   C324      1.0  0.82620  0.70990  0.59020  1.0000 0.653666533
O   O306      1.0  0.06890  0.65930  0.61370  1.0000 -0.6007274885
Ti  Ti36      1.0  0.83985  0.61764  0.73635  1.0000 1.1911382492
C   C325      1.0  0.41010  0.21400  0.60060  1.0000 0.0614820425
C   C326      1.0  0.38750  0.19380  0.61620  1.0000 0.0501834124
C   C327      1.0  0.42290  0.19890  0.59980  1.0000 -0.1718156922
C   C328      1.0  0.40040  0.17890  0.61530  1.0000 -0.189473289
C   C329      1.0  0.41800  0.18150  0.60720  1.0000 0.0978843566
C   C330      1.0  0.39220  0.21140  0.60880  1.0000 -0.1087284717
C   C331      1.0  0.39670  0.16400  0.62640  1.0000 0.637843934
C   C332      1.0  0.37800  0.22750  0.60970  1.0000 0.6861819945
C   C333      1.0  0.43810  0.20000  0.58890  1.0000 0.6215376561
O   O307      1.0  0.45010  0.18700  0.58960  1.0000 -0.6397820246
O   O308      1.0  0.44170  0.21500  0.58080  1.0000 -0.6517776188
O   O309      1.0  0.36390  0.22600  0.61980  1.0000 -0.6587408496
O   O310      1.0  0.37970  0.24140  0.59910  1.0000 -0.6587408496
O   O311      1.0  0.38000  0.16020  0.63040  1.0000 -0.609555034
O   O312      1.0  0.40930  0.15220  0.62940  1.0000 -0.6397820246
C   C334      1.0  0.51830  0.20800  0.59640  1.0000 0.0501834124
C   C335      1.0  0.50530  0.22000  0.58790  1.0000 -0.0708048282
C   C336      1.0  0.48760  0.21210  0.57960  1.0000 0.6800795649
O   O313      1.0  0.54610  0.18260  0.59770  1.0000 -0.6517776188
O   O314      1.0  0.48440  0.19520  0.58120  1.0000 -0.6162038559
O   O315      1.0  0.47490  0.22300  0.57280  1.0000 -0.6782680781
Ti  Ti37      1.0  0.45066  0.22611  0.55791  1.0000 2.0212494802
O   O316      1.0  0.46460  0.24080  0.53120  1.0000 -0.6397820246
C   C337      1.0  0.29100  0.26700  0.63970  1.0000 0.0286004543
C   C338      1.0  0.28960  0.26550  0.62010  1.0000 -0.1004600406
C   C339      1.0  0.30310  0.25360  0.60960  1.0000 0.6629974542
O   O317      1.0  0.27230  0.29400  0.67830  1.0000 -0.6951936574
O   O318      1.0  0.30620  0.25680  0.59260  1.0000 -0.5677502138
O   O319      1.0  0.31260  0.24140  0.61820  1.0000 -0.6587408496
Co  Co19      1.0  0.33985  0.23635  0.61764  1.0000 1.9421053842
O   O320      1.0  0.34900  0.14990  0.62150  1.0000 -0.6397820246
O   O321      1.0  0.32350  0.22230  0.57780  1.0000 -0.5856416578
O   O322      1.0  0.32630  0.21440  0.60720  1.0000 -0.6517776188
C   C340      1.0  0.33060  0.17570  0.59820  1.0000 0.0210823154
C   C341      1.0  0.32640  0.18950  0.58470  1.0000 -0.1004600406
C   C342      1.0  0.32620  0.20990  0.59020  1.0000 0.653666533
O   O323      1.0  0.56890  0.15930  0.61370  1.0000 -0.609555034
Ti  Ti38      1.0  0.33985  0.11764  0.73635  1.0000 1.1911382492
C   C343      1.0  0.41010  0.71400  0.10060  1.0000 0.0614820425
C   C344      1.0  0.38750  0.69380  0.11620  1.0000 0.0501834124
C   C345      1.0  0.42290  0.69890  0.09980  1.0000 -0.1718156922
C   C346      1.0  0.40040  0.67890  0.11530  1.0000 -0.189473289
C   C347      1.0  0.41800  0.68150  0.10720  1.0000 0.0978843566
C   C348      1.0  0.39220  0.71140  0.10880  1.0000 -0.1087284717
C   C349      1.0  0.39670  0.66400  0.12640  1.0000 0.637843934
C   C350      1.0  0.37800  0.72750  0.10970  1.0000 0.6861819945
C   C351      1.0  0.43810  0.70000  0.08890  1.0000 0.6215376561
O   O324      1.0  0.45010  0.68700  0.08960  1.0000 -0.6397820246
O   O325      1.0  0.44170  0.71500  0.08080  1.0000 -0.6517776188
O   O326      1.0  0.36390  0.72600  0.11980  1.0000 -0.6587408496
O   O327      1.0  0.37970  0.74140  0.09910  1.0000 -0.6587408496
O   O328      1.0  0.38000  0.66020  0.13040  1.0000 -0.609555034
O   O329      1.0  0.40930  0.65220  0.12940  1.0000 -0.6397820246
C   C352      1.0  0.51830  0.70800  0.09640  1.0000 0.0501834124
C   C353      1.0  0.50530  0.72000  0.08790  1.0000 -0.0708048282
C   C354      1.0  0.48760  0.71210  0.07960  1.0000 0.6800795649
O   O330      1.0  0.54610  0.68260  0.09770  1.0000 -0.5303997674
O   O331      1.0  0.48440  0.69520  0.08120  1.0000 -0.609555034
O   O332      1.0  0.47490  0.72300  0.07280  1.0000 -0.6782680781
Ti  Ti39      1.0  0.45066  0.72611  0.05791  1.0000 2.0212494802
O   O333      1.0  0.46460  0.74080  0.03120  1.0000 -0.6397820246
C   C355      1.0  0.29100  0.76700  0.13970  1.0000 0.0286004543
C   C356      1.0  0.28960  0.76550  0.12010  1.0000 -0.1004600406
C   C357      1.0  0.30310  0.75360  0.10960  1.0000 0.6629974542
O   O334      1.0  0.27230  0.79400  0.17830  1.0000 -0.6939314659
O   O335      1.0  0.30620  0.75680  0.09260  1.0000 -0.5677502138
O   O336      1.0  0.31260  0.74140  0.11820  1.0000 -0.6587408496
Co  Co20      1.0  0.33985  0.73635  0.11764  1.0000 1.9421053842
O   O337      1.0  0.34900  0.64990  0.12150  1.0000 -0.6397820246
O   O338      1.0  0.32350  0.72230  0.07780  1.0000 -0.5856416578
O   O339      1.0  0.32630  0.71440  0.10720  1.0000 -0.6517776188
C   C358      1.0  0.33060  0.67570  0.09820  1.0000 0.0210823154
C   C359      1.0  0.32640  0.68950  0.08470  1.0000 -0.1004600406
C   C360      1.0  0.32620  0.70990  0.09020  1.0000 0.6629974542
O   O340      1.0  0.56890  0.65930  0.11370  1.0000 -0.521012765
Ti  Ti40      1.0  0.33985  0.61764  0.23635  1.0000 1.1911382492
C   C361      1.0  0.41010  0.53600  0.14940  1.0000 0.0614820425
C   C362      1.0  0.38750  0.55620  0.13380  1.0000 0.0501834124
C   C363      1.0  0.42290  0.55110  0.15020  1.0000 -0.1718156922
C   C364      1.0  0.40040  0.57110  0.13470  1.0000 -0.189473289
C   C365      1.0  0.41800  0.56850  0.14280  1.0000 0.0978843566
C   C366      1.0  0.39220  0.53860  0.14120  1.0000 -0.1087284717
C   C367      1.0  0.39670  0.58600  0.12360  1.0000 0.637843934
C   C368      1.0  0.37800  0.52250  0.14030  1.0000 0.6861819945
C   C369      1.0  0.43810  0.55000  0.16110  1.0000 0.6215376561
O   O341      1.0  0.45010  0.56300  0.16040  1.0000 -0.6397820246
O   O342      1.0  0.44170  0.53500  0.16920  1.0000 -0.6517776188
O   O343      1.0  0.36390  0.52400  0.13020  1.0000 -0.6587408496
O   O344      1.0  0.37970  0.50860  0.15090  1.0000 -0.6587408496
O   O345      1.0  0.38000  0.58980  0.11960  1.0000 -0.609555034
O   O346      1.0  0.40930  0.59780  0.12060  1.0000 -0.6397820246
C   C370      1.0  0.51830  0.54200  0.15360  1.0000 0.0501834124
C   C371      1.0  0.50530  0.53000  0.16210  1.0000 -0.0708048282
C   C372      1.0  0.48760  0.53790  0.17040  1.0000 0.6800795649
O   O347      1.0  0.54610  0.56740  0.15230  1.0000 -0.6517776188
O   O348      1.0  0.48440  0.55480  0.16880  1.0000 -0.6162038559
O   O349      1.0  0.47490  0.52700  0.17720  1.0000 -0.6782680781
Ti  Ti41      1.0  0.45066  0.52389  0.19209  1.0000 2.0212494802
O   O350      1.0  0.46460  0.50920  0.21880  1.0000 -0.6397820246
C   C373      1.0  0.29100  0.48300  0.11030  1.0000 0.0286004543
C   C374      1.0  0.28960  0.48450  0.12990  1.0000 -0.1004600406
C   C375      1.0  0.30310  0.49640  0.14040  1.0000 0.6629974542
O   O351      1.0  0.27230  0.45600  0.07170  1.0000 -0.6951936574
O   O352      1.0  0.30620  0.49320  0.15740  1.0000 -0.5677502138
O   O353      1.0  0.31260  0.50860  0.13180  1.0000 -0.6587408496
Co  Co21      1.0  0.33985  0.51365  0.13236  1.0000 1.9421053842
O   O354      1.0  0.34900  0.60010  0.12850  1.0000 -0.6397820246
O   O355      1.0  0.32350  0.52770  0.17220  1.0000 -0.5856416578
O   O356      1.0  0.32630  0.53560  0.14280  1.0000 -0.6517776188
C   C376      1.0  0.33060  0.57430  0.15180  1.0000 0.0210823154
C   C377      1.0  0.32640  0.56050  0.16530  1.0000 -0.1004600406
C   C378      1.0  0.32620  0.54010  0.15980  1.0000 0.653666533
O   O357      1.0  0.56890  0.59070  0.13630  1.0000 -0.609555034
Ti  Ti42      1.0  0.33985  0.63236  0.01365  1.0000 1.1911382492
C   C379      1.0  0.41010  0.03600  0.64940  1.0000 0.0614820425
C   C380      1.0  0.38750  0.05620  0.63380  1.0000 0.0501834124
C   C381      1.0  0.42290  0.05110  0.65020  1.0000 -0.1718156922
C   C382      1.0  0.40040  0.07110  0.63470  1.0000 -0.189473289
C   C383      1.0  0.41800  0.06850  0.64280  1.0000 0.0978843566
C   C384      1.0  0.39220  0.03860  0.64120  1.0000 -0.1087284717
C   C385      1.0  0.39670  0.08600  0.62360  1.0000 0.637843934
C   C386      1.0  0.37800  0.02250  0.64030  1.0000 0.6861819945
C   C387      1.0  0.43810  0.05000  0.66110  1.0000 0.6215376561
O   O358      1.0  0.45010  0.06300  0.66040  1.0000 -0.6397820246
O   O359      1.0  0.44170  0.03500  0.66920  1.0000 -0.6517776188
O   O360      1.0  0.36390  0.02400  0.63020  1.0000 -0.6587408496
O   O361      1.0  0.37970  0.00860  0.65090  1.0000 -0.6587408496
O   O362      1.0  0.38000  0.08980  0.61960  1.0000 -0.609555034
O   O363      1.0  0.40930  0.09780  0.62060  1.0000 -0.6397820246
C   C388      1.0  0.51830  0.04200  0.65360  1.0000 0.0614820425
C   C389      1.0  0.50530  0.03000  0.66210  1.0000 -0.0708048282
C   C390      1.0  0.48760  0.03790  0.67040  1.0000 0.6800795649
O   O364      1.0  0.54610  0.06740  0.65230  1.0000 -0.5303997674
O   O365      1.0  0.48440  0.05480  0.66880  1.0000 -0.609555034
O   O366      1.0  0.47490  0.02700  0.67720  1.0000 -0.6782680781
Ti  Ti43      1.0  0.45066  0.02389  0.69209  1.0000 2.0212494802
O   O367      1.0  0.46460  0.00920  0.71880  1.0000 -0.6397820246
C   C391      1.0  0.29100  0.98300  0.61030  1.0000 0.0286004543
C   C392      1.0  0.28960  0.98450  0.62990  1.0000 -0.1004600406
C   C393      1.0  0.30310  0.99640  0.64040  1.0000 0.6629974542
O   O368      1.0  0.27230  0.95600  0.57170  1.0000 -0.6939314659
O   O369      1.0  0.30620  0.99320  0.65740  1.0000 -0.5677502138
O   O370      1.0  0.31260  0.00860  0.63180  1.0000 -0.6587408496
Co  Co22      1.0  0.33985  0.01365  0.63236  1.0000 1.9421053842
O   O371      1.0  0.34900  0.10010  0.62850  1.0000 -0.6397820246
O   O372      1.0  0.32350  0.02770  0.67220  1.0000 -0.5856416578
O   O373      1.0  0.32630  0.03560  0.64280  1.0000 -0.6517776188
C   C394      1.0  0.33060  0.07430  0.65180  1.0000 0.0210823154
C   C395      1.0  0.32640  0.06050  0.66530  1.0000 -0.1004600406
C   C396      1.0  0.32620  0.04010  0.65980  1.0000 0.653666533
O   O374      1.0  0.56890  0.09070  0.63630  1.0000 -0.5037077391
Ti  Ti44      1.0  0.33985  0.13236  0.51365  1.0000 1.1911382492
C   C397      1.0  0.91010  0.53600  0.64940  1.0000 0.0614820425
C   C398      1.0  0.88750  0.55620  0.63380  1.0000 0.0501834124
C   C399      1.0  0.92290  0.55110  0.65020  1.0000 -0.1718156922
C   C400      1.0  0.90040  0.57110  0.63470  1.0000 -0.189473289
C   C401      1.0  0.91800  0.56850  0.64280  1.0000 0.0978843566
C   C402      1.0  0.89220  0.53860  0.64120  1.0000 -0.1087284717
C   C403      1.0  0.89670  0.58600  0.62360  1.0000 0.637843934
C   C404      1.0  0.87800  0.52250  0.64030  1.0000 0.6861819945
C   C405      1.0  0.93810  0.55000  0.66110  1.0000 0.6215376561
O   O375      1.0  0.95010  0.56300  0.66040  1.0000 -0.6397820246
O   O376      1.0  0.94170  0.53500  0.66920  1.0000 -0.6517776188
O   O377      1.0  0.86390  0.52400  0.63020  1.0000 -0.6587408496
O   O378      1.0  0.87970  0.50860  0.65090  1.0000 -0.6587408496
O   O379      1.0  0.88000  0.58980  0.61960  1.0000 -0.609555034
O   O380      1.0  0.90930  0.59780  0.62060  1.0000 -0.6346473784
C   C406      1.0  0.01830  0.54200  0.65360  1.0000 0.0614820425
C   C407      1.0  0.00530  0.53000  0.66210  1.0000 -0.0708048282
C   C408      1.0  0.98760  0.53790  0.67040  1.0000 0.6800795649
O   O381      1.0  0.04610  0.56740  0.65230  1.0000 -0.5303997674
O   O382      1.0  0.98440  0.55480  0.66880  1.0000 -0.6162038559
O   O383      1.0  0.97490  0.52700  0.67720  1.0000 -0.6782680781
Ti  Ti45      1.0  0.95066  0.52389  0.69209  1.0000 2.0212494802
O   O384      1.0  0.96460  0.50920  0.71880  1.0000 -0.6397820246
C   C409      1.0  0.79100  0.48300  0.61030  1.0000 0.0286004543
C   C410      1.0  0.78960  0.48450  0.62990  1.0000 -0.1004600406
C   C411      1.0  0.80310  0.49640  0.64040  1.0000 0.6629974542
O   O385      1.0  0.77230  0.45600  0.57170  1.0000 -0.6939314659
O   O386      1.0  0.80620  0.49320  0.65740  1.0000 -0.5677502138
O   O387      1.0  0.81260  0.50860  0.63180  1.0000 -0.6587408496
Co  Co23      1.0  0.83985  0.51365  0.63236  1.0000 1.9421053842
O   O388      1.0  0.84900  0.60010  0.62850  1.0000 -0.6397820246
O   O389      1.0  0.82350  0.52770  0.67220  1.0000 -0.5856416578
O   O390      1.0  0.82630  0.53560  0.64280  1.0000 -0.6517776188
C   C412      1.0  0.83060  0.57430  0.65180  1.0000 0.0210823154
C   C413      1.0  0.82640  0.56050  0.66530  1.0000 -0.1004600406
C   C414      1.0  0.82620  0.54010  0.65980  1.0000 0.653666533
O   O391      1.0  0.06890  0.59070  0.63630  1.0000 -0.521012765
Ti  Ti46      1.0  0.83985  0.63236  0.51365  1.0000 1.1911382492
C   C415      1.0  0.91010  0.03600  0.14940  1.0000 0.0614820425
C   C416      1.0  0.88750  0.05620  0.13380  1.0000 0.0501834124
C   C417      1.0  0.92290  0.05110  0.15020  1.0000 -0.1718156922
C   C418      1.0  0.90040  0.07110  0.13470  1.0000 -0.189473289
C   C419      1.0  0.91800  0.06850  0.14280  1.0000 0.0978843566
C   C420      1.0  0.89220  0.03860  0.14120  1.0000 -0.1087284717
C   C421      1.0  0.89670  0.08600  0.12360  1.0000 0.637843934
C   C422      1.0  0.87800  0.02250  0.14030  1.0000 0.6861819945
C   C423      1.0  0.93810  0.05000  0.16110  1.0000 0.6215376561
O   O392      1.0  0.95010  0.06300  0.16040  1.0000 -0.6397820246
O   O393      1.0  0.94170  0.03500  0.16920  1.0000 -0.6517776188
O   O394      1.0  0.86390  0.02400  0.13020  1.0000 -0.6587408496
O   O395      1.0  0.87970  0.00860  0.15090  1.0000 -0.6587408496
O   O396      1.0  0.88000  0.08980  0.11960  1.0000 -0.609555034
O   O397      1.0  0.90930  0.09780  0.12060  1.0000 -0.6397820246
C   C424      1.0  0.01830  0.04200  0.15360  1.0000 0.0614820425
C   C425      1.0  0.00530  0.03000  0.16210  1.0000 -0.0708048282
C   C426      1.0  0.98760  0.03790  0.17040  1.0000 0.6800795649
O   O398      1.0  0.04610  0.06740  0.15230  1.0000 -0.5303997674
O   O399      1.0  0.98440  0.05480  0.16880  1.0000 -0.6162038559
O   O400      1.0  0.97490  0.02700  0.17720  1.0000 -0.6782680781
Ti  Ti47      1.0  0.95066  0.02389  0.19209  1.0000 2.0212494802
O   O401      1.0  0.96460  0.00920  0.21880  1.0000 -0.6397820246
C   C427      1.0  0.79100  0.98300  0.11030  1.0000 0.0286004543
C   C428      1.0  0.78960  0.98450  0.12990  1.0000 -0.1004600406
C   C429      1.0  0.80310  0.99640  0.14040  1.0000 0.6629974542
O   O402      1.0  0.77230  0.95600  0.07170  1.0000 -0.6939314659
O   O403      1.0  0.80620  0.99320  0.15740  1.0000 -0.5677502138
O   O404      1.0  0.81260  0.00860  0.13180  1.0000 -0.6587408496
Co  Co24      1.0  0.83985  0.01365  0.13236  1.0000 1.9421053842
O   O405      1.0  0.84900  0.10010  0.12850  1.0000 -0.6397820246
O   O406      1.0  0.82350  0.02770  0.17220  1.0000 -0.5856416578
O   O407      1.0  0.82630  0.03560  0.14280  1.0000 -0.6587408496
C   C430      1.0  0.83060  0.07430  0.15180  1.0000 0.0210823154
C   C431      1.0  0.82640  0.06050  0.16530  1.0000 -0.1004600406
C   C432      1.0  0.82620  0.04010  0.15980  1.0000 0.653666533
O   O408      1.0  0.06890  0.09070  0.13630  1.0000 -0.521012765
Ti  Ti48      1.0  0.83985  0.13236  0.01365  1.0000 1.1911382492
C   C433      1.0  0.83990  0.03600  0.60060  1.0000 0.0614820425
C   C434      1.0  0.86250  0.05620  0.61620  1.0000 0.0501834124
C   C435      1.0  0.82710  0.05110  0.59980  1.0000 -0.1718156922
C   C436      1.0  0.84960  0.07110  0.61530  1.0000 -0.189473289
C   C437      1.0  0.83200  0.06850  0.60720  1.0000 0.0978843566
C   C438      1.0  0.85780  0.03860  0.60880  1.0000 -0.1087284717
C   C439      1.0  0.85330  0.08600  0.62640  1.0000 0.637843934
C   C440      1.0  0.87200  0.02250  0.60970  1.0000 0.6861819945
C   C441      1.0  0.81190  0.05000  0.58890  1.0000 0.6215376561
O   O409      1.0  0.79990  0.06300  0.58960  1.0000 -0.6397820246
O   O410      1.0  0.80830  0.03500  0.58080  1.0000 -0.6517776188
O   O411      1.0  0.88610  0.02400  0.61980  1.0000 -0.6587408496
O   O412      1.0  0.87030  0.00860  0.59910  1.0000 -0.6587408496
O   O413      1.0  0.87000  0.08980  0.63040  1.0000 -0.609555034
O   O414      1.0  0.84070  0.09780  0.62940  1.0000 -0.6397820246
C   C442      1.0  0.73170  0.04200  0.59640  1.0000 0.0501834124
C   C443      1.0  0.74470  0.03000  0.58790  1.0000 -0.0708048282
C   C444      1.0  0.76240  0.03790  0.57960  1.0000 0.6800795649
O   O415      1.0  0.70390  0.06740  0.59770  1.0000 -0.6517776188
O   O416      1.0  0.76560  0.05480  0.58120  1.0000 -0.6162038559
O   O417      1.0  0.77510  0.02700  0.57280  1.0000 -0.6782680781
Ti  Ti49      1.0  0.79934  0.02389  0.55791  1.0000 2.0212494802
O   O418      1.0  0.78540  0.00920  0.53120  1.0000 -0.6397820246
C   C445      1.0  0.95900  0.98300  0.63970  1.0000 0.0286004543
C   C446      1.0  0.96040  0.98450  0.62010  1.0000 -0.1004600406
C   C447      1.0  0.94690  0.99640  0.60960  1.0000 0.6629974542
O   O419      1.0  0.97770  0.95600  0.67830  1.0000 -0.6939314659
O   O420      1.0  0.94380  0.99320  0.59260  1.0000 -0.5677502138
O   O421      1.0  0.93740  0.00860  0.61820  1.0000 -0.6587408496
Co  Co25      1.0  0.91015  0.01365  0.61764  1.0000 1.9421053842
O   O422      1.0  0.90100  0.10010  0.62150  1.0000 -0.6397820246
O   O423      1.0  0.92650  0.02770  0.57780  1.0000 -0.5856416578
O   O424      1.0  0.92370  0.03560  0.60720  1.0000 -0.6517776188
C   C448      1.0  0.91940  0.07430  0.59820  1.0000 0.0210823154
C   C449      1.0  0.92360  0.06050  0.58470  1.0000 -0.1004600406
C   C450      1.0  0.92380  0.04010  0.59020  1.0000 0.653666533
O   O425      1.0  0.68110  0.09070  0.61370  1.0000 -0.609555034
Ti  Ti50      1.0  0.91015  0.13236  0.73635  1.0000 1.1911382492
C   C451      1.0  0.83990  0.53600  0.10060  1.0000 0.0614820425
C   C452      1.0  0.86250  0.55620  0.11620  1.0000 0.0501834124
C   C453      1.0  0.82710  0.55110  0.09980  1.0000 -0.1718156922
C   C454      1.0  0.84960  0.57110  0.11530  1.0000 -0.189473289
C   C455      1.0  0.83200  0.56850  0.10720  1.0000 0.0978843566
C   C456      1.0  0.85780  0.53860  0.10880  1.0000 -0.1087284717
C   C457      1.0  0.85330  0.58600  0.12640  1.0000 0.637843934
C   C458      1.0  0.87200  0.52250  0.10970  1.0000 0.6861819945
C   C459      1.0  0.81190  0.55000  0.08890  1.0000 0.6215376561
O   O426      1.0  0.79990  0.56300  0.08960  1.0000 -0.6397820246
O   O427      1.0  0.80830  0.53500  0.08080  1.0000 -0.6517776188
O   O428      1.0  0.88610  0.52400  0.11980  1.0000 -0.6587408496
O   O429      1.0  0.87030  0.50860  0.09910  1.0000 -0.6587408496
O   O430      1.0  0.87000  0.58980  0.13040  1.0000 -0.609555034
O   O431      1.0  0.84070  0.59780  0.12940  1.0000 -0.6397820246
C   C460      1.0  0.73170  0.54200  0.09640  1.0000 0.0614820425
C   C461      1.0  0.74470  0.53000  0.08790  1.0000 -0.0708048282
C   C462      1.0  0.76240  0.53790  0.07960  1.0000 0.6800795649
O   O432      1.0  0.70390  0.56740  0.09770  1.0000 -0.5303997674
O   O433      1.0  0.76560  0.55480  0.08120  1.0000 -0.609555034
O   O434      1.0  0.77510  0.52700  0.07280  1.0000 -0.6782680781
Ti  Ti51      1.0  0.79934  0.52389  0.05791  1.0000 2.0212494802
O   O435      1.0  0.78540  0.50920  0.03120  1.0000 -0.6397820246
C   C463      1.0  0.95900  0.48300  0.13970  1.0000 0.0286004543
C   C464      1.0  0.96040  0.48450  0.12010  1.0000 -0.1004600406
C   C465      1.0  0.94690  0.49640  0.10960  1.0000 0.6629974542
O   O436      1.0  0.97770  0.45600  0.17830  1.0000 -0.6939314659
O   O437      1.0  0.94380  0.49320  0.09260  1.0000 -0.5677502138
O   O438      1.0  0.93740  0.50860  0.11820  1.0000 -0.6587408496
Co  Co26      1.0  0.91015  0.51365  0.11764  1.0000 1.9421053842
O   O439      1.0  0.90100  0.60010  0.12150  1.0000 -0.6397820246
O   O440      1.0  0.92650  0.52770  0.07780  1.0000 -0.5856416578
O   O441      1.0  0.92370  0.53560  0.10720  1.0000 -0.6517776188
C   C466      1.0  0.91940  0.57430  0.09820  1.0000 0.0210823154
C   C467      1.0  0.92360  0.56050  0.08470  1.0000 -0.1004600406
C   C468      1.0  0.92380  0.54010  0.09020  1.0000 0.653666533
O   O442      1.0  0.68110  0.59070  0.11370  1.0000 -0.5037077391
Ti  Ti52      1.0  0.91015  0.63236  0.23635  1.0000 1.1911382492
C   C469      1.0  0.33990  0.03600  0.10060  1.0000 0.0614820425
C   C470      1.0  0.36250  0.05620  0.11620  1.0000 0.0501834124
C   C471      1.0  0.32710  0.05110  0.09980  1.0000 -0.1718156922
C   C472      1.0  0.34960  0.07110  0.11530  1.0000 -0.189473289
C   C473      1.0  0.33200  0.06850  0.10720  1.0000 0.0978843566
C   C474      1.0  0.35780  0.03860  0.10880  1.0000 -0.1087284717
C   C475      1.0  0.35330  0.08600  0.12640  1.0000 0.637843934
C   C476      1.0  0.37200  0.02250  0.10970  1.0000 0.6861819945
C   C477      1.0  0.31190  0.05000  0.08890  1.0000 0.6215376561
O   O443      1.0  0.29990  0.06300  0.08960  1.0000 -0.6397820246
O   O444      1.0  0.30830  0.03500  0.08080  1.0000 -0.6517776188
O   O445      1.0  0.38610  0.02400  0.11980  1.0000 -0.6587408496
O   O446      1.0  0.37030  0.00860  0.09910  1.0000 -0.6587408496
O   O447      1.0  0.37000  0.08980  0.13040  1.0000 -0.609555034
O   O448      1.0  0.34070  0.09780  0.12940  1.0000 -0.6397820246
C   C478      1.0  0.23170  0.04200  0.09640  1.0000 0.0614820425
C   C479      1.0  0.24470  0.03000  0.08790  1.0000 -0.0708048282
C   C480      1.0  0.26240  0.03790  0.07960  1.0000 0.6800795649
O   O449      1.0  0.20390  0.06740  0.09770  1.0000 -0.6517776188
O   O450      1.0  0.26560  0.05480  0.08120  1.0000 -0.6162038559
O   O451      1.0  0.27510  0.02700  0.07280  1.0000 -0.6782680781
Ti  Ti53      1.0  0.29934  0.02389  0.05791  1.0000 2.0212494802
O   O452      1.0  0.28540  0.00920  0.03120  1.0000 -0.6397820246
C   C481      1.0  0.45900  0.98300  0.13970  1.0000 0.0286004543
C   C482      1.0  0.46040  0.98450  0.12010  1.0000 -0.1004600406
C   C483      1.0  0.44690  0.99640  0.10960  1.0000 0.6629974542
O   O453      1.0  0.47770  0.95600  0.17830  1.0000 -0.6939314659
O   O454      1.0  0.44380  0.99320  0.09260  1.0000 -0.5677502138
O   O455      1.0  0.43740  0.00860  0.11820  1.0000 -0.6587408496
Co  Co27      1.0  0.41015  0.01365  0.11764  1.0000 1.9421053842
O   O456      1.0  0.40100  0.10010  0.12150  1.0000 -0.6397820246
O   O457      1.0  0.42650  0.02770  0.07780  1.0000 -0.5856416578
O   O458      1.0  0.42370  0.03560  0.10720  1.0000 -0.6587408496
C   C484      1.0  0.41940  0.07430  0.09820  1.0000 0.0210823154
C   C485      1.0  0.42360  0.06050  0.08470  1.0000 -0.1004600406
C   C486      1.0  0.42380  0.04010  0.09020  1.0000 0.653666533
O   O459      1.0  0.18110  0.09070  0.11370  1.0000 -0.6007274885
Ti  Ti54      1.0  0.41015  0.13236  0.23635  1.0000 1.1911382492
C   C487      1.0  0.33990  0.53600  0.60060  1.0000 0.0614820425
C   C488      1.0  0.36250  0.55620  0.61620  1.0000 0.0501834124
C   C489      1.0  0.32710  0.55110  0.59980  1.0000 -0.1718156922
C   C490      1.0  0.34960  0.57110  0.61530  1.0000 -0.189473289
C   C491      1.0  0.33200  0.56850  0.60720  1.0000 0.0978843566
C   C492      1.0  0.35780  0.53860  0.60880  1.0000 -0.1087284717
C   C493      1.0  0.35330  0.58600  0.62640  1.0000 0.637843934
C   C494      1.0  0.37200  0.52250  0.60970  1.0000 0.6861819945
C   C495      1.0  0.31190  0.55000  0.58890  1.0000 0.6215376561
O   O460      1.0  0.29990  0.56300  0.58960  1.0000 -0.6397820246
O   O461      1.0  0.30830  0.53500  0.58080  1.0000 -0.6517776188
O   O462      1.0  0.38610  0.52400  0.61980  1.0000 -0.6587408496
O   O463      1.0  0.37030  0.50860  0.59910  1.0000 -0.6587408496
O   O464      1.0  0.37000  0.58980  0.63040  1.0000 -0.609555034
O   O465      1.0  0.34070  0.59780  0.62940  1.0000 -0.6346473784
C   C496      1.0  0.23170  0.54200  0.59640  1.0000 0.0614820425
C   C497      1.0  0.24470  0.53000  0.58790  1.0000 -0.0708048282
C   C498      1.0  0.26240  0.53790  0.57960  1.0000 0.6800795649
O   O466      1.0  0.20390  0.56740  0.59770  1.0000 -0.6517776188
O   O467      1.0  0.26560  0.55480  0.58120  1.0000 -0.6162038559
O   O468      1.0  0.27510  0.52700  0.57280  1.0000 -0.6782680781
Ti  Ti55      1.0  0.29934  0.52389  0.55791  1.0000 2.0212494802
O   O469      1.0  0.28540  0.50920  0.53120  1.0000 -0.6397820246
C   C499      1.0  0.45900  0.48300  0.63970  1.0000 0.0286004543
C   C500      1.0  0.46040  0.48450  0.62010  1.0000 -0.1004600406
C   C501      1.0  0.44690  0.49640  0.60960  1.0000 0.6629974542
O   O470      1.0  0.47770  0.45600  0.67830  1.0000 -0.6939314659
O   O471      1.0  0.44380  0.49320  0.59260  1.0000 -0.5677502138
O   O472      1.0  0.43740  0.50860  0.61820  1.0000 -0.6587408496
Co  Co28      1.0  0.41015  0.51365  0.61764  1.0000 1.9421053842
O   O473      1.0  0.40100  0.60010  0.62150  1.0000 -0.6397820246
O   O474      1.0  0.42650  0.52770  0.57780  1.0000 -0.5856416578
O   O475      1.0  0.42370  0.53560  0.60720  1.0000 -0.6517776188
C   C502      1.0  0.41940  0.57430  0.59820  1.0000 0.0210823154
C   C503      1.0  0.42360  0.56050  0.58470  1.0000 -0.1004600406
C   C504      1.0  0.42380  0.54010  0.59020  1.0000 0.653666533
O   O476      1.0  0.18110  0.59070  0.61370  1.0000 -0.6007274885
Ti  Ti56      1.0  0.41015  0.63236  0.73635  1.0000 1.1911382492
C   C505      1.0  0.33990  0.71400  0.64940  1.0000 0.0614820425
C   C506      1.0  0.36250  0.69380  0.63380  1.0000 0.0501834124
C   C507      1.0  0.32710  0.69890  0.65020  1.0000 -0.1718156922
C   C508      1.0  0.34960  0.67890  0.63470  1.0000 -0.189473289
C   C509      1.0  0.33200  0.68150  0.64280  1.0000 0.0978843566
C   C510      1.0  0.35780  0.71140  0.64120  1.0000 -0.1087284717
C   C511      1.0  0.35330  0.66400  0.62360  1.0000 0.637843934
C   C512      1.0  0.37200  0.72750  0.64030  1.0000 0.6861819945
C   C513      1.0  0.31190  0.70000  0.66110  1.0000 0.6215376561
O   O477      1.0  0.29990  0.68700  0.66040  1.0000 -0.6397820246
O   O478      1.0  0.30830  0.71500  0.66920  1.0000 -0.6517776188
O   O479      1.0  0.38610  0.72600  0.63020  1.0000 -0.6587408496
O   O480      1.0  0.37030  0.74140  0.65090  1.0000 -0.6587408496
O   O481      1.0  0.37000  0.66020  0.61960  1.0000 -0.609555034
O   O482      1.0  0.34070  0.65220  0.62060  1.0000 -0.6346473784
C   C514      1.0  0.23170  0.70800  0.65360  1.0000 0.0501834124
C   C515      1.0  0.24470  0.72000  0.66210  1.0000 -0.0708048282
C   C516      1.0  0.26240  0.71210  0.67040  1.0000 0.6800795649
O   O483      1.0  0.20390  0.68260  0.65230  1.0000 -0.5303997674
O   O484      1.0  0.26560  0.69520  0.66880  1.0000 -0.609555034
O   O485      1.0  0.27510  0.72300  0.67720  1.0000 -0.6782680781
Ti  Ti57      1.0  0.29934  0.72611  0.69209  1.0000 2.0212494802
O   O486      1.0  0.28540  0.74080  0.71880  1.0000 -0.6397820246
C   C517      1.0  0.45900  0.76700  0.61030  1.0000 0.0286004543
C   C518      1.0  0.46040  0.76550  0.62990  1.0000 -0.1004600406
C   C519      1.0  0.44690  0.75360  0.64040  1.0000 0.6629974542
O   O487      1.0  0.47770  0.79400  0.57170  1.0000 -0.6939314659
O   O488      1.0  0.44380  0.75680  0.65740  1.0000 -0.5677502138
O   O489      1.0  0.43740  0.74140  0.63180  1.0000 -0.6587408496
Co  Co29      1.0  0.41015  0.73635  0.63236  1.0000 1.9421053842
O   O490      1.0  0.40100  0.64990  0.62850  1.0000 -0.6397820246
O   O491      1.0  0.42650  0.72230  0.67220  1.0000 -0.5777560007
O   O492      1.0  0.42370  0.71440  0.64280  1.0000 -0.6517776188
C   C520      1.0  0.41940  0.67570  0.65180  1.0000 0.0210823154
C   C521      1.0  0.42360  0.68950  0.66530  1.0000 -0.1004600406
C   C522      1.0  0.42380  0.70990  0.65980  1.0000 0.653666533
O   O493      1.0  0.18110  0.65930  0.63630  1.0000 -0.5106411624
Ti  Ti58      1.0  0.41015  0.61764  0.51365  1.0000 1.1911382492
C   C523      1.0  0.33990  0.21400  0.14940  1.0000 0.0614820425
C   C524      1.0  0.36250  0.19380  0.13380  1.0000 0.0501834124
C   C525      1.0  0.32710  0.19890  0.15020  1.0000 -0.1718156922
C   C526      1.0  0.34960  0.17890  0.13470  1.0000 -0.189473289
C   C527      1.0  0.33200  0.18150  0.14280  1.0000 0.0978843566
C   C528      1.0  0.35780  0.21140  0.14120  1.0000 -0.1087284717
C   C529      1.0  0.35330  0.16400  0.12360  1.0000 0.637843934
C   C530      1.0  0.37200  0.22750  0.14030  1.0000 0.6861819945
C   C531      1.0  0.31190  0.20000  0.16110  1.0000 0.6215376561
O   O494      1.0  0.29990  0.18700  0.16040  1.0000 -0.6397820246
O   O495      1.0  0.30830  0.21500  0.16920  1.0000 -0.6517776188
O   O496      1.0  0.38610  0.22600  0.13020  1.0000 -0.6587408496
O   O497      1.0  0.37030  0.24140  0.15090  1.0000 -0.6587408496
O   O498      1.0  0.37000  0.16020  0.11960  1.0000 -0.609555034
O   O499      1.0  0.34070  0.15220  0.12060  1.0000 -0.6397820246
C   C532      1.0  0.23170  0.20800  0.15360  1.0000 0.0501834124
C   C533      1.0  0.24470  0.22000  0.16210  1.0000 -0.0708048282
C   C534      1.0  0.26240  0.21210  0.17040  1.0000 0.6800795649
O   O500      1.0  0.20390  0.18260  0.15230  1.0000 -0.5303997674
O   O501      1.0  0.26560  0.19520  0.16880  1.0000 -0.609555034
O   O502      1.0  0.27510  0.22300  0.17720  1.0000 -0.6782680781
Ti  Ti59      1.0  0.29934  0.22611  0.19209  1.0000 2.0212494802
O   O503      1.0  0.28540  0.24080  0.21880  1.0000 -0.6397820246
C   C535      1.0  0.45900  0.26700  0.11030  1.0000 0.0286004543
C   C536      1.0  0.46040  0.26550  0.12990  1.0000 -0.1004600406
C   C537      1.0  0.44690  0.25360  0.14040  1.0000 0.6629974542
O   O504      1.0  0.47770  0.29400  0.07170  1.0000 -0.6951936574
O   O505      1.0  0.44380  0.25680  0.15740  1.0000 -0.5677502138
O   O506      1.0  0.43740  0.24140  0.13180  1.0000 -0.6587408496
Co  Co30      1.0  0.41015  0.23635  0.13236  1.0000 1.9421053842
O   O507      1.0  0.40100  0.14990  0.12850  1.0000 -0.6397820246
O   O508      1.0  0.42650  0.22230  0.17220  1.0000 -0.5856416578
O   O509      1.0  0.42370  0.21440  0.14280  1.0000 -0.6587408496
C   C538      1.0  0.41940  0.17570  0.15180  1.0000 0.0210823154
C   C539      1.0  0.42360  0.18950  0.16530  1.0000 -0.1004600406
C   C540      1.0  0.42380  0.20990  0.15980  1.0000 0.653666533
O   O510      1.0  0.18110  0.15930  0.13630  1.0000 -0.5106411624
Ti  Ti60      1.0  0.41015  0.11764  0.01365  1.0000 1.1911382492
C   C541      1.0  0.83990  0.71400  0.14940  1.0000 0.0614820425
C   C542      1.0  0.86250  0.69380  0.13380  1.0000 0.0501834124
C   C543      1.0  0.82710  0.69890  0.15020  1.0000 -0.1718156922
C   C544      1.0  0.84960  0.67890  0.13470  1.0000 -0.189473289
C   C545      1.0  0.83200  0.68150  0.14280  1.0000 0.0978843566
C   C546      1.0  0.85780  0.71140  0.14120  1.0000 -0.1087284717
C   C547      1.0  0.85330  0.66400  0.12360  1.0000 0.637843934
C   C548      1.0  0.87200  0.72750  0.14030  1.0000 0.6861819945
C   C549      1.0  0.81190  0.70000  0.16110  1.0000 0.6215376561
O   O511      1.0  0.79990  0.68700  0.16040  1.0000 -0.6397820246
O   O512      1.0  0.80830  0.71500  0.16920  1.0000 -0.6517776188
O   O513      1.0  0.88610  0.72600  0.13020  1.0000 -0.6587408496
O   O514      1.0  0.87030  0.74140  0.15090  1.0000 -0.6587408496
O   O515      1.0  0.87000  0.66020  0.11960  1.0000 -0.609555034
O   O516      1.0  0.84070  0.65220  0.12060  1.0000 -0.6397820246
C   C550      1.0  0.73170  0.70800  0.15360  1.0000 0.0614820425
C   C551      1.0  0.74470  0.72000  0.16210  1.0000 -0.0708048282
C   C552      1.0  0.76240  0.71210  0.17040  1.0000 0.6800795649
O   O517      1.0  0.70390  0.68260  0.15230  1.0000 -0.6517776188
O   O518      1.0  0.76560  0.69520  0.16880  1.0000 -0.6162038559
O   O519      1.0  0.77510  0.72300  0.17720  1.0000 -0.6782680781
Ti  Ti61      1.0  0.79934  0.72611  0.19209  1.0000 2.0212494802
O   O520      1.0  0.78540  0.74080  0.21880  1.0000 -0.6397820246
C   C553      1.0  0.95900  0.76700  0.11030  1.0000 0.0286004543
C   C554      1.0  0.96040  0.76550  0.12990  1.0000 -0.1004600406
C   C555      1.0  0.94690  0.75360  0.14040  1.0000 0.6629974542
O   O521      1.0  0.97770  0.79400  0.07170  1.0000 -0.6939314659
O   O522      1.0  0.94380  0.75680  0.15740  1.0000 -0.5677502138
O   O523      1.0  0.93740  0.74140  0.13180  1.0000 -0.6587408496
Co  Co31      1.0  0.91015  0.73635  0.13236  1.0000 1.9421053842
O   O524      1.0  0.90100  0.64990  0.12850  1.0000 -0.6397820246
O   O525      1.0  0.92650  0.72230  0.17220  1.0000 -0.5856416578
O   O526      1.0  0.92370  0.71440  0.14280  1.0000 -0.6517776188
C   C556      1.0  0.91940  0.67570  0.15180  1.0000 0.0210823154
C   C557      1.0  0.92360  0.68950  0.16530  1.0000 -0.1004600406
C   C558      1.0  0.92380  0.70990  0.15980  1.0000 0.653666533
O   O527      1.0  0.68110  0.65930  0.13630  1.0000 -0.6007274885
Ti  Ti62      1.0  0.91015  0.61764  0.01365  1.0000 1.1911382492
C   C559      1.0  0.83990  0.21400  0.64940  1.0000 0.0614820425
C   C560      1.0  0.86250  0.19380  0.63380  1.0000 0.0501834124
C   C561      1.0  0.82710  0.19890  0.65020  1.0000 -0.1718156922
C   C562      1.0  0.84960  0.17890  0.63470  1.0000 -0.189473289
C   C563      1.0  0.83200  0.18150  0.64280  1.0000 0.0978843566
C   C564      1.0  0.85780  0.21140  0.64120  1.0000 -0.1087284717
C   C565      1.0  0.85330  0.16400  0.62360  1.0000 0.637843934
C   C566      1.0  0.87200  0.22750  0.64030  1.0000 0.6861819945
C   C567      1.0  0.81190  0.20000  0.66110  1.0000 0.6215376561
O   O528      1.0  0.79990  0.18700  0.66040  1.0000 -0.6397820246
O   O529      1.0  0.80830  0.21500  0.66920  1.0000 -0.6517776188
O   O530      1.0  0.88610  0.22600  0.63020  1.0000 -0.6587408496
O   O531      1.0  0.87030  0.24140  0.65090  1.0000 -0.6587408496
O   O532      1.0  0.87000  0.16020  0.61960  1.0000 -0.609555034
O   O533      1.0  0.84070  0.15220  0.62060  1.0000 -0.6397820246
C   C568      1.0  0.73170  0.20800  0.65360  1.0000 0.0614820425
C   C569      1.0  0.74470  0.22000  0.66210  1.0000 -0.0708048282
C   C570      1.0  0.76240  0.21210  0.67040  1.0000 0.6800795649
O   O534      1.0  0.70390  0.18260  0.65230  1.0000 -0.5303997674
O   O535      1.0  0.76560  0.19520  0.66880  1.0000 -0.609555034
O   O536      1.0  0.77510  0.22300  0.67720  1.0000 -0.6782680781
Ti  Ti63      1.0  0.79934  0.22611  0.69209  1.0000 2.0212494802
O   O537      1.0  0.78540  0.24080  0.71880  1.0000 -0.6397820246
C   C571      1.0  0.95900  0.26700  0.61030  1.0000 0.0286004543
C   C572      1.0  0.96040  0.26550  0.62990  1.0000 -0.1004600406
C   C573      1.0  0.94690  0.25360  0.64040  1.0000 0.6629974542
O   O538      1.0  0.97770  0.29400  0.57170  1.0000 -0.6939314659
O   O539      1.0  0.94380  0.25680  0.65740  1.0000 -0.5677502138
O   O540      1.0  0.93740  0.24140  0.63180  1.0000 -0.6587408496
Co  Co32      1.0  0.91015  0.23635  0.63236  1.0000 1.9421053842
O   O541      1.0  0.90100  0.14990  0.62850  1.0000 -0.6397820246
O   O542      1.0  0.92650  0.22230  0.67220  1.0000 -0.5856416578
O   O543      1.0  0.92370  0.21440  0.64280  1.0000 -0.6517776188
C   C574      1.0  0.91940  0.17570  0.65180  1.0000 0.0210823154
C   C575      1.0  0.92360  0.18950  0.66530  1.0000 -0.1004600406
C   C576      1.0  0.92380  0.20990  0.65980  1.0000 0.653666533
O   O544      1.0  0.68110  0.15930  0.63630  1.0000 -0.5106411624
Ti  Ti64      1.0  0.91015  0.11764  0.51365  1.0000 1.1911382492
C   C577      1.0  0.10060  0.91010  0.21400  1.0000 0.0614820425
C   C578      1.0  0.11620  0.88750  0.19380  1.0000 0.0501834124
C   C579      1.0  0.09980  0.92290  0.19890  1.0000 -0.1718156922
C   C580      1.0  0.11530  0.90040  0.17890  1.0000 -0.189473289
C   C581      1.0  0.10720  0.91800  0.18150  1.0000 0.0978843566
C   C582      1.0  0.10880  0.89220  0.21140  1.0000 -0.1087284717
C   C583      1.0  0.12640  0.89670  0.16400  1.0000 0.6285624754
C   C584      1.0  0.10970  0.87800  0.22750  1.0000 0.6861819945
C   C585      1.0  0.08890  0.93810  0.20000  1.0000 0.6215376561
O   O545      1.0  0.08960  0.95010  0.18700  1.0000 -0.6397820246
O   O546      1.0  0.08080  0.94170  0.21500  1.0000 -0.6517776188
O   O547      1.0  0.11980  0.86390  0.22600  1.0000 -0.6587408496
O   O548      1.0  0.09910  0.87970  0.24140  1.0000 -0.6587408496
O   O549      1.0  0.13040  0.88000  0.16020  1.0000 -0.609555034
O   O550      1.0  0.12940  0.90930  0.15220  1.0000 -0.6346473784
C   C586      1.0  0.09640  0.01830  0.20800  1.0000 0.0501834124
C   C587      1.0  0.08790  0.00530  0.22000  1.0000 -0.0708048282
C   C588      1.0  0.07960  0.98760  0.21210  1.0000 0.6800795649
O   O551      1.0  0.09770  0.04610  0.18260  1.0000 -0.6517776188
O   O552      1.0  0.08120  0.98440  0.19520  1.0000 -0.6162038559
O   O553      1.0  0.07280  0.97490  0.22300  1.0000 -0.6782680781
Ti  Ti65      1.0  0.05791  0.95066  0.22611  1.0000 2.0212494802
O   O554      1.0  0.03120  0.96460  0.24080  1.0000 -0.6397820246
C   C589      1.0  0.13970  0.79100  0.26700  1.0000 0.0286004543
C   C590      1.0  0.12010  0.78960  0.26550  1.0000 -0.1004600406
C   C591      1.0  0.10960  0.80310  0.25360  1.0000 0.6629974542
O   O555      1.0  0.17830  0.77230  0.29400  1.0000 -0.6939314659
O   O556      1.0  0.09260  0.80620  0.25680  1.0000 -0.5677502138
O   O557      1.0  0.11820  0.81260  0.24140  1.0000 -0.6587408496
Co  Co33      1.0  0.11764  0.83985  0.23635  1.0000 1.9421053842
O   O558      1.0  0.12150  0.84900  0.14990  1.0000 -0.6397820246
O   O559      1.0  0.07780  0.82350  0.22230  1.0000 -0.5856416578
O   O560      1.0  0.10720  0.82630  0.21440  1.0000 -0.6517776188
C   C592      1.0  0.09820  0.83060  0.17570  1.0000 0.0210823154
C   C593      1.0  0.08470  0.82640  0.18950  1.0000 -0.1004600406
C   C594      1.0  0.09020  0.82620  0.20990  1.0000 0.6629974542
O   O561      1.0  0.11370  0.06890  0.15930  1.0000 -0.609555034
Ti  Ti66      1.0  0.23635  0.83985  0.11764  1.0000 1.1911382492
C   C595      1.0  0.10060  0.41010  0.71400  1.0000 0.0614820425
C   C596      1.0  0.11620  0.38750  0.69380  1.0000 0.0501834124
C   C597      1.0  0.09980  0.42290  0.69890  1.0000 -0.1718156922
C   C598      1.0  0.11530  0.40040  0.67890  1.0000 -0.189473289
C   C599      1.0  0.10720  0.41800  0.68150  1.0000 0.0978843566
C   C600      1.0  0.10880  0.39220  0.71140  1.0000 -0.1087284717
C   C601      1.0  0.12640  0.39670  0.66400  1.0000 0.6285624754
C   C602      1.0  0.10970  0.37800  0.72750  1.0000 0.6861819945
C   C603      1.0  0.08890  0.43810  0.70000  1.0000 0.6215376561
O   O562      1.0  0.08960  0.45010  0.68700  1.0000 -0.6397820246
O   O563      1.0  0.08080  0.44170  0.71500  1.0000 -0.6517776188
O   O564      1.0  0.11980  0.36390  0.72600  1.0000 -0.6587408496
O   O565      1.0  0.09910  0.37970  0.74140  1.0000 -0.6587408496
O   O566      1.0  0.13040  0.38000  0.66020  1.0000 -0.609555034
O   O567      1.0  0.12940  0.40930  0.65220  1.0000 -0.6397820246
C   C604      1.0  0.09640  0.51830  0.70800  1.0000 0.0501834124
C   C605      1.0  0.08790  0.50530  0.72000  1.0000 -0.0708048282
C   C606      1.0  0.07960  0.48760  0.71210  1.0000 0.6800795649
O   O568      1.0  0.09770  0.54610  0.68260  1.0000 -0.6517776188
O   O569      1.0  0.08120  0.48440  0.69520  1.0000 -0.6162038559
O   O570      1.0  0.07280  0.47490  0.72300  1.0000 -0.6782680781
Ti  Ti67      1.0  0.05791  0.45066  0.72611  1.0000 2.0212494802
O   O571      1.0  0.03120  0.46460  0.74080  1.0000 -0.6397820246
C   C607      1.0  0.13970  0.29100  0.76700  1.0000 0.0286004543
C   C608      1.0  0.12010  0.28960  0.76550  1.0000 -0.1004600406
C   C609      1.0  0.10960  0.30310  0.75360  1.0000 0.6629974542
O   O572      1.0  0.17830  0.27230  0.79400  1.0000 -0.6951936574
O   O573      1.0  0.09260  0.30620  0.75680  1.0000 -0.5677502138
O   O574      1.0  0.11820  0.31260  0.74140  1.0000 -0.6587408496
Co  Co34      1.0  0.11764  0.33985  0.73635  1.0000 1.9421053842
O   O575      1.0  0.12150  0.34900  0.64990  1.0000 -0.6397820246
O   O576      1.0  0.07780  0.32350  0.72230  1.0000 -0.5777560007
O   O577      1.0  0.10720  0.32630  0.71440  1.0000 -0.6517776188
C   C610      1.0  0.09820  0.33060  0.67570  1.0000 0.0210823154
C   C611      1.0  0.08470  0.32640  0.68950  1.0000 -0.1004600406
C   C612      1.0  0.09020  0.32620  0.70990  1.0000 0.653666533
O   O578      1.0  0.11370  0.56890  0.65930  1.0000 -0.609555034
Ti  Ti68      1.0  0.23635  0.33985  0.61764  1.0000 1.1911382492
C   C613      1.0  0.60060  0.91010  0.71400  1.0000 0.0614820425
C   C614      1.0  0.61620  0.88750  0.69380  1.0000 0.0501834124
C   C615      1.0  0.59980  0.92290  0.69890  1.0000 -0.1718156922
C   C616      1.0  0.61530  0.90040  0.67890  1.0000 -0.189473289
C   C617      1.0  0.60720  0.91800  0.68150  1.0000 0.0978843566
C   C618      1.0  0.60880  0.89220  0.71140  1.0000 -0.1087284717
C   C619      1.0  0.62640  0.89670  0.66400  1.0000 0.637843934
C   C620      1.0  0.60970  0.87800  0.72750  1.0000 0.6861819945
C   C621      1.0  0.58890  0.93810  0.70000  1.0000 0.6215376561
O   O579      1.0  0.58960  0.95010  0.68700  1.0000 -0.6397820246
O   O580      1.0  0.58080  0.94170  0.71500  1.0000 -0.6517776188
O   O581      1.0  0.61980  0.86390  0.72600  1.0000 -0.6587408496
O   O582      1.0  0.59910  0.87970  0.74140  1.0000 -0.6587408496
O   O583      1.0  0.63040  0.88000  0.66020  1.0000 -0.609555034
O   O584      1.0  0.62940  0.90930  0.65220  1.0000 -0.6346473784
C   C622      1.0  0.59640  0.01830  0.70800  1.0000 0.0614820425
C   C623      1.0  0.58790  0.00530  0.72000  1.0000 -0.0708048282
C   C624      1.0  0.57960  0.98760  0.71210  1.0000 0.6800795649
O   O585      1.0  0.59770  0.04610  0.68260  1.0000 -0.5303997674
O   O586      1.0  0.58120  0.98440  0.69520  1.0000 -0.609555034
O   O587      1.0  0.57280  0.97490  0.72300  1.0000 -0.6782680781
Ti  Ti69      1.0  0.55791  0.95066  0.72611  1.0000 2.0212494802
O   O588      1.0  0.53120  0.96460  0.74080  1.0000 -0.6397820246
C   C625      1.0  0.63970  0.79100  0.76700  1.0000 0.0286004543
C   C626      1.0  0.62010  0.78960  0.76550  1.0000 -0.1004600406
C   C627      1.0  0.60960  0.80310  0.75360  1.0000 0.6629974542
O   O589      1.0  0.67830  0.77230  0.79400  1.0000 -0.6939314659
O   O590      1.0  0.59260  0.80620  0.75680  1.0000 -0.5677502138
O   O591      1.0  0.61820  0.81260  0.74140  1.0000 -0.6587408496
Co  Co35      1.0  0.61764  0.83985  0.73635  1.0000 1.9421053842
O   O592      1.0  0.62150  0.84900  0.64990  1.0000 -0.6397820246
O   O593      1.0  0.57780  0.82350  0.72230  1.0000 -0.5856416578
O   O594      1.0  0.60720  0.82630  0.71440  1.0000 -0.6517776188
C   C628      1.0  0.59820  0.83060  0.67570  1.0000 0.0210823154
C   C629      1.0  0.58470  0.82640  0.68950  1.0000 -0.1004600406
C   C630      1.0  0.59020  0.82620  0.70990  1.0000 0.653666533
O   O595      1.0  0.61370  0.06890  0.65930  1.0000 -0.5037077391
Ti  Ti70      1.0  0.73635  0.83985  0.61764  1.0000 1.1911382492
C   C631      1.0  0.60060  0.41010  0.21400  1.0000 0.0614820425
C   C632      1.0  0.61620  0.38750  0.19380  1.0000 0.0501834124
C   C633      1.0  0.59980  0.42290  0.19890  1.0000 -0.1718156922
C   C634      1.0  0.61530  0.40040  0.17890  1.0000 -0.189473289
C   C635      1.0  0.60720  0.41800  0.18150  1.0000 0.0978843566
C   C636      1.0  0.60880  0.39220  0.21140  1.0000 -0.1087284717
C   C637      1.0  0.62640  0.39670  0.16400  1.0000 0.637843934
C   C638      1.0  0.60970  0.37800  0.22750  1.0000 0.6861819945
C   C639      1.0  0.58890  0.43810  0.20000  1.0000 0.6215376561
O   O596      1.0  0.58960  0.45010  0.18700  1.0000 -0.6397820246
O   O597      1.0  0.58080  0.44170  0.21500  1.0000 -0.6517776188
O   O598      1.0  0.61980  0.36390  0.22600  1.0000 -0.6587408496
O   O599      1.0  0.59910  0.37970  0.24140  1.0000 -0.6587408496
O   O600      1.0  0.63040  0.38000  0.16020  1.0000 -0.609555034
O   O601      1.0  0.62940  0.40930  0.15220  1.0000 -0.6397820246
C   C640      1.0  0.59640  0.51830  0.20800  1.0000 0.0501834124
C   C641      1.0  0.58790  0.50530  0.22000  1.0000 -0.0708048282
C   C642      1.0  0.57960  0.48760  0.21210  1.0000 0.6800795649
O   O602      1.0  0.59770  0.54610  0.18260  1.0000 -0.6517776188
O   O603      1.0  0.58120  0.48440  0.19520  1.0000 -0.6162038559
O   O604      1.0  0.57280  0.47490  0.22300  1.0000 -0.6782680781
Ti  Ti71      1.0  0.55791  0.45066  0.22611  1.0000 2.0212494802
O   O605      1.0  0.53120  0.46460  0.24080  1.0000 -0.6397820246
C   C643      1.0  0.63970  0.29100  0.26700  1.0000 0.0286004543
C   C644      1.0  0.62010  0.28960  0.26550  1.0000 -0.1004600406
C   C645      1.0  0.60960  0.30310  0.25360  1.0000 0.6629974542
O   O606      1.0  0.67830  0.27230  0.29400  1.0000 -0.6939314659
O   O607      1.0  0.59260  0.30620  0.25680  1.0000 -0.5677502138
O   O608      1.0  0.61820  0.31260  0.24140  1.0000 -0.6587408496
Co  Co36      1.0  0.61764  0.33985  0.23635  1.0000 1.9421053842
O   O609      1.0  0.62150  0.34900  0.14990  1.0000 -0.6397820246
O   O610      1.0  0.57780  0.32350  0.22230  1.0000 -0.5856416578
O   O611      1.0  0.60720  0.32630  0.21440  1.0000 -0.6587408496
C   C646      1.0  0.59820  0.33060  0.17570  1.0000 0.0210823154
C   C647      1.0  0.58470  0.32640  0.18950  1.0000 -0.1004600406
C   C648      1.0  0.59020  0.32620  0.20990  1.0000 0.653666533
O   O612      1.0  0.61370  0.56890  0.15930  1.0000 -0.609555034
Ti  Ti72      1.0  0.73635  0.33985  0.11764  1.0000 1.1911382492
C   C649      1.0  0.14940  0.41010  0.53600  1.0000 0.0614820425
C   C650      1.0  0.13380  0.38750  0.55620  1.0000 0.0501834124
C   C651      1.0  0.15020  0.42290  0.55110  1.0000 -0.1718156922
C   C652      1.0  0.13470  0.40040  0.57110  1.0000 -0.189473289
C   C653      1.0  0.14280  0.41800  0.56850  1.0000 0.0978843566
C   C654      1.0  0.14120  0.39220  0.53860  1.0000 -0.1087284717
C   C655      1.0  0.12360  0.39670  0.58600  1.0000 0.6285624754
C   C656      1.0  0.14030  0.37800  0.52250  1.0000 0.6861819945
C   C657      1.0  0.16110  0.43810  0.55000  1.0000 0.6215376561
O   O613      1.0  0.16040  0.45010  0.56300  1.0000 -0.6397820246
O   O614      1.0  0.16920  0.44170  0.53500  1.0000 -0.6517776188
O   O615      1.0  0.13020  0.36390  0.52400  1.0000 -0.6587408496
O   O616      1.0  0.15090  0.37970  0.50860  1.0000 -0.6587408496
O   O617      1.0  0.11960  0.38000  0.58980  1.0000 -0.609555034
O   O618      1.0  0.12060  0.40930  0.59780  1.0000 -0.6397820246
C   C658      1.0  0.15360  0.51830  0.54200  1.0000 0.0614820425
C   C659      1.0  0.16210  0.50530  0.53000  1.0000 -0.0708048282
C   C660      1.0  0.17040  0.48760  0.53790  1.0000 0.6800795649
O   O619      1.0  0.15230  0.54610  0.56740  1.0000 -0.5303997674
O   O620      1.0  0.16880  0.48440  0.55480  1.0000 -0.609555034
O   O621      1.0  0.17720  0.47490  0.52700  1.0000 -0.6782680781
Ti  Ti73      1.0  0.19209  0.45066  0.52389  1.0000 2.0212494802
O   O622      1.0  0.21880  0.46460  0.50920  1.0000 -0.6397820246
C   C661      1.0  0.11030  0.29100  0.48300  1.0000 0.0286004543
C   C662      1.0  0.12990  0.28960  0.48450  1.0000 -0.1004600406
C   C663      1.0  0.14040  0.30310  0.49640  1.0000 0.6629974542
O   O623      1.0  0.07170  0.27230  0.45600  1.0000 -0.6951936574
O   O624      1.0  0.15740  0.30620  0.49320  1.0000 -0.5677502138
O   O625      1.0  0.13180  0.31260  0.50860  1.0000 -0.6587408496
Co  Co37      1.0  0.13236  0.33985  0.51365  1.0000 1.9421053842
O   O626      1.0  0.12850  0.34900  0.60010  1.0000 -0.6397820246
O   O627      1.0  0.17220  0.32350  0.52770  1.0000 -0.5856416578
O   O628      1.0  0.14280  0.32630  0.53560  1.0000 -0.6517776188
C   C664      1.0  0.15180  0.33060  0.57430  1.0000 0.0210823154
C   C665      1.0  0.16530  0.32640  0.56050  1.0000 -0.1004600406
C   C666      1.0  0.15980  0.32620  0.54010  1.0000 0.653666533
O   O629      1.0  0.13630  0.56890  0.59070  1.0000 -0.521012765
Ti  Ti74      1.0  0.01365  0.33985  0.63236  1.0000 1.1911382492
C   C667      1.0  0.14940  0.91010  0.03600  1.0000 0.0614820425
C   C668      1.0  0.13380  0.88750  0.05620  1.0000 0.0501834124
C   C669      1.0  0.15020  0.92290  0.05110  1.0000 -0.1718156922
C   C670      1.0  0.13470  0.90040  0.07110  1.0000 -0.189473289
C   C671      1.0  0.14280  0.91800  0.06850  1.0000 0.0978843566
C   C672      1.0  0.14120  0.89220  0.03860  1.0000 -0.1087284717
C   C673      1.0  0.12360  0.89670  0.08600  1.0000 0.6285624754
C   C674      1.0  0.14030  0.87800  0.02250  1.0000 0.6861819945
C   C675      1.0  0.16110  0.93810  0.05000  1.0000 0.6215376561
O   O630      1.0  0.16040  0.95010  0.06300  1.0000 -0.6397820246
O   O631      1.0  0.16920  0.94170  0.03500  1.0000 -0.6517776188
O   O632      1.0  0.13020  0.86390  0.02400  1.0000 -0.6587408496
O   O633      1.0  0.15090  0.87970  0.00860  1.0000 -0.6587408496
O   O634      1.0  0.11960  0.88000  0.08980  1.0000 -0.609555034
O   O635      1.0  0.12060  0.90930  0.09780  1.0000 -0.6346473784
C   C676      1.0  0.15360  0.01830  0.04200  1.0000 0.0614820425
C   C677      1.0  0.16210  0.00530  0.03000  1.0000 -0.0708048282
C   C678      1.0  0.17040  0.98760  0.03790  1.0000 0.6800795649
O   O636      1.0  0.15230  0.04610  0.06740  1.0000 -0.5303997674
O   O637      1.0  0.16880  0.98440  0.05480  1.0000 -0.609555034
O   O638      1.0  0.17720  0.97490  0.02700  1.0000 -0.6782680781
Ti  Ti75      1.0  0.19209  0.95066  0.02389  1.0000 2.0212494802
O   O639      1.0  0.21880  0.96460  0.00920  1.0000 -0.6397820246
C   C679      1.0  0.11030  0.79100  0.98300  1.0000 0.0286004543
C   C680      1.0  0.12990  0.78960  0.98450  1.0000 -0.1004600406
C   C681      1.0  0.14040  0.80310  0.99640  1.0000 0.6629974542
O   O640      1.0  0.07170  0.77230  0.95600  1.0000 -0.6939314659
O   O641      1.0  0.15740  0.80620  0.99320  1.0000 -0.5677502138
O   O642      1.0  0.13180  0.81260  0.00860  1.0000 -0.6587408496
Co  Co38      1.0  0.13236  0.83985  0.01365  1.0000 1.9421053842
O   O643      1.0  0.12850  0.84900  0.10010  1.0000 -0.6397820246
O   O644      1.0  0.17220  0.82350  0.02770  1.0000 -0.5777560007
O   O645      1.0  0.14280  0.82630  0.03560  1.0000 -0.6517776188
C   C682      1.0  0.15180  0.83060  0.07430  1.0000 0.0210823154
C   C683      1.0  0.16530  0.82640  0.06050  1.0000 -0.1004600406
C   C684      1.0  0.15980  0.82620  0.04010  1.0000 0.6629974542
O   O646      1.0  0.13630  0.06890  0.09070  1.0000 -0.521012765
Ti  Ti76      1.0  0.01365  0.83985  0.13236  1.0000 1.1911382492
C   C685      1.0  0.64940  0.41010  0.03600  1.0000 0.0614820425
C   C686      1.0  0.63380  0.38750  0.05620  1.0000 0.0501834124
C   C687      1.0  0.65020  0.42290  0.05110  1.0000 -0.1718156922
C   C688      1.0  0.63470  0.40040  0.07110  1.0000 -0.189473289
C   C689      1.0  0.64280  0.41800  0.06850  1.0000 0.0978843566
C   C690      1.0  0.64120  0.39220  0.03860  1.0000 -0.1087284717
C   C691      1.0  0.62360  0.39670  0.08600  1.0000 0.637843934
C   C692      1.0  0.64030  0.37800  0.02250  1.0000 0.6861819945
C   C693      1.0  0.66110  0.43810  0.05000  1.0000 0.6215376561
O   O647      1.0  0.66040  0.45010  0.06300  1.0000 -0.6397820246
O   O648      1.0  0.66920  0.44170  0.03500  1.0000 -0.6517776188
O   O649      1.0  0.63020  0.36390  0.02400  1.0000 -0.6587408496
O   O650      1.0  0.65090  0.37970  0.00860  1.0000 -0.6587408496
O   O651      1.0  0.61960  0.38000  0.08980  1.0000 -0.609555034
O   O652      1.0  0.62060  0.40930  0.09780  1.0000 -0.6397820246
C   C694      1.0  0.65360  0.51830  0.04200  1.0000 0.0614820425
C   C695      1.0  0.66210  0.50530  0.03000  1.0000 -0.0708048282
C   C696      1.0  0.67040  0.48760  0.03790  1.0000 0.6800795649
O   O653      1.0  0.65230  0.54610  0.06740  1.0000 -0.5303997674
O   O654      1.0  0.66880  0.48440  0.05480  1.0000 -0.609555034
O   O655      1.0  0.67720  0.47490  0.02700  1.0000 -0.6782680781
Ti  Ti77      1.0  0.69209  0.45066  0.02389  1.0000 2.0212494802
O   O656      1.0  0.71880  0.46460  0.00920  1.0000 -0.6397820246
C   C697      1.0  0.61030  0.29100  0.98300  1.0000 0.0286004543
C   C698      1.0  0.62990  0.28960  0.98450  1.0000 -0.1004600406
C   C699      1.0  0.64040  0.30310  0.99640  1.0000 0.6629974542
O   O657      1.0  0.57170  0.27230  0.95600  1.0000 -0.6951936574
O   O658      1.0  0.65740  0.30620  0.99320  1.0000 -0.5677502138
O   O659      1.0  0.63180  0.31260  0.00860  1.0000 -0.6587408496
Co  Co39      1.0  0.63236  0.33985  0.01365  1.0000 1.9421053842
O   O660      1.0  0.62850  0.34900  0.10010  1.0000 -0.6397820246
O   O661      1.0  0.67220  0.32350  0.02770  1.0000 -0.5856416578
O   O662      1.0  0.64280  0.32630  0.03560  1.0000 -0.6517776188
C   C700      1.0  0.65180  0.33060  0.07430  1.0000 0.0210823154
C   C701      1.0  0.66530  0.32640  0.06050  1.0000 -0.1004600406
C   C702      1.0  0.65980  0.32620  0.04010  1.0000 0.653666533
O   O663      1.0  0.63630  0.56890  0.09070  1.0000 -0.5037077391
Ti  Ti78      1.0  0.51365  0.33985  0.13236  1.0000 1.1911382492
C   C703      1.0  0.64940  0.91010  0.53600  1.0000 0.0614820425
C   C704      1.0  0.63380  0.88750  0.55620  1.0000 0.0501834124
C   C705      1.0  0.65020  0.92290  0.55110  1.0000 -0.1718156922
C   C706      1.0  0.63470  0.90040  0.57110  1.0000 -0.189473289
C   C707      1.0  0.64280  0.91800  0.56850  1.0000 0.0978843566
C   C708      1.0  0.64120  0.89220  0.53860  1.0000 -0.1087284717
C   C709      1.0  0.62360  0.89670  0.58600  1.0000 0.637843934
C   C710      1.0  0.64030  0.87800  0.52250  1.0000 0.6861819945
C   C711      1.0  0.66110  0.93810  0.55000  1.0000 0.6215376561
O   O664      1.0  0.66040  0.95010  0.56300  1.0000 -0.6397820246
O   O665      1.0  0.66920  0.94170  0.53500  1.0000 -0.6517776188
O   O666      1.0  0.63020  0.86390  0.52400  1.0000 -0.6587408496
O   O667      1.0  0.65090  0.87970  0.50860  1.0000 -0.6587408496
O   O668      1.0  0.61960  0.88000  0.58980  1.0000 -0.609555034
O   O669      1.0  0.62060  0.90930  0.59780  1.0000 -0.6346473784
C   C712      1.0  0.65360  0.01830  0.54200  1.0000 0.0501834124
C   C713      1.0  0.66210  0.00530  0.53000  1.0000 -0.0708048282
C   C714      1.0  0.67040  0.98760  0.53790  1.0000 0.6800795649
O   O670      1.0  0.65230  0.04610  0.56740  1.0000 -0.6517776188
O   O671      1.0  0.66880  0.98440  0.55480  1.0000 -0.6162038559
O   O672      1.0  0.67720  0.97490  0.52700  1.0000 -0.6782680781
Ti  Ti79      1.0  0.69209  0.95066  0.52389  1.0000 2.0212494802
O   O673      1.0  0.71880  0.96460  0.50920  1.0000 -0.6397820246
C   C715      1.0  0.61030  0.79100  0.48300  1.0000 0.0286004543
C   C716      1.0  0.62990  0.78960  0.48450  1.0000 -0.1004600406
C   C717      1.0  0.64040  0.80310  0.49640  1.0000 0.6629974542
O   O674      1.0  0.57170  0.77230  0.45600  1.0000 -0.6939314659
O   O675      1.0  0.65740  0.80620  0.49320  1.0000 -0.5677502138
O   O676      1.0  0.63180  0.81260  0.50860  1.0000 -0.6587408496
Co  Co40      1.0  0.63236  0.83985  0.51365  1.0000 1.9421053842
O   O677      1.0  0.62850  0.84900  0.60010  1.0000 -0.6397820246
O   O678      1.0  0.67220  0.82350  0.52770  1.0000 -0.5856416578
O   O679      1.0  0.64280  0.82630  0.53560  1.0000 -0.6517776188
C   C718      1.0  0.65180  0.83060  0.57430  1.0000 0.0210823154
C   C719      1.0  0.66530  0.82640  0.56050  1.0000 -0.1004600406
C   C720      1.0  0.65980  0.82620  0.54010  1.0000 0.653666533
O   O680      1.0  0.63630  0.06890  0.59070  1.0000 -0.609555034
Ti  Ti80      1.0  0.51365  0.83985  0.63236  1.0000 1.1911382492
C   C721      1.0  0.60060  0.83990  0.03600  1.0000 0.0614820425
C   C722      1.0  0.61620  0.86250  0.05620  1.0000 0.0501834124
C   C723      1.0  0.59980  0.82710  0.05110  1.0000 -0.1718156922
C   C724      1.0  0.61530  0.84960  0.07110  1.0000 -0.189473289
C   C725      1.0  0.60720  0.83200  0.06850  1.0000 0.0978843566
C   C726      1.0  0.60880  0.85780  0.03860  1.0000 -0.1087284717
C   C727      1.0  0.62640  0.85330  0.08600  1.0000 0.637843934
C   C728      1.0  0.60970  0.87200  0.02250  1.0000 0.6861819945
C   C729      1.0  0.58890  0.81190  0.05000  1.0000 0.6215376561
O   O681      1.0  0.58960  0.79990  0.06300  1.0000 -0.6397820246
O   O682      1.0  0.58080  0.80830  0.03500  1.0000 -0.6517776188
O   O683      1.0  0.61980  0.88610  0.02400  1.0000 -0.6587408496
O   O684      1.0  0.59910  0.87030  0.00860  1.0000 -0.6587408496
O   O685      1.0  0.63040  0.87000  0.08980  1.0000 -0.609555034
O   O686      1.0  0.62940  0.84070  0.09780  1.0000 -0.6346473784
C   C730      1.0  0.59640  0.73170  0.04200  1.0000 0.0501834124
C   C731      1.0  0.58790  0.74470  0.03000  1.0000 -0.0708048282
C   C732      1.0  0.57960  0.76240  0.03790  1.0000 0.6800795649
O   O687      1.0  0.59770  0.70390  0.06740  1.0000 -0.6517776188
O   O688      1.0  0.58120  0.76560  0.05480  1.0000 -0.6162038559
O   O689      1.0  0.57280  0.77510  0.02700  1.0000 -0.6782680781
Ti  Ti81      1.0  0.55791  0.79934  0.02389  1.0000 2.0212494802
O   O690      1.0  0.53120  0.78540  0.00920  1.0000 -0.6397820246
C   C733      1.0  0.63970  0.95900  0.98300  1.0000 0.0286004543
C   C734      1.0  0.62010  0.96040  0.98450  1.0000 -0.1004600406
C   C735      1.0  0.60960  0.94690  0.99640  1.0000 0.6629974542
O   O691      1.0  0.67830  0.97770  0.95600  1.0000 -0.6939314659
O   O692      1.0  0.59260  0.94380  0.99320  1.0000 -0.5677502138
O   O693      1.0  0.61820  0.93740  0.00860  1.0000 -0.6587408496
Co  Co41      1.0  0.61764  0.91015  0.01365  1.0000 1.9421053842
O   O694      1.0  0.62150  0.90100  0.10010  1.0000 -0.6397820246
O   O695      1.0  0.57780  0.92650  0.02770  1.0000 -0.5856416578
O   O696      1.0  0.60720  0.92370  0.03560  1.0000 -0.6517776188
C   C736      1.0  0.59820  0.91940  0.07430  1.0000 0.0210823154
C   C737      1.0  0.58470  0.92360  0.06050  1.0000 -0.1004600406
C   C738      1.0  0.59020  0.92380  0.04010  1.0000 0.6629974542
O   O697      1.0  0.61370  0.68110  0.09070  1.0000 -0.609555034
Ti  Ti82      1.0  0.73635  0.91015  0.13236  1.0000 1.1911382492
C   C739      1.0  0.60060  0.33990  0.53600  1.0000 0.0614820425
C   C740      1.0  0.61620  0.36250  0.55620  1.0000 0.0501834124
C   C741      1.0  0.59980  0.32710  0.55110  1.0000 -0.1718156922
C   C742      1.0  0.61530  0.34960  0.57110  1.0000 -0.189473289
C   C743      1.0  0.60720  0.33200  0.56850  1.0000 0.0978843566
C   C744      1.0  0.60880  0.35780  0.53860  1.0000 -0.1087284717
C   C745      1.0  0.62640  0.35330  0.58600  1.0000 0.637843934
C   C746      1.0  0.60970  0.37200  0.52250  1.0000 0.6861819945
C   C747      1.0  0.58890  0.31190  0.55000  1.0000 0.6215376561
O   O698      1.0  0.58960  0.29990  0.56300  1.0000 -0.6397820246
O   O699      1.0  0.58080  0.30830  0.53500  1.0000 -0.6517776188
O   O700      1.0  0.61980  0.38610  0.52400  1.0000 -0.6587408496
O   O701      1.0  0.59910  0.37030  0.50860  1.0000 -0.6587408496
O   O702      1.0  0.63040  0.37000  0.58980  1.0000 -0.609555034
O   O703      1.0  0.62940  0.34070  0.59780  1.0000 -0.6346473784
C   C748      1.0  0.59640  0.23170  0.54200  1.0000 0.0614820425
C   C749      1.0  0.58790  0.24470  0.53000  1.0000 -0.0708048282
C   C750      1.0  0.57960  0.26240  0.53790  1.0000 0.6800795649
O   O704      1.0  0.59770  0.20390  0.56740  1.0000 -0.6517776188
O   O705      1.0  0.58120  0.26560  0.55480  1.0000 -0.6162038559
O   O706      1.0  0.57280  0.27510  0.52700  1.0000 -0.6782680781
Ti  Ti83      1.0  0.55791  0.29934  0.52389  1.0000 2.0212494802
O   O707      1.0  0.53120  0.28540  0.50920  1.0000 -0.6397820246
C   C751      1.0  0.63970  0.45900  0.48300  1.0000 0.0286004543
C   C752      1.0  0.62010  0.46040  0.48450  1.0000 -0.1004600406
C   C753      1.0  0.60960  0.44690  0.49640  1.0000 0.6629974542
O   O708      1.0  0.67830  0.47770  0.45600  1.0000 -0.6939314659
O   O709      1.0  0.59260  0.44380  0.49320  1.0000 -0.5677502138
O   O710      1.0  0.61820  0.43740  0.50860  1.0000 -0.6587408496
Co  Co42      1.0  0.61764  0.41015  0.51365  1.0000 1.9421053842
O   O711      1.0  0.62150  0.40100  0.60010  1.0000 -0.6397820246
O   O712      1.0  0.57780  0.42650  0.52770  1.0000 -0.5856416578
O   O713      1.0  0.60720  0.42370  0.53560  1.0000 -0.6517776188
C   C754      1.0  0.59820  0.41940  0.57430  1.0000 0.0210823154
C   C755      1.0  0.58470  0.42360  0.56050  1.0000 -0.1004600406
C   C756      1.0  0.59020  0.42380  0.54010  1.0000 0.653666533
O   O714      1.0  0.61370  0.18110  0.59070  1.0000 -0.6007274885
Ti  Ti84      1.0  0.73635  0.41015  0.63236  1.0000 1.1911382492
C   C757      1.0  0.10060  0.83990  0.53600  1.0000 0.0614820425
C   C758      1.0  0.11620  0.86250  0.55620  1.0000 0.0501834124
C   C759      1.0  0.09980  0.82710  0.55110  1.0000 -0.1718156922
C   C760      1.0  0.11530  0.84960  0.57110  1.0000 -0.189473289
C   C761      1.0  0.10720  0.83200  0.56850  1.0000 0.0978843566
C   C762      1.0  0.10880  0.85780  0.53860  1.0000 -0.1087284717
C   C763      1.0  0.12640  0.85330  0.58600  1.0000 0.6285624754
C   C764      1.0  0.10970  0.87200  0.52250  1.0000 0.6861819945
C   C765      1.0  0.08890  0.81190  0.55000  1.0000 0.6215376561
O   O715      1.0  0.08960  0.79990  0.56300  1.0000 -0.6397820246
O   O716      1.0  0.08080  0.80830  0.53500  1.0000 -0.6517776188
O   O717      1.0  0.11980  0.88610  0.52400  1.0000 -0.6587408496
O   O718      1.0  0.09910  0.87030  0.50860  1.0000 -0.6587408496
O   O719      1.0  0.13040  0.87000  0.58980  1.0000 -0.609555034
O   O720      1.0  0.12940  0.84070  0.59780  1.0000 -0.6346473784
C   C766      1.0  0.09640  0.73170  0.54200  1.0000 0.0614820425
C   C767      1.0  0.08790  0.74470  0.53000  1.0000 -0.0708048282
C   C768      1.0  0.07960  0.76240  0.53790  1.0000 0.6800795649
O   O721      1.0  0.09770  0.70390  0.56740  1.0000 -0.5303997674
O   O722      1.0  0.08120  0.76560  0.55480  1.0000 -0.609555034
O   O723      1.0  0.07280  0.77510  0.52700  1.0000 -0.6782680781
Ti  Ti85      1.0  0.05791  0.79934  0.52389  1.0000 2.0212494802
O   O724      1.0  0.03120  0.78540  0.50920  1.0000 -0.6397820246
C   C769      1.0  0.13970  0.95900  0.48300  1.0000 0.0286004543
C   C770      1.0  0.12010  0.96040  0.48450  1.0000 -0.1004600406
C   C771      1.0  0.10960  0.94690  0.49640  1.0000 0.6629974542
O   O725      1.0  0.17830  0.97770  0.45600  1.0000 -0.6939314659
O   O726      1.0  0.09260  0.94380  0.49320  1.0000 -0.5677502138
O   O727      1.0  0.11820  0.93740  0.50860  1.0000 -0.6587408496
Co  Co43      1.0  0.11764  0.91015  0.51365  1.0000 1.9421053842
O   O728      1.0  0.12150  0.90100  0.60010  1.0000 -0.6397820246
O   O729      1.0  0.07780  0.92650  0.52770  1.0000 -0.5777560007
O   O730      1.0  0.10720  0.92370  0.53560  1.0000 -0.6517776188
C   C772      1.0  0.09820  0.91940  0.57430  1.0000 0.0210823154
C   C773      1.0  0.08470  0.92360  0.56050  1.0000 -0.1004600406
C   C774      1.0  0.09020  0.92380  0.54010  1.0000 0.6629974542
O   O731      1.0  0.11370  0.68110  0.59070  1.0000 -0.5106411624
Ti  Ti86      1.0  0.23635  0.91015  0.63236  1.0000 1.1911382492
C   C775      1.0  0.10060  0.33990  0.03600  1.0000 0.0614820425
C   C776      1.0  0.11620  0.36250  0.05620  1.0000 0.0501834124
C   C777      1.0  0.09980  0.32710  0.05110  1.0000 -0.1718156922
C   C778      1.0  0.11530  0.34960  0.07110  1.0000 -0.189473289
C   C779      1.0  0.10720  0.33200  0.06850  1.0000 0.0978843566
C   C780      1.0  0.10880  0.35780  0.03860  1.0000 -0.1087284717
C   C781      1.0  0.12640  0.35330  0.08600  1.0000 0.6285624754
C   C782      1.0  0.10970  0.37200  0.02250  1.0000 0.6861819945
C   C783      1.0  0.08890  0.31190  0.05000  1.0000 0.6215376561
O   O732      1.0  0.08960  0.29990  0.06300  1.0000 -0.6397820246
O   O733      1.0  0.08080  0.30830  0.03500  1.0000 -0.6517776188
O   O734      1.0  0.11980  0.38610  0.02400  1.0000 -0.6587408496
O   O735      1.0  0.09910  0.37030  0.00860  1.0000 -0.6587408496
O   O736      1.0  0.13040  0.37000  0.08980  1.0000 -0.609555034
O   O737      1.0  0.12940  0.34070  0.09780  1.0000 -0.6397820246
C   C784      1.0  0.09640  0.23170  0.04200  1.0000 0.0614820425
C   C785      1.0  0.08790  0.24470  0.03000  1.0000 -0.0708048282
C   C786      1.0  0.07960  0.26240  0.03790  1.0000 0.6800795649
O   O738      1.0  0.09770  0.20390  0.06740  1.0000 -0.5303997674
O   O739      1.0  0.08120  0.26560  0.05480  1.0000 -0.609555034
O   O740      1.0  0.07280  0.27510  0.02700  1.0000 -0.6782680781
Ti  Ti87      1.0  0.05791  0.29934  0.02389  1.0000 2.0212494802
O   O741      1.0  0.03120  0.28540  0.00920  1.0000 -0.6397820246
C   C787      1.0  0.13970  0.45900  0.98300  1.0000 0.0286004543
C   C788      1.0  0.12010  0.46040  0.98450  1.0000 -0.1004600406
C   C789      1.0  0.10960  0.44690  0.99640  1.0000 0.6629974542
O   O742      1.0  0.17830  0.47770  0.95600  1.0000 -0.6939314659
O   O743      1.0  0.09260  0.44380  0.99320  1.0000 -0.5677502138
O   O744      1.0  0.11820  0.43740  0.00860  1.0000 -0.6587408496
Co  Co44      1.0  0.11764  0.41015  0.01365  1.0000 1.9421053842
O   O745      1.0  0.12150  0.40100  0.10010  1.0000 -0.6397820246
O   O746      1.0  0.07780  0.42650  0.02770  1.0000 -0.5856416578
O   O747      1.0  0.10720  0.42370  0.03560  1.0000 -0.6517776188
C   C790      1.0  0.09820  0.41940  0.07430  1.0000 0.0210823154
C   C791      1.0  0.08470  0.42360  0.06050  1.0000 -0.1004600406
C   C792      1.0  0.09020  0.42380  0.04010  1.0000 0.6629974542
O   O748      1.0  0.11370  0.18110  0.09070  1.0000 -0.5106411624
Ti  Ti88      1.0  0.23635  0.41015  0.13236  1.0000 1.1911382492
C   C793      1.0  0.64940  0.33990  0.71400  1.0000 0.0614820425
C   C794      1.0  0.63380  0.36250  0.69380  1.0000 0.0501834124
C   C795      1.0  0.65020  0.32710  0.69890  1.0000 -0.1718156922
C   C796      1.0  0.63470  0.34960  0.67890  1.0000 -0.189473289
C   C797      1.0  0.64280  0.33200  0.68150  1.0000 0.0978843566
C   C798      1.0  0.64120  0.35780  0.71140  1.0000 -0.1087284717
C   C799      1.0  0.62360  0.35330  0.66400  1.0000 0.637843934
C   C800      1.0  0.64030  0.37200  0.72750  1.0000 0.6861819945
C   C801      1.0  0.66110  0.31190  0.70000  1.0000 0.6215376561
O   O749      1.0  0.66040  0.29990  0.68700  1.0000 -0.6397820246
O   O750      1.0  0.66920  0.30830  0.71500  1.0000 -0.6517776188
O   O751      1.0  0.63020  0.38610  0.72600  1.0000 -0.6587408496
O   O752      1.0  0.65090  0.37030  0.74140  1.0000 -0.6587408496
O   O753      1.0  0.61960  0.37000  0.66020  1.0000 -0.609555034
O   O754      1.0  0.62060  0.34070  0.65220  1.0000 -0.6397820246
C   C802      1.0  0.65360  0.23170  0.70800  1.0000 0.0501834124
C   C803      1.0  0.66210  0.24470  0.72000  1.0000 -0.0708048282
C   C804      1.0  0.67040  0.26240  0.71210  1.0000 0.6800795649
O   O755      1.0  0.65230  0.20390  0.68260  1.0000 -0.5303997674
O   O756      1.0  0.66880  0.26560  0.69520  1.0000 -0.609555034
O   O757      1.0  0.67720  0.27510  0.72300  1.0000 -0.6782680781
Ti  Ti89      1.0  0.69209  0.29934  0.72611  1.0000 2.0212494802
O   O758      1.0  0.71880  0.28540  0.74080  1.0000 -0.6397820246
C   C805      1.0  0.61030  0.45900  0.76700  1.0000 0.0286004543
C   C806      1.0  0.62990  0.46040  0.76550  1.0000 -0.1004600406
C   C807      1.0  0.64040  0.44690  0.75360  1.0000 0.6629974542
O   O759      1.0  0.57170  0.47770  0.79400  1.0000 -0.6939314659
O   O760      1.0  0.65740  0.44380  0.75680  1.0000 -0.5677502138
O   O761      1.0  0.63180  0.43740  0.74140  1.0000 -0.6587408496
Co  Co45      1.0  0.63236  0.41015  0.73635  1.0000 1.9421053842
O   O762      1.0  0.62850  0.40100  0.64990  1.0000 -0.6397820246
O   O763      1.0  0.67220  0.42650  0.72230  1.0000 -0.5856416578
O   O764      1.0  0.64280  0.42370  0.71440  1.0000 -0.6517776188
C   C808      1.0  0.65180  0.41940  0.67570  1.0000 0.0210823154
C   C809      1.0  0.66530  0.42360  0.68950  1.0000 -0.1004600406
C   C810      1.0  0.65980  0.42380  0.70990  1.0000 0.653666533
O   O765      1.0  0.63630  0.18110  0.65930  1.0000 -0.5106411624
Ti  Ti90      1.0  0.51365  0.41015  0.61764  1.0000 1.1911382492
C   C811      1.0  0.64940  0.83990  0.21400  1.0000 0.0614820425
C   C812      1.0  0.63380  0.86250  0.19380  1.0000 0.0501834124
C   C813      1.0  0.65020  0.82710  0.19890  1.0000 -0.1718156922
C   C814      1.0  0.63470  0.84960  0.17890  1.0000 -0.189473289
C   C815      1.0  0.64280  0.83200  0.18150  1.0000 0.0978843566
C   C816      1.0  0.64120  0.85780  0.21140  1.0000 -0.1087284717
C   C817      1.0  0.62360  0.85330  0.16400  1.0000 0.637843934
C   C818      1.0  0.64030  0.87200  0.22750  1.0000 0.6861819945
C   C819      1.0  0.66110  0.81190  0.20000  1.0000 0.6215376561
O   O766      1.0  0.66040  0.79990  0.18700  1.0000 -0.6397820246
O   O767      1.0  0.66920  0.80830  0.21500  1.0000 -0.6517776188
O   O768      1.0  0.63020  0.88610  0.22600  1.0000 -0.6587408496
O   O769      1.0  0.65090  0.87030  0.24140  1.0000 -0.6587408496
O   O770      1.0  0.61960  0.87000  0.16020  1.0000 -0.609555034
O   O771      1.0  0.62060  0.84070  0.15220  1.0000 -0.6346473784
C   C820      1.0  0.65360  0.73170  0.20800  1.0000 0.0614820425
C   C821      1.0  0.66210  0.74470  0.22000  1.0000 -0.0708048282
C   C822      1.0  0.67040  0.76240  0.21210  1.0000 0.6800795649
O   O772      1.0  0.65230  0.70390  0.18260  1.0000 -0.5303997674
O   O773      1.0  0.66880  0.76560  0.19520  1.0000 -0.609555034
O   O774      1.0  0.67720  0.77510  0.22300  1.0000 -0.6782680781
Ti  Ti91      1.0  0.69209  0.79934  0.22611  1.0000 2.0212494802
O   O775      1.0  0.71880  0.78540  0.24080  1.0000 -0.6397820246
C   C823      1.0  0.61030  0.95900  0.26700  1.0000 0.0286004543
C   C824      1.0  0.62990  0.96040  0.26550  1.0000 -0.1004600406
C   C825      1.0  0.64040  0.94690  0.25360  1.0000 0.6629974542
O   O776      1.0  0.57170  0.97770  0.29400  1.0000 -0.6939314659
O   O777      1.0  0.65740  0.94380  0.25680  1.0000 -0.5677502138
O   O778      1.0  0.63180  0.93740  0.24140  1.0000 -0.6587408496
Co  Co46      1.0  0.63236  0.91015  0.23635  1.0000 1.9421053842
O   O779      1.0  0.62850  0.90100  0.14990  1.0000 -0.6397820246
O   O780      1.0  0.67220  0.92650  0.22230  1.0000 -0.5856416578
O   O781      1.0  0.64280  0.92370  0.21440  1.0000 -0.6517776188
C   C826      1.0  0.65180  0.91940  0.17570  1.0000 0.0210823154
C   C827      1.0  0.66530  0.92360  0.18950  1.0000 -0.1004600406
C   C828      1.0  0.65980  0.92380  0.20990  1.0000 0.653666533
O   O782      1.0  0.63630  0.68110  0.15930  1.0000 -0.5106411624
Ti  Ti92      1.0  0.51365  0.91015  0.11764  1.0000 1.1911382492
C   C829      1.0  0.14940  0.33990  0.21400  1.0000 0.0614820425
C   C830      1.0  0.13380  0.36250  0.19380  1.0000 0.0501834124
C   C831      1.0  0.15020  0.32710  0.19890  1.0000 -0.1718156922
C   C832      1.0  0.13470  0.34960  0.17890  1.0000 -0.189473289
C   C833      1.0  0.14280  0.33200  0.18150  1.0000 0.0978843566
C   C834      1.0  0.14120  0.35780  0.21140  1.0000 -0.1087284717
C   C835      1.0  0.12360  0.35330  0.16400  1.0000 0.6285624754
C   C836      1.0  0.14030  0.37200  0.22750  1.0000 0.6861819945
C   C837      1.0  0.16110  0.31190  0.20000  1.0000 0.6215376561
O   O783      1.0  0.16040  0.29990  0.18700  1.0000 -0.6397820246
O   O784      1.0  0.16920  0.30830  0.21500  1.0000 -0.6517776188
O   O785      1.0  0.13020  0.38610  0.22600  1.0000 -0.6587408496
O   O786      1.0  0.15090  0.37030  0.24140  1.0000 -0.6587408496
O   O787      1.0  0.11960  0.37000  0.16020  1.0000 -0.609555034
O   O788      1.0  0.12060  0.34070  0.15220  1.0000 -0.6397820246
C   C838      1.0  0.15360  0.23170  0.20800  1.0000 0.0614820425
C   C839      1.0  0.16210  0.24470  0.22000  1.0000 -0.0708048282
C   C840      1.0  0.17040  0.26240  0.21210  1.0000 0.6800795649
O   O789      1.0  0.15230  0.20390  0.18260  1.0000 -0.6517776188
O   O790      1.0  0.16880  0.26560  0.19520  1.0000 -0.6162038559
O   O791      1.0  0.17720  0.27510  0.22300  1.0000 -0.6782680781
Ti  Ti93      1.0  0.19209  0.29934  0.22611  1.0000 2.0212494802
O   O792      1.0  0.21880  0.28540  0.24080  1.0000 -0.6397820246
C   C841      1.0  0.11030  0.45900  0.26700  1.0000 0.0286004543
C   C842      1.0  0.12990  0.46040  0.26550  1.0000 -0.1004600406
C   C843      1.0  0.14040  0.44690  0.25360  1.0000 0.6629974542
O   O793      1.0  0.07170  0.47770  0.29400  1.0000 -0.6951936574
O   O794      1.0  0.15740  0.44380  0.25680  1.0000 -0.5677502138
O   O795      1.0  0.13180  0.43740  0.24140  1.0000 -0.6587408496
Co  Co47      1.0  0.13236  0.41015  0.23635  1.0000 1.9421053842
O   O796      1.0  0.12850  0.40100  0.14990  1.0000 -0.6397820246
O   O797      1.0  0.17220  0.42650  0.22230  1.0000 -0.5856416578
O   O798      1.0  0.14280  0.42370  0.21440  1.0000 -0.6587408496
C   C844      1.0  0.15180  0.41940  0.17570  1.0000 0.0210823154
C   C845      1.0  0.16530  0.42360  0.18950  1.0000 -0.1004600406
C   C846      1.0  0.15980  0.42380  0.20990  1.0000 0.653666533
O   O799      1.0  0.13630  0.18110  0.15930  1.0000 -0.6007274885
Ti  Ti94      1.0  0.01365  0.41015  0.11764  1.0000 1.1911382492
C   C847      1.0  0.14940  0.83990  0.71400  1.0000 0.0614820425
C   C848      1.0  0.13380  0.86250  0.69380  1.0000 0.0501834124
C   C849      1.0  0.15020  0.82710  0.69890  1.0000 -0.1718156922
C   C850      1.0  0.13470  0.84960  0.67890  1.0000 -0.189473289
C   C851      1.0  0.14280  0.83200  0.68150  1.0000 0.0978843566
C   C852      1.0  0.14120  0.85780  0.71140  1.0000 -0.1087284717
C   C853      1.0  0.12360  0.85330  0.66400  1.0000 0.6285624754
C   C854      1.0  0.14030  0.87200  0.72750  1.0000 0.6861819945
C   C855      1.0  0.16110  0.81190  0.70000  1.0000 0.6215376561
O   O800      1.0  0.16040  0.79990  0.68700  1.0000 -0.6397820246
O   O801      1.0  0.16920  0.80830  0.71500  1.0000 -0.6517776188
O   O802      1.0  0.13020  0.88610  0.72600  1.0000 -0.6587408496
O   O803      1.0  0.15090  0.87030  0.74140  1.0000 -0.6587408496
O   O804      1.0  0.11960  0.87000  0.66020  1.0000 -0.609555034
O   O805      1.0  0.12060  0.84070  0.65220  1.0000 -0.6346473784
C   C856      1.0  0.15360  0.73170  0.70800  1.0000 0.0614820425
C   C857      1.0  0.16210  0.74470  0.72000  1.0000 -0.0708048282
C   C858      1.0  0.17040  0.76240  0.71210  1.0000 0.6800795649
O   O806      1.0  0.15230  0.70390  0.68260  1.0000 -0.6517776188
O   O807      1.0  0.16880  0.76560  0.69520  1.0000 -0.609555034
O   O808      1.0  0.17720  0.77510  0.72300  1.0000 -0.6782680781
Ti  Ti95      1.0  0.19209  0.79934  0.72611  1.0000 2.0212494802
O   O809      1.0  0.21880  0.78540  0.74080  1.0000 -0.6397820246
C   C859      1.0  0.11030  0.95900  0.76700  1.0000 0.0286004543
C   C860      1.0  0.12990  0.96040  0.76550  1.0000 -0.1004600406
C   C861      1.0  0.14040  0.94690  0.75360  1.0000 0.6629974542
O   O810      1.0  0.07170  0.97770  0.79400  1.0000 -0.6939314659
O   O811      1.0  0.15740  0.94380  0.75680  1.0000 -0.5677502138
O   O812      1.0  0.13180  0.93740  0.74140  1.0000 -0.6587408496
Co  Co48      1.0  0.13236  0.91015  0.73635  1.0000 1.9421053842
O   O813      1.0  0.12850  0.90100  0.64990  1.0000 -0.6397820246
O   O814      1.0  0.17220  0.92650  0.72230  1.0000 -0.5777560007
O   O815      1.0  0.14280  0.92370  0.71440  1.0000 -0.6517776188
C   C862      1.0  0.15180  0.91940  0.67570  1.0000 0.0210823154
C   C863      1.0  0.16530  0.92360  0.68950  1.0000 -0.1004600406
C   C864      1.0  0.15980  0.92380  0.70990  1.0000 0.653666533
O   O816      1.0  0.13630  0.68110  0.65930  1.0000 -0.6007274885
Ti  Ti96      1.0  0.01365  0.91015  0.61764  1.0000 1.1911382492
C   C865      1.0  0.85060  0.46400  0.58990  1.0000 0.0614820425
C   C866      1.0  0.86620  0.44380  0.61250  1.0000 0.0501834124
C   C867      1.0  0.84980  0.44890  0.57710  1.0000 -0.1718156922
C   C868      1.0  0.86530  0.42890  0.59960  1.0000 -0.189473289
C   C869      1.0  0.85720  0.43150  0.58200  1.0000 0.0978843566
C   C870      1.0  0.85880  0.46140  0.60780  1.0000 -0.1087284717
C   C871      1.0  0.87640  0.41400  0.60330  1.0000 0.637843934
C   C872      1.0  0.85970  0.47750  0.62200  1.0000 0.6861819945
C   C873      1.0  0.83890  0.45000  0.56190  1.0000 0.6215376561
O   O817      1.0  0.83960  0.43700  0.54990  1.0000 -0.6397820246
O   O818      1.0  0.83080  0.46500  0.55830  1.0000 -0.6517776188
O   O819      1.0  0.86980  0.47600  0.63610  1.0000 -0.6587408496
O   O820      1.0  0.84910  0.49140  0.62030  1.0000 -0.6587408496
O   O821      1.0  0.88040  0.41020  0.62000  1.0000 -0.609555034
O   O822      1.0  0.87940  0.40220  0.59070  1.0000 -0.6346473784
C   C874      1.0  0.84640  0.45800  0.48170  1.0000 0.0614820425
C   C875      1.0  0.83790  0.47000  0.49470  1.0000 -0.0708048282
C   C876      1.0  0.82960  0.46210  0.51240  1.0000 0.6800795649
O   O823      1.0  0.84770  0.43260  0.45390  1.0000 -0.6517776188
O   O824      1.0  0.83120  0.44520  0.51560  1.0000 -0.6162038559
O   O825      1.0  0.82280  0.47300  0.52510  1.0000 -0.6782680781
Ti  Ti97      1.0  0.80791  0.47611  0.54934  1.0000 2.0212494802
O   O826      1.0  0.78120  0.49080  0.53540  1.0000 -0.6397820246
C   C877      1.0  0.88970  0.51700  0.70900  1.0000 0.0286004543
C   C878      1.0  0.87010  0.51550  0.71040  1.0000 -0.1004600406
C   C879      1.0  0.85960  0.50360  0.69690  1.0000 0.6629974542
O   O827      1.0  0.92830  0.54400  0.72770  1.0000 -0.6939314659
O   O828      1.0  0.84260  0.50680  0.69380  1.0000 -0.5677502138
O   O829      1.0  0.86820  0.49140  0.68740  1.0000 -0.6587408496
Co  Co49      1.0  0.86764  0.48635  0.66015  1.0000 1.9421053842
O   O830      1.0  0.87150  0.39990  0.65100  1.0000 -0.6397820246
O   O831      1.0  0.82780  0.47230  0.67650  1.0000 -0.5856416578
O   O832      1.0  0.85720  0.46440  0.67370  1.0000 -0.6517776188
C   C880      1.0  0.84820  0.42570  0.66940  1.0000 0.0210823154
C   C881      1.0  0.83470  0.43950  0.67360  1.0000 -0.1004600406
C   C882      1.0  0.84020  0.45990  0.67380  1.0000 0.653666533
O   O833      1.0  0.86370  0.40930  0.43110  1.0000 -0.6007274885
Ti  Ti98      1.0  0.98635  0.36764  0.66015  1.0000 1.1911382492
C   C883      1.0  0.85060  0.96400  0.08990  1.0000 0.0614820425
C   C884      1.0  0.86620  0.94380  0.11250  1.0000 0.0501834124
C   C885      1.0  0.84980  0.94890  0.07710  1.0000 -0.1718156922
C   C886      1.0  0.86530  0.92890  0.09960  1.0000 -0.189473289
C   C887      1.0  0.85720  0.93150  0.08200  1.0000 0.0978843566
C   C888      1.0  0.85880  0.96140  0.10780  1.0000 -0.1087284717
C   C889      1.0  0.87640  0.91400  0.10330  1.0000 0.637843934
C   C890      1.0  0.85970  0.97750  0.12200  1.0000 0.6861819945
C   C891      1.0  0.83890  0.95000  0.06190  1.0000 0.6215376561
O   O834      1.0  0.83960  0.93700  0.04990  1.0000 -0.6397820246
O   O835      1.0  0.83080  0.96500  0.05830  1.0000 -0.6517776188
O   O836      1.0  0.86980  0.97600  0.13610  1.0000 -0.6587408496
O   O837      1.0  0.84910  0.99140  0.12030  1.0000 -0.6587408496
O   O838      1.0  0.88040  0.91020  0.12000  1.0000 -0.609555034
O   O839      1.0  0.87940  0.90220  0.09070  1.0000 -0.6346473784
C   C892      1.0  0.84640  0.95800  0.98170  1.0000 0.0501834124
C   C893      1.0  0.83790  0.97000  0.99470  1.0000 -0.0708048282
C   C894      1.0  0.82960  0.96210  0.01240  1.0000 0.6800795649
O   O840      1.0  0.84770  0.93260  0.95390  1.0000 -0.5303997674
O   O841      1.0  0.83120  0.94520  0.01560  1.0000 -0.609555034
O   O842      1.0  0.82280  0.97300  0.02510  1.0000 -0.6782680781
Ti  Ti99      1.0  0.80791  0.97611  0.04934  1.0000 2.0212494802
O   O843      1.0  0.78120  0.99080  0.03540  1.0000 -0.6397820246
C   C895      1.0  0.88970  0.01700  0.20900  1.0000 0.0286004543
C   C896      1.0  0.87010  0.01550  0.21040  1.0000 -0.1004600406
C   C897      1.0  0.85960  0.00360  0.19690  1.0000 0.6629974542
O   O844      1.0  0.92830  0.04400  0.22770  1.0000 -0.6951936574
O   O845      1.0  0.84260  0.00680  0.19380  1.0000 -0.5677502138
O   O846      1.0  0.86820  0.99140  0.18740  1.0000 -0.6587408496
Co  Co50      1.0  0.86764  0.98635  0.16015  1.0000 1.9421053842
O   O847      1.0  0.87150  0.89990  0.15100  1.0000 -0.6397820246
O   O848      1.0  0.82780  0.97230  0.17650  1.0000 -0.5856416578
O   O849      1.0  0.85720  0.96440  0.17370  1.0000 -0.6517776188
C   C898      1.0  0.84820  0.92570  0.16940  1.0000 0.0210823154
C   C899      1.0  0.83470  0.93950  0.17360  1.0000 -0.1004600406
C   C900      1.0  0.84020  0.95990  0.17380  1.0000 0.653666533
O   O850      1.0  0.86370  0.90930  0.93110  1.0000 -0.5106411624
Ti  Ti100     1.0  0.98635  0.86764  0.16015  1.0000 1.1911382492
C   C901      1.0  0.35060  0.46400  0.08990  1.0000 0.0614820425
C   C902      1.0  0.36620  0.44380  0.11250  1.0000 0.0501834124
C   C903      1.0  0.34980  0.44890  0.07710  1.0000 -0.1718156922
C   C904      1.0  0.36530  0.42890  0.09960  1.0000 -0.189473289
C   C905      1.0  0.35720  0.43150  0.08200  1.0000 0.0978843566
C   C906      1.0  0.35880  0.46140  0.10780  1.0000 -0.1087284717
C   C907      1.0  0.37640  0.41400  0.10330  1.0000 0.637843934
C   C908      1.0  0.35970  0.47750  0.12200  1.0000 0.6861819945
C   C909      1.0  0.33890  0.45000  0.06190  1.0000 0.6215376561
O   O851      1.0  0.33960  0.43700  0.04990  1.0000 -0.6397820246
O   O852      1.0  0.33080  0.46500  0.05830  1.0000 -0.6517776188
O   O853      1.0  0.36980  0.47600  0.13610  1.0000 -0.6587408496
O   O854      1.0  0.34910  0.49140  0.12030  1.0000 -0.6587408496
O   O855      1.0  0.38040  0.41020  0.12000  1.0000 -0.609555034
O   O856      1.0  0.37940  0.40220  0.09070  1.0000 -0.6397820246
C   C910      1.0  0.34640  0.45800  0.98170  1.0000 0.0614820425
C   C911      1.0  0.33790  0.47000  0.99470  1.0000 -0.0708048282
C   C912      1.0  0.32960  0.46210  0.01240  1.0000 0.6800795649
O   O857      1.0  0.34770  0.43260  0.95390  1.0000 -0.6517776188
O   O858      1.0  0.33120  0.44520  0.01560  1.0000 -0.6162038559
O   O859      1.0  0.32280  0.47300  0.02510  1.0000 -0.6782680781
Ti  Ti101     1.0  0.30791  0.47611  0.04934  1.0000 2.0212494802
O   O860      1.0  0.28120  0.49080  0.03540  1.0000 -0.6397820246
C   C913      1.0  0.38970  0.51700  0.20900  1.0000 0.0286004543
C   C914      1.0  0.37010  0.51550  0.21040  1.0000 -0.1004600406
C   C915      1.0  0.35960  0.50360  0.19690  1.0000 0.6629974542
O   O861      1.0  0.42830  0.54400  0.22770  1.0000 -0.6951936574
O   O862      1.0  0.34260  0.50680  0.19380  1.0000 -0.5677502138
O   O863      1.0  0.36820  0.49140  0.18740  1.0000 -0.6587408496
Co  Co51      1.0  0.36764  0.48635  0.16015  1.0000 1.9421053842
O   O864      1.0  0.37150  0.39990  0.15100  1.0000 -0.6397820246
O   O865      1.0  0.32780  0.47230  0.17650  1.0000 -0.5856416578
O   O866      1.0  0.35720  0.46440  0.17370  1.0000 -0.6517776188
C   C916      1.0  0.34820  0.42570  0.16940  1.0000 0.0210823154
C   C917      1.0  0.33470  0.43950  0.17360  1.0000 -0.1004600406
C   C918      1.0  0.34020  0.45990  0.17380  1.0000 0.653666533
O   O867      1.0  0.36370  0.40930  0.93110  1.0000 -0.6007274885
Ti  Ti102     1.0  0.48635  0.36764  0.16015  1.0000 1.1911382492
C   C919      1.0  0.35060  0.96400  0.58990  1.0000 0.0614820425
C   C920      1.0  0.36620  0.94380  0.61250  1.0000 0.0501834124
C   C921      1.0  0.34980  0.94890  0.57710  1.0000 -0.1718156922
C   C922      1.0  0.36530  0.92890  0.59960  1.0000 -0.189473289
C   C923      1.0  0.35720  0.93150  0.58200  1.0000 0.0978843566
C   C924      1.0  0.35880  0.96140  0.60780  1.0000 -0.1087284717
C   C925      1.0  0.37640  0.91400  0.60330  1.0000 0.637843934
C   C926      1.0  0.35970  0.97750  0.62200  1.0000 0.6861819945
C   C927      1.0  0.33890  0.95000  0.56190  1.0000 0.6215376561
O   O868      1.0  0.33960  0.93700  0.54990  1.0000 -0.6397820246
O   O869      1.0  0.33080  0.96500  0.55830  1.0000 -0.6517776188
O   O870      1.0  0.36980  0.97600  0.63610  1.0000 -0.6587408496
O   O871      1.0  0.34910  0.99140  0.62030  1.0000 -0.6587408496
O   O872      1.0  0.38040  0.91020  0.62000  1.0000 -0.609555034
O   O873      1.0  0.37940  0.90220  0.59070  1.0000 -0.6346473784
C   C928      1.0  0.34640  0.95800  0.48170  1.0000 0.0501834124
C   C929      1.0  0.33790  0.97000  0.49470  1.0000 -0.0708048282
C   C930      1.0  0.32960  0.96210  0.51240  1.0000 0.6800795649
O   O874      1.0  0.34770  0.93260  0.45390  1.0000 -0.6517776188
O   O875      1.0  0.33120  0.94520  0.51560  1.0000 -0.6162038559
O   O876      1.0  0.32280  0.97300  0.52510  1.0000 -0.6782680781
Ti  Ti103     1.0  0.30791  0.97611  0.54934  1.0000 2.0212494802
O   O877      1.0  0.28120  0.99080  0.53540  1.0000 -0.6397820246
C   C931      1.0  0.38970  0.01700  0.70900  1.0000 0.0286004543
C   C932      1.0  0.37010  0.01550  0.71040  1.0000 -0.1004600406
C   C933      1.0  0.35960  0.00360  0.69690  1.0000 0.6629974542
O   O878      1.0  0.42830  0.04400  0.72770  1.0000 -0.6951936574
O   O879      1.0  0.34260  0.00680  0.69380  1.0000 -0.5677502138
O   O880      1.0  0.36820  0.99140  0.68740  1.0000 -0.6587408496
Co  Co52      1.0  0.36764  0.98635  0.66015  1.0000 1.9421053842
O   O881      1.0  0.37150  0.89990  0.65100  1.0000 -0.6397820246
O   O882      1.0  0.32780  0.97230  0.67650  1.0000 -0.5856416578
O   O883      1.0  0.35720  0.96440  0.67370  1.0000 -0.6517776188
C   C934      1.0  0.34820  0.92570  0.66940  1.0000 0.0210823154
C   C935      1.0  0.33470  0.93950  0.67360  1.0000 -0.1004600406
C   C936      1.0  0.34020  0.95990  0.67380  1.0000 0.653666533
O   O884      1.0  0.36370  0.90930  0.43110  1.0000 -0.609555034
Ti  Ti104     1.0  0.48635  0.86764  0.66015  1.0000 1.1911382492
C   C937      1.0  0.89940  0.78600  0.08990  1.0000 0.0614820425
C   C938      1.0  0.88380  0.80620  0.11250  1.0000 0.0501834124
C   C939      1.0  0.90020  0.80110  0.07710  1.0000 -0.1718156922
C   C940      1.0  0.88470  0.82110  0.09960  1.0000 -0.189473289
C   C941      1.0  0.89280  0.81850  0.08200  1.0000 0.0978843566
C   C942      1.0  0.89120  0.78860  0.10780  1.0000 -0.1087284717
C   C943      1.0  0.87360  0.83600  0.10330  1.0000 0.637843934
C   C944      1.0  0.89030  0.77250  0.12200  1.0000 0.6861819945
C   C945      1.0  0.91110  0.80000  0.06190  1.0000 0.6215376561
O   O885      1.0  0.91040  0.81300  0.04990  1.0000 -0.6397820246
O   O886      1.0  0.91920  0.78500  0.05830  1.0000 -0.6517776188
O   O887      1.0  0.88020  0.77400  0.13610  1.0000 -0.6587408496
O   O888      1.0  0.90090  0.75860  0.12030  1.0000 -0.6587408496
O   O889      1.0  0.86960  0.83980  0.12000  1.0000 -0.609555034
O   O890      1.0  0.87060  0.84780  0.09070  1.0000 -0.6346473784
C   C946      1.0  0.90360  0.79200  0.98170  1.0000 0.0501834124
C   C947      1.0  0.91210  0.78000  0.99470  1.0000 -0.0708048282
C   C948      1.0  0.92040  0.78790  0.01240  1.0000 0.6800795649
O   O891      1.0  0.90230  0.81740  0.95390  1.0000 -0.6517776188
O   O892      1.0  0.91880  0.80480  0.01560  1.0000 -0.6162038559
O   O893      1.0  0.92720  0.77700  0.02510  1.0000 -0.6782680781
Ti  Ti105     1.0  0.94209  0.77389  0.04934  1.0000 2.0212494802
O   O894      1.0  0.96880  0.75920  0.03540  1.0000 -0.6397820246
C   C949      1.0  0.86030  0.73300  0.20900  1.0000 0.0286004543
C   C950      1.0  0.87990  0.73450  0.21040  1.0000 -0.1004600406
C   C951      1.0  0.89040  0.74640  0.19690  1.0000 0.6629974542
O   O895      1.0  0.82170  0.70600  0.22770  1.0000 -0.6939314659
O   O896      1.0  0.90740  0.74320  0.19380  1.0000 -0.5677502138
O   O897      1.0  0.88180  0.75860  0.18740  1.0000 -0.6587408496
Co  Co53      1.0  0.88236  0.76365  0.16015  1.0000 1.9421053842
O   O898      1.0  0.87850  0.85010  0.15100  1.0000 -0.6397820246
O   O899      1.0  0.92220  0.77770  0.17650  1.0000 -0.5856416578
O   O900      1.0  0.89280  0.78560  0.17370  1.0000 -0.6517776188
C   C952      1.0  0.90180  0.82430  0.16940  1.0000 0.0210823154
C   C953      1.0  0.91530  0.81050  0.17360  1.0000 -0.1004600406
C   C954      1.0  0.90980  0.79010  0.17380  1.0000 0.653666533
O   O901      1.0  0.88630  0.84070  0.93110  1.0000 -0.609555034
Ti  Ti106     1.0  0.76365  0.88236  0.16015  1.0000 1.1911382492
C   C955      1.0  0.89940  0.28600  0.58990  1.0000 0.0614820425
C   C956      1.0  0.88380  0.30620  0.61250  1.0000 0.0501834124
C   C957      1.0  0.90020  0.30110  0.57710  1.0000 -0.1718156922
C   C958      1.0  0.88470  0.32110  0.59960  1.0000 -0.189473289
C   C959      1.0  0.89280  0.31850  0.58200  1.0000 0.0978843566
C   C960      1.0  0.89120  0.28860  0.60780  1.0000 -0.1087284717
C   C961      1.0  0.87360  0.33600  0.60330  1.0000 0.637843934
C   C962      1.0  0.89030  0.27250  0.62200  1.0000 0.6861819945
C   C963      1.0  0.91110  0.30000  0.56190  1.0000 0.6215376561
O   O902      1.0  0.91040  0.31300  0.54990  1.0000 -0.6397820246
O   O903      1.0  0.91920  0.28500  0.55830  1.0000 -0.6517776188
O   O904      1.0  0.88020  0.27400  0.63610  1.0000 -0.6587408496
O   O905      1.0  0.90090  0.25860  0.62030  1.0000 -0.6587408496
O   O906      1.0  0.86960  0.33980  0.62000  1.0000 -0.609555034
O   O907      1.0  0.87060  0.34780  0.59070  1.0000 -0.6346473784
C   C964      1.0  0.90360  0.29200  0.48170  1.0000 0.0501834124
C   C965      1.0  0.91210  0.28000  0.49470  1.0000 -0.0708048282
C   C966      1.0  0.92040  0.28790  0.51240  1.0000 0.6800795649
O   O908      1.0  0.90230  0.31740  0.45390  1.0000 -0.5303997674
O   O909      1.0  0.91880  0.30480  0.51560  1.0000 -0.609555034
O   O910      1.0  0.92720  0.27700  0.52510  1.0000 -0.6782680781
Ti  Ti107     1.0  0.94209  0.27389  0.54934  1.0000 2.0212494802
O   O911      1.0  0.96880  0.25920  0.53540  1.0000 -0.6397820246
C   C967      1.0  0.86030  0.23300  0.70900  1.0000 0.0286004543
C   C968      1.0  0.87990  0.23450  0.71040  1.0000 -0.1004600406
C   C969      1.0  0.89040  0.24640  0.69690  1.0000 0.6629974542
O   O912      1.0  0.82170  0.20600  0.72770  1.0000 -0.6939314659
O   O913      1.0  0.90740  0.24320  0.69380  1.0000 -0.5677502138
O   O914      1.0  0.88180  0.25860  0.68740  1.0000 -0.6587408496
Co  Co54      1.0  0.88236  0.26365  0.66015  1.0000 1.9421053842
O   O915      1.0  0.87850  0.35010  0.65100  1.0000 -0.6397820246
O   O916      1.0  0.92220  0.27770  0.67650  1.0000 -0.5856416578
O   O917      1.0  0.89280  0.28560  0.67370  1.0000 -0.6517776188
C   C970      1.0  0.90180  0.32430  0.66940  1.0000 0.0210823154
C   C971      1.0  0.91530  0.31050  0.67360  1.0000 -0.1004600406
C   C972      1.0  0.90980  0.29010  0.67380  1.0000 0.653666533
O   O918      1.0  0.88630  0.34070  0.43110  1.0000 -0.5106411624
Ti  Ti108     1.0  0.76365  0.38236  0.66015  1.0000 1.1911382492
C   C973      1.0  0.39940  0.78600  0.58990  1.0000 0.0614820425
C   C974      1.0  0.38380  0.80620  0.61250  1.0000 0.0501834124
C   C975      1.0  0.40020  0.80110  0.57710  1.0000 -0.1718156922
C   C976      1.0  0.38470  0.82110  0.59960  1.0000 -0.189473289
C   C977      1.0  0.39280  0.81850  0.58200  1.0000 0.0978843566
C   C978      1.0  0.39120  0.78860  0.60780  1.0000 -0.1087284717
C   C979      1.0  0.37360  0.83600  0.60330  1.0000 0.637843934
C   C980      1.0  0.39030  0.77250  0.62200  1.0000 0.6861819945
C   C981      1.0  0.41110  0.80000  0.56190  1.0000 0.6215376561
O   O919      1.0  0.41040  0.81300  0.54990  1.0000 -0.6397820246
O   O920      1.0  0.41920  0.78500  0.55830  1.0000 -0.6517776188
O   O921      1.0  0.38020  0.77400  0.63610  1.0000 -0.6587408496
O   O922      1.0  0.40090  0.75860  0.62030  1.0000 -0.6587408496
O   O923      1.0  0.36960  0.83980  0.62000  1.0000 -0.609555034
O   O924      1.0  0.37060  0.84780  0.59070  1.0000 -0.6346473784
C   C982      1.0  0.40360  0.79200  0.48170  1.0000 0.0614820425
C   C983      1.0  0.41210  0.78000  0.49470  1.0000 -0.0708048282
C   C984      1.0  0.42040  0.78790  0.51240  1.0000 0.6800795649
O   O925      1.0  0.40230  0.81740  0.45390  1.0000 -0.5303997674
O   O926      1.0  0.41880  0.80480  0.51560  1.0000 -0.609555034
O   O927      1.0  0.42720  0.77700  0.52510  1.0000 -0.6782680781
Ti  Ti109     1.0  0.44209  0.77389  0.54934  1.0000 2.0212494802
O   O928      1.0  0.46880  0.75920  0.53540  1.0000 -0.6397820246
C   C985      1.0  0.36030  0.73300  0.70900  1.0000 0.0286004543
C   C986      1.0  0.37990  0.73450  0.71040  1.0000 -0.1004600406
C   C987      1.0  0.39040  0.74640  0.69690  1.0000 0.6629974542
O   O929      1.0  0.32170  0.70600  0.72770  1.0000 -0.6939314659
O   O930      1.0  0.40740  0.74320  0.69380  1.0000 -0.5677502138
O   O931      1.0  0.38180  0.75860  0.68740  1.0000 -0.6587408496
Co  Co55      1.0  0.38236  0.76365  0.66015  1.0000 1.9421053842
O   O932      1.0  0.37850  0.85010  0.65100  1.0000 -0.6397820246
O   O933      1.0  0.42220  0.77770  0.67650  1.0000 -0.5777560007
O   O934      1.0  0.39280  0.78560  0.67370  1.0000 -0.6517776188
C   C988      1.0  0.40180  0.82430  0.66940  1.0000 0.0210823154
C   C989      1.0  0.41530  0.81050  0.67360  1.0000 -0.1004600406
C   C990      1.0  0.40980  0.79010  0.67380  1.0000 0.653666533
O   O935      1.0  0.38630  0.84070  0.43110  1.0000 -0.5106411624
Ti  Ti110     1.0  0.26365  0.88236  0.66015  1.0000 1.1911382492
C   C991      1.0  0.39940  0.28600  0.08990  1.0000 0.0614820425
C   C992      1.0  0.38380  0.30620  0.11250  1.0000 0.0501834124
C   C993      1.0  0.40020  0.30110  0.07710  1.0000 -0.1718156922
C   C994      1.0  0.38470  0.32110  0.09960  1.0000 -0.189473289
C   C995      1.0  0.39280  0.31850  0.08200  1.0000 0.0978843566
C   C996      1.0  0.39120  0.28860  0.10780  1.0000 -0.1087284717
C   C997      1.0  0.37360  0.33600  0.10330  1.0000 0.637843934
C   C998      1.0  0.39030  0.27250  0.12200  1.0000 0.6861819945
C   C999      1.0  0.41110  0.30000  0.06190  1.0000 0.6215376561
O   O936      1.0  0.41040  0.31300  0.04990  1.0000 -0.6397820246
O   O937      1.0  0.41920  0.28500  0.05830  1.0000 -0.6517776188
O   O938      1.0  0.38020  0.27400  0.13610  1.0000 -0.6587408496
O   O939      1.0  0.40090  0.25860  0.12030  1.0000 -0.6587408496
O   O940      1.0  0.36960  0.33980  0.12000  1.0000 -0.609555034
O   O941      1.0  0.37060  0.34780  0.09070  1.0000 -0.6397820246
C   C1000     1.0  0.40360  0.29200  0.98170  1.0000 0.0614820425
C   C1001     1.0  0.41210  0.28000  0.99470  1.0000 -0.0708048282
C   C1002     1.0  0.42040  0.28790  0.01240  1.0000 0.6800795649
O   O942      1.0  0.40230  0.31740  0.95390  1.0000 -0.5303997674
O   O943      1.0  0.41880  0.30480  0.01560  1.0000 -0.609555034
O   O944      1.0  0.42720  0.27700  0.02510  1.0000 -0.6782680781
Ti  Ti111     1.0  0.44209  0.27389  0.04934  1.0000 2.0212494802
O   O945      1.0  0.46880  0.25920  0.03540  1.0000 -0.6397820246
C   C1003     1.0  0.36030  0.23300  0.20900  1.0000 0.0286004543
C   C1004     1.0  0.37990  0.23450  0.21040  1.0000 -0.1004600406
C   C1005     1.0  0.39040  0.24640  0.19690  1.0000 0.6629974542
O   O946      1.0  0.32170  0.20600  0.22770  1.0000 -0.6951936574
O   O947      1.0  0.40740  0.24320  0.19380  1.0000 -0.5677502138
O   O948      1.0  0.38180  0.25860  0.18740  1.0000 -0.6587408496
Co  Co56      1.0  0.38236  0.26365  0.16015  1.0000 1.9421053842
O   O949      1.0  0.37850  0.35010  0.15100  1.0000 -0.6397820246
O   O950      1.0  0.42220  0.27770  0.17650  1.0000 -0.5856416578
O   O951      1.0  0.39280  0.28560  0.17370  1.0000 -0.6587408496
C   C1006     1.0  0.40180  0.32430  0.16940  1.0000 0.0210823154
C   C1007     1.0  0.41530  0.31050  0.17360  1.0000 -0.1004600406
C   C1008     1.0  0.40980  0.29010  0.17380  1.0000 0.653666533
O   O952      1.0  0.38630  0.34070  0.93110  1.0000 -0.5106411624
Ti  Ti112     1.0  0.26365  0.38236  0.16015  1.0000 1.1911382492
C   C1009     1.0  0.35060  0.28600  0.66010  1.0000 0.0614820425
C   C1010     1.0  0.36620  0.30620  0.63750  1.0000 0.0501834124
C   C1011     1.0  0.34980  0.30110  0.67290  1.0000 -0.1718156922
C   C1012     1.0  0.36530  0.32110  0.65040  1.0000 -0.189473289
C   C1013     1.0  0.35720  0.31850  0.66800  1.0000 0.0978843566
C   C1014     1.0  0.35880  0.28860  0.64220  1.0000 -0.1087284717
C   C1015     1.0  0.37640  0.33600  0.64670  1.0000 0.637843934
C   C1016     1.0  0.35970  0.27250  0.62800  1.0000 0.6861819945
C   C1017     1.0  0.33890  0.30000  0.68810  1.0000 0.6215376561
O   O953      1.0  0.33960  0.31300  0.70010  1.0000 -0.6397820246
O   O954      1.0  0.33080  0.28500  0.69170  1.0000 -0.6517776188
O   O955      1.0  0.36980  0.27400  0.61390  1.0000 -0.6587408496
O   O956      1.0  0.34910  0.25860  0.62970  1.0000 -0.6587408496
O   O957      1.0  0.38040  0.33980  0.63000  1.0000 -0.609555034
O   O958      1.0  0.37940  0.34780  0.65930  1.0000 -0.6346473784
C   C1018     1.0  0.34640  0.29200  0.76830  1.0000 0.0501834124
C   C1019     1.0  0.33790  0.28000  0.75530  1.0000 -0.0708048282
C   C1020     1.0  0.32960  0.28790  0.73760  1.0000 0.6800795649
O   O959      1.0  0.34770  0.31740  0.79610  1.0000 -0.6517776188
O   O960      1.0  0.33120  0.30480  0.73440  1.0000 -0.6162038559
O   O961      1.0  0.32280  0.27700  0.72490  1.0000 -0.6782680781
Ti  Ti113     1.0  0.30791  0.27389  0.70066  1.0000 2.0212494802
O   O962      1.0  0.28120  0.25920  0.71460  1.0000 -0.6397820246
C   C1021     1.0  0.38970  0.23300  0.54100  1.0000 0.0286004543
C   C1022     1.0  0.37010  0.23450  0.53960  1.0000 -0.1004600406
C   C1023     1.0  0.35960  0.24640  0.55310  1.0000 0.6629974542
O   O963      1.0  0.42830  0.20600  0.52230  1.0000 -0.6951936574
O   O964      1.0  0.34260  0.24320  0.55620  1.0000 -0.5677502138
O   O965      1.0  0.36820  0.25860  0.56260  1.0000 -0.6587408496
Co  Co57      1.0  0.36764  0.26365  0.58985  1.0000 1.9421053842
O   O966      1.0  0.37150  0.35010  0.59900  1.0000 -0.6397820246
O   O967      1.0  0.32780  0.27770  0.57350  1.0000 -0.5856416578
O   O968      1.0  0.35720  0.28560  0.57630  1.0000 -0.6517776188
C   C1024     1.0  0.34820  0.32430  0.58060  1.0000 0.0210823154
C   C1025     1.0  0.33470  0.31050  0.57640  1.0000 -0.1004600406
C   C1026     1.0  0.34020  0.29010  0.57620  1.0000 0.653666533
O   O969      1.0  0.36370  0.34070  0.81890  1.0000 -0.609555034
Ti  Ti114     1.0  0.48635  0.38236  0.58985  1.0000 1.1911382492
C   C1027     1.0  0.35060  0.78600  0.16010  1.0000 0.0614820425
C   C1028     1.0  0.36620  0.80620  0.13750  1.0000 0.0501834124
C   C1029     1.0  0.34980  0.80110  0.17290  1.0000 -0.1718156922
C   C1030     1.0  0.36530  0.82110  0.15040  1.0000 -0.189473289
C   C1031     1.0  0.35720  0.81850  0.16800  1.0000 0.0978843566
C   C1032     1.0  0.35880  0.78860  0.14220  1.0000 -0.1087284717
C   C1033     1.0  0.37640  0.83600  0.14670  1.0000 0.637843934
C   C1034     1.0  0.35970  0.77250  0.12800  1.0000 0.6861819945
C   C1035     1.0  0.33890  0.80000  0.18810  1.0000 0.6215376561
O   O970      1.0  0.33960  0.81300  0.20010  1.0000 -0.6397820246
O   O971      1.0  0.33080  0.78500  0.19170  1.0000 -0.6517776188
O   O972      1.0  0.36980  0.77400  0.11390  1.0000 -0.6587408496
O   O973      1.0  0.34910  0.75860  0.12970  1.0000 -0.6587408496
O   O974      1.0  0.38040  0.83980  0.13000  1.0000 -0.609555034
O   O975      1.0  0.37940  0.84780  0.15930  1.0000 -0.6346473784
C   C1036     1.0  0.34640  0.79200  0.26830  1.0000 0.0501834124
C   C1037     1.0  0.33790  0.78000  0.25530  1.0000 -0.0708048282
C   C1038     1.0  0.32960  0.78790  0.23760  1.0000 0.6800795649
O   O976      1.0  0.34770  0.81740  0.29610  1.0000 -0.6517776188
O   O977      1.0  0.33120  0.80480  0.23440  1.0000 -0.6162038559
O   O978      1.0  0.32280  0.77700  0.22490  1.0000 -0.6782680781
Ti  Ti115     1.0  0.30791  0.77389  0.20066  1.0000 2.0212494802
O   O979      1.0  0.28120  0.75920  0.21460  1.0000 -0.6397820246
C   C1039     1.0  0.38970  0.73300  0.04100  1.0000 0.0286004543
C   C1040     1.0  0.37010  0.73450  0.03960  1.0000 -0.1004600406
C   C1041     1.0  0.35960  0.74640  0.05310  1.0000 0.6629974542
O   O980      1.0  0.42830  0.70600  0.02230  1.0000 -0.6939314659
O   O981      1.0  0.34260  0.74320  0.05620  1.0000 -0.5677502138
O   O982      1.0  0.36820  0.75860  0.06260  1.0000 -0.6587408496
Co  Co58      1.0  0.36764  0.76365  0.08985  1.0000 1.9421053842
O   O983      1.0  0.37150  0.85010  0.09900  1.0000 -0.6397820246
O   O984      1.0  0.32780  0.77770  0.07350  1.0000 -0.5856416578
O   O985      1.0  0.35720  0.78560  0.07630  1.0000 -0.6517776188
C   C1042     1.0  0.34820  0.82430  0.08060  1.0000 0.0210823154
C   C1043     1.0  0.33470  0.81050  0.07640  1.0000 -0.1004600406
C   C1044     1.0  0.34020  0.79010  0.07620  1.0000 0.6629974542
O   O986      1.0  0.36370  0.84070  0.31890  1.0000 -0.609555034
Ti  Ti116     1.0  0.48635  0.88236  0.08985  1.0000 1.1911382492
C   C1045     1.0  0.85060  0.28600  0.16010  1.0000 0.0614820425
C   C1046     1.0  0.86620  0.30620  0.13750  1.0000 0.0501834124
C   C1047     1.0  0.84980  0.30110  0.17290  1.0000 -0.1718156922
C   C1048     1.0  0.86530  0.32110  0.15040  1.0000 -0.189473289
C   C1049     1.0  0.85720  0.31850  0.16800  1.0000 0.0978843566
C   C1050     1.0  0.85880  0.28860  0.14220  1.0000 -0.1087284717
C   C1051     1.0  0.87640  0.33600  0.14670  1.0000 0.637843934
C   C1052     1.0  0.85970  0.27250  0.12800  1.0000 0.6861819945
C   C1053     1.0  0.83890  0.30000  0.18810  1.0000 0.6215376561
O   O987      1.0  0.83960  0.31300  0.20010  1.0000 -0.6397820246
O   O988      1.0  0.83080  0.28500  0.19170  1.0000 -0.6517776188
O   O989      1.0  0.86980  0.27400  0.11390  1.0000 -0.6587408496
O   O990      1.0  0.84910  0.25860  0.12970  1.0000 -0.6587408496
O   O991      1.0  0.88040  0.33980  0.13000  1.0000 -0.609555034
O   O992      1.0  0.87940  0.34780  0.15930  1.0000 -0.6397820246
C   C1054     1.0  0.84640  0.29200  0.26830  1.0000 0.0614820425
C   C1055     1.0  0.83790  0.28000  0.25530  1.0000 -0.0708048282
C   C1056     1.0  0.82960  0.28790  0.23760  1.0000 0.6800795649
O   O993      1.0  0.84770  0.31740  0.29610  1.0000 -0.6517776188
O   O994      1.0  0.83120  0.30480  0.23440  1.0000 -0.6162038559
O   O995      1.0  0.82280  0.27700  0.22490  1.0000 -0.6782680781
Ti  Ti117     1.0  0.80791  0.27389  0.20066  1.0000 2.0212494802
O   O996      1.0  0.78120  0.25920  0.21460  1.0000 -0.6397820246
C   C1057     1.0  0.88970  0.23300  0.04100  1.0000 0.0286004543
C   C1058     1.0  0.87010  0.23450  0.03960  1.0000 -0.1004600406
C   C1059     1.0  0.85960  0.24640  0.05310  1.0000 0.6629974542
O   O997      1.0  0.92830  0.20600  0.02230  1.0000 -0.6951936574
O   O998      1.0  0.84260  0.24320  0.05620  1.0000 -0.5677502138
O   O999      1.0  0.86820  0.25860  0.06260  1.0000 -0.6587408496
Co  Co59      1.0  0.86764  0.26365  0.08985  1.0000 1.9421053842
O   O1000     1.0  0.87150  0.35010  0.09900  1.0000 -0.6397820246
O   O1001     1.0  0.82780  0.27770  0.07350  1.0000 -0.5856416578
O   O1002     1.0  0.85720  0.28560  0.07630  1.0000 -0.6587408496
C   C1060     1.0  0.84820  0.32430  0.08060  1.0000 0.0210823154
C   C1061     1.0  0.83470  0.31050  0.07640  1.0000 -0.1004600406
C   C1062     1.0  0.84020  0.29010  0.07620  1.0000 0.653666533
O   O1003     1.0  0.86370  0.34070  0.31890  1.0000 -0.6007274885
Ti  Ti118     1.0  0.98635  0.38236  0.08985  1.0000 1.1911382492
C   C1063     1.0  0.85060  0.78600  0.66010  1.0000 0.0614820425
C   C1064     1.0  0.86620  0.80620  0.63750  1.0000 0.0501834124
C   C1065     1.0  0.84980  0.80110  0.67290  1.0000 -0.1718156922
C   C1066     1.0  0.86530  0.82110  0.65040  1.0000 -0.189473289
C   C1067     1.0  0.85720  0.81850  0.66800  1.0000 0.0978843566
C   C1068     1.0  0.85880  0.78860  0.64220  1.0000 -0.1087284717
C   C1069     1.0  0.87640  0.83600  0.64670  1.0000 0.637843934
C   C1070     1.0  0.85970  0.77250  0.62800  1.0000 0.6861819945
C   C1071     1.0  0.83890  0.80000  0.68810  1.0000 0.6215376561
O   O1004     1.0  0.83960  0.81300  0.70010  1.0000 -0.6397820246
O   O1005     1.0  0.83080  0.78500  0.69170  1.0000 -0.6517776188
O   O1006     1.0  0.86980  0.77400  0.61390  1.0000 -0.6587408496
O   O1007     1.0  0.84910  0.75860  0.62970  1.0000 -0.6587408496
O   O1008     1.0  0.88040  0.83980  0.63000  1.0000 -0.609555034
O   O1009     1.0  0.87940  0.84780  0.65930  1.0000 -0.6346473784
C   C1072     1.0  0.84640  0.79200  0.76830  1.0000 0.0614820425
C   C1073     1.0  0.83790  0.78000  0.75530  1.0000 -0.0708048282
C   C1074     1.0  0.82960  0.78790  0.73760  1.0000 0.6800795649
O   O1010     1.0  0.84770  0.81740  0.79610  1.0000 -0.6517776188
O   O1011     1.0  0.83120  0.80480  0.73440  1.0000 -0.6162038559
O   O1012     1.0  0.82280  0.77700  0.72490  1.0000 -0.6782680781
Ti  Ti119     1.0  0.80791  0.77389  0.70066  1.0000 2.0212494802
O   O1013     1.0  0.78120  0.75920  0.71460  1.0000 -0.6397820246
C   C1075     1.0  0.88970  0.73300  0.54100  1.0000 0.0286004543
C   C1076     1.0  0.87010  0.73450  0.53960  1.0000 -0.1004600406
C   C1077     1.0  0.85960  0.74640  0.55310  1.0000 0.6629974542
O   O1014     1.0  0.92830  0.70600  0.52230  1.0000 -0.6939314659
O   O1015     1.0  0.84260  0.74320  0.55620  1.0000 -0.5677502138
O   O1016     1.0  0.86820  0.75860  0.56260  1.0000 -0.6587408496
Co  Co60      1.0  0.86764  0.76365  0.58985  1.0000 1.9421053842
O   O1017     1.0  0.87150  0.85010  0.59900  1.0000 -0.6397820246
O   O1018     1.0  0.82780  0.77770  0.57350  1.0000 -0.5856416578
O   O1019     1.0  0.85720  0.78560  0.57630  1.0000 -0.6517776188
C   C1078     1.0  0.84820  0.82430  0.58060  1.0000 0.0210823154
C   C1079     1.0  0.83470  0.81050  0.57640  1.0000 -0.1004600406
C   C1080     1.0  0.84020  0.79010  0.57620  1.0000 0.653666533
O   O1020     1.0  0.86370  0.84070  0.81890  1.0000 -0.6007274885
Ti  Ti120     1.0  0.98635  0.88236  0.58985  1.0000 1.1911382492
C   C1081     1.0  0.39940  0.96400  0.16010  1.0000 0.0614820425
C   C1082     1.0  0.38380  0.94380  0.13750  1.0000 0.0501834124
C   C1083     1.0  0.40020  0.94890  0.17290  1.0000 -0.1718156922
C   C1084     1.0  0.38470  0.92890  0.15040  1.0000 -0.189473289
C   C1085     1.0  0.39280  0.93150  0.16800  1.0000 0.0978843566
C   C1086     1.0  0.39120  0.96140  0.14220  1.0000 -0.1087284717
C   C1087     1.0  0.37360  0.91400  0.14670  1.0000 0.637843934
C   C1088     1.0  0.39030  0.97750  0.12800  1.0000 0.6861819945
C   C1089     1.0  0.41110  0.95000  0.18810  1.0000 0.6215376561
O   O1021     1.0  0.41040  0.93700  0.20010  1.0000 -0.6397820246
O   O1022     1.0  0.41920  0.96500  0.19170  1.0000 -0.6517776188
O   O1023     1.0  0.38020  0.97600  0.11390  1.0000 -0.6587408496
O   O1024     1.0  0.40090  0.99140  0.12970  1.0000 -0.6587408496
O   O1025     1.0  0.36960  0.91020  0.13000  1.0000 -0.609555034
O   O1026     1.0  0.37060  0.90220  0.15930  1.0000 -0.6346473784
C   C1090     1.0  0.40360  0.95800  0.26830  1.0000 0.0614820425
C   C1091     1.0  0.41210  0.97000  0.25530  1.0000 -0.0708048282
C   C1092     1.0  0.42040  0.96210  0.23760  1.0000 0.6800795649
O   O1027     1.0  0.40230  0.93260  0.29610  1.0000 -0.5303997674
O   O1028     1.0  0.41880  0.94520  0.23440  1.0000 -0.609555034
O   O1029     1.0  0.42720  0.97300  0.22490  1.0000 -0.6782680781
Ti  Ti121     1.0  0.44209  0.97611  0.20066  1.0000 2.0212494802
O   O1030     1.0  0.46880  0.99080  0.21460  1.0000 -0.6397820246
C   C1093     1.0  0.36030  0.01700  0.04100  1.0000 0.0286004543
C   C1094     1.0  0.37990  0.01550  0.03960  1.0000 -0.1004600406
C   C1095     1.0  0.39040  0.00360  0.05310  1.0000 0.6629974542
O   O1031     1.0  0.32170  0.04400  0.02230  1.0000 -0.6951936574
O   O1032     1.0  0.40740  0.00680  0.05620  1.0000 -0.5677502138
O   O1033     1.0  0.38180  0.99140  0.06260  1.0000 -0.6587408496
Co  Co61      1.0  0.38236  0.98635  0.08985  1.0000 1.9421053842
O   O1034     1.0  0.37850  0.89990  0.09900  1.0000 -0.6397820246
O   O1035     1.0  0.42220  0.97230  0.07350  1.0000 -0.5856416578
O   O1036     1.0  0.39280  0.96440  0.07630  1.0000 -0.6517776188
C   C1096     1.0  0.40180  0.92570  0.08060  1.0000 0.0210823154
C   C1097     1.0  0.41530  0.93950  0.07640  1.0000 -0.1004600406
C   C1098     1.0  0.40980  0.95990  0.07620  1.0000 0.653666533
O   O1037     1.0  0.38630  0.90930  0.31890  1.0000 -0.5037077391
Ti  Ti122     1.0  0.26365  0.86764  0.08985  1.0000 1.1911382492
C   C1099     1.0  0.39940  0.46400  0.66010  1.0000 0.0614820425
C   C1100     1.0  0.38380  0.44380  0.63750  1.0000 0.0501834124
C   C1101     1.0  0.40020  0.44890  0.67290  1.0000 -0.1718156922
C   C1102     1.0  0.38470  0.42890  0.65040  1.0000 -0.189473289
C   C1103     1.0  0.39280  0.43150  0.66800  1.0000 0.0978843566
C   C1104     1.0  0.39120  0.46140  0.64220  1.0000 -0.1087284717
C   C1105     1.0  0.37360  0.41400  0.64670  1.0000 0.637843934
C   C1106     1.0  0.39030  0.47750  0.62800  1.0000 0.6861819945
C   C1107     1.0  0.41110  0.45000  0.68810  1.0000 0.6215376561
O   O1038     1.0  0.41040  0.43700  0.70010  1.0000 -0.6397820246
O   O1039     1.0  0.41920  0.46500  0.69170  1.0000 -0.6517776188
O   O1040     1.0  0.38020  0.47600  0.61390  1.0000 -0.6587408496
O   O1041     1.0  0.40090  0.49140  0.62970  1.0000 -0.6587408496
O   O1042     1.0  0.36960  0.41020  0.63000  1.0000 -0.609555034
O   O1043     1.0  0.37060  0.40220  0.65930  1.0000 -0.6346473784
C   C1108     1.0  0.40360  0.45800  0.76830  1.0000 0.0501834124
C   C1109     1.0  0.41210  0.47000  0.75530  1.0000 -0.0708048282
C   C1110     1.0  0.42040  0.46210  0.73760  1.0000 0.6800795649
O   O1044     1.0  0.40230  0.43260  0.79610  1.0000 -0.5303997674
O   O1045     1.0  0.41880  0.44520  0.73440  1.0000 -0.609555034
O   O1046     1.0  0.42720  0.47300  0.72490  1.0000 -0.6782680781
Ti  Ti123     1.0  0.44209  0.47611  0.70066  1.0000 2.0212494802
O   O1047     1.0  0.46880  0.49080  0.71460  1.0000 -0.6397820246
C   C1111     1.0  0.36030  0.51700  0.54100  1.0000 0.0286004543
C   C1112     1.0  0.37990  0.51550  0.53960  1.0000 -0.1004600406
C   C1113     1.0  0.39040  0.50360  0.55310  1.0000 0.6629974542
O   O1048     1.0  0.32170  0.54400  0.52230  1.0000 -0.6951936574
O   O1049     1.0  0.40740  0.50680  0.55620  1.0000 -0.5677502138
O   O1050     1.0  0.38180  0.49140  0.56260  1.0000 -0.6587408496
Co  Co62      1.0  0.38236  0.48635  0.58985  1.0000 1.9421053842
O   O1051     1.0  0.37850  0.39990  0.59900  1.0000 -0.6397820246
O   O1052     1.0  0.42220  0.47230  0.57350  1.0000 -0.5856416578
O   O1053     1.0  0.39280  0.46440  0.57630  1.0000 -0.6517776188
C   C1114     1.0  0.40180  0.42570  0.58060  1.0000 0.0210823154
C   C1115     1.0  0.41530  0.43950  0.57640  1.0000 -0.1004600406
C   C1116     1.0  0.40980  0.45990  0.57620  1.0000 0.653666533
O   O1054     1.0  0.38630  0.40930  0.81890  1.0000 -0.5106411624
Ti  Ti124     1.0  0.26365  0.36764  0.58985  1.0000 1.1911382492
C   C1117     1.0  0.89940  0.96400  0.66010  1.0000 0.0614820425
C   C1118     1.0  0.88380  0.94380  0.63750  1.0000 0.0501834124
C   C1119     1.0  0.90020  0.94890  0.67290  1.0000 -0.1718156922
C   C1120     1.0  0.88470  0.92890  0.65040  1.0000 -0.189473289
C   C1121     1.0  0.89280  0.93150  0.66800  1.0000 0.0978843566
C   C1122     1.0  0.89120  0.96140  0.64220  1.0000 -0.1087284717
C   C1123     1.0  0.87360  0.91400  0.64670  1.0000 0.637843934
C   C1124     1.0  0.89030  0.97750  0.62800  1.0000 0.6861819945
C   C1125     1.0  0.91110  0.95000  0.68810  1.0000 0.6215376561
O   O1055     1.0  0.91040  0.93700  0.70010  1.0000 -0.6397820246
O   O1056     1.0  0.91920  0.96500  0.69170  1.0000 -0.6517776188
O   O1057     1.0  0.88020  0.97600  0.61390  1.0000 -0.6587408496
O   O1058     1.0  0.90090  0.99140  0.62970  1.0000 -0.6587408496
O   O1059     1.0  0.86960  0.91020  0.63000  1.0000 -0.609555034
O   O1060     1.0  0.87060  0.90220  0.65930  1.0000 -0.6346473784
C   C1126     1.0  0.90360  0.95800  0.76830  1.0000 0.0614820425
C   C1127     1.0  0.91210  0.97000  0.75530  1.0000 -0.0708048282
C   C1128     1.0  0.92040  0.96210  0.73760  1.0000 0.6800795649
O   O1061     1.0  0.90230  0.93260  0.79610  1.0000 -0.5303997674
O   O1062     1.0  0.91880  0.94520  0.73440  1.0000 -0.609555034
O   O1063     1.0  0.92720  0.97300  0.72490  1.0000 -0.6782680781
Ti  Ti125     1.0  0.94209  0.97611  0.70066  1.0000 2.0212494802
O   O1064     1.0  0.96880  0.99080  0.71460  1.0000 -0.6397820246
C   C1129     1.0  0.86030  0.01700  0.54100  1.0000 0.0286004543
C   C1130     1.0  0.87990  0.01550  0.53960  1.0000 -0.1004600406
C   C1131     1.0  0.89040  0.00360  0.55310  1.0000 0.6629974542
O   O1065     1.0  0.82170  0.04400  0.52230  1.0000 -0.6951936574
O   O1066     1.0  0.90740  0.00680  0.55620  1.0000 -0.5677502138
O   O1067     1.0  0.88180  0.99140  0.56260  1.0000 -0.6587408496
Co  Co63      1.0  0.88236  0.98635  0.58985  1.0000 1.9421053842
O   O1068     1.0  0.87850  0.89990  0.59900  1.0000 -0.6397820246
O   O1069     1.0  0.92220  0.97230  0.57350  1.0000 -0.5856416578
O   O1070     1.0  0.89280  0.96440  0.57630  1.0000 -0.6517776188
C   C1132     1.0  0.90180  0.92570  0.58060  1.0000 0.0210823154
C   C1133     1.0  0.91530  0.93950  0.57640  1.0000 -0.1004600406
C   C1134     1.0  0.90980  0.95990  0.57620  1.0000 0.653666533
O   O1071     1.0  0.88630  0.90930  0.81890  1.0000 -0.5106411624
Ti  Ti126     1.0  0.76365  0.86764  0.58985  1.0000 1.1911382492
C   C1135     1.0  0.89940  0.46400  0.16010  1.0000 0.0614820425
C   C1136     1.0  0.88380  0.44380  0.13750  1.0000 0.0501834124
C   C1137     1.0  0.90020  0.44890  0.17290  1.0000 -0.1718156922
C   C1138     1.0  0.88470  0.42890  0.15040  1.0000 -0.189473289
C   C1139     1.0  0.89280  0.43150  0.16800  1.0000 0.0978843566
C   C1140     1.0  0.89120  0.46140  0.14220  1.0000 -0.1087284717
C   C1141     1.0  0.87360  0.41400  0.14670  1.0000 0.637843934
C   C1142     1.0  0.89030  0.47750  0.12800  1.0000 0.6861819945
C   C1143     1.0  0.91110  0.45000  0.18810  1.0000 0.6215376561
O   O1072     1.0  0.91040  0.43700  0.20010  1.0000 -0.6397820246
O   O1073     1.0  0.91920  0.46500  0.19170  1.0000 -0.6517776188
O   O1074     1.0  0.88020  0.47600  0.11390  1.0000 -0.6587408496
O   O1075     1.0  0.90090  0.49140  0.12970  1.0000 -0.6587408496
O   O1076     1.0  0.86960  0.41020  0.13000  1.0000 -0.609555034
O   O1077     1.0  0.87060  0.40220  0.15930  1.0000 -0.6397820246
C   C1144     1.0  0.90360  0.45800  0.26830  1.0000 0.0614820425
C   C1145     1.0  0.91210  0.47000  0.25530  1.0000 -0.0708048282
C   C1146     1.0  0.92040  0.46210  0.23760  1.0000 0.6800795649
O   O1078     1.0  0.90230  0.43260  0.29610  1.0000 -0.5303997674
O   O1079     1.0  0.91880  0.44520  0.23440  1.0000 -0.6162038559
O   O1080     1.0  0.92720  0.47300  0.22490  1.0000 -0.6782680781
Ti  Ti127     1.0  0.94209  0.47611  0.20066  1.0000 2.0212494802
O   O1081     1.0  0.96880  0.49080  0.21460  1.0000 -0.6397820246
C   C1147     1.0  0.86030  0.51700  0.04100  1.0000 0.0286004543
C   C1148     1.0  0.87990  0.51550  0.03960  1.0000 -0.1004600406
C   C1149     1.0  0.89040  0.50360  0.05310  1.0000 0.6629974542
O   O1082     1.0  0.82170  0.54400  0.02230  1.0000 -0.6939314659
O   O1083     1.0  0.90740  0.50680  0.05620  1.0000 -0.5677502138
O   O1084     1.0  0.88180  0.49140  0.06260  1.0000 -0.6587408496
Co  Co64      1.0  0.88236  0.48635  0.08985  1.0000 1.9421053842
O   O1085     1.0  0.87850  0.39990  0.09900  1.0000 -0.6397820246
O   O1086     1.0  0.92220  0.47230  0.07350  1.0000 -0.5856416578
O   O1087     1.0  0.89280  0.46440  0.07630  1.0000 -0.6517776188
C   C1150     1.0  0.90180  0.42570  0.08060  1.0000 0.0210823154
C   C1151     1.0  0.91530  0.43950  0.07640  1.0000 -0.1004600406
C   C1152     1.0  0.90980  0.45990  0.07620  1.0000 0.653666533
O   O1088     1.0  0.88630  0.40930  0.31890  1.0000 -0.521012765
Ti  Ti128     1.0  0.76365  0.36764  0.08985  1.0000 1.1911382492
C   C1153     1.0  0.96400  0.16010  0.39940  1.0000 0.0614820425
C   C1154     1.0  0.94380  0.13750  0.38380  1.0000 0.0501834124
C   C1155     1.0  0.94890  0.17290  0.40020  1.0000 -0.1718156922
C   C1156     1.0  0.92890  0.15040  0.38470  1.0000 -0.189473289
C   C1157     1.0  0.93150  0.16800  0.39280  1.0000 0.0978843566
C   C1158     1.0  0.96140  0.14220  0.39120  1.0000 -0.1087284717
C   C1159     1.0  0.91400  0.14670  0.37360  1.0000 0.637843934
C   C1160     1.0  0.97750  0.12800  0.39030  1.0000 0.6861819945
C   C1161     1.0  0.95000  0.18810  0.41110  1.0000 0.6215376561
O   O1089     1.0  0.93700  0.20010  0.41040  1.0000 -0.6397820246
O   O1090     1.0  0.96500  0.19170  0.41920  1.0000 -0.6517776188
O   O1091     1.0  0.97600  0.11390  0.38020  1.0000 -0.6587408496
O   O1092     1.0  0.99140  0.12970  0.40090  1.0000 -0.6587408496
O   O1093     1.0  0.91020  0.13000  0.36960  1.0000 -0.609555034
O   O1094     1.0  0.90220  0.15930  0.37060  1.0000 -0.6397820246
C   C1162     1.0  0.95800  0.26830  0.40360  1.0000 0.0614820425
C   C1163     1.0  0.97000  0.25530  0.41210  1.0000 -0.0708048282
C   C1164     1.0  0.96210  0.23760  0.42040  1.0000 0.6800795649
O   O1095     1.0  0.93260  0.29610  0.40230  1.0000 -0.6517776188
O   O1096     1.0  0.94520  0.23440  0.41880  1.0000 -0.6162038559
O   O1097     1.0  0.97300  0.22490  0.42720  1.0000 -0.6782680781
Ti  Ti129     1.0  0.97611  0.20066  0.44209  1.0000 2.0212494802
O   O1098     1.0  0.99080  0.21460  0.46880  1.0000 -0.6397820246
C   C1165     1.0  0.01700  0.04100  0.36030  1.0000 0.0286004543
C   C1166     1.0  0.01550  0.03960  0.37990  1.0000 -0.1004600406
C   C1167     1.0  0.00360  0.05310  0.39040  1.0000 0.6629974542
O   O1099     1.0  0.04400  0.02230  0.32170  1.0000 -0.6951936574
O   O1100     1.0  0.00680  0.05620  0.40740  1.0000 -0.5677502138
O   O1101     1.0  0.99140  0.06260  0.38180  1.0000 -0.6587408496
Co  Co65      1.0  0.98635  0.08985  0.38236  1.0000 1.9421053842
O   O1102     1.0  0.89990  0.09900  0.37850  1.0000 -0.6397820246
O   O1103     1.0  0.97230  0.07350  0.42220  1.0000 -0.5856416578
O   O1104     1.0  0.96440  0.07630  0.39280  1.0000 -0.6587408496
C   C1168     1.0  0.92570  0.08060  0.40180  1.0000 0.0210823154
C   C1169     1.0  0.93950  0.07640  0.41530  1.0000 -0.1004600406
C   C1170     1.0  0.95990  0.07620  0.40980  1.0000 0.653666533
O   O1105     1.0  0.90930  0.31890  0.38630  1.0000 -0.6007274885
Ti  Ti130     1.0  0.86764  0.08985  0.26365  1.0000 1.1911382492
C   C1171     1.0  0.96400  0.66010  0.89940  1.0000 0.0614820425
C   C1172     1.0  0.94380  0.63750  0.88380  1.0000 0.0501834124
C   C1173     1.0  0.94890  0.67290  0.90020  1.0000 -0.1718156922
C   C1174     1.0  0.92890  0.65040  0.88470  1.0000 -0.189473289
C   C1175     1.0  0.93150  0.66800  0.89280  1.0000 0.0978843566
C   C1176     1.0  0.96140  0.64220  0.89120  1.0000 -0.1087284717
C   C1177     1.0  0.91400  0.64670  0.87360  1.0000 0.637843934
C   C1178     1.0  0.97750  0.62800  0.89030  1.0000 0.6861819945
C   C1179     1.0  0.95000  0.68810  0.91110  1.0000 0.6215376561
O   O1106     1.0  0.93700  0.70010  0.91040  1.0000 -0.6397820246
O   O1107     1.0  0.96500  0.69170  0.91920  1.0000 -0.6517776188
O   O1108     1.0  0.97600  0.61390  0.88020  1.0000 -0.6587408496
O   O1109     1.0  0.99140  0.62970  0.90090  1.0000 -0.6587408496
O   O1110     1.0  0.91020  0.63000  0.86960  1.0000 -0.609555034
O   O1111     1.0  0.90220  0.65930  0.87060  1.0000 -0.6346473784
C   C1180     1.0  0.95800  0.76830  0.90360  1.0000 0.0614820425
C   C1181     1.0  0.97000  0.75530  0.91210  1.0000 -0.0708048282
C   C1182     1.0  0.96210  0.73760  0.92040  1.0000 0.6800795649
O   O1112     1.0  0.93260  0.79610  0.90230  1.0000 -0.6517776188
O   O1113     1.0  0.94520  0.73440  0.91880  1.0000 -0.6162038559
O   O1114     1.0  0.97300  0.72490  0.92720  1.0000 -0.6782680781
Ti  Ti131     1.0  0.97611  0.70066  0.94209  1.0000 2.0212494802
O   O1115     1.0  0.99080  0.71460  0.96880  1.0000 -0.6397820246
C   C1183     1.0  0.01700  0.54100  0.86030  1.0000 0.0286004543
C   C1184     1.0  0.01550  0.53960  0.87990  1.0000 -0.1004600406
C   C1185     1.0  0.00360  0.55310  0.89040  1.0000 0.6629974542
O   O1116     1.0  0.04400  0.52230  0.82170  1.0000 -0.6951936574
O   O1117     1.0  0.00680  0.55620  0.90740  1.0000 -0.5677502138
O   O1118     1.0  0.99140  0.56260  0.88180  1.0000 -0.6587408496
Co  Co66      1.0  0.98635  0.58985  0.88236  1.0000 1.9421053842
O   O1119     1.0  0.89990  0.59900  0.87850  1.0000 -0.6397820246
O   O1120     1.0  0.97230  0.57350  0.92220  1.0000 -0.5856416578
O   O1121     1.0  0.96440  0.57630  0.89280  1.0000 -0.6517776188
C   C1186     1.0  0.92570  0.58060  0.90180  1.0000 0.0210823154
C   C1187     1.0  0.93950  0.57640  0.91530  1.0000 -0.1004600406
C   C1188     1.0  0.95990  0.57620  0.90980  1.0000 0.653666533
O   O1122     1.0  0.90930  0.81890  0.88630  1.0000 -0.6007274885
Ti  Ti132     1.0  0.86764  0.58985  0.76365  1.0000 1.1911382492
C   C1189     1.0  0.46400  0.16010  0.89940  1.0000 0.0614820425
C   C1190     1.0  0.44380  0.13750  0.88380  1.0000 0.0501834124
C   C1191     1.0  0.44890  0.17290  0.90020  1.0000 -0.1718156922
C   C1192     1.0  0.42890  0.15040  0.88470  1.0000 -0.189473289
C   C1193     1.0  0.43150  0.16800  0.89280  1.0000 0.0978843566
C   C1194     1.0  0.46140  0.14220  0.89120  1.0000 -0.1087284717
C   C1195     1.0  0.41400  0.14670  0.87360  1.0000 0.637843934
C   C1196     1.0  0.47750  0.12800  0.89030  1.0000 0.6861819945
C   C1197     1.0  0.45000  0.18810  0.91110  1.0000 0.6215376561
O   O1123     1.0  0.43700  0.20010  0.91040  1.0000 -0.6397820246
O   O1124     1.0  0.46500  0.19170  0.91920  1.0000 -0.6517776188
O   O1125     1.0  0.47600  0.11390  0.88020  1.0000 -0.6587408496
O   O1126     1.0  0.49140  0.12970  0.90090  1.0000 -0.6587408496
O   O1127     1.0  0.41020  0.13000  0.86960  1.0000 -0.609555034
O   O1128     1.0  0.40220  0.15930  0.87060  1.0000 -0.6397820246
C   C1198     1.0  0.45800  0.26830  0.90360  1.0000 0.0501834124
C   C1199     1.0  0.47000  0.25530  0.91210  1.0000 -0.0708048282
C   C1200     1.0  0.46210  0.23760  0.92040  1.0000 0.6800795649
O   O1129     1.0  0.43260  0.29610  0.90230  1.0000 -0.5303997674
O   O1130     1.0  0.44520  0.23440  0.91880  1.0000 -0.609555034
O   O1131     1.0  0.47300  0.22490  0.92720  1.0000 -0.6782680781
Ti  Ti133     1.0  0.47611  0.20066  0.94209  1.0000 2.0212494802
O   O1132     1.0  0.49080  0.21460  0.96880  1.0000 -0.6397820246
C   C1201     1.0  0.51700  0.04100  0.86030  1.0000 0.0286004543
C   C1202     1.0  0.51550  0.03960  0.87990  1.0000 -0.1004600406
C   C1203     1.0  0.50360  0.05310  0.89040  1.0000 0.6629974542
O   O1133     1.0  0.54400  0.02230  0.82170  1.0000 -0.6939314659
O   O1134     1.0  0.50680  0.05620  0.90740  1.0000 -0.5677502138
O   O1135     1.0  0.49140  0.06260  0.88180  1.0000 -0.6587408496
Co  Co67      1.0  0.48635  0.08985  0.88236  1.0000 1.9421053842
O   O1136     1.0  0.39990  0.09900  0.87850  1.0000 -0.6397820246
O   O1137     1.0  0.47230  0.07350  0.92220  1.0000 -0.5856416578
O   O1138     1.0  0.46440  0.07630  0.89280  1.0000 -0.6517776188
C   C1204     1.0  0.42570  0.08060  0.90180  1.0000 0.0210823154
C   C1205     1.0  0.43950  0.07640  0.91530  1.0000 -0.1004600406
C   C1206     1.0  0.45990  0.07620  0.90980  1.0000 0.653666533
O   O1139     1.0  0.40930  0.31890  0.88630  1.0000 -0.5106411624
Ti  Ti134     1.0  0.36764  0.08985  0.76365  1.0000 1.1911382492
C   C1207     1.0  0.46400  0.66010  0.39940  1.0000 0.0614820425
C   C1208     1.0  0.44380  0.63750  0.38380  1.0000 0.0501834124
C   C1209     1.0  0.44890  0.67290  0.40020  1.0000 -0.1718156922
C   C1210     1.0  0.42890  0.65040  0.38470  1.0000 -0.189473289
C   C1211     1.0  0.43150  0.66800  0.39280  1.0000 0.0978843566
C   C1212     1.0  0.46140  0.64220  0.39120  1.0000 -0.1087284717
C   C1213     1.0  0.41400  0.64670  0.37360  1.0000 0.637843934
C   C1214     1.0  0.47750  0.62800  0.39030  1.0000 0.6861819945
C   C1215     1.0  0.45000  0.68810  0.41110  1.0000 0.6215376561
O   O1140     1.0  0.43700  0.70010  0.41040  1.0000 -0.6397820246
O   O1141     1.0  0.46500  0.69170  0.41920  1.0000 -0.6517776188
O   O1142     1.0  0.47600  0.61390  0.38020  1.0000 -0.6587408496
O   O1143     1.0  0.49140  0.62970  0.40090  1.0000 -0.6587408496
O   O1144     1.0  0.41020  0.63000  0.36960  1.0000 -0.609555034
O   O1145     1.0  0.40220  0.65930  0.37060  1.0000 -0.6397820246
C   C1216     1.0  0.45800  0.76830  0.40360  1.0000 0.0501834124
C   C1217     1.0  0.47000  0.75530  0.41210  1.0000 -0.0708048282
C   C1218     1.0  0.46210  0.73760  0.42040  1.0000 0.6800795649
O   O1146     1.0  0.43260  0.79610  0.40230  1.0000 -0.5303997674
O   O1147     1.0  0.44520  0.73440  0.41880  1.0000 -0.609555034
O   O1148     1.0  0.47300  0.72490  0.42720  1.0000 -0.6782680781
Ti  Ti135     1.0  0.47611  0.70066  0.44209  1.0000 2.0212494802
O   O1149     1.0  0.49080  0.71460  0.46880  1.0000 -0.6397820246
C   C1219     1.0  0.51700  0.54100  0.36030  1.0000 0.0286004543
C   C1220     1.0  0.51550  0.53960  0.37990  1.0000 -0.1004600406
C   C1221     1.0  0.50360  0.55310  0.39040  1.0000 0.6629974542
O   O1150     1.0  0.54400  0.52230  0.32170  1.0000 -0.6939314659
O   O1151     1.0  0.50680  0.55620  0.40740  1.0000 -0.5677502138
O   O1152     1.0  0.49140  0.56260  0.38180  1.0000 -0.6587408496
Co  Co68      1.0  0.48635  0.58985  0.38236  1.0000 1.9421053842
O   O1153     1.0  0.39990  0.59900  0.37850  1.0000 -0.6397820246
O   O1154     1.0  0.47230  0.57350  0.42220  1.0000 -0.5856416578
O   O1155     1.0  0.46440  0.57630  0.39280  1.0000 -0.6517776188
C   C1222     1.0  0.42570  0.58060  0.40180  1.0000 0.0210823154
C   C1223     1.0  0.43950  0.57640  0.41530  1.0000 -0.1004600406
C   C1224     1.0  0.45990  0.57620  0.40980  1.0000 0.653666533
O   O1156     1.0  0.40930  0.81890  0.38630  1.0000 -0.5106411624
Ti  Ti136     1.0  0.36764  0.58985  0.26365  1.0000 1.1911382492
C   C1225     1.0  0.28600  0.66010  0.35060  1.0000 0.0614820425
C   C1226     1.0  0.30620  0.63750  0.36620  1.0000 0.0501834124
C   C1227     1.0  0.30110  0.67290  0.34980  1.0000 -0.1718156922
C   C1228     1.0  0.32110  0.65040  0.36530  1.0000 -0.189473289
C   C1229     1.0  0.31850  0.66800  0.35720  1.0000 0.0978843566
C   C1230     1.0  0.28860  0.64220  0.35880  1.0000 -0.1087284717
C   C1231     1.0  0.33600  0.64670  0.37640  1.0000 0.637843934
C   C1232     1.0  0.27250  0.62800  0.35970  1.0000 0.6861819945
C   C1233     1.0  0.30000  0.68810  0.33890  1.0000 0.6215376561
O   O1157     1.0  0.31300  0.70010  0.33960  1.0000 -0.6397820246
O   O1158     1.0  0.28500  0.69170  0.33080  1.0000 -0.6517776188
O   O1159     1.0  0.27400  0.61390  0.36980  1.0000 -0.6587408496
O   O1160     1.0  0.25860  0.62970  0.34910  1.0000 -0.6587408496
O   O1161     1.0  0.33980  0.63000  0.38040  1.0000 -0.609555034
O   O1162     1.0  0.34780  0.65930  0.37940  1.0000 -0.6346473784
C   C1234     1.0  0.29200  0.76830  0.34640  1.0000 0.0501834124
C   C1235     1.0  0.28000  0.75530  0.33790  1.0000 -0.0708048282
C   C1236     1.0  0.28790  0.73760  0.32960  1.0000 0.6800795649
O   O1163     1.0  0.31740  0.79610  0.34770  1.0000 -0.6517776188
O   O1164     1.0  0.30480  0.73440  0.33120  1.0000 -0.6162038559
O   O1165     1.0  0.27700  0.72490  0.32280  1.0000 -0.6782680781
Ti  Ti137     1.0  0.27389  0.70066  0.30791  1.0000 2.0212494802
O   O1166     1.0  0.25920  0.71460  0.28120  1.0000 -0.6397820246
C   C1237     1.0  0.23300  0.54100  0.38970  1.0000 0.0286004543
C   C1238     1.0  0.23450  0.53960  0.37010  1.0000 -0.1004600406
C   C1239     1.0  0.24640  0.55310  0.35960  1.0000 0.6629974542
O   O1167     1.0  0.20600  0.52230  0.42830  1.0000 -0.6939314659
O   O1168     1.0  0.24320  0.55620  0.34260  1.0000 -0.5677502138
O   O1169     1.0  0.25860  0.56260  0.36820  1.0000 -0.6587408496
Co  Co69      1.0  0.26365  0.58985  0.36764  1.0000 1.9421053842
O   O1170     1.0  0.35010  0.59900  0.37150  1.0000 -0.6397820246
O   O1171     1.0  0.27770  0.57350  0.32780  1.0000 -0.5856416578
O   O1172     1.0  0.28560  0.57630  0.35720  1.0000 -0.6517776188
C   C1240     1.0  0.32430  0.58060  0.34820  1.0000 0.0210823154
C   C1241     1.0  0.31050  0.57640  0.33470  1.0000 -0.1004600406
C   C1242     1.0  0.29010  0.57620  0.34020  1.0000 0.653666533
O   O1173     1.0  0.34070  0.81890  0.36370  1.0000 -0.609555034
Ti  Ti138     1.0  0.38236  0.58985  0.48635  1.0000 1.1911382492
C   C1243     1.0  0.28600  0.16010  0.85060  1.0000 0.0614820425
C   C1244     1.0  0.30620  0.13750  0.86620  1.0000 0.0501834124
C   C1245     1.0  0.30110  0.17290  0.84980  1.0000 -0.1718156922
C   C1246     1.0  0.32110  0.15040  0.86530  1.0000 -0.189473289
C   C1247     1.0  0.31850  0.16800  0.85720  1.0000 0.0978843566
C   C1248     1.0  0.28860  0.14220  0.85880  1.0000 -0.1087284717
C   C1249     1.0  0.33600  0.14670  0.87640  1.0000 0.6285624754
C   C1250     1.0  0.27250  0.12800  0.85970  1.0000 0.6861819945
C   C1251     1.0  0.30000  0.18810  0.83890  1.0000 0.6215376561
O   O1174     1.0  0.31300  0.20010  0.83960  1.0000 -0.6397820246
O   O1175     1.0  0.28500  0.19170  0.83080  1.0000 -0.6517776188
O   O1176     1.0  0.27400  0.11390  0.86980  1.0000 -0.6587408496
O   O1177     1.0  0.25860  0.12970  0.84910  1.0000 -0.6587408496
O   O1178     1.0  0.33980  0.13000  0.88040  1.0000 -0.609555034
O   O1179     1.0  0.34780  0.15930  0.87940  1.0000 -0.6346473784
C   C1252     1.0  0.29200  0.26830  0.84640  1.0000 0.0501834124
C   C1253     1.0  0.28000  0.25530  0.83790  1.0000 -0.0708048282
C   C1254     1.0  0.28790  0.23760  0.82960  1.0000 0.6800795649
O   O1180     1.0  0.31740  0.29610  0.84770  1.0000 -0.6517776188
O   O1181     1.0  0.30480  0.23440  0.83120  1.0000 -0.6162038559
O   O1182     1.0  0.27700  0.22490  0.82280  1.0000 -0.6782680781
Ti  Ti139     1.0  0.27389  0.20066  0.80791  1.0000 2.0212494802
O   O1183     1.0  0.25920  0.21460  0.78120  1.0000 -0.6397820246
C   C1255     1.0  0.23300  0.04100  0.88970  1.0000 0.0286004543
C   C1256     1.0  0.23450  0.03960  0.87010  1.0000 -0.1004600406
C   C1257     1.0  0.24640  0.05310  0.85960  1.0000 0.6629974542
O   O1184     1.0  0.20600  0.02230  0.92830  1.0000 -0.6951936574
O   O1185     1.0  0.24320  0.05620  0.84260  1.0000 -0.5677502138
O   O1186     1.0  0.25860  0.06260  0.86820  1.0000 -0.6587408496
Co  Co70      1.0  0.26365  0.08985  0.86764  1.0000 1.9421053842
O   O1187     1.0  0.35010  0.09900  0.87150  1.0000 -0.6397820246
O   O1188     1.0  0.27770  0.07350  0.82780  1.0000 -0.5856416578
O   O1189     1.0  0.28560  0.07630  0.85720  1.0000 -0.6517776188
C   C1258     1.0  0.32430  0.08060  0.84820  1.0000 0.0210823154
C   C1259     1.0  0.31050  0.07640  0.83470  1.0000 -0.1004600406
C   C1260     1.0  0.29010  0.07620  0.84020  1.0000 0.653666533
O   O1190     1.0  0.34070  0.31890  0.86370  1.0000 -0.609555034
Ti  Ti140     1.0  0.38236  0.08985  0.98635  1.0000 1.1911382492
C   C1261     1.0  0.78600  0.66010  0.85060  1.0000 0.0614820425
C   C1262     1.0  0.80620  0.63750  0.86620  1.0000 0.0501834124
C   C1263     1.0  0.80110  0.67290  0.84980  1.0000 -0.1718156922
C   C1264     1.0  0.82110  0.65040  0.86530  1.0000 -0.189473289
C   C1265     1.0  0.81850  0.66800  0.85720  1.0000 0.0978843566
C   C1266     1.0  0.78860  0.64220  0.85880  1.0000 -0.1087284717
C   C1267     1.0  0.83600  0.64670  0.87640  1.0000 0.637843934
C   C1268     1.0  0.77250  0.62800  0.85970  1.0000 0.6861819945
C   C1269     1.0  0.80000  0.68810  0.83890  1.0000 0.6215376561
O   O1191     1.0  0.81300  0.70010  0.83960  1.0000 -0.6397820246
O   O1192     1.0  0.78500  0.69170  0.83080  1.0000 -0.6517776188
O   O1193     1.0  0.77400  0.61390  0.86980  1.0000 -0.6587408496
O   O1194     1.0  0.75860  0.62970  0.84910  1.0000 -0.6587408496
O   O1195     1.0  0.83980  0.63000  0.88040  1.0000 -0.609555034
O   O1196     1.0  0.84780  0.65930  0.87940  1.0000 -0.6346473784
C   C1270     1.0  0.79200  0.76830  0.84640  1.0000 0.0614820425
C   C1271     1.0  0.78000  0.75530  0.83790  1.0000 -0.0708048282
C   C1272     1.0  0.78790  0.73760  0.82960  1.0000 0.6800795649
O   O1197     1.0  0.81740  0.79610  0.84770  1.0000 -0.5303997674
O   O1198     1.0  0.80480  0.73440  0.83120  1.0000 -0.609555034
O   O1199     1.0  0.77700  0.72490  0.82280  1.0000 -0.6782680781
Ti  Ti141     1.0  0.77389  0.70066  0.80791  1.0000 2.0212494802
O   O1200     1.0  0.75920  0.71460  0.78120  1.0000 -0.6397820246
C   C1273     1.0  0.73300  0.54100  0.88970  1.0000 0.0286004543
C   C1274     1.0  0.73450  0.53960  0.87010  1.0000 -0.1004600406
C   C1275     1.0  0.74640  0.55310  0.85960  1.0000 0.6629974542
O   O1201     1.0  0.70600  0.52230  0.92830  1.0000 -0.6939314659
O   O1202     1.0  0.74320  0.55620  0.84260  1.0000 -0.5677502138
O   O1203     1.0  0.75860  0.56260  0.86820  1.0000 -0.6587408496
Co  Co71      1.0  0.76365  0.58985  0.86764  1.0000 1.9421053842
O   O1204     1.0  0.85010  0.59900  0.87150  1.0000 -0.6397820246
O   O1205     1.0  0.77770  0.57350  0.82780  1.0000 -0.5856416578
O   O1206     1.0  0.78560  0.57630  0.85720  1.0000 -0.6517776188
C   C1276     1.0  0.82430  0.58060  0.84820  1.0000 0.0210823154
C   C1277     1.0  0.81050  0.57640  0.83470  1.0000 -0.1004600406
C   C1278     1.0  0.79010  0.57620  0.84020  1.0000 0.653666533
O   O1207     1.0  0.84070  0.81890  0.86370  1.0000 -0.521012765
Ti  Ti142     1.0  0.88236  0.58985  0.98635  1.0000 1.1911382492
C   C1279     1.0  0.78600  0.16010  0.35060  1.0000 0.0614820425
C   C1280     1.0  0.80620  0.13750  0.36620  1.0000 0.0501834124
C   C1281     1.0  0.80110  0.17290  0.34980  1.0000 -0.1718156922
C   C1282     1.0  0.82110  0.15040  0.36530  1.0000 -0.189473289
C   C1283     1.0  0.81850  0.16800  0.35720  1.0000 0.0978843566
C   C1284     1.0  0.78860  0.14220  0.35880  1.0000 -0.1087284717
C   C1285     1.0  0.83600  0.14670  0.37640  1.0000 0.637843934
C   C1286     1.0  0.77250  0.12800  0.35970  1.0000 0.6861819945
C   C1287     1.0  0.80000  0.18810  0.33890  1.0000 0.6215376561
O   O1208     1.0  0.81300  0.20010  0.33960  1.0000 -0.6397820246
O   O1209     1.0  0.78500  0.19170  0.33080  1.0000 -0.6517776188
O   O1210     1.0  0.77400  0.11390  0.36980  1.0000 -0.6587408496
O   O1211     1.0  0.75860  0.12970  0.34910  1.0000 -0.6587408496
O   O1212     1.0  0.83980  0.13000  0.38040  1.0000 -0.609555034
O   O1213     1.0  0.84780  0.15930  0.37940  1.0000 -0.6397820246
C   C1288     1.0  0.79200  0.26830  0.34640  1.0000 0.0614820425
C   C1289     1.0  0.78000  0.25530  0.33790  1.0000 -0.0708048282
C   C1290     1.0  0.78790  0.23760  0.32960  1.0000 0.6800795649
O   O1214     1.0  0.81740  0.29610  0.34770  1.0000 -0.5303997674
O   O1215     1.0  0.80480  0.23440  0.33120  1.0000 -0.6162038559
O   O1216     1.0  0.77700  0.22490  0.32280  1.0000 -0.6782680781
Ti  Ti143     1.0  0.77389  0.20066  0.30791  1.0000 2.0212494802
O   O1217     1.0  0.75920  0.21460  0.28120  1.0000 -0.6397820246
C   C1291     1.0  0.73300  0.04100  0.38970  1.0000 0.0286004543
C   C1292     1.0  0.73450  0.03960  0.37010  1.0000 -0.1004600406
C   C1293     1.0  0.74640  0.05310  0.35960  1.0000 0.6629974542
O   O1218     1.0  0.70600  0.02230  0.42830  1.0000 -0.6951936574
O   O1219     1.0  0.74320  0.05620  0.34260  1.0000 -0.5677502138
O   O1220     1.0  0.75860  0.06260  0.36820  1.0000 -0.6587408496
Co  Co72      1.0  0.76365  0.08985  0.36764  1.0000 1.9421053842
O   O1221     1.0  0.85010  0.09900  0.37150  1.0000 -0.6397820246
O   O1222     1.0  0.77770  0.07350  0.32780  1.0000 -0.5856416578
O   O1223     1.0  0.78560  0.07630  0.35720  1.0000 -0.6587408496
C   C1294     1.0  0.82430  0.08060  0.34820  1.0000 0.0210823154
C   C1295     1.0  0.81050  0.07640  0.33470  1.0000 -0.1004600406
C   C1296     1.0  0.79010  0.07620  0.34020  1.0000 0.653666533
O   O1224     1.0  0.84070  0.31890  0.36370  1.0000 -0.521012765
Ti  Ti144     1.0  0.88236  0.08985  0.48635  1.0000 1.1911382492
C   C1297     1.0  0.78600  0.08990  0.89940  1.0000 0.0614820425
C   C1298     1.0  0.80620  0.11250  0.88380  1.0000 0.0501834124
C   C1299     1.0  0.80110  0.07710  0.90020  1.0000 -0.1718156922
C   C1300     1.0  0.82110  0.09960  0.88470  1.0000 -0.189473289
C   C1301     1.0  0.81850  0.08200  0.89280  1.0000 0.0978843566
C   C1302     1.0  0.78860  0.10780  0.89120  1.0000 -0.1087284717
C   C1303     1.0  0.83600  0.10330  0.87360  1.0000 0.637843934
C   C1304     1.0  0.77250  0.12200  0.89030  1.0000 0.6861819945
C   C1305     1.0  0.80000  0.06190  0.91110  1.0000 0.6215376561
O   O1225     1.0  0.81300  0.04990  0.91040  1.0000 -0.6397820246
O   O1226     1.0  0.78500  0.05830  0.91920  1.0000 -0.6517776188
O   O1227     1.0  0.77400  0.13610  0.88020  1.0000 -0.6587408496
O   O1228     1.0  0.75860  0.12030  0.90090  1.0000 -0.6587408496
O   O1229     1.0  0.83980  0.12000  0.86960  1.0000 -0.609555034
O   O1230     1.0  0.84780  0.09070  0.87060  1.0000 -0.6397820246
C   C1306     1.0  0.79200  0.98170  0.90360  1.0000 0.0614820425
C   C1307     1.0  0.78000  0.99470  0.91210  1.0000 -0.0708048282
C   C1308     1.0  0.78790  0.01240  0.92040  1.0000 0.6800795649
O   O1231     1.0  0.81740  0.95390  0.90230  1.0000 -0.6517776188
O   O1232     1.0  0.80480  0.01560  0.91880  1.0000 -0.6162038559
O   O1233     1.0  0.77700  0.02510  0.92720  1.0000 -0.6782680781
Ti  Ti145     1.0  0.77389  0.04934  0.94209  1.0000 2.0212494802
O   O1234     1.0  0.75920  0.03540  0.96880  1.0000 -0.6397820246
C   C1309     1.0  0.73300  0.20900  0.86030  1.0000 0.0286004543
C   C1310     1.0  0.73450  0.21040  0.87990  1.0000 -0.1004600406
C   C1311     1.0  0.74640  0.19690  0.89040  1.0000 0.6629974542
O   O1235     1.0  0.70600  0.22770  0.82170  1.0000 -0.6951936574
O   O1236     1.0  0.74320  0.19380  0.90740  1.0000 -0.5677502138
O   O1237     1.0  0.75860  0.18740  0.88180  1.0000 -0.6587408496
Co  Co73      1.0  0.76365  0.16015  0.88236  1.0000 1.9421053842
O   O1238     1.0  0.85010  0.15100  0.87850  1.0000 -0.6397820246
O   O1239     1.0  0.77770  0.17650  0.92220  1.0000 -0.5856416578
O   O1240     1.0  0.78560  0.17370  0.89280  1.0000 -0.6517776188
C   C1312     1.0  0.82430  0.16940  0.90180  1.0000 0.0210823154
C   C1313     1.0  0.81050  0.17360  0.91530  1.0000 -0.1004600406
C   C1314     1.0  0.79010  0.17380  0.90980  1.0000 0.653666533
O   O1241     1.0  0.84070  0.93110  0.88630  1.0000 -0.6007274885
Ti  Ti146     1.0  0.88236  0.16015  0.76365  1.0000 1.1911382492
C   C1315     1.0  0.78600  0.58990  0.39940  1.0000 0.0614820425
C   C1316     1.0  0.80620  0.61250  0.38380  1.0000 0.0501834124
C   C1317     1.0  0.80110  0.57710  0.40020  1.0000 -0.1718156922
C   C1318     1.0  0.82110  0.59960  0.38470  1.0000 -0.189473289
C   C1319     1.0  0.81850  0.58200  0.39280  1.0000 0.0978843566
C   C1320     1.0  0.78860  0.60780  0.39120  1.0000 -0.1087284717
C   C1321     1.0  0.83600  0.60330  0.37360  1.0000 0.637843934
C   C1322     1.0  0.77250  0.62200  0.39030  1.0000 0.6861819945
C   C1323     1.0  0.80000  0.56190  0.41110  1.0000 0.6215376561
O   O1242     1.0  0.81300  0.54990  0.41040  1.0000 -0.6397820246
O   O1243     1.0  0.78500  0.55830  0.41920  1.0000 -0.6517776188
O   O1244     1.0  0.77400  0.63610  0.38020  1.0000 -0.6587408496
O   O1245     1.0  0.75860  0.62030  0.40090  1.0000 -0.6587408496
O   O1246     1.0  0.83980  0.62000  0.36960  1.0000 -0.609555034
O   O1247     1.0  0.84780  0.59070  0.37060  1.0000 -0.6346473784
C   C1324     1.0  0.79200  0.48170  0.40360  1.0000 0.0614820425
C   C1325     1.0  0.78000  0.49470  0.41210  1.0000 -0.0708048282
C   C1326     1.0  0.78790  0.51240  0.42040  1.0000 0.6800795649
O   O1248     1.0  0.81740  0.45390  0.40230  1.0000 -0.5303997674
O   O1249     1.0  0.80480  0.51560  0.41880  1.0000 -0.609555034
O   O1250     1.0  0.77700  0.52510  0.42720  1.0000 -0.6782680781
Ti  Ti147     1.0  0.77389  0.54934  0.44209  1.0000 2.0212494802
O   O1251     1.0  0.75920  0.53540  0.46880  1.0000 -0.6397820246
C   C1327     1.0  0.73300  0.70900  0.36030  1.0000 0.0286004543
C   C1328     1.0  0.73450  0.71040  0.37990  1.0000 -0.1004600406
C   C1329     1.0  0.74640  0.69690  0.39040  1.0000 0.6629974542
O   O1252     1.0  0.70600  0.72770  0.32170  1.0000 -0.6939314659
O   O1253     1.0  0.74320  0.69380  0.40740  1.0000 -0.5677502138
O   O1254     1.0  0.75860  0.68740  0.38180  1.0000 -0.6587408496
Co  Co74      1.0  0.76365  0.66015  0.38236  1.0000 1.9421053842
O   O1255     1.0  0.85010  0.65100  0.37850  1.0000 -0.6397820246
O   O1256     1.0  0.77770  0.67650  0.42220  1.0000 -0.5856416578
O   O1257     1.0  0.78560  0.67370  0.39280  1.0000 -0.6517776188
C   C1330     1.0  0.82430  0.66940  0.40180  1.0000 0.0210823154
C   C1331     1.0  0.81050  0.67360  0.41530  1.0000 -0.1004600406
C   C1332     1.0  0.79010  0.67380  0.40980  1.0000 0.653666533
O   O1258     1.0  0.84070  0.43110  0.38630  1.0000 -0.5106411624
Ti  Ti148     1.0  0.88236  0.66015  0.26365  1.0000 1.1911382492
C   C1333     1.0  0.28600  0.08990  0.39940  1.0000 0.0614820425
C   C1334     1.0  0.30620  0.11250  0.38380  1.0000 0.0501834124
C   C1335     1.0  0.30110  0.07710  0.40020  1.0000 -0.1718156922
C   C1336     1.0  0.32110  0.09960  0.38470  1.0000 -0.189473289
C   C1337     1.0  0.31850  0.08200  0.39280  1.0000 0.0978843566
C   C1338     1.0  0.28860  0.10780  0.39120  1.0000 -0.1087284717
C   C1339     1.0  0.33600  0.10330  0.37360  1.0000 0.637843934
C   C1340     1.0  0.27250  0.12200  0.39030  1.0000 0.6861819945
C   C1341     1.0  0.30000  0.06190  0.41110  1.0000 0.6215376561
O   O1259     1.0  0.31300  0.04990  0.41040  1.0000 -0.6397820246
O   O1260     1.0  0.28500  0.05830  0.41920  1.0000 -0.6517776188
O   O1261     1.0  0.27400  0.13610  0.38020  1.0000 -0.6587408496
O   O1262     1.0  0.25860  0.12030  0.40090  1.0000 -0.6587408496
O   O1263     1.0  0.33980  0.12000  0.36960  1.0000 -0.609555034
O   O1264     1.0  0.34780  0.09070  0.37060  1.0000 -0.6397820246
C   C1342     1.0  0.29200  0.98170  0.40360  1.0000 0.0614820425
C   C1343     1.0  0.28000  0.99470  0.41210  1.0000 -0.0708048282
C   C1344     1.0  0.28790  0.01240  0.42040  1.0000 0.6800795649
O   O1265     1.0  0.31740  0.95390  0.40230  1.0000 -0.6517776188
O   O1266     1.0  0.30480  0.01560  0.41880  1.0000 -0.6162038559
O   O1267     1.0  0.27700  0.02510  0.42720  1.0000 -0.6782680781
Ti  Ti149     1.0  0.27389  0.04934  0.44209  1.0000 2.0212494802
O   O1268     1.0  0.25920  0.03540  0.46880  1.0000 -0.6397820246
C   C1345     1.0  0.23300  0.20900  0.36030  1.0000 0.0286004543
C   C1346     1.0  0.23450  0.21040  0.37990  1.0000 -0.1004600406
C   C1347     1.0  0.24640  0.19690  0.39040  1.0000 0.6629974542
O   O1269     1.0  0.20600  0.22770  0.32170  1.0000 -0.6951936574
O   O1270     1.0  0.24320  0.19380  0.40740  1.0000 -0.5677502138
O   O1271     1.0  0.25860  0.18740  0.38180  1.0000 -0.6587408496
Co  Co75      1.0  0.26365  0.16015  0.38236  1.0000 1.9421053842
O   O1272     1.0  0.35010  0.15100  0.37850  1.0000 -0.6397820246
O   O1273     1.0  0.27770  0.17650  0.42220  1.0000 -0.5856416578
O   O1274     1.0  0.28560  0.17370  0.39280  1.0000 -0.6587408496
C   C1348     1.0  0.32430  0.16940  0.40180  1.0000 0.0210823154
C   C1349     1.0  0.31050  0.17360  0.41530  1.0000 -0.1004600406
C   C1350     1.0  0.29010  0.17380  0.40980  1.0000 0.653666533
O   O1275     1.0  0.34070  0.93110  0.38630  1.0000 -0.6007274885
Ti  Ti150     1.0  0.38236  0.16015  0.26365  1.0000 1.1911382492
C   C1351     1.0  0.28600  0.58990  0.89940  1.0000 0.0614820425
C   C1352     1.0  0.30620  0.61250  0.88380  1.0000 0.0501834124
C   C1353     1.0  0.30110  0.57710  0.90020  1.0000 -0.1718156922
C   C1354     1.0  0.32110  0.59960  0.88470  1.0000 -0.189473289
C   C1355     1.0  0.31850  0.58200  0.89280  1.0000 0.0978843566
C   C1356     1.0  0.28860  0.60780  0.89120  1.0000 -0.1087284717
C   C1357     1.0  0.33600  0.60330  0.87360  1.0000 0.637843934
C   C1358     1.0  0.27250  0.62200  0.89030  1.0000 0.6861819945
C   C1359     1.0  0.30000  0.56190  0.91110  1.0000 0.6215376561
O   O1276     1.0  0.31300  0.54990  0.91040  1.0000 -0.6397820246
O   O1277     1.0  0.28500  0.55830  0.91920  1.0000 -0.6517776188
O   O1278     1.0  0.27400  0.63610  0.88020  1.0000 -0.6587408496
O   O1279     1.0  0.25860  0.62030  0.90090  1.0000 -0.6587408496
O   O1280     1.0  0.33980  0.62000  0.86960  1.0000 -0.609555034
O   O1281     1.0  0.34780  0.59070  0.87060  1.0000 -0.6346473784
C   C1360     1.0  0.29200  0.48170  0.90360  1.0000 0.0614820425
C   C1361     1.0  0.28000  0.49470  0.91210  1.0000 -0.0708048282
C   C1362     1.0  0.28790  0.51240  0.92040  1.0000 0.6800795649
O   O1282     1.0  0.31740  0.45390  0.90230  1.0000 -0.5303997674
O   O1283     1.0  0.30480  0.51560  0.91880  1.0000 -0.609555034
O   O1284     1.0  0.27700  0.52510  0.92720  1.0000 -0.6782680781
Ti  Ti151     1.0  0.27389  0.54934  0.94209  1.0000 2.0212494802
O   O1285     1.0  0.25920  0.53540  0.96880  1.0000 -0.6397820246
C   C1363     1.0  0.23300  0.70900  0.86030  1.0000 0.0286004543
C   C1364     1.0  0.23450  0.71040  0.87990  1.0000 -0.1004600406
C   C1365     1.0  0.24640  0.69690  0.89040  1.0000 0.6629974542
O   O1286     1.0  0.20600  0.72770  0.82170  1.0000 -0.6939314659
O   O1287     1.0  0.24320  0.69380  0.90740  1.0000 -0.5677502138
O   O1288     1.0  0.25860  0.68740  0.88180  1.0000 -0.6587408496
Co  Co76      1.0  0.26365  0.66015  0.88236  1.0000 1.9421053842
O   O1289     1.0  0.35010  0.65100  0.87850  1.0000 -0.6397820246
O   O1290     1.0  0.27770  0.67650  0.92220  1.0000 -0.5777560007
O   O1291     1.0  0.28560  0.67370  0.89280  1.0000 -0.6517776188
C   C1366     1.0  0.32430  0.66940  0.90180  1.0000 0.0210823154
C   C1367     1.0  0.31050  0.67360  0.91530  1.0000 -0.1004600406
C   C1368     1.0  0.29010  0.67380  0.90980  1.0000 0.653666533
O   O1292     1.0  0.34070  0.43110  0.88630  1.0000 -0.5106411624
Ti  Ti152     1.0  0.38236  0.66015  0.76365  1.0000 1.1911382492
C   C1369     1.0  0.46400  0.58990  0.85060  1.0000 0.0614820425
C   C1370     1.0  0.44380  0.61250  0.86620  1.0000 0.0501834124
C   C1371     1.0  0.44890  0.57710  0.84980  1.0000 -0.1718156922
C   C1372     1.0  0.42890  0.59960  0.86530  1.0000 -0.189473289
C   C1373     1.0  0.43150  0.58200  0.85720  1.0000 0.0978843566
C   C1374     1.0  0.46140  0.60780  0.85880  1.0000 -0.1087284717
C   C1375     1.0  0.41400  0.60330  0.87640  1.0000 0.637843934
C   C1376     1.0  0.47750  0.62200  0.85970  1.0000 0.6861819945
C   C1377     1.0  0.45000  0.56190  0.83890  1.0000 0.6215376561
O   O1293     1.0  0.43700  0.54990  0.83960  1.0000 -0.6397820246
O   O1294     1.0  0.46500  0.55830  0.83080  1.0000 -0.6517776188
O   O1295     1.0  0.47600  0.63610  0.86980  1.0000 -0.6587408496
O   O1296     1.0  0.49140  0.62030  0.84910  1.0000 -0.6587408496
O   O1297     1.0  0.41020  0.62000  0.88040  1.0000 -0.609555034
O   O1298     1.0  0.40220  0.59070  0.87940  1.0000 -0.6346473784
C   C1378     1.0  0.45800  0.48170  0.84640  1.0000 0.0614820425
C   C1379     1.0  0.47000  0.49470  0.83790  1.0000 -0.0708048282
C   C1380     1.0  0.46210  0.51240  0.82960  1.0000 0.6800795649
O   O1299     1.0  0.43260  0.45390  0.84770  1.0000 -0.6517776188
O   O1300     1.0  0.44520  0.51560  0.83120  1.0000 -0.6162038559
O   O1301     1.0  0.47300  0.52510  0.82280  1.0000 -0.6782680781
Ti  Ti153     1.0  0.47611  0.54934  0.80791  1.0000 2.0212494802
O   O1302     1.0  0.49080  0.53540  0.78120  1.0000 -0.6397820246
C   C1381     1.0  0.51700  0.70900  0.88970  1.0000 0.0286004543
C   C1382     1.0  0.51550  0.71040  0.87010  1.0000 -0.1004600406
C   C1383     1.0  0.50360  0.69690  0.85960  1.0000 0.6629974542
O   O1303     1.0  0.54400  0.72770  0.92830  1.0000 -0.6939314659
O   O1304     1.0  0.50680  0.69380  0.84260  1.0000 -0.5677502138
O   O1305     1.0  0.49140  0.68740  0.86820  1.0000 -0.6587408496
Co  Co77      1.0  0.48635  0.66015  0.86764  1.0000 1.9421053842
O   O1306     1.0  0.39990  0.65100  0.87150  1.0000 -0.6397820246
O   O1307     1.0  0.47230  0.67650  0.82780  1.0000 -0.5777560007
O   O1308     1.0  0.46440  0.67370  0.85720  1.0000 -0.6517776188
C   C1384     1.0  0.42570  0.66940  0.84820  1.0000 0.0210823154
C   C1385     1.0  0.43950  0.67360  0.83470  1.0000 -0.1004600406
C   C1386     1.0  0.45990  0.67380  0.84020  1.0000 0.653666533
O   O1309     1.0  0.40930  0.43110  0.86370  1.0000 -0.6007274885
Ti  Ti154     1.0  0.36764  0.66015  0.98635  1.0000 1.1911382492
C   C1387     1.0  0.46400  0.08990  0.35060  1.0000 0.0614820425
C   C1388     1.0  0.44380  0.11250  0.36620  1.0000 0.0501834124
C   C1389     1.0  0.44890  0.07710  0.34980  1.0000 -0.1718156922
C   C1390     1.0  0.42890  0.09960  0.36530  1.0000 -0.189473289
C   C1391     1.0  0.43150  0.08200  0.35720  1.0000 0.0978843566
C   C1392     1.0  0.46140  0.10780  0.35880  1.0000 -0.1087284717
C   C1393     1.0  0.41400  0.10330  0.37640  1.0000 0.637843934
C   C1394     1.0  0.47750  0.12200  0.35970  1.0000 0.6861819945
C   C1395     1.0  0.45000  0.06190  0.33890  1.0000 0.6215376561
O   O1310     1.0  0.43700  0.04990  0.33960  1.0000 -0.6397820246
O   O1311     1.0  0.46500  0.05830  0.33080  1.0000 -0.6517776188
O   O1312     1.0  0.47600  0.13610  0.36980  1.0000 -0.6587408496
O   O1313     1.0  0.49140  0.12030  0.34910  1.0000 -0.6587408496
O   O1314     1.0  0.41020  0.12000  0.38040  1.0000 -0.609555034
O   O1315     1.0  0.40220  0.09070  0.37940  1.0000 -0.6397820246
C   C1396     1.0  0.45800  0.98170  0.34640  1.0000 0.0614820425
C   C1397     1.0  0.47000  0.99470  0.33790  1.0000 -0.0708048282
C   C1398     1.0  0.46210  0.01240  0.32960  1.0000 0.6800795649
O   O1316     1.0  0.43260  0.95390  0.34770  1.0000 -0.5303997674
O   O1317     1.0  0.44520  0.01560  0.33120  1.0000 -0.609555034
O   O1318     1.0  0.47300  0.02510  0.32280  1.0000 -0.6782680781
Ti  Ti155     1.0  0.47611  0.04934  0.30791  1.0000 2.0212494802
O   O1319     1.0  0.49080  0.03540  0.28120  1.0000 -0.6397820246
C   C1399     1.0  0.51700  0.20900  0.38970  1.0000 0.0286004543
C   C1400     1.0  0.51550  0.21040  0.37010  1.0000 -0.1004600406
C   C1401     1.0  0.50360  0.19690  0.35960  1.0000 0.6629974542
O   O1320     1.0  0.54400  0.22770  0.42830  1.0000 -0.6951936574
O   O1321     1.0  0.50680  0.19380  0.34260  1.0000 -0.5677502138
O   O1322     1.0  0.49140  0.18740  0.36820  1.0000 -0.6587408496
Co  Co78      1.0  0.48635  0.16015  0.36764  1.0000 1.9421053842
O   O1323     1.0  0.39990  0.15100  0.37150  1.0000 -0.6397820246
O   O1324     1.0  0.47230  0.17650  0.32780  1.0000 -0.5856416578
O   O1325     1.0  0.46440  0.17370  0.35720  1.0000 -0.6587408496
C   C1402     1.0  0.42570  0.16940  0.34820  1.0000 0.0210823154
C   C1403     1.0  0.43950  0.17360  0.33470  1.0000 -0.1004600406
C   C1404     1.0  0.45990  0.17380  0.34020  1.0000 0.653666533
O   O1326     1.0  0.40930  0.93110  0.36370  1.0000 -0.5037077391
Ti  Ti156     1.0  0.36764  0.16015  0.48635  1.0000 1.1911382492
C   C1405     1.0  0.96400  0.58990  0.35060  1.0000 0.0614820425
C   C1406     1.0  0.94380  0.61250  0.36620  1.0000 0.0501834124
C   C1407     1.0  0.94890  0.57710  0.34980  1.0000 -0.1718156922
C   C1408     1.0  0.92890  0.59960  0.36530  1.0000 -0.189473289
C   C1409     1.0  0.93150  0.58200  0.35720  1.0000 0.0978843566
C   C1410     1.0  0.96140  0.60780  0.35880  1.0000 -0.1087284717
C   C1411     1.0  0.91400  0.60330  0.37640  1.0000 0.637843934
C   C1412     1.0  0.97750  0.62200  0.35970  1.0000 0.6861819945
C   C1413     1.0  0.95000  0.56190  0.33890  1.0000 0.6215376561
O   O1327     1.0  0.93700  0.54990  0.33960  1.0000 -0.6397820246
O   O1328     1.0  0.96500  0.55830  0.33080  1.0000 -0.6517776188
O   O1329     1.0  0.97600  0.63610  0.36980  1.0000 -0.6587408496
O   O1330     1.0  0.99140  0.62030  0.34910  1.0000 -0.6587408496
O   O1331     1.0  0.91020  0.62000  0.38040  1.0000 -0.609555034
O   O1332     1.0  0.90220  0.59070  0.37940  1.0000 -0.6346473784
C   C1414     1.0  0.95800  0.48170  0.34640  1.0000 0.0501834124
C   C1415     1.0  0.97000  0.49470  0.33790  1.0000 -0.0708048282
C   C1416     1.0  0.96210  0.51240  0.32960  1.0000 0.6800795649
O   O1333     1.0  0.93260  0.45390  0.34770  1.0000 -0.6517776188
O   O1334     1.0  0.94520  0.51560  0.33120  1.0000 -0.6162038559
O   O1335     1.0  0.97300  0.52510  0.32280  1.0000 -0.6782680781
Ti  Ti157     1.0  0.97611  0.54934  0.30791  1.0000 2.0212494802
O   O1336     1.0  0.99080  0.53540  0.28120  1.0000 -0.6397820246
C   C1417     1.0  0.01700  0.70900  0.38970  1.0000 0.0286004543
C   C1418     1.0  0.01550  0.71040  0.37010  1.0000 -0.1004600406
C   C1419     1.0  0.00360  0.69690  0.35960  1.0000 0.6629974542
O   O1337     1.0  0.04400  0.72770  0.42830  1.0000 -0.6939314659
O   O1338     1.0  0.00680  0.69380  0.34260  1.0000 -0.5677502138
O   O1339     1.0  0.99140  0.68740  0.36820  1.0000 -0.6587408496
Co  Co79      1.0  0.98635  0.66015  0.36764  1.0000 1.9421053842
O   O1340     1.0  0.89990  0.65100  0.37150  1.0000 -0.6397820246
O   O1341     1.0  0.97230  0.67650  0.32780  1.0000 -0.5856416578
O   O1342     1.0  0.96440  0.67370  0.35720  1.0000 -0.6517776188
C   C1420     1.0  0.92570  0.66940  0.34820  1.0000 0.0210823154
C   C1421     1.0  0.93950  0.67360  0.33470  1.0000 -0.1004600406
C   C1422     1.0  0.95990  0.67380  0.34020  1.0000 0.653666533
O   O1343     1.0  0.90930  0.43110  0.36370  1.0000 -0.609555034
Ti  Ti158     1.0  0.86764  0.66015  0.48635  1.0000 1.1911382492
C   C1423     1.0  0.96400  0.08990  0.85060  1.0000 0.0614820425
C   C1424     1.0  0.94380  0.11250  0.86620  1.0000 0.0501834124
C   C1425     1.0  0.94890  0.07710  0.84980  1.0000 -0.1718156922
C   C1426     1.0  0.92890  0.09960  0.86530  1.0000 -0.189473289
C   C1427     1.0  0.93150  0.08200  0.85720  1.0000 0.0978843566
C   C1428     1.0  0.96140  0.10780  0.85880  1.0000 -0.1087284717
C   C1429     1.0  0.91400  0.10330  0.87640  1.0000 0.637843934
C   C1430     1.0  0.97750  0.12200  0.85970  1.0000 0.6861819945
C   C1431     1.0  0.95000  0.06190  0.83890  1.0000 0.6215376561
O   O1344     1.0  0.93700  0.04990  0.83960  1.0000 -0.6397820246
O   O1345     1.0  0.96500  0.05830  0.83080  1.0000 -0.6517776188
O   O1346     1.0  0.97600  0.13610  0.86980  1.0000 -0.6587408496
O   O1347     1.0  0.99140  0.12030  0.84910  1.0000 -0.6587408496
O   O1348     1.0  0.91020  0.12000  0.88040  1.0000 -0.609555034
O   O1349     1.0  0.90220  0.09070  0.87940  1.0000 -0.6397820246
C   C1432     1.0  0.95800  0.98170  0.84640  1.0000 0.0501834124
C   C1433     1.0  0.97000  0.99470  0.83790  1.0000 -0.0708048282
C   C1434     1.0  0.96210  0.01240  0.82960  1.0000 0.6800795649
O   O1350     1.0  0.93260  0.95390  0.84770  1.0000 -0.5303997674
O   O1351     1.0  0.94520  0.01560  0.83120  1.0000 -0.609555034
O   O1352     1.0  0.97300  0.02510  0.82280  1.0000 -0.6782680781
Ti  Ti159     1.0  0.97611  0.04934  0.80791  1.0000 2.0212494802
O   O1353     1.0  0.99080  0.03540  0.78120  1.0000 -0.6397820246
C   C1435     1.0  0.01700  0.20900  0.88970  1.0000 0.0286004543
C   C1436     1.0  0.01550  0.21040  0.87010  1.0000 -0.1004600406
C   C1437     1.0  0.00360  0.19690  0.85960  1.0000 0.6629974542
O   O1354     1.0  0.04400  0.22770  0.92830  1.0000 -0.6951936574
O   O1355     1.0  0.00680  0.19380  0.84260  1.0000 -0.5677502138
O   O1356     1.0  0.99140  0.18740  0.86820  1.0000 -0.6587408496
Co  Co80      1.0  0.98635  0.16015  0.86764  1.0000 1.9421053842
O   O1357     1.0  0.89990  0.15100  0.87150  1.0000 -0.6397820246
O   O1358     1.0  0.97230  0.17650  0.82780  1.0000 -0.5856416578
O   O1359     1.0  0.96440  0.17370  0.85720  1.0000 -0.6517776188
C   C1438     1.0  0.92570  0.16940  0.84820  1.0000 0.0210823154
C   C1439     1.0  0.93950  0.17360  0.83470  1.0000 -0.1004600406
C   C1440     1.0  0.95990  0.17380  0.84020  1.0000 0.653666533
O   O1360     1.0  0.90930  0.93110  0.86370  1.0000 -0.5106411624
Ti  Ti160     1.0  0.86764  0.16015  0.98635  1.0000 1.1911382492
C   C1441     1.0  0.66010  0.35060  0.28600  1.0000 0.0614820425
C   C1442     1.0  0.63750  0.36620  0.30620  1.0000 0.0501834124
C   C1443     1.0  0.67290  0.34980  0.30110  1.0000 -0.1718156922
C   C1444     1.0  0.65040  0.36530  0.32110  1.0000 -0.189473289
C   C1445     1.0  0.66800  0.35720  0.31850  1.0000 0.0978843566
C   C1446     1.0  0.64220  0.35880  0.28860  1.0000 -0.1087284717
C   C1447     1.0  0.64670  0.37640  0.33600  1.0000 0.637843934
C   C1448     1.0  0.62800  0.35970  0.27250  1.0000 0.6861819945
C   C1449     1.0  0.68810  0.33890  0.30000  1.0000 0.6215376561
O   O1361     1.0  0.70010  0.33960  0.31300  1.0000 -0.6397820246
O   O1362     1.0  0.69170  0.33080  0.28500  1.0000 -0.6517776188
O   O1363     1.0  0.61390  0.36980  0.27400  1.0000 -0.6587408496
O   O1364     1.0  0.62970  0.34910  0.25860  1.0000 -0.6587408496
O   O1365     1.0  0.63000  0.38040  0.33980  1.0000 -0.609555034
O   O1366     1.0  0.65930  0.37940  0.34780  1.0000 -0.6397820246
C   C1450     1.0  0.76830  0.34640  0.29200  1.0000 0.0501834124
C   C1451     1.0  0.75530  0.33790  0.28000  1.0000 -0.0708048282
C   C1452     1.0  0.73760  0.32960  0.28790  1.0000 0.6800795649
O   O1367     1.0  0.79610  0.34770  0.31740  1.0000 -0.6517776188
O   O1368     1.0  0.73440  0.33120  0.30480  1.0000 -0.6162038559
O   O1369     1.0  0.72490  0.32280  0.27700  1.0000 -0.6782680781
Ti  Ti161     1.0  0.70066  0.30791  0.27389  1.0000 2.0212494802
O   O1370     1.0  0.71460  0.28120  0.25920  1.0000 -0.6397820246
C   C1453     1.0  0.54100  0.38970  0.23300  1.0000 0.0286004543
C   C1454     1.0  0.53960  0.37010  0.23450  1.0000 -0.1004600406
C   C1455     1.0  0.55310  0.35960  0.24640  1.0000 0.6629974542
O   O1371     1.0  0.52230  0.42830  0.20600  1.0000 -0.6951936574
O   O1372     1.0  0.55620  0.34260  0.24320  1.0000 -0.5677502138
O   O1373     1.0  0.56260  0.36820  0.25860  1.0000 -0.6587408496
Co  Co81      1.0  0.58985  0.36764  0.26365  1.0000 1.9421053842
O   O1374     1.0  0.59900  0.37150  0.35010  1.0000 -0.6397820246
O   O1375     1.0  0.57350  0.32780  0.27770  1.0000 -0.5856416578
O   O1376     1.0  0.57630  0.35720  0.28560  1.0000 -0.6587408496
C   C1456     1.0  0.58060  0.34820  0.32430  1.0000 0.0210823154
C   C1457     1.0  0.57640  0.33470  0.31050  1.0000 -0.1004600406
C   C1458     1.0  0.57620  0.34020  0.29010  1.0000 0.653666533
O   O1377     1.0  0.81890  0.36370  0.34070  1.0000 -0.609555034
Ti  Ti162     1.0  0.58985  0.48635  0.38236  1.0000 1.1911382492
C   C1459     1.0  0.66010  0.85060  0.78600  1.0000 0.0614820425
C   C1460     1.0  0.63750  0.86620  0.80620  1.0000 0.0501834124
C   C1461     1.0  0.67290  0.84980  0.80110  1.0000 -0.1718156922
C   C1462     1.0  0.65040  0.86530  0.82110  1.0000 -0.189473289
C   C1463     1.0  0.66800  0.85720  0.81850  1.0000 0.0978843566
C   C1464     1.0  0.64220  0.85880  0.78860  1.0000 -0.1087284717
C   C1465     1.0  0.64670  0.87640  0.83600  1.0000 0.637843934
C   C1466     1.0  0.62800  0.85970  0.77250  1.0000 0.6861819945
C   C1467     1.0  0.68810  0.83890  0.80000  1.0000 0.6215376561
O   O1378     1.0  0.70010  0.83960  0.81300  1.0000 -0.6397820246
O   O1379     1.0  0.69170  0.83080  0.78500  1.0000 -0.6517776188
O   O1380     1.0  0.61390  0.86980  0.77400  1.0000 -0.6587408496
O   O1381     1.0  0.62970  0.84910  0.75860  1.0000 -0.6587408496
O   O1382     1.0  0.63000  0.88040  0.83980  1.0000 -0.609555034
O   O1383     1.0  0.65930  0.87940  0.84780  1.0000 -0.6346473784
C   C1468     1.0  0.76830  0.84640  0.79200  1.0000 0.0501834124
C   C1469     1.0  0.75530  0.83790  0.78000  1.0000 -0.0708048282
C   C1470     1.0  0.73760  0.82960  0.78790  1.0000 0.6800795649
O   O1384     1.0  0.79610  0.84770  0.81740  1.0000 -0.6517776188
O   O1385     1.0  0.73440  0.83120  0.80480  1.0000 -0.6162038559
O   O1386     1.0  0.72490  0.82280  0.77700  1.0000 -0.6782680781
Ti  Ti163     1.0  0.70066  0.80791  0.77389  1.0000 2.0212494802
O   O1387     1.0  0.71460  0.78120  0.75920  1.0000 -0.6397820246
C   C1471     1.0  0.54100  0.88970  0.73300  1.0000 0.0286004543
C   C1472     1.0  0.53960  0.87010  0.73450  1.0000 -0.1004600406
C   C1473     1.0  0.55310  0.85960  0.74640  1.0000 0.6629974542
O   O1388     1.0  0.52230  0.92830  0.70600  1.0000 -0.6939314659
O   O1389     1.0  0.55620  0.84260  0.74320  1.0000 -0.5677502138
O   O1390     1.0  0.56260  0.86820  0.75860  1.0000 -0.6587408496
Co  Co82      1.0  0.58985  0.86764  0.76365  1.0000 1.9421053842
O   O1391     1.0  0.59900  0.87150  0.85010  1.0000 -0.6397820246
O   O1392     1.0  0.57350  0.82780  0.77770  1.0000 -0.5777560007
O   O1393     1.0  0.57630  0.85720  0.78560  1.0000 -0.6517776188
C   C1474     1.0  0.58060  0.84820  0.82430  1.0000 0.0210823154
C   C1475     1.0  0.57640  0.83470  0.81050  1.0000 -0.1004600406
C   C1476     1.0  0.57620  0.84020  0.79010  1.0000 0.653666533
O   O1394     1.0  0.81890  0.86370  0.84070  1.0000 -0.609555034
Ti  Ti164     1.0  0.58985  0.98635  0.88236  1.0000 1.1911382492
C   C1477     1.0  0.16010  0.35060  0.78600  1.0000 0.0614820425
C   C1478     1.0  0.13750  0.36620  0.80620  1.0000 0.0501834124
C   C1479     1.0  0.17290  0.34980  0.80110  1.0000 -0.1718156922
C   C1480     1.0  0.15040  0.36530  0.82110  1.0000 -0.189473289
C   C1481     1.0  0.16800  0.35720  0.81850  1.0000 0.0978843566
C   C1482     1.0  0.14220  0.35880  0.78860  1.0000 -0.1087284717
C   C1483     1.0  0.14670  0.37640  0.83600  1.0000 0.6285624754
C   C1484     1.0  0.12800  0.35970  0.77250  1.0000 0.6861819945
C   C1485     1.0  0.18810  0.33890  0.80000  1.0000 0.6215376561
O   O1395     1.0  0.20010  0.33960  0.81300  1.0000 -0.6397820246
O   O1396     1.0  0.19170  0.33080  0.78500  1.0000 -0.6517776188
O   O1397     1.0  0.11390  0.36980  0.77400  1.0000 -0.6587408496
O   O1398     1.0  0.12970  0.34910  0.75860  1.0000 -0.6587408496
O   O1399     1.0  0.13000  0.38040  0.83980  1.0000 -0.609555034
O   O1400     1.0  0.15930  0.37940  0.84780  1.0000 -0.6346473784
C   C1486     1.0  0.26830  0.34640  0.79200  1.0000 0.0501834124
C   C1487     1.0  0.25530  0.33790  0.78000  1.0000 -0.0708048282
C   C1488     1.0  0.23760  0.32960  0.78790  1.0000 0.6800795649
O   O1401     1.0  0.29610  0.34770  0.81740  1.0000 -0.6517776188
O   O1402     1.0  0.23440  0.33120  0.80480  1.0000 -0.6162038559
O   O1403     1.0  0.22490  0.32280  0.77700  1.0000 -0.6782680781
Ti  Ti165     1.0  0.20066  0.30791  0.77389  1.0000 2.0212494802
O   O1404     1.0  0.21460  0.28120  0.75920  1.0000 -0.6397820246
C   C1489     1.0  0.04100  0.38970  0.73300  1.0000 0.0286004543
C   C1490     1.0  0.03960  0.37010  0.73450  1.0000 -0.1004600406
C   C1491     1.0  0.05310  0.35960  0.74640  1.0000 0.6629974542
O   O1405     1.0  0.02230  0.42830  0.70600  1.0000 -0.6951936574
O   O1406     1.0  0.05620  0.34260  0.74320  1.0000 -0.5677502138
O   O1407     1.0  0.06260  0.36820  0.75860  1.0000 -0.6587408496
Co  Co83      1.0  0.08985  0.36764  0.76365  1.0000 1.9421053842
O   O1408     1.0  0.09900  0.37150  0.85010  1.0000 -0.6397820246
O   O1409     1.0  0.07350  0.32780  0.77770  1.0000 -0.5777560007
O   O1410     1.0  0.07630  0.35720  0.78560  1.0000 -0.6517776188
C   C1492     1.0  0.08060  0.34820  0.82430  1.0000 0.0210823154
C   C1493     1.0  0.07640  0.33470  0.81050  1.0000 -0.1004600406
C   C1494     1.0  0.07620  0.34020  0.79010  1.0000 0.653666533
O   O1411     1.0  0.31890  0.36370  0.84070  1.0000 -0.609555034
Ti  Ti166     1.0  0.08985  0.48635  0.88236  1.0000 1.1911382492
C   C1495     1.0  0.16010  0.85060  0.28600  1.0000 0.0614820425
C   C1496     1.0  0.13750  0.86620  0.30620  1.0000 0.0501834124
C   C1497     1.0  0.17290  0.84980  0.30110  1.0000 -0.1718156922
C   C1498     1.0  0.15040  0.86530  0.32110  1.0000 -0.189473289
C   C1499     1.0  0.16800  0.85720  0.31850  1.0000 0.0978843566
C   C1500     1.0  0.14220  0.85880  0.28860  1.0000 -0.1087284717
C   C1501     1.0  0.14670  0.87640  0.33600  1.0000 0.6285624754
C   C1502     1.0  0.12800  0.85970  0.27250  1.0000 0.6861819945
C   C1503     1.0  0.18810  0.83890  0.30000  1.0000 0.6215376561
O   O1412     1.0  0.20010  0.83960  0.31300  1.0000 -0.6397820246
O   O1413     1.0  0.19170  0.83080  0.28500  1.0000 -0.6517776188
O   O1414     1.0  0.11390  0.86980  0.27400  1.0000 -0.6587408496
O   O1415     1.0  0.12970  0.84910  0.25860  1.0000 -0.6587408496
O   O1416     1.0  0.13000  0.88040  0.33980  1.0000 -0.609555034
O   O1417     1.0  0.15930  0.87940  0.34780  1.0000 -0.6346473784
C   C1504     1.0  0.26830  0.84640  0.29200  1.0000 0.0501834124
C   C1505     1.0  0.25530  0.83790  0.28000  1.0000 -0.0708048282
C   C1506     1.0  0.23760  0.82960  0.28790  1.0000 0.6800795649
O   O1418     1.0  0.29610  0.84770  0.31740  1.0000 -0.6517776188
O   O1419     1.0  0.23440  0.83120  0.30480  1.0000 -0.6162038559
O   O1420     1.0  0.22490  0.82280  0.27700  1.0000 -0.6782680781
Ti  Ti167     1.0  0.20066  0.80791  0.27389  1.0000 2.0212494802
O   O1421     1.0  0.21460  0.78120  0.25920  1.0000 -0.6397820246
C   C1507     1.0  0.04100  0.88970  0.23300  1.0000 0.0286004543
C   C1508     1.0  0.03960  0.87010  0.23450  1.0000 -0.1004600406
C   C1509     1.0  0.05310  0.85960  0.24640  1.0000 0.6629974542
O   O1422     1.0  0.02230  0.92830  0.20600  1.0000 -0.6939314659
O   O1423     1.0  0.05620  0.84260  0.24320  1.0000 -0.5677502138
O   O1424     1.0  0.06260  0.86820  0.25860  1.0000 -0.6587408496
Co  Co84      1.0  0.08985  0.86764  0.26365  1.0000 1.9421053842
O   O1425     1.0  0.09900  0.87150  0.35010  1.0000 -0.6397820246
O   O1426     1.0  0.07350  0.82780  0.27770  1.0000 -0.5777560007
O   O1427     1.0  0.07630  0.85720  0.28560  1.0000 -0.6517776188
C   C1510     1.0  0.08060  0.84820  0.32430  1.0000 0.0210823154
C   C1511     1.0  0.07640  0.83470  0.31050  1.0000 -0.1004600406
C   C1512     1.0  0.07620  0.84020  0.29010  1.0000 0.653666533
O   O1428     1.0  0.31890  0.86370  0.34070  1.0000 -0.609555034
Ti  Ti168     1.0  0.08985  0.98635  0.38236  1.0000 1.1911382492
C   C1513     1.0  0.16010  0.39940  0.96400  1.0000 0.0614820425
C   C1514     1.0  0.13750  0.38380  0.94380  1.0000 0.0501834124
C   C1515     1.0  0.17290  0.40020  0.94890  1.0000 -0.1718156922
C   C1516     1.0  0.15040  0.38470  0.92890  1.0000 -0.189473289
C   C1517     1.0  0.16800  0.39280  0.93150  1.0000 0.0978843566
C   C1518     1.0  0.14220  0.39120  0.96140  1.0000 -0.1087284717
C   C1519     1.0  0.14670  0.37360  0.91400  1.0000 0.6285624754
C   C1520     1.0  0.12800  0.39030  0.97750  1.0000 0.6861819945
C   C1521     1.0  0.18810  0.41110  0.95000  1.0000 0.6215376561
O   O1429     1.0  0.20010  0.41040  0.93700  1.0000 -0.6397820246
O   O1430     1.0  0.19170  0.41920  0.96500  1.0000 -0.6517776188
O   O1431     1.0  0.11390  0.38020  0.97600  1.0000 -0.6587408496
O   O1432     1.0  0.12970  0.40090  0.99140  1.0000 -0.6587408496
O   O1433     1.0  0.13000  0.36960  0.91020  1.0000 -0.609555034
O   O1434     1.0  0.15930  0.37060  0.90220  1.0000 -0.6346473784
C   C1522     1.0  0.26830  0.40360  0.95800  1.0000 0.0501834124
C   C1523     1.0  0.25530  0.41210  0.97000  1.0000 -0.0708048282
C   C1524     1.0  0.23760  0.42040  0.96210  1.0000 0.6800795649
O   O1435     1.0  0.29610  0.40230  0.93260  1.0000 -0.5303997674
O   O1436     1.0  0.23440  0.41880  0.94520  1.0000 -0.609555034
O   O1437     1.0  0.22490  0.42720  0.97300  1.0000 -0.6782680781
Ti  Ti169     1.0  0.20066  0.44209  0.97611  1.0000 2.0212494802
O   O1438     1.0  0.21460  0.46880  0.99080  1.0000 -0.6397820246
C   C1525     1.0  0.04100  0.36030  0.01700  1.0000 0.0286004543
C   C1526     1.0  0.03960  0.37990  0.01550  1.0000 -0.1004600406
C   C1527     1.0  0.05310  0.39040  0.00360  1.0000 0.6629974542
O   O1439     1.0  0.02230  0.32170  0.04400  1.0000 -0.6951936574
O   O1440     1.0  0.05620  0.40740  0.00680  1.0000 -0.5677502138
O   O1441     1.0  0.06260  0.38180  0.99140  1.0000 -0.6587408496
Co  Co85      1.0  0.08985  0.38236  0.98635  1.0000 1.9421053842
O   O1442     1.0  0.09900  0.37850  0.89990  1.0000 -0.6397820246
O   O1443     1.0  0.07350  0.42220  0.97230  1.0000 -0.5777560007
O   O1444     1.0  0.07630  0.39280  0.96440  1.0000 -0.6517776188
C   C1528     1.0  0.08060  0.40180  0.92570  1.0000 0.0210823154
C   C1529     1.0  0.07640  0.41530  0.93950  1.0000 -0.1004600406
C   C1530     1.0  0.07620  0.40980  0.95990  1.0000 0.653666533
O   O1445     1.0  0.31890  0.38630  0.90930  1.0000 -0.5106411624
Ti  Ti170     1.0  0.08985  0.26365  0.86764  1.0000 1.1911382492
C   C1531     1.0  0.16010  0.89940  0.46400  1.0000 0.0614820425
C   C1532     1.0  0.13750  0.88380  0.44380  1.0000 0.0501834124
C   C1533     1.0  0.17290  0.90020  0.44890  1.0000 -0.1718156922
C   C1534     1.0  0.15040  0.88470  0.42890  1.0000 -0.189473289
C   C1535     1.0  0.16800  0.89280  0.43150  1.0000 0.0978843566
C   C1536     1.0  0.14220  0.89120  0.46140  1.0000 -0.1087284717
C   C1537     1.0  0.14670  0.87360  0.41400  1.0000 0.637843934
C   C1538     1.0  0.12800  0.89030  0.47750  1.0000 0.6861819945
C   C1539     1.0  0.18810  0.91110  0.45000  1.0000 0.6215376561
O   O1446     1.0  0.20010  0.91040  0.43700  1.0000 -0.6397820246
O   O1447     1.0  0.19170  0.91920  0.46500  1.0000 -0.6517776188
O   O1448     1.0  0.11390  0.88020  0.47600  1.0000 -0.6587408496
O   O1449     1.0  0.12970  0.90090  0.49140  1.0000 -0.6587408496
O   O1450     1.0  0.13000  0.86960  0.41020  1.0000 -0.609555034
O   O1451     1.0  0.15930  0.87060  0.40220  1.0000 -0.6346473784
C   C1540     1.0  0.26830  0.90360  0.45800  1.0000 0.0501834124
C   C1541     1.0  0.25530  0.91210  0.47000  1.0000 -0.0708048282
C   C1542     1.0  0.23760  0.92040  0.46210  1.0000 0.6800795649
O   O1452     1.0  0.29610  0.90230  0.43260  1.0000 -0.5303997674
O   O1453     1.0  0.23440  0.91880  0.44520  1.0000 -0.609555034
O   O1454     1.0  0.22490  0.92720  0.47300  1.0000 -0.6782680781
Ti  Ti171     1.0  0.20066  0.94209  0.47611  1.0000 2.0212494802
O   O1455     1.0  0.21460  0.96880  0.49080  1.0000 -0.6397820246
C   C1543     1.0  0.04100  0.86030  0.51700  1.0000 0.0286004543
C   C1544     1.0  0.03960  0.87990  0.51550  1.0000 -0.1004600406
C   C1545     1.0  0.05310  0.89040  0.50360  1.0000 0.6629974542
O   O1456     1.0  0.02230  0.82170  0.54400  1.0000 -0.6939314659
O   O1457     1.0  0.05620  0.90740  0.50680  1.0000 -0.5677502138
O   O1458     1.0  0.06260  0.88180  0.49140  1.0000 -0.6587408496
Co  Co86      1.0  0.08985  0.88236  0.48635  1.0000 1.9421053842
O   O1459     1.0  0.09900  0.87850  0.39990  1.0000 -0.6397820246
O   O1460     1.0  0.07350  0.92220  0.47230  1.0000 -0.5777560007
O   O1461     1.0  0.07630  0.89280  0.46440  1.0000 -0.6517776188
C   C1546     1.0  0.08060  0.90180  0.42570  1.0000 0.0210823154
C   C1547     1.0  0.07640  0.91530  0.43950  1.0000 -0.1004600406
C   C1548     1.0  0.07620  0.90980  0.45990  1.0000 0.6629974542
O   O1462     1.0  0.31890  0.88630  0.40930  1.0000 -0.521012765
Ti  Ti172     1.0  0.08985  0.76365  0.36764  1.0000 1.1911382492
C   C1549     1.0  0.66010  0.39940  0.46400  1.0000 0.0614820425
C   C1550     1.0  0.63750  0.38380  0.44380  1.0000 0.0501834124
C   C1551     1.0  0.67290  0.40020  0.44890  1.0000 -0.1718156922
C   C1552     1.0  0.65040  0.38470  0.42890  1.0000 -0.189473289
C   C1553     1.0  0.66800  0.39280  0.43150  1.0000 0.0978843566
C   C1554     1.0  0.64220  0.39120  0.46140  1.0000 -0.1087284717
C   C1555     1.0  0.64670  0.37360  0.41400  1.0000 0.637843934
C   C1556     1.0  0.62800  0.39030  0.47750  1.0000 0.6861819945
C   C1557     1.0  0.68810  0.41110  0.45000  1.0000 0.6215376561
O   O1463     1.0  0.70010  0.41040  0.43700  1.0000 -0.6397820246
O   O1464     1.0  0.69170  0.41920  0.46500  1.0000 -0.6517776188
O   O1465     1.0  0.61390  0.38020  0.47600  1.0000 -0.6587408496
O   O1466     1.0  0.62970  0.40090  0.49140  1.0000 -0.6587408496
O   O1467     1.0  0.63000  0.36960  0.41020  1.0000 -0.609555034
O   O1468     1.0  0.65930  0.37060  0.40220  1.0000 -0.6397820246
C   C1558     1.0  0.76830  0.40360  0.45800  1.0000 0.0501834124
C   C1559     1.0  0.75530  0.41210  0.47000  1.0000 -0.0708048282
C   C1560     1.0  0.73760  0.42040  0.46210  1.0000 0.6800795649
O   O1469     1.0  0.79610  0.40230  0.43260  1.0000 -0.5303997674
O   O1470     1.0  0.73440  0.41880  0.44520  1.0000 -0.609555034
O   O1471     1.0  0.72490  0.42720  0.47300  1.0000 -0.6782680781
Ti  Ti173     1.0  0.70066  0.44209  0.47611  1.0000 2.0212494802
O   O1472     1.0  0.71460  0.46880  0.49080  1.0000 -0.6397820246
C   C1561     1.0  0.54100  0.36030  0.51700  1.0000 0.0286004543
C   C1562     1.0  0.53960  0.37990  0.51550  1.0000 -0.1004600406
C   C1563     1.0  0.55310  0.39040  0.50360  1.0000 0.6629974542
O   O1473     1.0  0.52230  0.32170  0.54400  1.0000 -0.6951936574
O   O1474     1.0  0.55620  0.40740  0.50680  1.0000 -0.5677502138
O   O1475     1.0  0.56260  0.38180  0.49140  1.0000 -0.6587408496
Co  Co87      1.0  0.58985  0.38236  0.48635  1.0000 1.9421053842
O   O1476     1.0  0.59900  0.37850  0.39990  1.0000 -0.6397820246
O   O1477     1.0  0.57350  0.42220  0.47230  1.0000 -0.5856416578
O   O1478     1.0  0.57630  0.39280  0.46440  1.0000 -0.6517776188
C   C1564     1.0  0.58060  0.40180  0.42570  1.0000 0.0210823154
C   C1565     1.0  0.57640  0.41530  0.43950  1.0000 -0.1004600406
C   C1566     1.0  0.57620  0.40980  0.45990  1.0000 0.653666533
O   O1479     1.0  0.81890  0.38630  0.40930  1.0000 -0.5106411624
Ti  Ti174     1.0  0.58985  0.26365  0.36764  1.0000 1.1911382492
C   C1567     1.0  0.66010  0.89940  0.96400  1.0000 0.0614820425
C   C1568     1.0  0.63750  0.88380  0.94380  1.0000 0.0501834124
C   C1569     1.0  0.67290  0.90020  0.94890  1.0000 -0.1718156922
C   C1570     1.0  0.65040  0.88470  0.92890  1.0000 -0.189473289
C   C1571     1.0  0.66800  0.89280  0.93150  1.0000 0.0978843566
C   C1572     1.0  0.64220  0.89120  0.96140  1.0000 -0.1087284717
C   C1573     1.0  0.64670  0.87360  0.91400  1.0000 0.637843934
C   C1574     1.0  0.62800  0.89030  0.97750  1.0000 0.6861819945
C   C1575     1.0  0.68810  0.91110  0.95000  1.0000 0.6215376561
O   O1480     1.0  0.70010  0.91040  0.93700  1.0000 -0.6397820246
O   O1481     1.0  0.69170  0.91920  0.96500  1.0000 -0.6517776188
O   O1482     1.0  0.61390  0.88020  0.97600  1.0000 -0.6587408496
O   O1483     1.0  0.62970  0.90090  0.99140  1.0000 -0.6587408496
O   O1484     1.0  0.63000  0.86960  0.91020  1.0000 -0.609555034
O   O1485     1.0  0.65930  0.87060  0.90220  1.0000 -0.6346473784
C   C1576     1.0  0.76830  0.90360  0.95800  1.0000 0.0614820425
C   C1577     1.0  0.75530  0.91210  0.97000  1.0000 -0.0708048282
C   C1578     1.0  0.73760  0.92040  0.96210  1.0000 0.6800795649
O   O1486     1.0  0.79610  0.90230  0.93260  1.0000 -0.5303997674
O   O1487     1.0  0.73440  0.91880  0.94520  1.0000 -0.609555034
O   O1488     1.0  0.72490  0.92720  0.97300  1.0000 -0.6782680781
Ti  Ti175     1.0  0.70066  0.94209  0.97611  1.0000 2.0212494802
O   O1489     1.0  0.71460  0.96880  0.99080  1.0000 -0.6397820246
C   C1579     1.0  0.54100  0.86030  0.01700  1.0000 0.0286004543
C   C1580     1.0  0.53960  0.87990  0.01550  1.0000 -0.1004600406
C   C1581     1.0  0.55310  0.89040  0.00360  1.0000 0.6629974542
O   O1490     1.0  0.52230  0.82170  0.04400  1.0000 -0.6939314659
O   O1491     1.0  0.55620  0.90740  0.00680  1.0000 -0.5677502138
O   O1492     1.0  0.56260  0.88180  0.99140  1.0000 -0.6587408496
Co  Co88      1.0  0.58985  0.88236  0.98635  1.0000 1.9421053842
O   O1493     1.0  0.59900  0.87850  0.89990  1.0000 -0.6397820246
O   O1494     1.0  0.57350  0.92220  0.97230  1.0000 -0.5777560007
O   O1495     1.0  0.57630  0.89280  0.96440  1.0000 -0.6517776188
C   C1582     1.0  0.58060  0.90180  0.92570  1.0000 0.0210823154
C   C1583     1.0  0.57640  0.91530  0.93950  1.0000 -0.1004600406
C   C1584     1.0  0.57620  0.90980  0.95990  1.0000 0.653666533
O   O1496     1.0  0.81890  0.88630  0.90930  1.0000 -0.5106411624
Ti  Ti176     1.0  0.58985  0.76365  0.86764  1.0000 1.1911382492
C   C1585     1.0  0.58990  0.85060  0.46400  1.0000 0.0614820425
C   C1586     1.0  0.61250  0.86620  0.44380  1.0000 0.0501834124
C   C1587     1.0  0.57710  0.84980  0.44890  1.0000 -0.1718156922
C   C1588     1.0  0.59960  0.86530  0.42890  1.0000 -0.189473289
C   C1589     1.0  0.58200  0.85720  0.43150  1.0000 0.0978843566
C   C1590     1.0  0.60780  0.85880  0.46140  1.0000 -0.1087284717
C   C1591     1.0  0.60330  0.87640  0.41400  1.0000 0.637843934
C   C1592     1.0  0.62200  0.85970  0.47750  1.0000 0.6861819945
C   C1593     1.0  0.56190  0.83890  0.45000  1.0000 0.6215376561
O   O1497     1.0  0.54990  0.83960  0.43700  1.0000 -0.6397820246
O   O1498     1.0  0.55830  0.83080  0.46500  1.0000 -0.6517776188
O   O1499     1.0  0.63610  0.86980  0.47600  1.0000 -0.6587408496
O   O1500     1.0  0.62030  0.84910  0.49140  1.0000 -0.6587408496
O   O1501     1.0  0.62000  0.88040  0.41020  1.0000 -0.609555034
O   O1502     1.0  0.59070  0.87940  0.40220  1.0000 -0.6346473784
C   C1594     1.0  0.48170  0.84640  0.45800  1.0000 0.0614820425
C   C1595     1.0  0.49470  0.83790  0.47000  1.0000 -0.0708048282
C   C1596     1.0  0.51240  0.82960  0.46210  1.0000 0.6800795649
O   O1503     1.0  0.45390  0.84770  0.43260  1.0000 -0.6517776188
O   O1504     1.0  0.51560  0.83120  0.44520  1.0000 -0.6162038559
O   O1505     1.0  0.52510  0.82280  0.47300  1.0000 -0.6782680781
Ti  Ti177     1.0  0.54934  0.80791  0.47611  1.0000 2.0212494802
O   O1506     1.0  0.53540  0.78120  0.49080  1.0000 -0.6397820246
C   C1597     1.0  0.70900  0.88970  0.51700  1.0000 0.0286004543
C   C1598     1.0  0.71040  0.87010  0.51550  1.0000 -0.1004600406
C   C1599     1.0  0.69690  0.85960  0.50360  1.0000 0.6629974542
O   O1507     1.0  0.72770  0.92830  0.54400  1.0000 -0.6939314659
O   O1508     1.0  0.69380  0.84260  0.50680  1.0000 -0.5677502138
O   O1509     1.0  0.68740  0.86820  0.49140  1.0000 -0.6587408496
Co  Co89      1.0  0.66015  0.86764  0.48635  1.0000 1.9421053842
O   O1510     1.0  0.65100  0.87150  0.39990  1.0000 -0.6397820246
O   O1511     1.0  0.67650  0.82780  0.47230  1.0000 -0.5856416578
O   O1512     1.0  0.67370  0.85720  0.46440  1.0000 -0.6517776188
C   C1600     1.0  0.66940  0.84820  0.42570  1.0000 0.0210823154
C   C1601     1.0  0.67360  0.83470  0.43950  1.0000 -0.1004600406
C   C1602     1.0  0.67380  0.84020  0.45990  1.0000 0.653666533
O   O1513     1.0  0.43110  0.86370  0.40930  1.0000 -0.6007274885
Ti  Ti178     1.0  0.66015  0.98635  0.36764  1.0000 1.1911382492
C   C1603     1.0  0.58990  0.35060  0.96400  1.0000 0.0614820425
C   C1604     1.0  0.61250  0.36620  0.94380  1.0000 0.0501834124
C   C1605     1.0  0.57710  0.34980  0.94890  1.0000 -0.1718156922
C   C1606     1.0  0.59960  0.36530  0.92890  1.0000 -0.189473289
C   C1607     1.0  0.58200  0.35720  0.93150  1.0000 0.0978843566
C   C1608     1.0  0.60780  0.35880  0.96140  1.0000 -0.1087284717
C   C1609     1.0  0.60330  0.37640  0.91400  1.0000 0.637843934
C   C1610     1.0  0.62200  0.35970  0.97750  1.0000 0.6861819945
C   C1611     1.0  0.56190  0.33890  0.95000  1.0000 0.6215376561
O   O1514     1.0  0.54990  0.33960  0.93700  1.0000 -0.6397820246
O   O1515     1.0  0.55830  0.33080  0.96500  1.0000 -0.6517776188
O   O1516     1.0  0.63610  0.36980  0.97600  1.0000 -0.6587408496
O   O1517     1.0  0.62030  0.34910  0.99140  1.0000 -0.6587408496
O   O1518     1.0  0.62000  0.38040  0.91020  1.0000 -0.609555034
O   O1519     1.0  0.59070  0.37940  0.90220  1.0000 -0.6346473784
C   C1612     1.0  0.48170  0.34640  0.95800  1.0000 0.0614820425
C   C1613     1.0  0.49470  0.33790  0.97000  1.0000 -0.0708048282
C   C1614     1.0  0.51240  0.32960  0.96210  1.0000 0.6800795649
O   O1520     1.0  0.45390  0.34770  0.93260  1.0000 -0.6517776188
O   O1521     1.0  0.51560  0.33120  0.94520  1.0000 -0.6162038559
O   O1522     1.0  0.52510  0.32280  0.97300  1.0000 -0.6782680781
Ti  Ti179     1.0  0.54934  0.30791  0.97611  1.0000 2.0212494802
O   O1523     1.0  0.53540  0.28120  0.99080  1.0000 -0.6397820246
C   C1615     1.0  0.70900  0.38970  0.01700  1.0000 0.0286004543
C   C1616     1.0  0.71040  0.37010  0.01550  1.0000 -0.1004600406
C   C1617     1.0  0.69690  0.35960  0.00360  1.0000 0.6629974542
O   O1524     1.0  0.72770  0.42830  0.04400  1.0000 -0.6939314659
O   O1525     1.0  0.69380  0.34260  0.00680  1.0000 -0.5677502138
O   O1526     1.0  0.68740  0.36820  0.99140  1.0000 -0.6587408496
Co  Co90      1.0  0.66015  0.36764  0.98635  1.0000 1.9421053842
O   O1527     1.0  0.65100  0.37150  0.89990  1.0000 -0.6397820246
O   O1528     1.0  0.67650  0.32780  0.97230  1.0000 -0.5856416578
O   O1529     1.0  0.67370  0.35720  0.96440  1.0000 -0.6517776188
C   C1618     1.0  0.66940  0.34820  0.92570  1.0000 0.0210823154
C   C1619     1.0  0.67360  0.33470  0.93950  1.0000 -0.1004600406
C   C1620     1.0  0.67380  0.34020  0.95990  1.0000 0.653666533
O   O1530     1.0  0.43110  0.36370  0.90930  1.0000 -0.6007274885
Ti  Ti180     1.0  0.66015  0.48635  0.86764  1.0000 1.1911382492
C   C1621     1.0  0.08990  0.85060  0.96400  1.0000 0.0614820425
C   C1622     1.0  0.11250  0.86620  0.94380  1.0000 0.0501834124
C   C1623     1.0  0.07710  0.84980  0.94890  1.0000 -0.1718156922
C   C1624     1.0  0.09960  0.86530  0.92890  1.0000 -0.189473289
C   C1625     1.0  0.08200  0.85720  0.93150  1.0000 0.0978843566
C   C1626     1.0  0.10780  0.85880  0.96140  1.0000 -0.1087284717
C   C1627     1.0  0.10330  0.87640  0.91400  1.0000 0.6285624754
C   C1628     1.0  0.12200  0.85970  0.97750  1.0000 0.6861819945
C   C1629     1.0  0.06190  0.83890  0.95000  1.0000 0.6215376561
O   O1531     1.0  0.04990  0.83960  0.93700  1.0000 -0.6397820246
O   O1532     1.0  0.05830  0.83080  0.96500  1.0000 -0.6517776188
O   O1533     1.0  0.13610  0.86980  0.97600  1.0000 -0.6587408496
O   O1534     1.0  0.12030  0.84910  0.99140  1.0000 -0.6587408496
O   O1535     1.0  0.12000  0.88040  0.91020  1.0000 -0.609555034
O   O1536     1.0  0.09070  0.87940  0.90220  1.0000 -0.6346473784
C   C1630     1.0  0.98170  0.84640  0.95800  1.0000 0.0614820425
C   C1631     1.0  0.99470  0.83790  0.97000  1.0000 -0.0708048282
C   C1632     1.0  0.01240  0.82960  0.96210  1.0000 0.6800795649
O   O1537     1.0  0.95390  0.84770  0.93260  1.0000 -0.5303997674
O   O1538     1.0  0.01560  0.83120  0.94520  1.0000 -0.609555034
O   O1539     1.0  0.02510  0.82280  0.97300  1.0000 -0.6782680781
Ti  Ti181     1.0  0.04934  0.80791  0.97611  1.0000 2.0212494802
O   O1540     1.0  0.03540  0.78120  0.99080  1.0000 -0.6397820246
C   C1633     1.0  0.20900  0.88970  0.01700  1.0000 0.0286004543
C   C1634     1.0  0.21040  0.87010  0.01550  1.0000 -0.1004600406
C   C1635     1.0  0.19690  0.85960  0.00360  1.0000 0.6629974542
O   O1541     1.0  0.22770  0.92830  0.04400  1.0000 -0.6939314659
O   O1542     1.0  0.19380  0.84260  0.00680  1.0000 -0.5677502138
O   O1543     1.0  0.18740  0.86820  0.99140  1.0000 -0.6587408496
Co  Co91      1.0  0.16015  0.86764  0.98635  1.0000 1.9421053842
O   O1544     1.0  0.15100  0.87150  0.89990  1.0000 -0.6397820246
O   O1545     1.0  0.17650  0.82780  0.97230  1.0000 -0.5777560007
O   O1546     1.0  0.17370  0.85720  0.96440  1.0000 -0.6517776188
C   C1636     1.0  0.16940  0.84820  0.92570  1.0000 0.0210823154
C   C1637     1.0  0.17360  0.83470  0.93950  1.0000 -0.1004600406
C   C1638     1.0  0.17380  0.84020  0.95990  1.0000 0.653666533
O   O1547     1.0  0.93110  0.86370  0.90930  1.0000 -0.521012765
Ti  Ti182     1.0  0.16015  0.98635  0.86764  1.0000 1.1911382492
C   C1639     1.0  0.08990  0.35060  0.46400  1.0000 0.0614820425
C   C1640     1.0  0.11250  0.36620  0.44380  1.0000 0.0501834124
C   C1641     1.0  0.07710  0.34980  0.44890  1.0000 -0.1718156922
C   C1642     1.0  0.09960  0.36530  0.42890  1.0000 -0.189473289
C   C1643     1.0  0.08200  0.35720  0.43150  1.0000 0.0978843566
C   C1644     1.0  0.10780  0.35880  0.46140  1.0000 -0.1087284717
C   C1645     1.0  0.10330  0.37640  0.41400  1.0000 0.6285624754
C   C1646     1.0  0.12200  0.35970  0.47750  1.0000 0.6861819945
C   C1647     1.0  0.06190  0.33890  0.45000  1.0000 0.6215376561
O   O1548     1.0  0.04990  0.33960  0.43700  1.0000 -0.6397820246
O   O1549     1.0  0.05830  0.33080  0.46500  1.0000 -0.6517776188
O   O1550     1.0  0.13610  0.36980  0.47600  1.0000 -0.6587408496
O   O1551     1.0  0.12030  0.34910  0.49140  1.0000 -0.6587408496
O   O1552     1.0  0.12000  0.38040  0.41020  1.0000 -0.609555034
O   O1553     1.0  0.09070  0.37940  0.40220  1.0000 -0.6397820246
C   C1648     1.0  0.98170  0.34640  0.45800  1.0000 0.0614820425
C   C1649     1.0  0.99470  0.33790  0.47000  1.0000 -0.0708048282
C   C1650     1.0  0.01240  0.32960  0.46210  1.0000 0.6800795649
O   O1554     1.0  0.95390  0.34770  0.43260  1.0000 -0.5303997674
O   O1555     1.0  0.01560  0.33120  0.44520  1.0000 -0.609555034
O   O1556     1.0  0.02510  0.32280  0.47300  1.0000 -0.6782680781
Ti  Ti183     1.0  0.04934  0.30791  0.47611  1.0000 2.0212494802
O   O1557     1.0  0.03540  0.28120  0.49080  1.0000 -0.6397820246
C   C1651     1.0  0.20900  0.38970  0.51700  1.0000 0.0286004543
C   C1652     1.0  0.21040  0.37010  0.51550  1.0000 -0.1004600406
C   C1653     1.0  0.19690  0.35960  0.50360  1.0000 0.6629974542
O   O1558     1.0  0.22770  0.42830  0.54400  1.0000 -0.6951936574
O   O1559     1.0  0.19380  0.34260  0.50680  1.0000 -0.5677502138
O   O1560     1.0  0.18740  0.36820  0.49140  1.0000 -0.6587408496
Co  Co92      1.0  0.16015  0.36764  0.48635  1.0000 1.9421053842
O   O1561     1.0  0.15100  0.37150  0.39990  1.0000 -0.6397820246
O   O1562     1.0  0.17650  0.32780  0.47230  1.0000 -0.5856416578
O   O1563     1.0  0.17370  0.35720  0.46440  1.0000 -0.6517776188
C   C1654     1.0  0.16940  0.34820  0.42570  1.0000 0.0210823154
C   C1655     1.0  0.17360  0.33470  0.43950  1.0000 -0.1004600406
C   C1656     1.0  0.17380  0.34020  0.45990  1.0000 0.653666533
O   O1564     1.0  0.93110  0.36370  0.40930  1.0000 -0.5106411624
Ti  Ti184     1.0  0.16015  0.48635  0.36764  1.0000 1.1911382492
C   C1657     1.0  0.08990  0.89940  0.78600  1.0000 0.0614820425
C   C1658     1.0  0.11250  0.88380  0.80620  1.0000 0.0501834124
C   C1659     1.0  0.07710  0.90020  0.80110  1.0000 -0.1718156922
C   C1660     1.0  0.09960  0.88470  0.82110  1.0000 -0.189473289
C   C1661     1.0  0.08200  0.89280  0.81850  1.0000 0.0978843566
C   C1662     1.0  0.10780  0.89120  0.78860  1.0000 -0.1087284717
C   C1663     1.0  0.10330  0.87360  0.83600  1.0000 0.6285624754
C   C1664     1.0  0.12200  0.89030  0.77250  1.0000 0.6861819945
C   C1665     1.0  0.06190  0.91110  0.80000  1.0000 0.6215376561
O   O1565     1.0  0.04990  0.91040  0.81300  1.0000 -0.6397820246
O   O1566     1.0  0.05830  0.91920  0.78500  1.0000 -0.6517776188
O   O1567     1.0  0.13610  0.88020  0.77400  1.0000 -0.6587408496
O   O1568     1.0  0.12030  0.90090  0.75860  1.0000 -0.6587408496
O   O1569     1.0  0.12000  0.86960  0.83980  1.0000 -0.609555034
O   O1570     1.0  0.09070  0.87060  0.84780  1.0000 -0.6346473784
C   C1666     1.0  0.98170  0.90360  0.79200  1.0000 0.0614820425
C   C1667     1.0  0.99470  0.91210  0.78000  1.0000 -0.0708048282
C   C1668     1.0  0.01240  0.92040  0.78790  1.0000 0.6800795649
O   O1571     1.0  0.95390  0.90230  0.81740  1.0000 -0.6517776188
O   O1572     1.0  0.01560  0.91880  0.80480  1.0000 -0.609555034
O   O1573     1.0  0.02510  0.92720  0.77700  1.0000 -0.6782680781
Ti  Ti185     1.0  0.04934  0.94209  0.77389  1.0000 2.0212494802
O   O1574     1.0  0.03540  0.96880  0.75920  1.0000 -0.6397820246
C   C1669     1.0  0.20900  0.86030  0.73300  1.0000 0.0286004543
C   C1670     1.0  0.21040  0.87990  0.73450  1.0000 -0.1004600406
C   C1671     1.0  0.19690  0.89040  0.74640  1.0000 0.6629974542
O   O1575     1.0  0.22770  0.82170  0.70600  1.0000 -0.6939314659
O   O1576     1.0  0.19380  0.90740  0.74320  1.0000 -0.5677502138
O   O1577     1.0  0.18740  0.88180  0.75860  1.0000 -0.6587408496
Co  Co93      1.0  0.16015  0.88236  0.76365  1.0000 1.9421053842
O   O1578     1.0  0.15100  0.87850  0.85010  1.0000 -0.6397820246
O   O1579     1.0  0.17650  0.92220  0.77770  1.0000 -0.5777560007
O   O1580     1.0  0.17370  0.89280  0.78560  1.0000 -0.6517776188
C   C1672     1.0  0.16940  0.90180  0.82430  1.0000 0.0210823154
C   C1673     1.0  0.17360  0.91530  0.81050  1.0000 -0.1004600406
C   C1674     1.0  0.17380  0.90980  0.79010  1.0000 0.653666533
O   O1581     1.0  0.93110  0.88630  0.84070  1.0000 -0.6007274885
Ti  Ti186     1.0  0.16015  0.76365  0.88236  1.0000 1.1911382492
C   C1675     1.0  0.08990  0.39940  0.28600  1.0000 0.0614820425
C   C1676     1.0  0.11250  0.38380  0.30620  1.0000 0.0501834124
C   C1677     1.0  0.07710  0.40020  0.30110  1.0000 -0.1718156922
C   C1678     1.0  0.09960  0.38470  0.32110  1.0000 -0.189473289
C   C1679     1.0  0.08200  0.39280  0.31850  1.0000 0.0978843566
C   C1680     1.0  0.10780  0.39120  0.28860  1.0000 -0.1087284717
C   C1681     1.0  0.10330  0.37360  0.33600  1.0000 0.6285624754
C   C1682     1.0  0.12200  0.39030  0.27250  1.0000 0.6861819945
C   C1683     1.0  0.06190  0.41110  0.30000  1.0000 0.6215376561
O   O1582     1.0  0.04990  0.41040  0.31300  1.0000 -0.6397820246
O   O1583     1.0  0.05830  0.41920  0.28500  1.0000 -0.6517776188
O   O1584     1.0  0.13610  0.38020  0.27400  1.0000 -0.6587408496
O   O1585     1.0  0.12030  0.40090  0.25860  1.0000 -0.6587408496
O   O1586     1.0  0.12000  0.36960  0.33980  1.0000 -0.609555034
O   O1587     1.0  0.09070  0.37060  0.34780  1.0000 -0.6397820246
C   C1684     1.0  0.98170  0.40360  0.29200  1.0000 0.0614820425
C   C1685     1.0  0.99470  0.41210  0.28000  1.0000 -0.0708048282
C   C1686     1.0  0.01240  0.42040  0.28790  1.0000 0.6800795649
O   O1588     1.0  0.95390  0.40230  0.31740  1.0000 -0.6517776188
O   O1589     1.0  0.01560  0.41880  0.30480  1.0000 -0.6162038559
O   O1590     1.0  0.02510  0.42720  0.27700  1.0000 -0.6782680781
Ti  Ti187     1.0  0.04934  0.44209  0.27389  1.0000 2.0212494802
O   O1591     1.0  0.03540  0.46880  0.25920  1.0000 -0.6397820246
C   C1687     1.0  0.20900  0.36030  0.23300  1.0000 0.0286004543
C   C1688     1.0  0.21040  0.37990  0.23450  1.0000 -0.1004600406
C   C1689     1.0  0.19690  0.39040  0.24640  1.0000 0.6629974542
O   O1592     1.0  0.22770  0.32170  0.20600  1.0000 -0.6951936574
O   O1593     1.0  0.19380  0.40740  0.24320  1.0000 -0.5677502138
O   O1594     1.0  0.18740  0.38180  0.25860  1.0000 -0.6587408496
Co  Co94      1.0  0.16015  0.38236  0.26365  1.0000 1.9421053842
O   O1595     1.0  0.15100  0.37850  0.35010  1.0000 -0.6397820246
O   O1596     1.0  0.17650  0.42220  0.27770  1.0000 -0.5856416578
O   O1597     1.0  0.17370  0.39280  0.28560  1.0000 -0.6517776188
C   C1690     1.0  0.16940  0.40180  0.32430  1.0000 0.0210823154
C   C1691     1.0  0.17360  0.41530  0.31050  1.0000 -0.1004600406
C   C1692     1.0  0.17380  0.40980  0.29010  1.0000 0.653666533
O   O1598     1.0  0.93110  0.38630  0.34070  1.0000 -0.6007274885
Ti  Ti188     1.0  0.16015  0.26365  0.38236  1.0000 1.1911382492
C   C1693     1.0  0.58990  0.89940  0.28600  1.0000 0.0614820425
C   C1694     1.0  0.61250  0.88380  0.30620  1.0000 0.0501834124
C   C1695     1.0  0.57710  0.90020  0.30110  1.0000 -0.1718156922
C   C1696     1.0  0.59960  0.88470  0.32110  1.0000 -0.189473289
C   C1697     1.0  0.58200  0.89280  0.31850  1.0000 0.0978843566
C   C1698     1.0  0.60780  0.89120  0.28860  1.0000 -0.1087284717
C   C1699     1.0  0.60330  0.87360  0.33600  1.0000 0.637843934
C   C1700     1.0  0.62200  0.89030  0.27250  1.0000 0.6861819945
C   C1701     1.0  0.56190  0.91110  0.30000  1.0000 0.6215376561
O   O1599     1.0  0.54990  0.91040  0.31300  1.0000 -0.6397820246
O   O1600     1.0  0.55830  0.91920  0.28500  1.0000 -0.6517776188
O   O1601     1.0  0.63610  0.88020  0.27400  1.0000 -0.6587408496
O   O1602     1.0  0.62030  0.90090  0.25860  1.0000 -0.6587408496
O   O1603     1.0  0.62000  0.86960  0.33980  1.0000 -0.609555034
O   O1604     1.0  0.59070  0.87060  0.34780  1.0000 -0.6346473784
C   C1702     1.0  0.48170  0.90360  0.29200  1.0000 0.0614820425
C   C1703     1.0  0.49470  0.91210  0.28000  1.0000 -0.0708048282
C   C1704     1.0  0.51240  0.92040  0.28790  1.0000 0.6800795649
O   O1605     1.0  0.45390  0.90230  0.31740  1.0000 -0.5303997674
O   O1606     1.0  0.51560  0.91880  0.30480  1.0000 -0.609555034
O   O1607     1.0  0.52510  0.92720  0.27700  1.0000 -0.6782680781
Ti  Ti189     1.0  0.54934  0.94209  0.27389  1.0000 2.0212494802
O   O1608     1.0  0.53540  0.96880  0.25920  1.0000 -0.6397820246
C   C1705     1.0  0.70900  0.86030  0.23300  1.0000 0.0286004543
C   C1706     1.0  0.71040  0.87990  0.23450  1.0000 -0.1004600406
C   C1707     1.0  0.69690  0.89040  0.24640  1.0000 0.6629974542
O   O1609     1.0  0.72770  0.82170  0.20600  1.0000 -0.6939314659
O   O1610     1.0  0.69380  0.90740  0.24320  1.0000 -0.5677502138
O   O1611     1.0  0.68740  0.88180  0.25860  1.0000 -0.6587408496
Co  Co95      1.0  0.66015  0.88236  0.26365  1.0000 1.9421053842
O   O1612     1.0  0.65100  0.87850  0.35010  1.0000 -0.6397820246
O   O1613     1.0  0.67650  0.92220  0.27770  1.0000 -0.5856416578
O   O1614     1.0  0.67370  0.89280  0.28560  1.0000 -0.6517776188
C   C1708     1.0  0.66940  0.90180  0.32430  1.0000 0.0210823154
C   C1709     1.0  0.67360  0.91530  0.31050  1.0000 -0.1004600406
C   C1710     1.0  0.67380  0.90980  0.29010  1.0000 0.653666533
O   O1615     1.0  0.43110  0.88630  0.34070  1.0000 -0.5037077391
Ti  Ti190     1.0  0.66015  0.76365  0.38236  1.0000 1.1911382492
C   C1711     1.0  0.58990  0.39940  0.78600  1.0000 0.0614820425
C   C1712     1.0  0.61250  0.38380  0.80620  1.0000 0.0501834124
C   C1713     1.0  0.57710  0.40020  0.80110  1.0000 -0.1718156922
C   C1714     1.0  0.59960  0.38470  0.82110  1.0000 -0.189473289
C   C1715     1.0  0.58200  0.39280  0.81850  1.0000 0.0978843566
C   C1716     1.0  0.60780  0.39120  0.78860  1.0000 -0.1087284717
C   C1717     1.0  0.60330  0.37360  0.83600  1.0000 0.637843934
C   C1718     1.0  0.62200  0.39030  0.77250  1.0000 0.6861819945
C   C1719     1.0  0.56190  0.41110  0.80000  1.0000 0.6215376561
O   O1616     1.0  0.54990  0.41040  0.81300  1.0000 -0.6397820246
O   O1617     1.0  0.55830  0.41920  0.78500  1.0000 -0.6517776188
O   O1618     1.0  0.63610  0.38020  0.77400  1.0000 -0.6587408496
O   O1619     1.0  0.62030  0.40090  0.75860  1.0000 -0.6587408496
O   O1620     1.0  0.62000  0.36960  0.83980  1.0000 -0.609555034
O   O1621     1.0  0.59070  0.37060  0.84780  1.0000 -0.6346473784
C   C1720     1.0  0.48170  0.40360  0.79200  1.0000 0.0614820425
C   C1721     1.0  0.49470  0.41210  0.78000  1.0000 -0.0708048282
C   C1722     1.0  0.51240  0.42040  0.78790  1.0000 0.6800795649
O   O1622     1.0  0.45390  0.40230  0.81740  1.0000 -0.5303997674
O   O1623     1.0  0.51560  0.41880  0.80480  1.0000 -0.609555034
O   O1624     1.0  0.52510  0.42720  0.77700  1.0000 -0.6782680781
Ti  Ti191     1.0  0.54934  0.44209  0.77389  1.0000 2.0212494802
O   O1625     1.0  0.53540  0.46880  0.75920  1.0000 -0.6397820246
C   C1723     1.0  0.70900  0.36030  0.73300  1.0000 0.0286004543
C   C1724     1.0  0.71040  0.37990  0.73450  1.0000 -0.1004600406
C   C1725     1.0  0.69690  0.39040  0.74640  1.0000 0.6629974542
O   O1626     1.0  0.72770  0.32170  0.70600  1.0000 -0.6939314659
O   O1627     1.0  0.69380  0.40740  0.74320  1.0000 -0.5677502138
O   O1628     1.0  0.68740  0.38180  0.75860  1.0000 -0.6587408496
Co  Co96      1.0  0.66015  0.38236  0.76365  1.0000 1.9421053842
O   O1629     1.0  0.65100  0.37850  0.85010  1.0000 -0.6397820246
O   O1630     1.0  0.67650  0.42220  0.77770  1.0000 -0.5856416578
O   O1631     1.0  0.67370  0.39280  0.78560  1.0000 -0.6517776188
C   C1726     1.0  0.66940  0.40180  0.82430  1.0000 0.0210823154
C   C1727     1.0  0.67360  0.41530  0.81050  1.0000 -0.1004600406
C   C1728     1.0  0.67380  0.40980  0.79010  1.0000 0.653666533
O   O1632     1.0  0.43110  0.38630  0.84070  1.0000 -0.5106411624
Ti  Ti192     1.0  0.66015  0.26365  0.88236  1.0000 1.1911382492
C   C1729     1.0  0.78600  0.89940  0.08990  1.0000 0.0760005572
C   C1730     1.0  0.80620  0.88380  0.11250  1.0000 0.0709581455
C   C1731     1.0  0.80110  0.90020  0.07710  1.0000 -0.1807206609
C   C1732     1.0  0.82110  0.88470  0.09960  1.0000 -0.189473289
C   C1733     1.0  0.81850  0.89280  0.08200  1.0000 0.0978843566
C   C1734     1.0  0.78860  0.89120  0.10780  1.0000 -0.1219500515
C   C1735     1.0  0.83600  0.87360  0.10330  1.0000 0.637843934
C   C1736     1.0  0.77250  0.89030  0.12200  1.0000 0.637843934
C   C1737     1.0  0.80000  0.91110  0.06190  1.0000 0.6285624754
O   O1633     1.0  0.81300  0.91040  0.04990  1.0000 -0.6397820246
O   O1634     1.0  0.78500  0.91920  0.05830  1.0000 -0.6517776188
O   O1635     1.0  0.77400  0.88020  0.13610  1.0000 -0.5677502138
O   O1636     1.0  0.75860  0.90090  0.12030  1.0000 -0.5777560007
O   O1637     1.0  0.83980  0.86960  0.12000  1.0000 -0.609555034
O   O1638     1.0  0.84780  0.87060  0.09070  1.0000 -0.6397820246
C   C1738     1.0  0.79200  0.90360  0.98170  1.0000 0.0614820425
C   C1739     1.0  0.78000  0.91210  0.99470  1.0000 -0.0708048282
C   C1740     1.0  0.78790  0.92040  0.01240  1.0000 0.6800795649
O   O1639     1.0  0.81740  0.90230  0.95390  1.0000 -0.5303997674
O   O1640     1.0  0.80480  0.91880  0.01560  1.0000 -0.609555034
O   O1641     1.0  0.77700  0.92720  0.02510  1.0000 -0.6782680781
Ti  Ti193     1.0  0.77389  0.94209  0.04934  1.0000 2.0212494802
O   O1642     1.0  0.75920  0.96880  0.03540  1.0000 -0.6397820246
C   C1741     1.0  0.73300  0.86030  0.20900  1.0000 0.0362362238
C   C1742     1.0  0.73450  0.87990  0.21040  1.0000 -0.1087284717
C   C1743     1.0  0.74640  0.89040  0.19690  1.0000 0.637843934
O   O1643     1.0  0.70600  0.82170  0.22770  1.0000 -0.6939314659
O   O1644     1.0  0.74320  0.90740  0.19380  1.0000 -0.5588135763
O   O1645     1.0  0.75860  0.88180  0.18740  1.0000 -0.5588135763
O   O1646     1.0  0.85010  0.87850  0.15100  1.0000 -0.6397820246
O   O1647     1.0  0.77770  0.92220  0.17650  1.0000 -0.5777560007
O   O1648     1.0  0.78560  0.89280  0.17370  1.0000 -0.5588135763
C   C1744     1.0  0.82430  0.90180  0.16940  1.0000 0.0286004543
C   C1745     1.0  0.81050  0.91530  0.17360  1.0000 -0.1004600406
C   C1746     1.0  0.79010  0.90980  0.17380  1.0000 0.637843934
O   O1649     1.0  0.84070  0.88630  0.93110  1.0000 -0.5106411624
C   C1747     1.0  0.78600  0.39940  0.58990  1.0000 0.0760005572
C   C1748     1.0  0.80620  0.38380  0.61250  1.0000 0.0709581455
C   C1749     1.0  0.80110  0.40020  0.57710  1.0000 -0.1807206609
C   C1750     1.0  0.82110  0.38470  0.59960  1.0000 -0.189473289
C   C1751     1.0  0.81850  0.39280  0.58200  1.0000 0.0978843566
C   C1752     1.0  0.78860  0.39120  0.60780  1.0000 -0.1219500515
C   C1753     1.0  0.83600  0.37360  0.60330  1.0000 0.637843934
C   C1754     1.0  0.77250  0.39030  0.62200  1.0000 0.637843934
C   C1755     1.0  0.80000  0.41110  0.56190  1.0000 0.6285624754
O   O1650     1.0  0.81300  0.41040  0.54990  1.0000 -0.6397820246
O   O1651     1.0  0.78500  0.41920  0.55830  1.0000 -0.6517776188
O   O1652     1.0  0.77400  0.38020  0.63610  1.0000 -0.5677502138
O   O1653     1.0  0.75860  0.40090  0.62030  1.0000 -0.5777560007
O   O1654     1.0  0.83980  0.36960  0.62000  1.0000 -0.609555034
O   O1655     1.0  0.84780  0.37060  0.59070  1.0000 -0.6397820246
C   C1756     1.0  0.79200  0.40360  0.48170  1.0000 0.0614820425
C   C1757     1.0  0.78000  0.41210  0.49470  1.0000 -0.0708048282
C   C1758     1.0  0.78790  0.42040  0.51240  1.0000 0.6800795649
O   O1656     1.0  0.81740  0.40230  0.45390  1.0000 -0.6517776188
O   O1657     1.0  0.80480  0.41880  0.51560  1.0000 -0.6162038559
O   O1658     1.0  0.77700  0.42720  0.52510  1.0000 -0.6782680781
Ti  Ti194     1.0  0.77389  0.44209  0.54934  1.0000 2.0212494802
O   O1659     1.0  0.75920  0.46880  0.53540  1.0000 -0.6397820246
C   C1759     1.0  0.73300  0.36030  0.70900  1.0000 0.0362362238
C   C1760     1.0  0.73450  0.37990  0.71040  1.0000 -0.1087284717
C   C1761     1.0  0.74640  0.39040  0.69690  1.0000 0.637843934
O   O1660     1.0  0.70600  0.32170  0.72770  1.0000 -0.6939314659
O   O1661     1.0  0.74320  0.40740  0.69380  1.0000 -0.5588135763
O   O1662     1.0  0.75860  0.38180  0.68740  1.0000 -0.5588135763
O   O1663     1.0  0.85010  0.37850  0.65100  1.0000 -0.6397820246
O   O1664     1.0  0.77770  0.42220  0.67650  1.0000 -0.5777560007
O   O1665     1.0  0.78560  0.39280  0.67370  1.0000 -0.5588135763
C   C1762     1.0  0.82430  0.40180  0.66940  1.0000 0.0286004543
C   C1763     1.0  0.81050  0.41530  0.67360  1.0000 -0.1004600406
C   C1764     1.0  0.79010  0.40980  0.67380  1.0000 0.637843934
O   O1666     1.0  0.84070  0.38630  0.43110  1.0000 -0.6007274885
C   C1765     1.0  0.28600  0.89940  0.58990  1.0000 0.0760005572
C   C1766     1.0  0.30620  0.88380  0.61250  1.0000 0.0709581455
C   C1767     1.0  0.30110  0.90020  0.57710  1.0000 -0.1807206609
C   C1768     1.0  0.32110  0.88470  0.59960  1.0000 -0.189473289
C   C1769     1.0  0.31850  0.89280  0.58200  1.0000 0.0978843566
C   C1770     1.0  0.28860  0.89120  0.60780  1.0000 -0.1219500515
C   C1771     1.0  0.33600  0.87360  0.60330  1.0000 0.637843934
C   C1772     1.0  0.27250  0.89030  0.62200  1.0000 0.637843934
C   C1773     1.0  0.30000  0.91110  0.56190  1.0000 0.6285624754
O   O1667     1.0  0.31300  0.91040  0.54990  1.0000 -0.6397820246
O   O1668     1.0  0.28500  0.91920  0.55830  1.0000 -0.6517776188
O   O1669     1.0  0.27400  0.88020  0.63610  1.0000 -0.5677502138
O   O1670     1.0  0.25860  0.90090  0.62030  1.0000 -0.5777560007
O   O1671     1.0  0.33980  0.86960  0.62000  1.0000 -0.609555034
O   O1672     1.0  0.34780  0.87060  0.59070  1.0000 -0.6397820246
C   C1774     1.0  0.29200  0.90360  0.48170  1.0000 0.0614820425
C   C1775     1.0  0.28000  0.91210  0.49470  1.0000 -0.0708048282
C   C1776     1.0  0.28790  0.92040  0.51240  1.0000 0.6800795649
O   O1673     1.0  0.31740  0.90230  0.45390  1.0000 -0.6517776188
O   O1674     1.0  0.30480  0.91880  0.51560  1.0000 -0.6162038559
O   O1675     1.0  0.27700  0.92720  0.52510  1.0000 -0.6782680781
Ti  Ti195     1.0  0.27389  0.94209  0.54934  1.0000 2.0212494802
O   O1676     1.0  0.25920  0.96880  0.53540  1.0000 -0.6397820246
C   C1777     1.0  0.23300  0.86030  0.70900  1.0000 0.0286004543
C   C1778     1.0  0.23450  0.87990  0.71040  1.0000 -0.1087284717
C   C1779     1.0  0.24640  0.89040  0.69690  1.0000 0.637843934
O   O1677     1.0  0.20600  0.82170  0.72770  1.0000 -0.6939314659
O   O1678     1.0  0.24320  0.90740  0.69380  1.0000 -0.5588135763
O   O1679     1.0  0.25860  0.88180  0.68740  1.0000 -0.5588135763
O   O1680     1.0  0.35010  0.87850  0.65100  1.0000 -0.6397820246
O   O1681     1.0  0.27770  0.92220  0.67650  1.0000 -0.5777560007
O   O1682     1.0  0.28560  0.89280  0.67370  1.0000 -0.5588135763
C   C1780     1.0  0.32430  0.90180  0.66940  1.0000 0.0286004543
C   C1781     1.0  0.31050  0.91530  0.67360  1.0000 -0.1004600406
C   C1782     1.0  0.29010  0.90980  0.67380  1.0000 0.637843934
O   O1683     1.0  0.34070  0.88630  0.43110  1.0000 -0.6007274885
C   C1783     1.0  0.28600  0.39940  0.08990  1.0000 0.0760005572
C   C1784     1.0  0.30620  0.38380  0.11250  1.0000 0.0709581455
C   C1785     1.0  0.30110  0.40020  0.07710  1.0000 -0.1807206609
C   C1786     1.0  0.32110  0.38470  0.09960  1.0000 -0.189473289
C   C1787     1.0  0.31850  0.39280  0.08200  1.0000 0.0978843566
C   C1788     1.0  0.28860  0.39120  0.10780  1.0000 -0.1219500515
C   C1789     1.0  0.33600  0.37360  0.10330  1.0000 0.637843934
C   C1790     1.0  0.27250  0.39030  0.12200  1.0000 0.637843934
C   C1791     1.0  0.30000  0.41110  0.06190  1.0000 0.6285624754
O   O1684     1.0  0.31300  0.41040  0.04990  1.0000 -0.6397820246
O   O1685     1.0  0.28500  0.41920  0.05830  1.0000 -0.6517776188
O   O1686     1.0  0.27400  0.38020  0.13610  1.0000 -0.5677502138
O   O1687     1.0  0.25860  0.40090  0.12030  1.0000 -0.5777560007
O   O1688     1.0  0.33980  0.36960  0.12000  1.0000 -0.609555034
O   O1689     1.0  0.34780  0.37060  0.09070  1.0000 -0.6397820246
C   C1792     1.0  0.29200  0.40360  0.98170  1.0000 0.0614820425
C   C1793     1.0  0.28000  0.41210  0.99470  1.0000 -0.0708048282
C   C1794     1.0  0.28790  0.42040  0.01240  1.0000 0.6800795649
O   O1690     1.0  0.31740  0.40230  0.95390  1.0000 -0.6517776188
O   O1691     1.0  0.30480  0.41880  0.01560  1.0000 -0.6162038559
O   O1692     1.0  0.27700  0.42720  0.02510  1.0000 -0.6782680781
Ti  Ti196     1.0  0.27389  0.44209  0.04934  1.0000 2.0212494802
O   O1693     1.0  0.25920  0.46880  0.03540  1.0000 -0.6397820246
C   C1795     1.0  0.23300  0.36030  0.20900  1.0000 0.0362362238
C   C1796     1.0  0.23450  0.37990  0.21040  1.0000 -0.1087284717
C   C1797     1.0  0.24640  0.39040  0.19690  1.0000 0.637843934
O   O1694     1.0  0.20600  0.32170  0.22770  1.0000 -0.6939314659
O   O1695     1.0  0.24320  0.40740  0.19380  1.0000 -0.5588135763
O   O1696     1.0  0.25860  0.38180  0.18740  1.0000 -0.5588135763
O   O1697     1.0  0.35010  0.37850  0.15100  1.0000 -0.6397820246
O   O1698     1.0  0.27770  0.42220  0.17650  1.0000 -0.5777560007
O   O1699     1.0  0.28560  0.39280  0.17370  1.0000 -0.5588135763
C   C1798     1.0  0.32430  0.40180  0.16940  1.0000 0.0286004543
C   C1799     1.0  0.31050  0.41530  0.17360  1.0000 -0.1004600406
C   C1800     1.0  0.29010  0.40980  0.17380  1.0000 0.637843934
O   O1700     1.0  0.34070  0.38630  0.93110  1.0000 -0.6007274885
C   C1801     1.0  0.46400  0.85060  0.58990  1.0000 0.0760005572
C   C1802     1.0  0.44380  0.86620  0.61250  1.0000 0.0709581455
C   C1803     1.0  0.44890  0.84980  0.57710  1.0000 -0.1807206609
C   C1804     1.0  0.42890  0.86530  0.59960  1.0000 -0.189473289
C   C1805     1.0  0.43150  0.85720  0.58200  1.0000 0.0978843566
C   C1806     1.0  0.46140  0.85880  0.60780  1.0000 -0.1219500515
C   C1807     1.0  0.41400  0.87640  0.60330  1.0000 0.637843934
C   C1808     1.0  0.47750  0.85970  0.62200  1.0000 0.637843934
C   C1809     1.0  0.45000  0.83890  0.56190  1.0000 0.6285624754
O   O1701     1.0  0.43700  0.83960  0.54990  1.0000 -0.6397820246
O   O1702     1.0  0.46500  0.83080  0.55830  1.0000 -0.6517776188
O   O1703     1.0  0.47600  0.86980  0.63610  1.0000 -0.5677502138
O   O1704     1.0  0.49140  0.84910  0.62030  1.0000 -0.5777560007
O   O1705     1.0  0.41020  0.88040  0.62000  1.0000 -0.609555034
O   O1706     1.0  0.40220  0.87940  0.59070  1.0000 -0.6397820246
C   C1810     1.0  0.45800  0.84640  0.48170  1.0000 0.0501834124
C   C1811     1.0  0.47000  0.83790  0.49470  1.0000 -0.0708048282
C   C1812     1.0  0.46210  0.82960  0.51240  1.0000 0.6800795649
O   O1707     1.0  0.43260  0.84770  0.45390  1.0000 -0.5303997674
O   O1708     1.0  0.44520  0.83120  0.51560  1.0000 -0.609555034
O   O1709     1.0  0.47300  0.82280  0.52510  1.0000 -0.6782680781
Ti  Ti197     1.0  0.47611  0.80791  0.54934  1.0000 2.0212494802
O   O1710     1.0  0.49080  0.78120  0.53540  1.0000 -0.6397820246
C   C1813     1.0  0.51700  0.88970  0.70900  1.0000 0.0362362238
C   C1814     1.0  0.51550  0.87010  0.71040  1.0000 -0.1087284717
C   C1815     1.0  0.50360  0.85960  0.69690  1.0000 0.637843934
O   O1711     1.0  0.54400  0.92830  0.72770  1.0000 -0.6939314659
O   O1712     1.0  0.50680  0.84260  0.69380  1.0000 -0.5588135763
O   O1713     1.0  0.49140  0.86820  0.68740  1.0000 -0.5588135763
O   O1714     1.0  0.39990  0.87150  0.65100  1.0000 -0.6397820246
O   O1715     1.0  0.47230  0.82780  0.67650  1.0000 -0.5777560007
O   O1716     1.0  0.46440  0.85720  0.67370  1.0000 -0.5588135763
C   C1816     1.0  0.42570  0.84820  0.66940  1.0000 0.0286004543
C   C1817     1.0  0.43950  0.83470  0.67360  1.0000 -0.1004600406
C   C1818     1.0  0.45990  0.84020  0.67380  1.0000 0.637843934
O   O1717     1.0  0.40930  0.86370  0.43110  1.0000 -0.5106411624
C   C1819     1.0  0.46400  0.35060  0.08990  1.0000 0.0760005572
C   C1820     1.0  0.44380  0.36620  0.11250  1.0000 0.0709581455
C   C1821     1.0  0.44890  0.34980  0.07710  1.0000 -0.1807206609
C   C1822     1.0  0.42890  0.36530  0.09960  1.0000 -0.189473289
C   C1823     1.0  0.43150  0.35720  0.08200  1.0000 0.0978843566
C   C1824     1.0  0.46140  0.35880  0.10780  1.0000 -0.1219500515
C   C1825     1.0  0.41400  0.37640  0.10330  1.0000 0.637843934
C   C1826     1.0  0.47750  0.35970  0.12200  1.0000 0.637843934
C   C1827     1.0  0.45000  0.33890  0.06190  1.0000 0.6285624754
O   O1718     1.0  0.43700  0.33960  0.04990  1.0000 -0.6397820246
O   O1719     1.0  0.46500  0.33080  0.05830  1.0000 -0.6517776188
O   O1720     1.0  0.47600  0.36980  0.13610  1.0000 -0.5677502138
O   O1721     1.0  0.49140  0.34910  0.12030  1.0000 -0.5777560007
O   O1722     1.0  0.41020  0.38040  0.12000  1.0000 -0.609555034
O   O1723     1.0  0.40220  0.37940  0.09070  1.0000 -0.6397820246
C   C1828     1.0  0.45800  0.34640  0.98170  1.0000 0.0501834124
C   C1829     1.0  0.47000  0.33790  0.99470  1.0000 -0.0708048282
C   C1830     1.0  0.46210  0.32960  0.01240  1.0000 0.6800795649
O   O1724     1.0  0.43260  0.34770  0.95390  1.0000 -0.5303997674
O   O1725     1.0  0.44520  0.33120  0.01560  1.0000 -0.609555034
O   O1726     1.0  0.47300  0.32280  0.02510  1.0000 -0.6782680781
Ti  Ti198     1.0  0.47611  0.30791  0.04934  1.0000 2.0212494802
O   O1727     1.0  0.49080  0.28120  0.03540  1.0000 -0.6397820246
C   C1831     1.0  0.51700  0.38970  0.20900  1.0000 0.0362362238
C   C1832     1.0  0.51550  0.37010  0.21040  1.0000 -0.1087284717
C   C1833     1.0  0.50360  0.35960  0.19690  1.0000 0.637843934
O   O1728     1.0  0.54400  0.42830  0.22770  1.0000 -0.6939314659
O   O1729     1.0  0.50680  0.34260  0.19380  1.0000 -0.5588135763
O   O1730     1.0  0.49140  0.36820  0.18740  1.0000 -0.5588135763
O   O1731     1.0  0.39990  0.37150  0.15100  1.0000 -0.6397820246
O   O1732     1.0  0.47230  0.32780  0.17650  1.0000 -0.5777560007
O   O1733     1.0  0.46440  0.35720  0.17370  1.0000 -0.5588135763
C   C1834     1.0  0.42570  0.34820  0.16940  1.0000 0.0286004543
C   C1835     1.0  0.43950  0.33470  0.17360  1.0000 -0.1004600406
C   C1836     1.0  0.45990  0.34020  0.17380  1.0000 0.637843934
O   O1734     1.0  0.40930  0.36370  0.93110  1.0000 -0.5106411624
C   C1837     1.0  0.96400  0.85060  0.08990  1.0000 0.0760005572
C   C1838     1.0  0.94380  0.86620  0.11250  1.0000 0.0709581455
C   C1839     1.0  0.94890  0.84980  0.07710  1.0000 -0.1807206609
C   C1840     1.0  0.92890  0.86530  0.09960  1.0000 -0.189473289
C   C1841     1.0  0.93150  0.85720  0.08200  1.0000 0.0978843566
C   C1842     1.0  0.96140  0.85880  0.10780  1.0000 -0.1219500515
C   C1843     1.0  0.91400  0.87640  0.10330  1.0000 0.637843934
C   C1844     1.0  0.97750  0.85970  0.12200  1.0000 0.637843934
C   C1845     1.0  0.95000  0.83890  0.06190  1.0000 0.6285624754
O   O1735     1.0  0.93700  0.83960  0.04990  1.0000 -0.6397820246
O   O1736     1.0  0.96500  0.83080  0.05830  1.0000 -0.6517776188
O   O1737     1.0  0.97600  0.86980  0.13610  1.0000 -0.5677502138
O   O1738     1.0  0.99140  0.84910  0.12030  1.0000 -0.5777560007
O   O1739     1.0  0.91020  0.88040  0.12000  1.0000 -0.609555034
O   O1740     1.0  0.90220  0.87940  0.09070  1.0000 -0.6397820246
C   C1846     1.0  0.95800  0.84640  0.98170  1.0000 0.0614820425
C   C1847     1.0  0.97000  0.83790  0.99470  1.0000 -0.0708048282
C   C1848     1.0  0.96210  0.82960  0.01240  1.0000 0.6800795649
O   O1741     1.0  0.93260  0.84770  0.95390  1.0000 -0.6517776188
O   O1742     1.0  0.94520  0.83120  0.01560  1.0000 -0.6162038559
O   O1743     1.0  0.97300  0.82280  0.02510  1.0000 -0.6782680781
Ti  Ti199     1.0  0.97611  0.80791  0.04934  1.0000 2.0212494802
O   O1744     1.0  0.99080  0.78120  0.03540  1.0000 -0.6397820246
C   C1849     1.0  0.01700  0.88970  0.20900  1.0000 0.0286004543
C   C1850     1.0  0.01550  0.87010  0.21040  1.0000 -0.1087284717
C   C1851     1.0  0.00360  0.85960  0.19690  1.0000 0.637843934
O   O1745     1.0  0.04400  0.92830  0.22770  1.0000 -0.6939314659
O   O1746     1.0  0.00680  0.84260  0.19380  1.0000 -0.5588135763
O   O1747     1.0  0.99140  0.86820  0.18740  1.0000 -0.5588135763
O   O1748     1.0  0.89990  0.87150  0.15100  1.0000 -0.6397820246
O   O1749     1.0  0.97230  0.82780  0.17650  1.0000 -0.5777560007
O   O1750     1.0  0.96440  0.85720  0.17370  1.0000 -0.5588135763
C   C1852     1.0  0.92570  0.84820  0.16940  1.0000 0.0286004543
C   C1853     1.0  0.93950  0.83470  0.17360  1.0000 -0.1004600406
C   C1854     1.0  0.95990  0.84020  0.17380  1.0000 0.637843934
O   O1751     1.0  0.90930  0.86370  0.93110  1.0000 -0.6007274885
C   C1855     1.0  0.96400  0.35060  0.58990  1.0000 0.0760005572
C   C1856     1.0  0.94380  0.36620  0.61250  1.0000 0.0709581455
C   C1857     1.0  0.94890  0.34980  0.57710  1.0000 -0.1807206609
C   C1858     1.0  0.92890  0.36530  0.59960  1.0000 -0.189473289
C   C1859     1.0  0.93150  0.35720  0.58200  1.0000 0.0978843566
C   C1860     1.0  0.96140  0.35880  0.60780  1.0000 -0.1219500515
C   C1861     1.0  0.91400  0.37640  0.60330  1.0000 0.637843934
C   C1862     1.0  0.97750  0.35970  0.62200  1.0000 0.637843934
C   C1863     1.0  0.95000  0.33890  0.56190  1.0000 0.6285624754
O   O1752     1.0  0.93700  0.33960  0.54990  1.0000 -0.6397820246
O   O1753     1.0  0.96500  0.33080  0.55830  1.0000 -0.6517776188
O   O1754     1.0  0.97600  0.36980  0.63610  1.0000 -0.5677502138
O   O1755     1.0  0.99140  0.34910  0.62030  1.0000 -0.5777560007
O   O1756     1.0  0.91020  0.38040  0.62000  1.0000 -0.609555034
O   O1757     1.0  0.90220  0.37940  0.59070  1.0000 -0.6397820246
C   C1864     1.0  0.95800  0.34640  0.48170  1.0000 0.0614820425
C   C1865     1.0  0.97000  0.33790  0.49470  1.0000 -0.0708048282
C   C1866     1.0  0.96210  0.32960  0.51240  1.0000 0.6800795649
O   O1758     1.0  0.93260  0.34770  0.45390  1.0000 -0.5303997674
O   O1759     1.0  0.94520  0.33120  0.51560  1.0000 -0.609555034
O   O1760     1.0  0.97300  0.32280  0.52510  1.0000 -0.6782680781
Ti  Ti200     1.0  0.97611  0.30791  0.54934  1.0000 2.0212494802
O   O1761     1.0  0.99080  0.28120  0.53540  1.0000 -0.6397820246
C   C1867     1.0  0.01700  0.38970  0.70900  1.0000 0.0362362238
C   C1868     1.0  0.01550  0.37010  0.71040  1.0000 -0.1087284717
C   C1869     1.0  0.00360  0.35960  0.69690  1.0000 0.637843934
O   O1762     1.0  0.04400  0.42830  0.72770  1.0000 -0.6939314659
O   O1763     1.0  0.00680  0.34260  0.69380  1.0000 -0.5588135763
O   O1764     1.0  0.99140  0.36820  0.68740  1.0000 -0.5588135763
O   O1765     1.0  0.89990  0.37150  0.65100  1.0000 -0.6397820246
O   O1766     1.0  0.97230  0.32780  0.67650  1.0000 -0.5777560007
O   O1767     1.0  0.96440  0.35720  0.67370  1.0000 -0.5588135763
C   C1870     1.0  0.92570  0.34820  0.66940  1.0000 0.0286004543
C   C1871     1.0  0.93950  0.33470  0.67360  1.0000 -0.1004600406
C   C1872     1.0  0.95990  0.34020  0.67380  1.0000 0.637843934
O   O1768     1.0  0.90930  0.36370  0.43110  1.0000 -0.5106411624
C   C1873     1.0  0.96400  0.39940  0.16010  1.0000 0.0760005572
C   C1874     1.0  0.94380  0.38380  0.13750  1.0000 0.0709581455
C   C1875     1.0  0.94890  0.40020  0.17290  1.0000 -0.1807206609
C   C1876     1.0  0.92890  0.38470  0.15040  1.0000 -0.189473289
C   C1877     1.0  0.93150  0.39280  0.16800  1.0000 0.0978843566
C   C1878     1.0  0.96140  0.39120  0.14220  1.0000 -0.1219500515
C   C1879     1.0  0.91400  0.37360  0.14670  1.0000 0.637843934
C   C1880     1.0  0.97750  0.39030  0.12800  1.0000 0.637843934
C   C1881     1.0  0.95000  0.41110  0.18810  1.0000 0.6285624754
O   O1769     1.0  0.93700  0.41040  0.20010  1.0000 -0.6397820246
O   O1770     1.0  0.96500  0.41920  0.19170  1.0000 -0.6517776188
O   O1771     1.0  0.97600  0.38020  0.11390  1.0000 -0.5677502138
O   O1772     1.0  0.99140  0.40090  0.12970  1.0000 -0.5777560007
O   O1773     1.0  0.91020  0.36960  0.13000  1.0000 -0.609555034
O   O1774     1.0  0.90220  0.37060  0.15930  1.0000 -0.6397820246
C   C1882     1.0  0.95800  0.40360  0.26830  1.0000 0.0614820425
C   C1883     1.0  0.97000  0.41210  0.25530  1.0000 -0.0708048282
C   C1884     1.0  0.96210  0.42040  0.23760  1.0000 0.6800795649
O   O1775     1.0  0.93260  0.40230  0.29610  1.0000 -0.5303997674
O   O1776     1.0  0.94520  0.41880  0.23440  1.0000 -0.6162038559
O   O1777     1.0  0.97300  0.42720  0.22490  1.0000 -0.6782680781
Ti  Ti201     1.0  0.97611  0.44209  0.20066  1.0000 2.0212494802
O   O1778     1.0  0.99080  0.46880  0.21460  1.0000 -0.6397820246
C   C1885     1.0  0.01700  0.36030  0.04100  1.0000 0.0362362238
C   C1886     1.0  0.01550  0.37990  0.03960  1.0000 -0.1087284717
C   C1887     1.0  0.00360  0.39040  0.05310  1.0000 0.637843934
O   O1779     1.0  0.04400  0.32170  0.02230  1.0000 -0.6939314659
O   O1780     1.0  0.00680  0.40740  0.05620  1.0000 -0.5588135763
O   O1781     1.0  0.99140  0.38180  0.06260  1.0000 -0.5588135763
O   O1782     1.0  0.89990  0.37850  0.09900  1.0000 -0.6397820246
O   O1783     1.0  0.97230  0.42220  0.07350  1.0000 -0.5777560007
O   O1784     1.0  0.96440  0.39280  0.07630  1.0000 -0.5588135763
C   C1888     1.0  0.92570  0.40180  0.08060  1.0000 0.0286004543
C   C1889     1.0  0.93950  0.41530  0.07640  1.0000 -0.1004600406
C   C1890     1.0  0.95990  0.40980  0.07620  1.0000 0.637843934
O   O1785     1.0  0.90930  0.38630  0.31890  1.0000 -0.521012765
C   C1891     1.0  0.96400  0.89940  0.66010  1.0000 0.0760005572
C   C1892     1.0  0.94380  0.88380  0.63750  1.0000 0.0709581455
C   C1893     1.0  0.94890  0.90020  0.67290  1.0000 -0.1807206609
C   C1894     1.0  0.92890  0.88470  0.65040  1.0000 -0.189473289
C   C1895     1.0  0.93150  0.89280  0.66800  1.0000 0.0978843566
C   C1896     1.0  0.96140  0.89120  0.64220  1.0000 -0.1219500515
C   C1897     1.0  0.91400  0.87360  0.64670  1.0000 0.637843934
C   C1898     1.0  0.97750  0.89030  0.62800  1.0000 0.637843934
C   C1899     1.0  0.95000  0.91110  0.68810  1.0000 0.6285624754
O   O1786     1.0  0.93700  0.91040  0.70010  1.0000 -0.6397820246
O   O1787     1.0  0.96500  0.91920  0.69170  1.0000 -0.6517776188
O   O1788     1.0  0.97600  0.88020  0.61390  1.0000 -0.5677502138
O   O1789     1.0  0.99140  0.90090  0.62970  1.0000 -0.5777560007
O   O1790     1.0  0.91020  0.86960  0.63000  1.0000 -0.609555034
O   O1791     1.0  0.90220  0.87060  0.65930  1.0000 -0.6397820246
C   C1900     1.0  0.95800  0.90360  0.76830  1.0000 0.0501834124
C   C1901     1.0  0.97000  0.91210  0.75530  1.0000 -0.0708048282
C   C1902     1.0  0.96210  0.92040  0.73760  1.0000 0.6800795649
O   O1792     1.0  0.93260  0.90230  0.79610  1.0000 -0.5303997674
O   O1793     1.0  0.94520  0.91880  0.73440  1.0000 -0.609555034
O   O1794     1.0  0.97300  0.92720  0.72490  1.0000 -0.6782680781
Ti  Ti202     1.0  0.97611  0.94209  0.70066  1.0000 2.0212494802
O   O1795     1.0  0.99080  0.96880  0.71460  1.0000 -0.6397820246
C   C1903     1.0  0.01700  0.86030  0.54100  1.0000 0.0286004543
C   C1904     1.0  0.01550  0.87990  0.53960  1.0000 -0.1087284717
C   C1905     1.0  0.00360  0.89040  0.55310  1.0000 0.637843934
O   O1796     1.0  0.04400  0.82170  0.52230  1.0000 -0.6939314659
O   O1797     1.0  0.00680  0.90740  0.55620  1.0000 -0.5588135763
O   O1798     1.0  0.99140  0.88180  0.56260  1.0000 -0.5588135763
O   O1799     1.0  0.89990  0.87850  0.59900  1.0000 -0.6397820246
O   O1800     1.0  0.97230  0.92220  0.57350  1.0000 -0.5777560007
O   O1801     1.0  0.96440  0.89280  0.57630  1.0000 -0.5588135763
C   C1906     1.0  0.92570  0.90180  0.58060  1.0000 0.0286004543
C   C1907     1.0  0.93950  0.91530  0.57640  1.0000 -0.1004600406
C   C1908     1.0  0.95990  0.90980  0.57620  1.0000 0.637843934
O   O1802     1.0  0.90930  0.88630  0.81890  1.0000 -0.5106411624
C   C1909     1.0  0.46400  0.39940  0.66010  1.0000 0.0760005572
C   C1910     1.0  0.44380  0.38380  0.63750  1.0000 0.0709581455
C   C1911     1.0  0.44890  0.40020  0.67290  1.0000 -0.1807206609
C   C1912     1.0  0.42890  0.38470  0.65040  1.0000 -0.189473289
C   C1913     1.0  0.43150  0.39280  0.66800  1.0000 0.0978843566
C   C1914     1.0  0.46140  0.39120  0.64220  1.0000 -0.1219500515
C   C1915     1.0  0.41400  0.37360  0.64670  1.0000 0.637843934
C   C1916     1.0  0.47750  0.39030  0.62800  1.0000 0.637843934
C   C1917     1.0  0.45000  0.41110  0.68810  1.0000 0.6285624754
O   O1803     1.0  0.43700  0.41040  0.70010  1.0000 -0.6397820246
O   O1804     1.0  0.46500  0.41920  0.69170  1.0000 -0.6517776188
O   O1805     1.0  0.47600  0.38020  0.61390  1.0000 -0.5677502138
O   O1806     1.0  0.49140  0.40090  0.62970  1.0000 -0.5777560007
O   O1807     1.0  0.41020  0.36960  0.63000  1.0000 -0.609555034
O   O1808     1.0  0.40220  0.37060  0.65930  1.0000 -0.6397820246
C   C1918     1.0  0.45800  0.40360  0.76830  1.0000 0.0614820425
C   C1919     1.0  0.47000  0.41210  0.75530  1.0000 -0.0708048282
C   C1920     1.0  0.46210  0.42040  0.73760  1.0000 0.6800795649
O   O1809     1.0  0.43260  0.40230  0.79610  1.0000 -0.5303997674
O   O1810     1.0  0.44520  0.41880  0.73440  1.0000 -0.609555034
O   O1811     1.0  0.47300  0.42720  0.72490  1.0000 -0.6782680781
Ti  Ti203     1.0  0.47611  0.44209  0.70066  1.0000 2.0212494802
O   O1812     1.0  0.49080  0.46880  0.71460  1.0000 -0.6397820246
C   C1921     1.0  0.51700  0.36030  0.54100  1.0000 0.0362362238
C   C1922     1.0  0.51550  0.37990  0.53960  1.0000 -0.1087284717
C   C1923     1.0  0.50360  0.39040  0.55310  1.0000 0.637843934
O   O1813     1.0  0.54400  0.32170  0.52230  1.0000 -0.6939314659
O   O1814     1.0  0.50680  0.40740  0.55620  1.0000 -0.5588135763
O   O1815     1.0  0.49140  0.38180  0.56260  1.0000 -0.5588135763
O   O1816     1.0  0.39990  0.37850  0.59900  1.0000 -0.6397820246
O   O1817     1.0  0.47230  0.42220  0.57350  1.0000 -0.5777560007
O   O1818     1.0  0.46440  0.39280  0.57630  1.0000 -0.5588135763
C   C1924     1.0  0.42570  0.40180  0.58060  1.0000 0.0286004543
C   C1925     1.0  0.43950  0.41530  0.57640  1.0000 -0.1004600406
C   C1926     1.0  0.45990  0.40980  0.57620  1.0000 0.637843934
O   O1819     1.0  0.40930  0.38630  0.81890  1.0000 -0.5106411624
C   C1927     1.0  0.46400  0.89940  0.16010  1.0000 0.0760005572
C   C1928     1.0  0.44380  0.88380  0.13750  1.0000 0.0709581455
C   C1929     1.0  0.44890  0.90020  0.17290  1.0000 -0.1807206609
C   C1930     1.0  0.42890  0.88470  0.15040  1.0000 -0.189473289
C   C1931     1.0  0.43150  0.89280  0.16800  1.0000 0.0978843566
C   C1932     1.0  0.46140  0.89120  0.14220  1.0000 -0.1219500515
C   C1933     1.0  0.41400  0.87360  0.14670  1.0000 0.637843934
C   C1934     1.0  0.47750  0.89030  0.12800  1.0000 0.637843934
C   C1935     1.0  0.45000  0.91110  0.18810  1.0000 0.6285624754
O   O1820     1.0  0.43700  0.91040  0.20010  1.0000 -0.6397820246
O   O1821     1.0  0.46500  0.91920  0.19170  1.0000 -0.6517776188
O   O1822     1.0  0.47600  0.88020  0.11390  1.0000 -0.5677502138
O   O1823     1.0  0.49140  0.90090  0.12970  1.0000 -0.5777560007
O   O1824     1.0  0.41020  0.86960  0.13000  1.0000 -0.609555034
O   O1825     1.0  0.40220  0.87060  0.15930  1.0000 -0.6397820246
C   C1936     1.0  0.45800  0.90360  0.26830  1.0000 0.0614820425
C   C1937     1.0  0.47000  0.91210  0.25530  1.0000 -0.0708048282
C   C1938     1.0  0.46210  0.92040  0.23760  1.0000 0.6800795649
O   O1826     1.0  0.43260  0.90230  0.29610  1.0000 -0.5303997674
O   O1827     1.0  0.44520  0.91880  0.23440  1.0000 -0.609555034
O   O1828     1.0  0.47300  0.92720  0.22490  1.0000 -0.6782680781
Ti  Ti204     1.0  0.47611  0.94209  0.20066  1.0000 2.0212494802
O   O1829     1.0  0.49080  0.96880  0.21460  1.0000 -0.6397820246
C   C1939     1.0  0.51700  0.86030  0.04100  1.0000 0.0362362238
C   C1940     1.0  0.51550  0.87990  0.03960  1.0000 -0.1087284717
C   C1941     1.0  0.50360  0.89040  0.05310  1.0000 0.637843934
O   O1830     1.0  0.54400  0.82170  0.02230  1.0000 -0.6939314659
O   O1831     1.0  0.50680  0.90740  0.05620  1.0000 -0.5588135763
O   O1832     1.0  0.49140  0.88180  0.06260  1.0000 -0.5588135763
O   O1833     1.0  0.39990  0.87850  0.09900  1.0000 -0.6397820246
O   O1834     1.0  0.47230  0.92220  0.07350  1.0000 -0.5777560007
O   O1835     1.0  0.46440  0.89280  0.07630  1.0000 -0.5588135763
C   C1942     1.0  0.42570  0.90180  0.08060  1.0000 0.0286004543
C   C1943     1.0  0.43950  0.91530  0.07640  1.0000 -0.1004600406
C   C1944     1.0  0.45990  0.90980  0.07620  1.0000 0.637843934
O   O1836     1.0  0.40930  0.88630  0.31890  1.0000 -0.5037077391
C   C1945     1.0  0.28600  0.35060  0.66010  1.0000 0.0760005572
C   C1946     1.0  0.30620  0.36620  0.63750  1.0000 0.0709581455
C   C1947     1.0  0.30110  0.34980  0.67290  1.0000 -0.1807206609
C   C1948     1.0  0.32110  0.36530  0.65040  1.0000 -0.189473289
C   C1949     1.0  0.31850  0.35720  0.66800  1.0000 0.0978843566
C   C1950     1.0  0.28860  0.35880  0.64220  1.0000 -0.1219500515
C   C1951     1.0  0.33600  0.37640  0.64670  1.0000 0.637843934
C   C1952     1.0  0.27250  0.35970  0.62800  1.0000 0.637843934
C   C1953     1.0  0.30000  0.33890  0.68810  1.0000 0.6285624754
O   O1837     1.0  0.31300  0.33960  0.70010  1.0000 -0.6397820246
O   O1838     1.0  0.28500  0.33080  0.69170  1.0000 -0.6517776188
O   O1839     1.0  0.27400  0.36980  0.61390  1.0000 -0.5677502138
O   O1840     1.0  0.25860  0.34910  0.62970  1.0000 -0.5777560007
O   O1841     1.0  0.33980  0.38040  0.63000  1.0000 -0.609555034
O   O1842     1.0  0.34780  0.37940  0.65930  1.0000 -0.6397820246
C   C1954     1.0  0.29200  0.34640  0.76830  1.0000 0.0501834124
C   C1955     1.0  0.28000  0.33790  0.75530  1.0000 -0.0708048282
C   C1956     1.0  0.28790  0.32960  0.73760  1.0000 0.6800795649
O   O1843     1.0  0.31740  0.34770  0.79610  1.0000 -0.6517776188
O   O1844     1.0  0.30480  0.33120  0.73440  1.0000 -0.6162038559
O   O1845     1.0  0.27700  0.32280  0.72490  1.0000 -0.6782680781
Ti  Ti205     1.0  0.27389  0.30791  0.70066  1.0000 2.0212494802
O   O1846     1.0  0.25920  0.28120  0.71460  1.0000 -0.6397820246
C   C1957     1.0  0.23300  0.38970  0.54100  1.0000 0.0362362238
C   C1958     1.0  0.23450  0.37010  0.53960  1.0000 -0.1087284717
C   C1959     1.0  0.24640  0.35960  0.55310  1.0000 0.637843934
O   O1847     1.0  0.20600  0.42830  0.52230  1.0000 -0.6939314659
O   O1848     1.0  0.24320  0.34260  0.55620  1.0000 -0.5588135763
O   O1849     1.0  0.25860  0.36820  0.56260  1.0000 -0.5588135763
O   O1850     1.0  0.35010  0.37150  0.59900  1.0000 -0.6397820246
O   O1851     1.0  0.27770  0.32780  0.57350  1.0000 -0.5777560007
O   O1852     1.0  0.28560  0.35720  0.57630  1.0000 -0.5588135763
C   C1960     1.0  0.32430  0.34820  0.58060  1.0000 0.0286004543
C   C1961     1.0  0.31050  0.33470  0.57640  1.0000 -0.1004600406
C   C1962     1.0  0.29010  0.34020  0.57620  1.0000 0.637843934
O   O1853     1.0  0.34070  0.36370  0.81890  1.0000 -0.609555034
C   C1963     1.0  0.28600  0.85060  0.16010  1.0000 0.0709581455
C   C1964     1.0  0.30620  0.86620  0.13750  1.0000 0.0709581455
C   C1965     1.0  0.30110  0.84980  0.17290  1.0000 -0.1807206609
C   C1966     1.0  0.32110  0.86530  0.15040  1.0000 -0.189473289
C   C1967     1.0  0.31850  0.85720  0.16800  1.0000 0.0978843566
C   C1968     1.0  0.28860  0.85880  0.14220  1.0000 -0.1219500515
C   C1969     1.0  0.33600  0.87640  0.14670  1.0000 0.637843934
C   C1970     1.0  0.27250  0.85970  0.12800  1.0000 0.637843934
C   C1971     1.0  0.30000  0.83890  0.18810  1.0000 0.6285624754
O   O1854     1.0  0.31300  0.83960  0.20010  1.0000 -0.6397820246
O   O1855     1.0  0.28500  0.83080  0.19170  1.0000 -0.6517776188
O   O1856     1.0  0.27400  0.86980  0.11390  1.0000 -0.5677502138
O   O1857     1.0  0.25860  0.84910  0.12970  1.0000 -0.5777560007
O   O1858     1.0  0.33980  0.88040  0.13000  1.0000 -0.609555034
O   O1859     1.0  0.34780  0.87940  0.15930  1.0000 -0.6397820246
C   C1972     1.0  0.29200  0.84640  0.26830  1.0000 0.0501834124
C   C1973     1.0  0.28000  0.83790  0.25530  1.0000 -0.0708048282
C   C1974     1.0  0.28790  0.82960  0.23760  1.0000 0.6800795649
O   O1860     1.0  0.31740  0.84770  0.29610  1.0000 -0.6517776188
O   O1861     1.0  0.30480  0.83120  0.23440  1.0000 -0.6162038559
O   O1862     1.0  0.27700  0.82280  0.22490  1.0000 -0.6782680781
Ti  Ti206     1.0  0.27389  0.80791  0.20066  1.0000 2.0212494802
O   O1863     1.0  0.25920  0.78120  0.21460  1.0000 -0.6397820246
C   C1975     1.0  0.23300  0.88970  0.04100  1.0000 0.0362362238
C   C1976     1.0  0.23450  0.87010  0.03960  1.0000 -0.1087284717
C   C1977     1.0  0.24640  0.85960  0.05310  1.0000 0.637843934
O   O1864     1.0  0.20600  0.92830  0.02230  1.0000 -0.6939314659
O   O1865     1.0  0.24320  0.84260  0.05620  1.0000 -0.5588135763
O   O1866     1.0  0.25860  0.86820  0.06260  1.0000 -0.5588135763
O   O1867     1.0  0.35010  0.87150  0.09900  1.0000 -0.6397820246
O   O1868     1.0  0.27770  0.82780  0.07350  1.0000 -0.5777560007
O   O1869     1.0  0.28560  0.85720  0.07630  1.0000 -0.5588135763
C   C1978     1.0  0.32430  0.84820  0.08060  1.0000 0.0286004543
C   C1979     1.0  0.31050  0.83470  0.07640  1.0000 -0.1004600406
C   C1980     1.0  0.29010  0.84020  0.07620  1.0000 0.637843934
O   O1870     1.0  0.34070  0.86370  0.31890  1.0000 -0.609555034
C   C1981     1.0  0.78600  0.35060  0.16010  1.0000 0.0760005572
C   C1982     1.0  0.80620  0.36620  0.13750  1.0000 0.0709581455
C   C1983     1.0  0.80110  0.34980  0.17290  1.0000 -0.1807206609
C   C1984     1.0  0.82110  0.36530  0.15040  1.0000 -0.189473289
C   C1985     1.0  0.81850  0.35720  0.16800  1.0000 0.0978843566
C   C1986     1.0  0.78860  0.35880  0.14220  1.0000 -0.1219500515
C   C1987     1.0  0.83600  0.37640  0.14670  1.0000 0.637843934
C   C1988     1.0  0.77250  0.35970  0.12800  1.0000 0.637843934
C   C1989     1.0  0.80000  0.33890  0.18810  1.0000 0.6285624754
O   O1871     1.0  0.81300  0.33960  0.20010  1.0000 -0.6397820246
O   O1872     1.0  0.78500  0.33080  0.19170  1.0000 -0.6517776188
O   O1873     1.0  0.77400  0.36980  0.11390  1.0000 -0.5677502138
O   O1874     1.0  0.75860  0.34910  0.12970  1.0000 -0.5777560007
O   O1875     1.0  0.83980  0.38040  0.13000  1.0000 -0.609555034
O   O1876     1.0  0.84780  0.37940  0.15930  1.0000 -0.6397820246
C   C1990     1.0  0.79200  0.34640  0.26830  1.0000 0.0501834124
C   C1991     1.0  0.78000  0.33790  0.25530  1.0000 -0.0708048282
C   C1992     1.0  0.78790  0.32960  0.23760  1.0000 0.6800795649
O   O1877     1.0  0.81740  0.34770  0.29610  1.0000 -0.6517776188
O   O1878     1.0  0.80480  0.33120  0.23440  1.0000 -0.6162038559
O   O1879     1.0  0.77700  0.32280  0.22490  1.0000 -0.6782680781
Ti  Ti207     1.0  0.77389  0.30791  0.20066  1.0000 2.0212494802
O   O1880     1.0  0.75920  0.28120  0.21460  1.0000 -0.6397820246
C   C1993     1.0  0.73300  0.38970  0.04100  1.0000 0.0362362238
C   C1994     1.0  0.73450  0.37010  0.03960  1.0000 -0.1087284717
C   C1995     1.0  0.74640  0.35960  0.05310  1.0000 0.637843934
O   O1881     1.0  0.70600  0.42830  0.02230  1.0000 -0.6939314659
O   O1882     1.0  0.74320  0.34260  0.05620  1.0000 -0.5588135763
O   O1883     1.0  0.75860  0.36820  0.06260  1.0000 -0.5588135763
O   O1884     1.0  0.85010  0.37150  0.09900  1.0000 -0.6397820246
O   O1885     1.0  0.77770  0.32780  0.07350  1.0000 -0.5777560007
O   O1886     1.0  0.78560  0.35720  0.07630  1.0000 -0.5588135763
C   C1996     1.0  0.82430  0.34820  0.08060  1.0000 0.0286004543
C   C1997     1.0  0.81050  0.33470  0.07640  1.0000 -0.1004600406
C   C1998     1.0  0.79010  0.34020  0.07620  1.0000 0.637843934
O   O1887     1.0  0.84070  0.36370  0.31890  1.0000 -0.609555034
C   C1999     1.0  0.78600  0.85060  0.66010  1.0000 0.0760005572
C   C2000     1.0  0.80620  0.86620  0.63750  1.0000 0.0709581455
C   C2001     1.0  0.80110  0.84980  0.67290  1.0000 -0.1807206609
C   C2002     1.0  0.82110  0.86530  0.65040  1.0000 -0.189473289
C   C2003     1.0  0.81850  0.85720  0.66800  1.0000 0.0978843566
C   C2004     1.0  0.78860  0.85880  0.64220  1.0000 -0.1219500515
C   C2005     1.0  0.83600  0.87640  0.64670  1.0000 0.637843934
C   C2006     1.0  0.77250  0.85970  0.62800  1.0000 0.637843934
C   C2007     1.0  0.80000  0.83890  0.68810  1.0000 0.6285624754
O   O1888     1.0  0.81300  0.83960  0.70010  1.0000 -0.6397820246
O   O1889     1.0  0.78500  0.83080  0.69170  1.0000 -0.6517776188
O   O1890     1.0  0.77400  0.86980  0.61390  1.0000 -0.5677502138
O   O1891     1.0  0.75860  0.84910  0.62970  1.0000 -0.5777560007
O   O1892     1.0  0.83980  0.88040  0.63000  1.0000 -0.609555034
O   O1893     1.0  0.84780  0.87940  0.65930  1.0000 -0.6397820246
C   C2008     1.0  0.79200  0.84640  0.76830  1.0000 0.0501834124
C   C2009     1.0  0.78000  0.83790  0.75530  1.0000 -0.0708048282
C   C2010     1.0  0.78790  0.82960  0.73760  1.0000 0.6800795649
O   O1894     1.0  0.81740  0.84770  0.79610  1.0000 -0.6517776188
O   O1895     1.0  0.80480  0.83120  0.73440  1.0000 -0.6162038559
O   O1896     1.0  0.77700  0.82280  0.72490  1.0000 -0.6782680781
Ti  Ti208     1.0  0.77389  0.80791  0.70066  1.0000 2.0212494802
O   O1897     1.0  0.75920  0.78120  0.71460  1.0000 -0.6397820246
C   C2011     1.0  0.73300  0.88970  0.54100  1.0000 0.0362362238
C   C2012     1.0  0.73450  0.87010  0.53960  1.0000 -0.1087284717
C   C2013     1.0  0.74640  0.85960  0.55310  1.0000 0.637843934
O   O1898     1.0  0.70600  0.92830  0.52230  1.0000 -0.6939314659
O   O1899     1.0  0.74320  0.84260  0.55620  1.0000 -0.5588135763
O   O1900     1.0  0.75860  0.86820  0.56260  1.0000 -0.5588135763
O   O1901     1.0  0.85010  0.87150  0.59900  1.0000 -0.6397820246
O   O1902     1.0  0.77770  0.82780  0.57350  1.0000 -0.5777560007
O   O1903     1.0  0.78560  0.85720  0.57630  1.0000 -0.5588135763
C   C2014     1.0  0.82430  0.84820  0.58060  1.0000 0.0286004543
C   C2015     1.0  0.81050  0.83470  0.57640  1.0000 -0.1004600406
C   C2016     1.0  0.79010  0.84020  0.57620  1.0000 0.637843934
O   O1904     1.0  0.84070  0.86370  0.81890  1.0000 -0.609555034
C   C2017     1.0  0.08990  0.78600  0.89940  1.0000 0.0760005572
C   C2018     1.0  0.11250  0.80620  0.88380  1.0000 0.0709581455
C   C2019     1.0  0.07710  0.80110  0.90020  1.0000 -0.1807206609
C   C2020     1.0  0.09960  0.82110  0.88470  1.0000 -0.189473289
C   C2021     1.0  0.08200  0.81850  0.89280  1.0000 0.094956158
C   C2022     1.0  0.10780  0.78860  0.89120  1.0000 -0.1219500515
C   C2023     1.0  0.10330  0.83600  0.87360  1.0000 0.637843934
C   C2024     1.0  0.12200  0.77250  0.89030  1.0000 0.637843934
C   C2025     1.0  0.06190  0.80000  0.91110  1.0000 0.6285624754
O   O1905     1.0  0.04990  0.81300  0.91040  1.0000 -0.6397820246
O   O1906     1.0  0.05830  0.78500  0.91920  1.0000 -0.6517776188
O   O1907     1.0  0.13610  0.77400  0.88020  1.0000 -0.5677502138
O   O1908     1.0  0.12030  0.75860  0.90090  1.0000 -0.5677502138
O   O1909     1.0  0.12000  0.83980  0.86960  1.0000 -0.609555034
O   O1910     1.0  0.09070  0.84780  0.87060  1.0000 -0.6397820246
C   C2026     1.0  0.98170  0.79200  0.90360  1.0000 0.0614820425
C   C2027     1.0  0.99470  0.78000  0.91210  1.0000 -0.0708048282
C   C2028     1.0  0.01240  0.78790  0.92040  1.0000 0.6800795649
O   O1911     1.0  0.95390  0.81740  0.90230  1.0000 -0.5303997674
O   O1912     1.0  0.01560  0.80480  0.91880  1.0000 -0.609555034
O   O1913     1.0  0.02510  0.77700  0.92720  1.0000 -0.6782680781
Ti  Ti209     1.0  0.04934  0.77389  0.94209  1.0000 2.0212494802
O   O1914     1.0  0.03540  0.75920  0.96880  1.0000 -0.6397820246
C   C2029     1.0  0.20900  0.73300  0.86030  1.0000 0.0362362238
C   C2030     1.0  0.21040  0.73450  0.87990  1.0000 -0.1087284717
C   C2031     1.0  0.19690  0.74640  0.89040  1.0000 0.637843934
O   O1915     1.0  0.22770  0.70600  0.82170  1.0000 -0.6939314659
O   O1916     1.0  0.19380  0.74320  0.90740  1.0000 -0.5588135763
O   O1917     1.0  0.18740  0.75860  0.88180  1.0000 -0.5548712105
O   O1918     1.0  0.15100  0.85010  0.87850  1.0000 -0.6397820246
O   O1919     1.0  0.17650  0.77770  0.92220  1.0000 -0.5777560007
O   O1920     1.0  0.17370  0.78560  0.89280  1.0000 -0.5588135763
C   C2032     1.0  0.16940  0.82430  0.90180  1.0000 0.0286004543
C   C2033     1.0  0.17360  0.81050  0.91530  1.0000 -0.1004600406
C   C2034     1.0  0.17380  0.79010  0.90980  1.0000 0.637843934
O   O1921     1.0  0.93110  0.84070  0.88630  1.0000 -0.521012765
C   C2035     1.0  0.08990  0.28600  0.39940  1.0000 0.0760005572
C   C2036     1.0  0.11250  0.30620  0.38380  1.0000 0.0709581455
C   C2037     1.0  0.07710  0.30110  0.40020  1.0000 -0.1807206609
C   C2038     1.0  0.09960  0.32110  0.38470  1.0000 -0.189473289
C   C2039     1.0  0.08200  0.31850  0.39280  1.0000 0.0978843566
C   C2040     1.0  0.10780  0.28860  0.39120  1.0000 -0.1219500515
C   C2041     1.0  0.10330  0.33600  0.37360  1.0000 0.637843934
C   C2042     1.0  0.12200  0.27250  0.39030  1.0000 0.637843934
C   C2043     1.0  0.06190  0.30000  0.41110  1.0000 0.6285624754
O   O1922     1.0  0.04990  0.31300  0.41040  1.0000 -0.6397820246
O   O1923     1.0  0.05830  0.28500  0.41920  1.0000 -0.6517776188
O   O1924     1.0  0.13610  0.27400  0.38020  1.0000 -0.5677502138
O   O1925     1.0  0.12030  0.25860  0.40090  1.0000 -0.5777560007
O   O1926     1.0  0.12000  0.33980  0.36960  1.0000 -0.609555034
O   O1927     1.0  0.09070  0.34780  0.37060  1.0000 -0.6397820246
C   C2044     1.0  0.98170  0.29200  0.40360  1.0000 0.0501834124
C   C2045     1.0  0.99470  0.28000  0.41210  1.0000 -0.0708048282
C   C2046     1.0  0.01240  0.28790  0.42040  1.0000 0.6800795649
O   O1928     1.0  0.95390  0.31740  0.40230  1.0000 -0.5303997674
O   O1929     1.0  0.01560  0.30480  0.41880  1.0000 -0.609555034
O   O1930     1.0  0.02510  0.27700  0.42720  1.0000 -0.6782680781
Ti  Ti210     1.0  0.04934  0.27389  0.44209  1.0000 2.0212494802
O   O1931     1.0  0.03540  0.25920  0.46880  1.0000 -0.6397820246
C   C2047     1.0  0.20900  0.23300  0.36030  1.0000 0.0362362238
C   C2048     1.0  0.21040  0.23450  0.37990  1.0000 -0.1087284717
C   C2049     1.0  0.19690  0.24640  0.39040  1.0000 0.637843934
O   O1932     1.0  0.22770  0.20600  0.32170  1.0000 -0.6939314659
O   O1933     1.0  0.19380  0.24320  0.40740  1.0000 -0.5588135763
O   O1934     1.0  0.18740  0.25860  0.38180  1.0000 -0.5588135763
O   O1935     1.0  0.15100  0.35010  0.37850  1.0000 -0.6397820246
O   O1936     1.0  0.17650  0.27770  0.42220  1.0000 -0.5777560007
O   O1937     1.0  0.17370  0.28560  0.39280  1.0000 -0.5588135763
C   C2050     1.0  0.16940  0.32430  0.40180  1.0000 0.0286004543
C   C2051     1.0  0.17360  0.31050  0.41530  1.0000 -0.1004600406
C   C2052     1.0  0.17380  0.29010  0.40980  1.0000 0.637843934
O   O1938     1.0  0.93110  0.34070  0.38630  1.0000 -0.5106411624
C   C2053     1.0  0.58990  0.78600  0.39940  1.0000 0.0760005572
C   C2054     1.0  0.61250  0.80620  0.38380  1.0000 0.0709581455
C   C2055     1.0  0.57710  0.80110  0.40020  1.0000 -0.1807206609
C   C2056     1.0  0.59960  0.82110  0.38470  1.0000 -0.189473289
C   C2057     1.0  0.58200  0.81850  0.39280  1.0000 0.0978843566
C   C2058     1.0  0.60780  0.78860  0.39120  1.0000 -0.1219500515
C   C2059     1.0  0.60330  0.83600  0.37360  1.0000 0.637843934
C   C2060     1.0  0.62200  0.77250  0.39030  1.0000 0.637843934
C   C2061     1.0  0.56190  0.80000  0.41110  1.0000 0.6285624754
O   O1939     1.0  0.54990  0.81300  0.41040  1.0000 -0.6397820246
O   O1940     1.0  0.55830  0.78500  0.41920  1.0000 -0.6517776188
O   O1941     1.0  0.63610  0.77400  0.38020  1.0000 -0.5677502138
O   O1942     1.0  0.62030  0.75860  0.40090  1.0000 -0.5777560007
O   O1943     1.0  0.62000  0.83980  0.36960  1.0000 -0.609555034
O   O1944     1.0  0.59070  0.84780  0.37060  1.0000 -0.6397820246
C   C2062     1.0  0.48170  0.79200  0.40360  1.0000 0.0614820425
C   C2063     1.0  0.49470  0.78000  0.41210  1.0000 -0.0708048282
C   C2064     1.0  0.51240  0.78790  0.42040  1.0000 0.6800795649
O   O1945     1.0  0.45390  0.81740  0.40230  1.0000 -0.6517776188
O   O1946     1.0  0.51560  0.80480  0.41880  1.0000 -0.6162038559
O   O1947     1.0  0.52510  0.77700  0.42720  1.0000 -0.6782680781
Ti  Ti211     1.0  0.54934  0.77389  0.44209  1.0000 2.0212494802
O   O1948     1.0  0.53540  0.75920  0.46880  1.0000 -0.6397820246
C   C2065     1.0  0.70900  0.73300  0.36030  1.0000 0.0362362238
C   C2066     1.0  0.71040  0.73450  0.37990  1.0000 -0.1087284717
C   C2067     1.0  0.69690  0.74640  0.39040  1.0000 0.637843934
O   O1949     1.0  0.72770  0.70600  0.32170  1.0000 -0.6939314659
O   O1950     1.0  0.69380  0.74320  0.40740  1.0000 -0.5588135763
O   O1951     1.0  0.68740  0.75860  0.38180  1.0000 -0.5588135763
O   O1952     1.0  0.65100  0.85010  0.37850  1.0000 -0.6397820246
O   O1953     1.0  0.67650  0.77770  0.42220  1.0000 -0.5777560007
O   O1954     1.0  0.67370  0.78560  0.39280  1.0000 -0.5588135763
C   C2068     1.0  0.66940  0.82430  0.40180  1.0000 0.0286004543
C   C2069     1.0  0.67360  0.81050  0.41530  1.0000 -0.1004600406
C   C2070     1.0  0.67380  0.79010  0.40980  1.0000 0.637843934
O   O1955     1.0  0.43110  0.84070  0.38630  1.0000 -0.6007274885
C   C2071     1.0  0.58990  0.28600  0.89940  1.0000 0.0760005572
C   C2072     1.0  0.61250  0.30620  0.88380  1.0000 0.0709581455
C   C2073     1.0  0.57710  0.30110  0.90020  1.0000 -0.1807206609
C   C2074     1.0  0.59960  0.32110  0.88470  1.0000 -0.189473289
C   C2075     1.0  0.58200  0.31850  0.89280  1.0000 0.0978843566
C   C2076     1.0  0.60780  0.28860  0.89120  1.0000 -0.1219500515
C   C2077     1.0  0.60330  0.33600  0.87360  1.0000 0.637843934
C   C2078     1.0  0.62200  0.27250  0.89030  1.0000 0.637843934
C   C2079     1.0  0.56190  0.30000  0.91110  1.0000 0.6285624754
O   O1956     1.0  0.54990  0.31300  0.91040  1.0000 -0.6397820246
O   O1957     1.0  0.55830  0.28500  0.91920  1.0000 -0.6517776188
O   O1958     1.0  0.63610  0.27400  0.88020  1.0000 -0.5677502138
O   O1959     1.0  0.62030  0.25860  0.90090  1.0000 -0.5777560007
O   O1960     1.0  0.62000  0.33980  0.86960  1.0000 -0.609555034
O   O1961     1.0  0.59070  0.34780  0.87060  1.0000 -0.6397820246
C   C2080     1.0  0.48170  0.29200  0.90360  1.0000 0.0614820425
C   C2081     1.0  0.49470  0.28000  0.91210  1.0000 -0.0708048282
C   C2082     1.0  0.51240  0.28790  0.92040  1.0000 0.6800795649
O   O1962     1.0  0.45390  0.31740  0.90230  1.0000 -0.6517776188
O   O1963     1.0  0.51560  0.30480  0.91880  1.0000 -0.6162038559
O   O1964     1.0  0.52510  0.27700  0.92720  1.0000 -0.6782680781
Ti  Ti212     1.0  0.54934  0.27389  0.94209  1.0000 2.0212494802
O   O1965     1.0  0.53540  0.25920  0.96880  1.0000 -0.6397820246
C   C2083     1.0  0.70900  0.23300  0.86030  1.0000 0.0362362238
C   C2084     1.0  0.71040  0.23450  0.87990  1.0000 -0.1087284717
C   C2085     1.0  0.69690  0.24640  0.89040  1.0000 0.637843934
O   O1966     1.0  0.72770  0.20600  0.82170  1.0000 -0.6939314659
O   O1967     1.0  0.69380  0.24320  0.90740  1.0000 -0.5588135763
O   O1968     1.0  0.68740  0.25860  0.88180  1.0000 -0.5588135763
O   O1969     1.0  0.65100  0.35010  0.87850  1.0000 -0.6397820246
O   O1970     1.0  0.67650  0.27770  0.92220  1.0000 -0.5777560007
O   O1971     1.0  0.67370  0.28560  0.89280  1.0000 -0.5588135763
C   C2086     1.0  0.66940  0.32430  0.90180  1.0000 0.0286004543
C   C2087     1.0  0.67360  0.31050  0.91530  1.0000 -0.1004600406
C   C2088     1.0  0.67380  0.29010  0.90980  1.0000 0.637843934
O   O1972     1.0  0.43110  0.34070  0.88630  1.0000 -0.6007274885
C   C2089     1.0  0.58990  0.46400  0.85060  1.0000 0.0760005572
C   C2090     1.0  0.61250  0.44380  0.86620  1.0000 0.0709581455
C   C2091     1.0  0.57710  0.44890  0.84980  1.0000 -0.1807206609
C   C2092     1.0  0.59960  0.42890  0.86530  1.0000 -0.189473289
C   C2093     1.0  0.58200  0.43150  0.85720  1.0000 0.0978843566
C   C2094     1.0  0.60780  0.46140  0.85880  1.0000 -0.1219500515
C   C2095     1.0  0.60330  0.41400  0.87640  1.0000 0.637843934
C   C2096     1.0  0.62200  0.47750  0.85970  1.0000 0.637843934
C   C2097     1.0  0.56190  0.45000  0.83890  1.0000 0.6285624754
O   O1973     1.0  0.54990  0.43700  0.83960  1.0000 -0.6397820246
O   O1974     1.0  0.55830  0.46500  0.83080  1.0000 -0.6517776188
O   O1975     1.0  0.63610  0.47600  0.86980  1.0000 -0.5677502138
O   O1976     1.0  0.62030  0.49140  0.84910  1.0000 -0.5777560007
O   O1977     1.0  0.62000  0.41020  0.88040  1.0000 -0.609555034
O   O1978     1.0  0.59070  0.40220  0.87940  1.0000 -0.6397820246
C   C2098     1.0  0.48170  0.45800  0.84640  1.0000 0.0501834124
C   C2099     1.0  0.49470  0.47000  0.83790  1.0000 -0.0708048282
C   C2100     1.0  0.51240  0.46210  0.82960  1.0000 0.6800795649
O   O1979     1.0  0.45390  0.43260  0.84770  1.0000 -0.5303997674
O   O1980     1.0  0.51560  0.44520  0.83120  1.0000 -0.609555034
O   O1981     1.0  0.52510  0.47300  0.82280  1.0000 -0.6782680781
Ti  Ti213     1.0  0.54934  0.47611  0.80791  1.0000 2.0212494802
O   O1982     1.0  0.53540  0.49080  0.78120  1.0000 -0.6397820246
C   C2101     1.0  0.70900  0.51700  0.88970  1.0000 0.0362362238
C   C2102     1.0  0.71040  0.51550  0.87010  1.0000 -0.1087284717
C   C2103     1.0  0.69690  0.50360  0.85960  1.0000 0.637843934
O   O1983     1.0  0.72770  0.54400  0.92830  1.0000 -0.6939314659
O   O1984     1.0  0.69380  0.50680  0.84260  1.0000 -0.5588135763
O   O1985     1.0  0.68740  0.49140  0.86820  1.0000 -0.5588135763
O   O1986     1.0  0.65100  0.39990  0.87150  1.0000 -0.6397820246
O   O1987     1.0  0.67650  0.47230  0.82780  1.0000 -0.5777560007
O   O1988     1.0  0.67370  0.46440  0.85720  1.0000 -0.5588135763
C   C2104     1.0  0.66940  0.42570  0.84820  1.0000 0.0286004543
C   C2105     1.0  0.67360  0.43950  0.83470  1.0000 -0.1004600406
C   C2106     1.0  0.67380  0.45990  0.84020  1.0000 0.637843934
O   O1989     1.0  0.43110  0.40930  0.86370  1.0000 -0.5106411624
C   C2107     1.0  0.58990  0.96400  0.35060  1.0000 0.0760005572
C   C2108     1.0  0.61250  0.94380  0.36620  1.0000 0.0709581455
C   C2109     1.0  0.57710  0.94890  0.34980  1.0000 -0.1807206609
C   C2110     1.0  0.59960  0.92890  0.36530  1.0000 -0.189473289
C   C2111     1.0  0.58200  0.93150  0.35720  1.0000 0.0978843566
C   C2112     1.0  0.60780  0.96140  0.35880  1.0000 -0.1219500515
C   C2113     1.0  0.60330  0.91400  0.37640  1.0000 0.637843934
C   C2114     1.0  0.62200  0.97750  0.35970  1.0000 0.637843934
C   C2115     1.0  0.56190  0.95000  0.33890  1.0000 0.6285624754
O   O1990     1.0  0.54990  0.93700  0.33960  1.0000 -0.6397820246
O   O1991     1.0  0.55830  0.96500  0.33080  1.0000 -0.6517776188
O   O1992     1.0  0.63610  0.97600  0.36980  1.0000 -0.5677502138
O   O1993     1.0  0.62030  0.99140  0.34910  1.0000 -0.5777560007
O   O1994     1.0  0.62000  0.91020  0.38040  1.0000 -0.609555034
O   O1995     1.0  0.59070  0.90220  0.37940  1.0000 -0.6397820246
C   C2116     1.0  0.48170  0.95800  0.34640  1.0000 0.0614820425
C   C2117     1.0  0.49470  0.97000  0.33790  1.0000 -0.0708048282
C   C2118     1.0  0.51240  0.96210  0.32960  1.0000 0.6800795649
O   O1996     1.0  0.45390  0.93260  0.34770  1.0000 -0.5303997674
O   O1997     1.0  0.51560  0.94520  0.33120  1.0000 -0.609555034
O   O1998     1.0  0.52510  0.97300  0.32280  1.0000 -0.6782680781
Ti  Ti214     1.0  0.54934  0.97611  0.30791  1.0000 2.0212494802
O   O1999     1.0  0.53540  0.99080  0.28120  1.0000 -0.6397820246
C   C2119     1.0  0.70900  0.01700  0.38970  1.0000 0.0362362238
C   C2120     1.0  0.71040  0.01550  0.37010  1.0000 -0.1087284717
C   C2121     1.0  0.69690  0.00360  0.35960  1.0000 0.637843934
O   O2000     1.0  0.72770  0.04400  0.42830  1.0000 -0.6939314659
O   O2001     1.0  0.69380  0.00680  0.34260  1.0000 -0.5588135763
O   O2002     1.0  0.68740  0.99140  0.36820  1.0000 -0.5588135763
O   O2003     1.0  0.65100  0.89990  0.37150  1.0000 -0.6397820246
O   O2004     1.0  0.67650  0.97230  0.32780  1.0000 -0.5777560007
O   O2005     1.0  0.67370  0.96440  0.35720  1.0000 -0.5588135763
C   C2122     1.0  0.66940  0.92570  0.34820  1.0000 0.0286004543
C   C2123     1.0  0.67360  0.93950  0.33470  1.0000 -0.1004600406
C   C2124     1.0  0.67380  0.95990  0.34020  1.0000 0.637843934
O   O2006     1.0  0.43110  0.90930  0.36370  1.0000 -0.5037077391
C   C2125     1.0  0.08990  0.46400  0.35060  1.0000 0.0709581455
C   C2126     1.0  0.11250  0.44380  0.36620  1.0000 0.0709581455
C   C2127     1.0  0.07710  0.44890  0.34980  1.0000 -0.1807206609
C   C2128     1.0  0.09960  0.42890  0.36530  1.0000 -0.189473289
C   C2129     1.0  0.08200  0.43150  0.35720  1.0000 0.0978843566
C   C2130     1.0  0.10780  0.46140  0.35880  1.0000 -0.1219500515
C   C2131     1.0  0.10330  0.41400  0.37640  1.0000 0.637843934
C   C2132     1.0  0.12200  0.47750  0.35970  1.0000 0.637843934
C   C2133     1.0  0.06190  0.45000  0.33890  1.0000 0.6285624754
O   O2007     1.0  0.04990  0.43700  0.33960  1.0000 -0.6397820246
O   O2008     1.0  0.05830  0.46500  0.33080  1.0000 -0.6517776188
O   O2009     1.0  0.13610  0.47600  0.36980  1.0000 -0.5677502138
O   O2010     1.0  0.12030  0.49140  0.34910  1.0000 -0.5777560007
O   O2011     1.0  0.12000  0.41020  0.38040  1.0000 -0.609555034
O   O2012     1.0  0.09070  0.40220  0.37940  1.0000 -0.6397820246
C   C2134     1.0  0.98170  0.45800  0.34640  1.0000 0.0501834124
C   C2135     1.0  0.99470  0.47000  0.33790  1.0000 -0.0708048282
C   C2136     1.0  0.01240  0.46210  0.32960  1.0000 0.6800795649
O   O2013     1.0  0.95390  0.43260  0.34770  1.0000 -0.6517776188
O   O2014     1.0  0.01560  0.44520  0.33120  1.0000 -0.6162038559
O   O2015     1.0  0.02510  0.47300  0.32280  1.0000 -0.6782680781
Ti  Ti215     1.0  0.04934  0.47611  0.30791  1.0000 2.0212494802
O   O2016     1.0  0.03540  0.49080  0.28120  1.0000 -0.6397820246
C   C2137     1.0  0.20900  0.51700  0.38970  1.0000 0.0362362238
C   C2138     1.0  0.21040  0.51550  0.37010  1.0000 -0.1087284717
C   C2139     1.0  0.19690  0.50360  0.35960  1.0000 0.637843934
O   O2017     1.0  0.22770  0.54400  0.42830  1.0000 -0.6939314659
O   O2018     1.0  0.19380  0.50680  0.34260  1.0000 -0.5588135763
O   O2019     1.0  0.18740  0.49140  0.36820  1.0000 -0.5588135763
O   O2020     1.0  0.15100  0.39990  0.37150  1.0000 -0.6397820246
O   O2021     1.0  0.17650  0.47230  0.32780  1.0000 -0.5777560007
O   O2022     1.0  0.17370  0.46440  0.35720  1.0000 -0.5588135763
C   C2140     1.0  0.16940  0.42570  0.34820  1.0000 0.0286004543
C   C2141     1.0  0.17360  0.43950  0.33470  1.0000 -0.1004600406
C   C2142     1.0  0.17380  0.45990  0.34020  1.0000 0.637843934
O   O2023     1.0  0.93110  0.40930  0.36370  1.0000 -0.609555034
C   C2143     1.0  0.08990  0.96400  0.85060  1.0000 0.0709581455
C   C2144     1.0  0.11250  0.94380  0.86620  1.0000 0.0709581455
C   C2145     1.0  0.07710  0.94890  0.84980  1.0000 -0.1807206609
C   C2146     1.0  0.09960  0.92890  0.86530  1.0000 -0.189473289
C   C2147     1.0  0.08200  0.93150  0.85720  1.0000 0.094956158
C   C2148     1.0  0.10780  0.96140  0.85880  1.0000 -0.1219500515
C   C2149     1.0  0.10330  0.91400  0.87640  1.0000 0.637843934
C   C2150     1.0  0.12200  0.97750  0.85970  1.0000 0.637843934
C   C2151     1.0  0.06190  0.95000  0.83890  1.0000 0.6285624754
O   O2024     1.0  0.04990  0.93700  0.83960  1.0000 -0.6397820246
O   O2025     1.0  0.05830  0.96500  0.83080  1.0000 -0.6517776188
O   O2026     1.0  0.13610  0.97600  0.86980  1.0000 -0.5677502138
O   O2027     1.0  0.12030  0.99140  0.84910  1.0000 -0.5777560007
O   O2028     1.0  0.12000  0.91020  0.88040  1.0000 -0.609555034
O   O2029     1.0  0.09070  0.90220  0.87940  1.0000 -0.6346473784
C   C2152     1.0  0.98170  0.95800  0.84640  1.0000 0.0614820425
C   C2153     1.0  0.99470  0.97000  0.83790  1.0000 -0.0708048282
C   C2154     1.0  0.01240  0.96210  0.82960  1.0000 0.6800795649
O   O2030     1.0  0.95390  0.93260  0.84770  1.0000 -0.6517776188
O   O2031     1.0  0.01560  0.94520  0.83120  1.0000 -0.609555034
O   O2032     1.0  0.02510  0.97300  0.82280  1.0000 -0.6782680781
Ti  Ti216     1.0  0.04934  0.97611  0.80791  1.0000 2.0212494802
O   O2033     1.0  0.03540  0.99080  0.78120  1.0000 -0.6397820246
C   C2155     1.0  0.20900  0.01700  0.88970  1.0000 0.0362362238
C   C2156     1.0  0.21040  0.01550  0.87010  1.0000 -0.1087284717
C   C2157     1.0  0.19690  0.00360  0.85960  1.0000 0.637843934
O   O2034     1.0  0.22770  0.04400  0.92830  1.0000 -0.6939314659
O   O2035     1.0  0.19380  0.00680  0.84260  1.0000 -0.5588135763
O   O2036     1.0  0.18740  0.99140  0.86820  1.0000 -0.5588135763
O   O2037     1.0  0.15100  0.89990  0.87150  1.0000 -0.6397820246
O   O2038     1.0  0.17650  0.97230  0.82780  1.0000 -0.5777560007
O   O2039     1.0  0.17370  0.96440  0.85720  1.0000 -0.5588135763
C   C2158     1.0  0.16940  0.92570  0.84820  1.0000 0.0286004543
C   C2159     1.0  0.17360  0.93950  0.83470  1.0000 -0.1004600406
C   C2160     1.0  0.17380  0.95990  0.84020  1.0000 0.637843934
O   O2040     1.0  0.93110  0.90930  0.86370  1.0000 -0.6007274885
C   C2161     1.0  0.16010  0.96400  0.39940  1.0000 0.0709581455
C   C2162     1.0  0.13750  0.94380  0.38380  1.0000 0.0709581455
C   C2163     1.0  0.17290  0.94890  0.40020  1.0000 -0.1807206609
C   C2164     1.0  0.15040  0.92890  0.38470  1.0000 -0.189473289
C   C2165     1.0  0.16800  0.93150  0.39280  1.0000 0.0978843566
C   C2166     1.0  0.14220  0.96140  0.39120  1.0000 -0.1219500515
C   C2167     1.0  0.14670  0.91400  0.37360  1.0000 0.637843934
C   C2168     1.0  0.12800  0.97750  0.39030  1.0000 0.637843934
C   C2169     1.0  0.18810  0.95000  0.41110  1.0000 0.6285624754
O   O2041     1.0  0.20010  0.93700  0.41040  1.0000 -0.6397820246
O   O2042     1.0  0.19170  0.96500  0.41920  1.0000 -0.6517776188
O   O2043     1.0  0.11390  0.97600  0.38020  1.0000 -0.5677502138
O   O2044     1.0  0.12970  0.99140  0.40090  1.0000 -0.5777560007
O   O2045     1.0  0.13000  0.91020  0.36960  1.0000 -0.609555034
O   O2046     1.0  0.15930  0.90220  0.37060  1.0000 -0.6397820246
C   C2170     1.0  0.26830  0.95800  0.40360  1.0000 0.0501834124
C   C2171     1.0  0.25530  0.97000  0.41210  1.0000 -0.0708048282
C   C2172     1.0  0.23760  0.96210  0.42040  1.0000 0.6800795649
O   O2047     1.0  0.29610  0.93260  0.40230  1.0000 -0.5303997674
O   O2048     1.0  0.23440  0.94520  0.41880  1.0000 -0.609555034
O   O2049     1.0  0.22490  0.97300  0.42720  1.0000 -0.6782680781
Ti  Ti217     1.0  0.20066  0.97611  0.44209  1.0000 2.0212494802
O   O2050     1.0  0.21460  0.99080  0.46880  1.0000 -0.6397820246
C   C2173     1.0  0.04100  0.01700  0.36030  1.0000 0.0362362238
C   C2174     1.0  0.03960  0.01550  0.37990  1.0000 -0.1087284717
C   C2175     1.0  0.05310  0.00360  0.39040  1.0000 0.637843934
O   O2051     1.0  0.02230  0.04400  0.32170  1.0000 -0.6939314659
O   O2052     1.0  0.05620  0.00680  0.40740  1.0000 -0.5588135763
O   O2053     1.0  0.06260  0.99140  0.38180  1.0000 -0.5588135763
O   O2054     1.0  0.09900  0.89990  0.37850  1.0000 -0.6397820246
O   O2055     1.0  0.07350  0.97230  0.42220  1.0000 -0.5777560007
O   O2056     1.0  0.07630  0.96440  0.39280  1.0000 -0.5588135763
C   C2176     1.0  0.08060  0.92570  0.40180  1.0000 0.0286004543
C   C2177     1.0  0.07640  0.93950  0.41530  1.0000 -0.1004600406
C   C2178     1.0  0.07620  0.95990  0.40980  1.0000 0.637843934
O   O2057     1.0  0.31890  0.90930  0.38630  1.0000 -0.521012765
C   C2179     1.0  0.16010  0.46400  0.89940  1.0000 0.0760005572
C   C2180     1.0  0.13750  0.44380  0.88380  1.0000 0.0709581455
C   C2181     1.0  0.17290  0.44890  0.90020  1.0000 -0.1807206609
C   C2182     1.0  0.15040  0.42890  0.88470  1.0000 -0.189473289
C   C2183     1.0  0.16800  0.43150  0.89280  1.0000 0.0978843566
C   C2184     1.0  0.14220  0.46140  0.89120  1.0000 -0.1219500515
C   C2185     1.0  0.14670  0.41400  0.87360  1.0000 0.637843934
C   C2186     1.0  0.12800  0.47750  0.89030  1.0000 0.637843934
C   C2187     1.0  0.18810  0.45000  0.91110  1.0000 0.6285624754
O   O2058     1.0  0.20010  0.43700  0.91040  1.0000 -0.6397820246
O   O2059     1.0  0.19170  0.46500  0.91920  1.0000 -0.6517776188
O   O2060     1.0  0.11390  0.47600  0.88020  1.0000 -0.5677502138
O   O2061     1.0  0.12970  0.49140  0.90090  1.0000 -0.5777560007
O   O2062     1.0  0.13000  0.41020  0.86960  1.0000 -0.609555034
O   O2063     1.0  0.15930  0.40220  0.87060  1.0000 -0.6397820246
C   C2188     1.0  0.26830  0.45800  0.90360  1.0000 0.0614820425
C   C2189     1.0  0.25530  0.47000  0.91210  1.0000 -0.0708048282
C   C2190     1.0  0.23760  0.46210  0.92040  1.0000 0.6800795649
O   O2064     1.0  0.29610  0.43260  0.90230  1.0000 -0.5303997674
O   O2065     1.0  0.23440  0.44520  0.91880  1.0000 -0.609555034
O   O2066     1.0  0.22490  0.47300  0.92720  1.0000 -0.6782680781
Ti  Ti218     1.0  0.20066  0.47611  0.94209  1.0000 2.0212494802
O   O2067     1.0  0.21460  0.49080  0.96880  1.0000 -0.6397820246
C   C2191     1.0  0.04100  0.51700  0.86030  1.0000 0.0362362238
C   C2192     1.0  0.03960  0.51550  0.87990  1.0000 -0.1087284717
C   C2193     1.0  0.05310  0.50360  0.89040  1.0000 0.637843934
O   O2068     1.0  0.02230  0.54400  0.82170  1.0000 -0.6939314659
O   O2069     1.0  0.05620  0.50680  0.90740  1.0000 -0.5588135763
O   O2070     1.0  0.06260  0.49140  0.88180  1.0000 -0.5548712105
O   O2071     1.0  0.09900  0.39990  0.87850  1.0000 -0.6397820246
O   O2072     1.0  0.07350  0.47230  0.92220  1.0000 -0.5777560007
O   O2073     1.0  0.07630  0.46440  0.89280  1.0000 -0.5588135763
C   C2194     1.0  0.08060  0.42570  0.90180  1.0000 0.0286004543
C   C2195     1.0  0.07640  0.43950  0.91530  1.0000 -0.1004600406
C   C2196     1.0  0.07620  0.45990  0.90980  1.0000 0.637843934
O   O2074     1.0  0.31890  0.40930  0.88630  1.0000 -0.5106411624
C   C2197     1.0  0.66010  0.96400  0.89940  1.0000 0.0760005572
C   C2198     1.0  0.63750  0.94380  0.88380  1.0000 0.0709581455
C   C2199     1.0  0.67290  0.94890  0.90020  1.0000 -0.1807206609
C   C2200     1.0  0.65040  0.92890  0.88470  1.0000 -0.189473289
C   C2201     1.0  0.66800  0.93150  0.89280  1.0000 0.0978843566
C   C2202     1.0  0.64220  0.96140  0.89120  1.0000 -0.1219500515
C   C2203     1.0  0.64670  0.91400  0.87360  1.0000 0.637843934
C   C2204     1.0  0.62800  0.97750  0.89030  1.0000 0.637843934
C   C2205     1.0  0.68810  0.95000  0.91110  1.0000 0.6285624754
O   O2075     1.0  0.70010  0.93700  0.91040  1.0000 -0.6397820246
O   O2076     1.0  0.69170  0.96500  0.91920  1.0000 -0.6517776188
O   O2077     1.0  0.61390  0.97600  0.88020  1.0000 -0.5677502138
O   O2078     1.0  0.62970  0.99140  0.90090  1.0000 -0.5777560007
O   O2079     1.0  0.63000  0.91020  0.86960  1.0000 -0.609555034
O   O2080     1.0  0.65930  0.90220  0.87060  1.0000 -0.6346473784
C   C2206     1.0  0.76830  0.95800  0.90360  1.0000 0.0501834124
C   C2207     1.0  0.75530  0.97000  0.91210  1.0000 -0.0708048282
C   C2208     1.0  0.73760  0.96210  0.92040  1.0000 0.6800795649
O   O2081     1.0  0.79610  0.93260  0.90230  1.0000 -0.5303997674
O   O2082     1.0  0.73440  0.94520  0.91880  1.0000 -0.609555034
O   O2083     1.0  0.72490  0.97300  0.92720  1.0000 -0.6782680781
Ti  Ti219     1.0  0.70066  0.97611  0.94209  1.0000 2.0212494802
O   O2084     1.0  0.71460  0.99080  0.96880  1.0000 -0.6397820246
C   C2209     1.0  0.54100  0.01700  0.86030  1.0000 0.0362362238
C   C2210     1.0  0.53960  0.01550  0.87990  1.0000 -0.1087284717
C   C2211     1.0  0.55310  0.00360  0.89040  1.0000 0.637843934
O   O2085     1.0  0.52230  0.04400  0.82170  1.0000 -0.6939314659
O   O2086     1.0  0.55620  0.00680  0.90740  1.0000 -0.5588135763
O   O2087     1.0  0.56260  0.99140  0.88180  1.0000 -0.5588135763
O   O2088     1.0  0.59900  0.89990  0.87850  1.0000 -0.6397820246
O   O2089     1.0  0.57350  0.97230  0.92220  1.0000 -0.5777560007
O   O2090     1.0  0.57630  0.96440  0.89280  1.0000 -0.5588135763
C   C2212     1.0  0.58060  0.92570  0.90180  1.0000 0.0286004543
C   C2213     1.0  0.57640  0.93950  0.91530  1.0000 -0.1004600406
C   C2214     1.0  0.57620  0.95990  0.90980  1.0000 0.637843934
O   O2091     1.0  0.81890  0.90930  0.88630  1.0000 -0.5106411624
C   C2215     1.0  0.66010  0.46400  0.39940  1.0000 0.0760005572
C   C2216     1.0  0.63750  0.44380  0.38380  1.0000 0.0709581455
C   C2217     1.0  0.67290  0.44890  0.40020  1.0000 -0.1807206609
C   C2218     1.0  0.65040  0.42890  0.38470  1.0000 -0.189473289
C   C2219     1.0  0.66800  0.43150  0.39280  1.0000 0.0978843566
C   C2220     1.0  0.64220  0.46140  0.39120  1.0000 -0.1219500515
C   C2221     1.0  0.64670  0.41400  0.37360  1.0000 0.637843934
C   C2222     1.0  0.62800  0.47750  0.39030  1.0000 0.637843934
C   C2223     1.0  0.68810  0.45000  0.41110  1.0000 0.6285624754
O   O2092     1.0  0.70010  0.43700  0.41040  1.0000 -0.6397820246
O   O2093     1.0  0.69170  0.46500  0.41920  1.0000 -0.6517776188
O   O2094     1.0  0.61390  0.47600  0.38020  1.0000 -0.5677502138
O   O2095     1.0  0.62970  0.49140  0.40090  1.0000 -0.5777560007
O   O2096     1.0  0.63000  0.41020  0.36960  1.0000 -0.609555034
O   O2097     1.0  0.65930  0.40220  0.37060  1.0000 -0.6397820246
C   C2224     1.0  0.76830  0.45800  0.40360  1.0000 0.0614820425
C   C2225     1.0  0.75530  0.47000  0.41210  1.0000 -0.0708048282
C   C2226     1.0  0.73760  0.46210  0.42040  1.0000 0.6800795649
O   O2098     1.0  0.79610  0.43260  0.40230  1.0000 -0.5303997674
O   O2099     1.0  0.73440  0.44520  0.41880  1.0000 -0.609555034
O   O2100     1.0  0.72490  0.47300  0.42720  1.0000 -0.6782680781
Ti  Ti220     1.0  0.70066  0.47611  0.44209  1.0000 2.0212494802
O   O2101     1.0  0.71460  0.49080  0.46880  1.0000 -0.6397820246
C   C2227     1.0  0.54100  0.51700  0.36030  1.0000 0.0362362238
C   C2228     1.0  0.53960  0.51550  0.37990  1.0000 -0.1087284717
C   C2229     1.0  0.55310  0.50360  0.39040  1.0000 0.637843934
O   O2102     1.0  0.52230  0.54400  0.32170  1.0000 -0.6939314659
O   O2103     1.0  0.55620  0.50680  0.40740  1.0000 -0.5588135763
O   O2104     1.0  0.56260  0.49140  0.38180  1.0000 -0.5588135763
O   O2105     1.0  0.59900  0.39990  0.37850  1.0000 -0.6397820246
O   O2106     1.0  0.57350  0.47230  0.42220  1.0000 -0.5777560007
O   O2107     1.0  0.57630  0.46440  0.39280  1.0000 -0.5588135763
C   C2230     1.0  0.58060  0.42570  0.40180  1.0000 0.0286004543
C   C2231     1.0  0.57640  0.43950  0.41530  1.0000 -0.1004600406
C   C2232     1.0  0.57620  0.45990  0.40980  1.0000 0.637843934
O   O2108     1.0  0.81890  0.40930  0.38630  1.0000 -0.5106411624
C   C2233     1.0  0.66010  0.28600  0.35060  1.0000 0.0760005572
C   C2234     1.0  0.63750  0.30620  0.36620  1.0000 0.0709581455
C   C2235     1.0  0.67290  0.30110  0.34980  1.0000 -0.1807206609
C   C2236     1.0  0.65040  0.32110  0.36530  1.0000 -0.189473289
C   C2237     1.0  0.66800  0.31850  0.35720  1.0000 0.0978843566
C   C2238     1.0  0.64220  0.28860  0.35880  1.0000 -0.1219500515
C   C2239     1.0  0.64670  0.33600  0.37640  1.0000 0.637843934
C   C2240     1.0  0.62800  0.27250  0.35970  1.0000 0.637843934
C   C2241     1.0  0.68810  0.30000  0.33890  1.0000 0.6285624754
O   O2109     1.0  0.70010  0.31300  0.33960  1.0000 -0.6397820246
O   O2110     1.0  0.69170  0.28500  0.33080  1.0000 -0.6517776188
O   O2111     1.0  0.61390  0.27400  0.36980  1.0000 -0.5677502138
O   O2112     1.0  0.62970  0.25860  0.34910  1.0000 -0.5777560007
O   O2113     1.0  0.63000  0.33980  0.38040  1.0000 -0.609555034
O   O2114     1.0  0.65930  0.34780  0.37940  1.0000 -0.6397820246
C   C2242     1.0  0.76830  0.29200  0.34640  1.0000 0.0614820425
C   C2243     1.0  0.75530  0.28000  0.33790  1.0000 -0.0708048282
C   C2244     1.0  0.73760  0.28790  0.32960  1.0000 0.6800795649
O   O2115     1.0  0.79610  0.31740  0.34770  1.0000 -0.6517776188
O   O2116     1.0  0.73440  0.30480  0.33120  1.0000 -0.6162038559
O   O2117     1.0  0.72490  0.27700  0.32280  1.0000 -0.6782680781
Ti  Ti221     1.0  0.70066  0.27389  0.30791  1.0000 2.0212494802
O   O2118     1.0  0.71460  0.25920  0.28120  1.0000 -0.6397820246
C   C2245     1.0  0.54100  0.23300  0.38970  1.0000 0.0362362238
C   C2246     1.0  0.53960  0.23450  0.37010  1.0000 -0.1087284717
C   C2247     1.0  0.55310  0.24640  0.35960  1.0000 0.637843934
O   O2119     1.0  0.52230  0.20600  0.42830  1.0000 -0.6939314659
O   O2120     1.0  0.55620  0.24320  0.34260  1.0000 -0.5588135763
O   O2121     1.0  0.56260  0.25860  0.36820  1.0000 -0.5588135763
O   O2122     1.0  0.59900  0.35010  0.37150  1.0000 -0.6397820246
O   O2123     1.0  0.57350  0.27770  0.32780  1.0000 -0.5777560007
O   O2124     1.0  0.57630  0.28560  0.35720  1.0000 -0.5588135763
C   C2248     1.0  0.58060  0.32430  0.34820  1.0000 0.0286004543
C   C2249     1.0  0.57640  0.31050  0.33470  1.0000 -0.1004600406
C   C2250     1.0  0.57620  0.29010  0.34020  1.0000 0.637843934
O   O2125     1.0  0.81890  0.34070  0.36370  1.0000 -0.6007274885
C   C2251     1.0  0.66010  0.78600  0.85060  1.0000 0.0760005572
C   C2252     1.0  0.63750  0.80620  0.86620  1.0000 0.0709581455
C   C2253     1.0  0.67290  0.80110  0.84980  1.0000 -0.1807206609
C   C2254     1.0  0.65040  0.82110  0.86530  1.0000 -0.189473289
C   C2255     1.0  0.66800  0.81850  0.85720  1.0000 0.0978843566
C   C2256     1.0  0.64220  0.78860  0.85880  1.0000 -0.1219500515
C   C2257     1.0  0.64670  0.83600  0.87640  1.0000 0.637843934
C   C2258     1.0  0.62800  0.77250  0.85970  1.0000 0.637843934
C   C2259     1.0  0.68810  0.80000  0.83890  1.0000 0.6285624754
O   O2126     1.0  0.70010  0.81300  0.83960  1.0000 -0.6397820246
O   O2127     1.0  0.69170  0.78500  0.83080  1.0000 -0.6517776188
O   O2128     1.0  0.61390  0.77400  0.86980  1.0000 -0.5677502138
O   O2129     1.0  0.62970  0.75860  0.84910  1.0000 -0.5777560007
O   O2130     1.0  0.63000  0.83980  0.88040  1.0000 -0.609555034
O   O2131     1.0  0.65930  0.84780  0.87940  1.0000 -0.6346473784
C   C2260     1.0  0.76830  0.79200  0.84640  1.0000 0.0614820425
C   C2261     1.0  0.75530  0.78000  0.83790  1.0000 -0.0708048282
C   C2262     1.0  0.73760  0.78790  0.82960  1.0000 0.6800795649
O   O2132     1.0  0.79610  0.81740  0.84770  1.0000 -0.6517776188
O   O2133     1.0  0.73440  0.80480  0.83120  1.0000 -0.6162038559
O   O2134     1.0  0.72490  0.77700  0.82280  1.0000 -0.6782680781
Ti  Ti222     1.0  0.70066  0.77389  0.80791  1.0000 2.0212494802
O   O2135     1.0  0.71460  0.75920  0.78120  1.0000 -0.6397820246
C   C2263     1.0  0.54100  0.73300  0.88970  1.0000 0.0362362238
C   C2264     1.0  0.53960  0.73450  0.87010  1.0000 -0.1087284717
C   C2265     1.0  0.55310  0.74640  0.85960  1.0000 0.637843934
O   O2136     1.0  0.52230  0.70600  0.92830  1.0000 -0.6939314659
O   O2137     1.0  0.55620  0.74320  0.84260  1.0000 -0.5588135763
O   O2138     1.0  0.56260  0.75860  0.86820  1.0000 -0.5588135763
O   O2139     1.0  0.59900  0.85010  0.87150  1.0000 -0.6397820246
O   O2140     1.0  0.57350  0.77770  0.82780  1.0000 -0.5777560007
O   O2141     1.0  0.57630  0.78560  0.85720  1.0000 -0.5588135763
C   C2266     1.0  0.58060  0.82430  0.84820  1.0000 0.0286004543
C   C2267     1.0  0.57640  0.81050  0.83470  1.0000 -0.1004600406
C   C2268     1.0  0.57620  0.79010  0.84020  1.0000 0.637843934
O   O2142     1.0  0.81890  0.84070  0.86370  1.0000 -0.6007274885
C   C2269     1.0  0.16010  0.28600  0.85060  1.0000 0.0760005572
C   C2270     1.0  0.13750  0.30620  0.86620  1.0000 0.0709581455
C   C2271     1.0  0.17290  0.30110  0.84980  1.0000 -0.1807206609
C   C2272     1.0  0.15040  0.32110  0.86530  1.0000 -0.189473289
C   C2273     1.0  0.16800  0.31850  0.85720  1.0000 0.0978843566
C   C2274     1.0  0.14220  0.28860  0.85880  1.0000 -0.1219500515
C   C2275     1.0  0.14670  0.33600  0.87640  1.0000 0.637843934
C   C2276     1.0  0.12800  0.27250  0.85970  1.0000 0.637843934
C   C2277     1.0  0.18810  0.30000  0.83890  1.0000 0.6285624754
O   O2143     1.0  0.20010  0.31300  0.83960  1.0000 -0.6397820246
O   O2144     1.0  0.19170  0.28500  0.83080  1.0000 -0.6517776188
O   O2145     1.0  0.11390  0.27400  0.86980  1.0000 -0.5677502138
O   O2146     1.0  0.12970  0.25860  0.84910  1.0000 -0.5777560007
O   O2147     1.0  0.13000  0.33980  0.88040  1.0000 -0.609555034
O   O2148     1.0  0.15930  0.34780  0.87940  1.0000 -0.6397820246
C   C2278     1.0  0.26830  0.29200  0.84640  1.0000 0.0501834124
C   C2279     1.0  0.25530  0.28000  0.83790  1.0000 -0.0708048282
C   C2280     1.0  0.23760  0.28790  0.82960  1.0000 0.6800795649
O   O2149     1.0  0.29610  0.31740  0.84770  1.0000 -0.6517776188
O   O2150     1.0  0.23440  0.30480  0.83120  1.0000 -0.6162038559
O   O2151     1.0  0.22490  0.27700  0.82280  1.0000 -0.6782680781
Ti  Ti223     1.0  0.20066  0.27389  0.80791  1.0000 2.0212494802
O   O2152     1.0  0.21460  0.25920  0.78120  1.0000 -0.6397820246
C   C2281     1.0  0.04100  0.23300  0.88970  1.0000 0.0362362238
C   C2282     1.0  0.03960  0.23450  0.87010  1.0000 -0.1087284717
C   C2283     1.0  0.05310  0.24640  0.85960  1.0000 0.637843934
O   O2153     1.0  0.02230  0.20600  0.92830  1.0000 -0.6939314659
O   O2154     1.0  0.05620  0.24320  0.84260  1.0000 -0.5588135763
O   O2155     1.0  0.06260  0.25860  0.86820  1.0000 -0.5588135763
O   O2156     1.0  0.09900  0.35010  0.87150  1.0000 -0.6397820246
O   O2157     1.0  0.07350  0.27770  0.82780  1.0000 -0.5777560007
O   O2158     1.0  0.07630  0.28560  0.85720  1.0000 -0.5588135763
C   C2284     1.0  0.08060  0.32430  0.84820  1.0000 0.0286004543
C   C2285     1.0  0.07640  0.31050  0.83470  1.0000 -0.1004600406
C   C2286     1.0  0.07620  0.29010  0.84020  1.0000 0.637843934
O   O2159     1.0  0.31890  0.34070  0.86370  1.0000 -0.609555034
C   C2287     1.0  0.16010  0.78600  0.35060  1.0000 0.0709581455
C   C2288     1.0  0.13750  0.80620  0.36620  1.0000 0.0709581455
C   C2289     1.0  0.17290  0.80110  0.34980  1.0000 -0.1807206609
C   C2290     1.0  0.15040  0.82110  0.36530  1.0000 -0.189473289
C   C2291     1.0  0.16800  0.81850  0.35720  1.0000 0.0978843566
C   C2292     1.0  0.14220  0.78860  0.35880  1.0000 -0.1219500515
C   C2293     1.0  0.14670  0.83600  0.37640  1.0000 0.637843934
C   C2294     1.0  0.12800  0.77250  0.35970  1.0000 0.637843934
C   C2295     1.0  0.18810  0.80000  0.33890  1.0000 0.6285624754
O   O2160     1.0  0.20010  0.81300  0.33960  1.0000 -0.6397820246
O   O2161     1.0  0.19170  0.78500  0.33080  1.0000 -0.6517776188
O   O2162     1.0  0.11390  0.77400  0.36980  1.0000 -0.5677502138
O   O2163     1.0  0.12970  0.75860  0.34910  1.0000 -0.5677502138
O   O2164     1.0  0.13000  0.83980  0.38040  1.0000 -0.609555034
O   O2165     1.0  0.15930  0.84780  0.37940  1.0000 -0.6397820246
C   C2296     1.0  0.26830  0.79200  0.34640  1.0000 0.0501834124
C   C2297     1.0  0.25530  0.78000  0.33790  1.0000 -0.0708048282
C   C2298     1.0  0.23760  0.78790  0.32960  1.0000 0.6800795649
O   O2166     1.0  0.29610  0.81740  0.34770  1.0000 -0.6517776188
O   O2167     1.0  0.23440  0.80480  0.33120  1.0000 -0.6162038559
O   O2168     1.0  0.22490  0.77700  0.32280  1.0000 -0.6782680781
Ti  Ti224     1.0  0.20066  0.77389  0.30791  1.0000 2.0212494802
O   O2169     1.0  0.21460  0.75920  0.28120  1.0000 -0.6397820246
C   C2299     1.0  0.04100  0.73300  0.38970  1.0000 0.0286004543
C   C2300     1.0  0.03960  0.73450  0.37010  1.0000 -0.1087284717
C   C2301     1.0  0.05310  0.74640  0.35960  1.0000 0.637843934
O   O2170     1.0  0.02230  0.70600  0.42830  1.0000 -0.6939314659
O   O2171     1.0  0.05620  0.74320  0.34260  1.0000 -0.5588135763
O   O2172     1.0  0.06260  0.75860  0.36820  1.0000 -0.5588135763
O   O2173     1.0  0.09900  0.85010  0.37150  1.0000 -0.6397820246
O   O2174     1.0  0.07350  0.77770  0.32780  1.0000 -0.5777560007
O   O2175     1.0  0.07630  0.78560  0.35720  1.0000 -0.5588135763
C   C2302     1.0  0.08060  0.82430  0.34820  1.0000 0.0286004543
C   C2303     1.0  0.07640  0.81050  0.33470  1.0000 -0.1004600406
C   C2304     1.0  0.07620  0.79010  0.34020  1.0000 0.637843934
O   O2176     1.0  0.31890  0.84070  0.36370  1.0000 -0.609555034
C   C2305     1.0  0.89940  0.08990  0.78600  1.0000 0.0760005572
C   C2306     1.0  0.88380  0.11250  0.80620  1.0000 0.0709581455
C   C2307     1.0  0.90020  0.07710  0.80110  1.0000 -0.1807206609
C   C2308     1.0  0.88470  0.09960  0.82110  1.0000 -0.189473289
C   C2309     1.0  0.89280  0.08200  0.81850  1.0000 0.0978843566
C   C2310     1.0  0.89120  0.10780  0.78860  1.0000 -0.1219500515
C   C2311     1.0  0.87360  0.10330  0.83600  1.0000 0.637843934
C   C2312     1.0  0.89030  0.12200  0.77250  1.0000 0.637843934
C   C2313     1.0  0.91110  0.06190  0.80000  1.0000 0.6285624754
O   O2177     1.0  0.91040  0.04990  0.81300  1.0000 -0.6397820246
O   O2178     1.0  0.91920  0.05830  0.78500  1.0000 -0.6517776188
O   O2179     1.0  0.88020  0.13610  0.77400  1.0000 -0.5677502138
O   O2180     1.0  0.90090  0.12030  0.75860  1.0000 -0.5777560007
O   O2181     1.0  0.86960  0.12000  0.83980  1.0000 -0.609555034
O   O2182     1.0  0.87060  0.09070  0.84780  1.0000 -0.6397820246
C   C2314     1.0  0.90360  0.98170  0.79200  1.0000 0.0614820425
C   C2315     1.0  0.91210  0.99470  0.78000  1.0000 -0.0708048282
C   C2316     1.0  0.92040  0.01240  0.78790  1.0000 0.6800795649
O   O2183     1.0  0.90230  0.95390  0.81740  1.0000 -0.5303997674
O   O2184     1.0  0.91880  0.01560  0.80480  1.0000 -0.609555034
O   O2185     1.0  0.92720  0.02510  0.77700  1.0000 -0.6782680781
Ti  Ti225     1.0  0.94209  0.04934  0.77389  1.0000 2.0212494802
O   O2186     1.0  0.96880  0.03540  0.75920  1.0000 -0.6397820246
C   C2317     1.0  0.86030  0.20900  0.73300  1.0000 0.0362362238
C   C2318     1.0  0.87990  0.21040  0.73450  1.0000 -0.1087284717
C   C2319     1.0  0.89040  0.19690  0.74640  1.0000 0.637843934
O   O2187     1.0  0.82170  0.22770  0.70600  1.0000 -0.6939314659
O   O2188     1.0  0.90740  0.19380  0.74320  1.0000 -0.5588135763
O   O2189     1.0  0.88180  0.18740  0.75860  1.0000 -0.5588135763
O   O2190     1.0  0.87850  0.15100  0.85010  1.0000 -0.6397820246
O   O2191     1.0  0.92220  0.17650  0.77770  1.0000 -0.5777560007
O   O2192     1.0  0.89280  0.17370  0.78560  1.0000 -0.5588135763
C   C2320     1.0  0.90180  0.16940  0.82430  1.0000 0.0286004543
C   C2321     1.0  0.91530  0.17360  0.81050  1.0000 -0.1004600406
C   C2322     1.0  0.90980  0.17380  0.79010  1.0000 0.637843934
O   O2193     1.0  0.88630  0.93110  0.84070  1.0000 -0.5106411624
C   C2323     1.0  0.89940  0.58990  0.28600  1.0000 0.0760005572
C   C2324     1.0  0.88380  0.61250  0.30620  1.0000 0.0709581455
C   C2325     1.0  0.90020  0.57710  0.30110  1.0000 -0.1807206609
C   C2326     1.0  0.88470  0.59960  0.32110  1.0000 -0.189473289
C   C2327     1.0  0.89280  0.58200  0.31850  1.0000 0.0978843566
C   C2328     1.0  0.89120  0.60780  0.28860  1.0000 -0.1219500515
C   C2329     1.0  0.87360  0.60330  0.33600  1.0000 0.637843934
C   C2330     1.0  0.89030  0.62200  0.27250  1.0000 0.637843934
C   C2331     1.0  0.91110  0.56190  0.30000  1.0000 0.6285624754
O   O2194     1.0  0.91040  0.54990  0.31300  1.0000 -0.6397820246
O   O2195     1.0  0.91920  0.55830  0.28500  1.0000 -0.6517776188
O   O2196     1.0  0.88020  0.63610  0.27400  1.0000 -0.5677502138
O   O2197     1.0  0.90090  0.62030  0.25860  1.0000 -0.5777560007
O   O2198     1.0  0.86960  0.62000  0.33980  1.0000 -0.609555034
O   O2199     1.0  0.87060  0.59070  0.34780  1.0000 -0.6397820246
C   C2332     1.0  0.90360  0.48170  0.29200  1.0000 0.0614820425
C   C2333     1.0  0.91210  0.49470  0.28000  1.0000 -0.0708048282
C   C2334     1.0  0.92040  0.51240  0.28790  1.0000 0.6800795649
O   O2200     1.0  0.90230  0.45390  0.31740  1.0000 -0.6517776188
O   O2201     1.0  0.91880  0.51560  0.30480  1.0000 -0.6162038559
O   O2202     1.0  0.92720  0.52510  0.27700  1.0000 -0.6782680781
Ti  Ti226     1.0  0.94209  0.54934  0.27389  1.0000 2.0212494802
O   O2203     1.0  0.96880  0.53540  0.25920  1.0000 -0.6397820246
C   C2335     1.0  0.86030  0.70900  0.23300  1.0000 0.0362362238
C   C2336     1.0  0.87990  0.71040  0.23450  1.0000 -0.1087284717
C   C2337     1.0  0.89040  0.69690  0.24640  1.0000 0.637843934
O   O2204     1.0  0.82170  0.72770  0.20600  1.0000 -0.6939314659
O   O2205     1.0  0.90740  0.69380  0.24320  1.0000 -0.5588135763
O   O2206     1.0  0.88180  0.68740  0.25860  1.0000 -0.5588135763
O   O2207     1.0  0.87850  0.65100  0.35010  1.0000 -0.6397820246
O   O2208     1.0  0.92220  0.67650  0.27770  1.0000 -0.5777560007
O   O2209     1.0  0.89280  0.67370  0.28560  1.0000 -0.5588135763
C   C2338     1.0  0.90180  0.66940  0.32430  1.0000 0.0286004543
C   C2339     1.0  0.91530  0.67360  0.31050  1.0000 -0.1004600406
C   C2340     1.0  0.90980  0.67380  0.29010  1.0000 0.637843934
O   O2210     1.0  0.88630  0.43110  0.34070  1.0000 -0.6007274885
C   C2341     1.0  0.39940  0.08990  0.28600  1.0000 0.0760005572
C   C2342     1.0  0.38380  0.11250  0.30620  1.0000 0.0709581455
C   C2343     1.0  0.40020  0.07710  0.30110  1.0000 -0.1807206609
C   C2344     1.0  0.38470  0.09960  0.32110  1.0000 -0.189473289
C   C2345     1.0  0.39280  0.08200  0.31850  1.0000 0.0978843566
C   C2346     1.0  0.39120  0.10780  0.28860  1.0000 -0.1219500515
C   C2347     1.0  0.37360  0.10330  0.33600  1.0000 0.637843934
C   C2348     1.0  0.39030  0.12200  0.27250  1.0000 0.637843934
C   C2349     1.0  0.41110  0.06190  0.30000  1.0000 0.6285624754
O   O2211     1.0  0.41040  0.04990  0.31300  1.0000 -0.6397820246
O   O2212     1.0  0.41920  0.05830  0.28500  1.0000 -0.6517776188
O   O2213     1.0  0.38020  0.13610  0.27400  1.0000 -0.5677502138
O   O2214     1.0  0.40090  0.12030  0.25860  1.0000 -0.5777560007
O   O2215     1.0  0.36960  0.12000  0.33980  1.0000 -0.609555034
O   O2216     1.0  0.37060  0.09070  0.34780  1.0000 -0.6397820246
C   C2350     1.0  0.40360  0.98170  0.29200  1.0000 0.0614820425
C   C2351     1.0  0.41210  0.99470  0.28000  1.0000 -0.0708048282
C   C2352     1.0  0.42040  0.01240  0.28790  1.0000 0.6800795649
O   O2217     1.0  0.40230  0.95390  0.31740  1.0000 -0.5303997674
O   O2218     1.0  0.41880  0.01560  0.30480  1.0000 -0.609555034
O   O2219     1.0  0.42720  0.02510  0.27700  1.0000 -0.6782680781
Ti  Ti227     1.0  0.44209  0.04934  0.27389  1.0000 2.0212494802
O   O2220     1.0  0.46880  0.03540  0.25920  1.0000 -0.6397820246
C   C2353     1.0  0.36030  0.20900  0.23300  1.0000 0.0362362238
C   C2354     1.0  0.37990  0.21040  0.23450  1.0000 -0.1087284717
C   C2355     1.0  0.39040  0.19690  0.24640  1.0000 0.637843934
O   O2221     1.0  0.32170  0.22770  0.20600  1.0000 -0.6939314659
O   O2222     1.0  0.40740  0.19380  0.24320  1.0000 -0.5588135763
O   O2223     1.0  0.38180  0.18740  0.25860  1.0000 -0.5588135763
O   O2224     1.0  0.37850  0.15100  0.35010  1.0000 -0.6397820246
O   O2225     1.0  0.42220  0.17650  0.27770  1.0000 -0.5777560007
O   O2226     1.0  0.39280  0.17370  0.28560  1.0000 -0.5588135763
C   C2356     1.0  0.40180  0.16940  0.32430  1.0000 0.0286004543
C   C2357     1.0  0.41530  0.17360  0.31050  1.0000 -0.1004600406
C   C2358     1.0  0.40980  0.17380  0.29010  1.0000 0.637843934
O   O2227     1.0  0.38630  0.93110  0.34070  1.0000 -0.5037077391
C   C2359     1.0  0.39940  0.58990  0.78600  1.0000 0.0760005572
C   C2360     1.0  0.38380  0.61250  0.80620  1.0000 0.0709581455
C   C2361     1.0  0.40020  0.57710  0.80110  1.0000 -0.1807206609
C   C2362     1.0  0.38470  0.59960  0.82110  1.0000 -0.189473289
C   C2363     1.0  0.39280  0.58200  0.81850  1.0000 0.0978843566
C   C2364     1.0  0.39120  0.60780  0.78860  1.0000 -0.1219500515
C   C2365     1.0  0.37360  0.60330  0.83600  1.0000 0.637843934
C   C2366     1.0  0.39030  0.62200  0.77250  1.0000 0.637843934
C   C2367     1.0  0.41110  0.56190  0.80000  1.0000 0.6285624754
O   O2228     1.0  0.41040  0.54990  0.81300  1.0000 -0.6397820246
O   O2229     1.0  0.41920  0.55830  0.78500  1.0000 -0.6517776188
O   O2230     1.0  0.38020  0.63610  0.77400  1.0000 -0.5677502138
O   O2231     1.0  0.40090  0.62030  0.75860  1.0000 -0.5777560007
O   O2232     1.0  0.36960  0.62000  0.83980  1.0000 -0.609555034
O   O2233     1.0  0.37060  0.59070  0.84780  1.0000 -0.6397820246
C   C2368     1.0  0.40360  0.48170  0.79200  1.0000 0.0614820425
C   C2369     1.0  0.41210  0.49470  0.78000  1.0000 -0.0708048282
C   C2370     1.0  0.42040  0.51240  0.78790  1.0000 0.6800795649
O   O2234     1.0  0.40230  0.45390  0.81740  1.0000 -0.6517776188
O   O2235     1.0  0.41880  0.51560  0.80480  1.0000 -0.6162038559
O   O2236     1.0  0.42720  0.52510  0.77700  1.0000 -0.6782680781
Ti  Ti228     1.0  0.44209  0.54934  0.77389  1.0000 2.0212494802
O   O2237     1.0  0.46880  0.53540  0.75920  1.0000 -0.6397820246
C   C2371     1.0  0.36030  0.70900  0.73300  1.0000 0.0362362238
C   C2372     1.0  0.37990  0.71040  0.73450  1.0000 -0.1087284717
C   C2373     1.0  0.39040  0.69690  0.74640  1.0000 0.637843934
O   O2238     1.0  0.32170  0.72770  0.70600  1.0000 -0.6939314659
O   O2239     1.0  0.40740  0.69380  0.74320  1.0000 -0.5588135763
O   O2240     1.0  0.38180  0.68740  0.75860  1.0000 -0.5588135763
O   O2241     1.0  0.37850  0.65100  0.85010  1.0000 -0.6397820246
O   O2242     1.0  0.42220  0.67650  0.77770  1.0000 -0.5777560007
O   O2243     1.0  0.39280  0.67370  0.78560  1.0000 -0.5588135763
C   C2374     1.0  0.40180  0.66940  0.82430  1.0000 0.0286004543
C   C2375     1.0  0.41530  0.67360  0.81050  1.0000 -0.1004600406
C   C2376     1.0  0.40980  0.67380  0.79010  1.0000 0.637843934
O   O2244     1.0  0.38630  0.43110  0.84070  1.0000 -0.6007274885
C   C2377     1.0  0.85060  0.58990  0.46400  1.0000 0.0760005572
C   C2378     1.0  0.86620  0.61250  0.44380  1.0000 0.0709581455
C   C2379     1.0  0.84980  0.57710  0.44890  1.0000 -0.1807206609
C   C2380     1.0  0.86530  0.59960  0.42890  1.0000 -0.189473289
C   C2381     1.0  0.85720  0.58200  0.43150  1.0000 0.0978843566
C   C2382     1.0  0.85880  0.60780  0.46140  1.0000 -0.1219500515
C   C2383     1.0  0.87640  0.60330  0.41400  1.0000 0.637843934
C   C2384     1.0  0.85970  0.62200  0.47750  1.0000 0.637843934
C   C2385     1.0  0.83890  0.56190  0.45000  1.0000 0.6285624754
O   O2245     1.0  0.83960  0.54990  0.43700  1.0000 -0.6397820246
O   O2246     1.0  0.83080  0.55830  0.46500  1.0000 -0.6517776188
O   O2247     1.0  0.86980  0.63610  0.47600  1.0000 -0.5677502138
O   O2248     1.0  0.84910  0.62030  0.49140  1.0000 -0.5777560007
O   O2249     1.0  0.88040  0.62000  0.41020  1.0000 -0.609555034
O   O2250     1.0  0.87940  0.59070  0.40220  1.0000 -0.6397820246
C   C2386     1.0  0.84640  0.48170  0.45800  1.0000 0.0501834124
C   C2387     1.0  0.83790  0.49470  0.47000  1.0000 -0.0708048282
C   C2388     1.0  0.82960  0.51240  0.46210  1.0000 0.6800795649
O   O2251     1.0  0.84770  0.45390  0.43260  1.0000 -0.5303997674
O   O2252     1.0  0.83120  0.51560  0.44520  1.0000 -0.609555034
O   O2253     1.0  0.82280  0.52510  0.47300  1.0000 -0.6782680781
Ti  Ti229     1.0  0.80791  0.54934  0.47611  1.0000 2.0212494802
O   O2254     1.0  0.78120  0.53540  0.49080  1.0000 -0.6397820246
C   C2389     1.0  0.88970  0.70900  0.51700  1.0000 0.0362362238
C   C2390     1.0  0.87010  0.71040  0.51550  1.0000 -0.1087284717
C   C2391     1.0  0.85960  0.69690  0.50360  1.0000 0.637843934
O   O2255     1.0  0.92830  0.72770  0.54400  1.0000 -0.6939314659
O   O2256     1.0  0.84260  0.69380  0.50680  1.0000 -0.5588135763
O   O2257     1.0  0.86820  0.68740  0.49140  1.0000 -0.5588135763
O   O2258     1.0  0.87150  0.65100  0.39990  1.0000 -0.6397820246
O   O2259     1.0  0.82780  0.67650  0.47230  1.0000 -0.5777560007
O   O2260     1.0  0.85720  0.67370  0.46440  1.0000 -0.5588135763
C   C2392     1.0  0.84820  0.66940  0.42570  1.0000 0.0286004543
C   C2393     1.0  0.83470  0.67360  0.43950  1.0000 -0.1004600406
C   C2394     1.0  0.84020  0.67380  0.45990  1.0000 0.637843934
O   O2261     1.0  0.86370  0.43110  0.40930  1.0000 -0.5106411624
C   C2395     1.0  0.85060  0.08990  0.96400  1.0000 0.0760005572
C   C2396     1.0  0.86620  0.11250  0.94380  1.0000 0.0709581455
C   C2397     1.0  0.84980  0.07710  0.94890  1.0000 -0.1807206609
C   C2398     1.0  0.86530  0.09960  0.92890  1.0000 -0.189473289
C   C2399     1.0  0.85720  0.08200  0.93150  1.0000 0.0978843566
C   C2400     1.0  0.85880  0.10780  0.96140  1.0000 -0.1219500515
C   C2401     1.0  0.87640  0.10330  0.91400  1.0000 0.637843934
C   C2402     1.0  0.85970  0.12200  0.97750  1.0000 0.637843934
C   C2403     1.0  0.83890  0.06190  0.95000  1.0000 0.6285624754
O   O2262     1.0  0.83960  0.04990  0.93700  1.0000 -0.6397820246
O   O2263     1.0  0.83080  0.05830  0.96500  1.0000 -0.6517776188
O   O2264     1.0  0.86980  0.13610  0.97600  1.0000 -0.5677502138
O   O2265     1.0  0.84910  0.12030  0.99140  1.0000 -0.5777560007
O   O2266     1.0  0.88040  0.12000  0.91020  1.0000 -0.609555034
O   O2267     1.0  0.87940  0.09070  0.90220  1.0000 -0.6397820246
C   C2404     1.0  0.84640  0.98170  0.95800  1.0000 0.0614820425
C   C2405     1.0  0.83790  0.99470  0.97000  1.0000 -0.0708048282
C   C2406     1.0  0.82960  0.01240  0.96210  1.0000 0.6800795649
O   O2268     1.0  0.84770  0.95390  0.93260  1.0000 -0.6517776188
O   O2269     1.0  0.83120  0.01560  0.94520  1.0000 -0.6162038559
O   O2270     1.0  0.82280  0.02510  0.97300  1.0000 -0.6782680781
Ti  Ti230     1.0  0.80791  0.04934  0.97611  1.0000 2.0212494802
O   O2271     1.0  0.78120  0.03540  0.99080  1.0000 -0.6397820246
C   C2407     1.0  0.88970  0.20900  0.01700  1.0000 0.0362362238
C   C2408     1.0  0.87010  0.21040  0.01550  1.0000 -0.1087284717
C   C2409     1.0  0.85960  0.19690  0.00360  1.0000 0.637843934
O   O2272     1.0  0.92830  0.22770  0.04400  1.0000 -0.6939314659
O   O2273     1.0  0.84260  0.19380  0.00680  1.0000 -0.5588135763
O   O2274     1.0  0.86820  0.18740  0.99140  1.0000 -0.5588135763
O   O2275     1.0  0.87150  0.15100  0.89990  1.0000 -0.6397820246
O   O2276     1.0  0.82780  0.17650  0.97230  1.0000 -0.5777560007
O   O2277     1.0  0.85720  0.17370  0.96440  1.0000 -0.5588135763
C   C2410     1.0  0.84820  0.16940  0.92570  1.0000 0.0286004543
C   C2411     1.0  0.83470  0.17360  0.93950  1.0000 -0.1004600406
C   C2412     1.0  0.84020  0.17380  0.95990  1.0000 0.637843934
O   O2278     1.0  0.86370  0.93110  0.90930  1.0000 -0.6007274885
C   C2413     1.0  0.35060  0.58990  0.96400  1.0000 0.0760005572
C   C2414     1.0  0.36620  0.61250  0.94380  1.0000 0.0709581455
C   C2415     1.0  0.34980  0.57710  0.94890  1.0000 -0.1807206609
C   C2416     1.0  0.36530  0.59960  0.92890  1.0000 -0.189473289
C   C2417     1.0  0.35720  0.58200  0.93150  1.0000 0.0978843566
C   C2418     1.0  0.35880  0.60780  0.96140  1.0000 -0.1219500515
C   C2419     1.0  0.37640  0.60330  0.91400  1.0000 0.637843934
C   C2420     1.0  0.35970  0.62200  0.97750  1.0000 0.637843934
C   C2421     1.0  0.33890  0.56190  0.95000  1.0000 0.6285624754
O   O2279     1.0  0.33960  0.54990  0.93700  1.0000 -0.6397820246
O   O2280     1.0  0.33080  0.55830  0.96500  1.0000 -0.6517776188
O   O2281     1.0  0.36980  0.63610  0.97600  1.0000 -0.5677502138
O   O2282     1.0  0.34910  0.62030  0.99140  1.0000 -0.5677502138
O   O2283     1.0  0.38040  0.62000  0.91020  1.0000 -0.609555034
O   O2284     1.0  0.37940  0.59070  0.90220  1.0000 -0.6397820246
C   C2422     1.0  0.34640  0.48170  0.95800  1.0000 0.0501834124
C   C2423     1.0  0.33790  0.49470  0.97000  1.0000 -0.0708048282
C   C2424     1.0  0.32960  0.51240  0.96210  1.0000 0.6800795649
O   O2285     1.0  0.34770  0.45390  0.93260  1.0000 -0.5303997674
O   O2286     1.0  0.33120  0.51560  0.94520  1.0000 -0.609555034
O   O2287     1.0  0.32280  0.52510  0.97300  1.0000 -0.6782680781
Ti  Ti231     1.0  0.30791  0.54934  0.97611  1.0000 2.0212494802
O   O2288     1.0  0.28120  0.53540  0.99080  1.0000 -0.6397820246
C   C2425     1.0  0.38970  0.70900  0.01700  1.0000 0.0362362238
C   C2426     1.0  0.37010  0.71040  0.01550  1.0000 -0.1087284717
C   C2427     1.0  0.35960  0.69690  0.00360  1.0000 0.637843934
O   O2289     1.0  0.42830  0.72770  0.04400  1.0000 -0.6939314659
O   O2290     1.0  0.34260  0.69380  0.00680  1.0000 -0.5588135763
O   O2291     1.0  0.36820  0.68740  0.99140  1.0000 -0.5588135763
O   O2292     1.0  0.37150  0.65100  0.89990  1.0000 -0.6397820246
O   O2293     1.0  0.32780  0.67650  0.97230  1.0000 -0.5777560007
O   O2294     1.0  0.35720  0.67370  0.96440  1.0000 -0.5588135763
C   C2428     1.0  0.34820  0.66940  0.92570  1.0000 0.0286004543
C   C2429     1.0  0.33470  0.67360  0.93950  1.0000 -0.1004600406
C   C2430     1.0  0.34020  0.67380  0.95990  1.0000 0.637843934
O   O2295     1.0  0.36370  0.43110  0.90930  1.0000 -0.5106411624
C   C2431     1.0  0.35060  0.08990  0.46400  1.0000 0.0760005572
C   C2432     1.0  0.36620  0.11250  0.44380  1.0000 0.0709581455
C   C2433     1.0  0.34980  0.07710  0.44890  1.0000 -0.1807206609
C   C2434     1.0  0.36530  0.09960  0.42890  1.0000 -0.189473289
C   C2435     1.0  0.35720  0.08200  0.43150  1.0000 0.0978843566
C   C2436     1.0  0.35880  0.10780  0.46140  1.0000 -0.1219500515
C   C2437     1.0  0.37640  0.10330  0.41400  1.0000 0.637843934
C   C2438     1.0  0.35970  0.12200  0.47750  1.0000 0.637843934
C   C2439     1.0  0.33890  0.06190  0.45000  1.0000 0.6285624754
O   O2296     1.0  0.33960  0.04990  0.43700  1.0000 -0.6397820246
O   O2297     1.0  0.33080  0.05830  0.46500  1.0000 -0.6517776188
O   O2298     1.0  0.36980  0.13610  0.47600  1.0000 -0.5677502138
O   O2299     1.0  0.34910  0.12030  0.49140  1.0000 -0.5777560007
O   O2300     1.0  0.38040  0.12000  0.41020  1.0000 -0.609555034
O   O2301     1.0  0.37940  0.09070  0.40220  1.0000 -0.6397820246
C   C2440     1.0  0.34640  0.98170  0.45800  1.0000 0.0501834124
C   C2441     1.0  0.33790  0.99470  0.47000  1.0000 -0.0708048282
C   C2442     1.0  0.32960  0.01240  0.46210  1.0000 0.6800795649
O   O2302     1.0  0.34770  0.95390  0.43260  1.0000 -0.6517776188
O   O2303     1.0  0.33120  0.01560  0.44520  1.0000 -0.6162038559
O   O2304     1.0  0.32280  0.02510  0.47300  1.0000 -0.6782680781
Ti  Ti232     1.0  0.30791  0.04934  0.47611  1.0000 2.0212494802
O   O2305     1.0  0.28120  0.03540  0.49080  1.0000 -0.6397820246
C   C2443     1.0  0.38970  0.20900  0.51700  1.0000 0.0362362238
C   C2444     1.0  0.37010  0.21040  0.51550  1.0000 -0.1087284717
C   C2445     1.0  0.35960  0.19690  0.50360  1.0000 0.637843934
O   O2306     1.0  0.42830  0.22770  0.54400  1.0000 -0.6939314659
O   O2307     1.0  0.34260  0.19380  0.50680  1.0000 -0.5588135763
O   O2308     1.0  0.36820  0.18740  0.49140  1.0000 -0.5588135763
O   O2309     1.0  0.37150  0.15100  0.39990  1.0000 -0.6397820246
O   O2310     1.0  0.32780  0.17650  0.47230  1.0000 -0.5777560007
O   O2311     1.0  0.35720  0.17370  0.46440  1.0000 -0.5588135763
C   C2446     1.0  0.34820  0.16940  0.42570  1.0000 0.0286004543
C   C2447     1.0  0.33470  0.17360  0.43950  1.0000 -0.1004600406
C   C2448     1.0  0.34020  0.17380  0.45990  1.0000 0.637843934
O   O2312     1.0  0.36370  0.93110  0.40930  1.0000 -0.609555034
C   C2449     1.0  0.39940  0.16010  0.96400  1.0000 0.0760005572
C   C2450     1.0  0.38380  0.13750  0.94380  1.0000 0.0709581455
C   C2451     1.0  0.40020  0.17290  0.94890  1.0000 -0.1807206609
C   C2452     1.0  0.38470  0.15040  0.92890  1.0000 -0.189473289
C   C2453     1.0  0.39280  0.16800  0.93150  1.0000 0.0978843566
C   C2454     1.0  0.39120  0.14220  0.96140  1.0000 -0.1219500515
C   C2455     1.0  0.37360  0.14670  0.91400  1.0000 0.637843934
C   C2456     1.0  0.39030  0.12800  0.97750  1.0000 0.637843934
C   C2457     1.0  0.41110  0.18810  0.95000  1.0000 0.6285624754
O   O2313     1.0  0.41040  0.20010  0.93700  1.0000 -0.6397820246
O   O2314     1.0  0.41920  0.19170  0.96500  1.0000 -0.6517776188
O   O2315     1.0  0.38020  0.11390  0.97600  1.0000 -0.5677502138
O   O2316     1.0  0.40090  0.12970  0.99140  1.0000 -0.5777560007
O   O2317     1.0  0.36960  0.13000  0.91020  1.0000 -0.609555034
O   O2318     1.0  0.37060  0.15930  0.90220  1.0000 -0.6397820246
C   C2458     1.0  0.40360  0.26830  0.95800  1.0000 0.0614820425
C   C2459     1.0  0.41210  0.25530  0.97000  1.0000 -0.0708048282
C   C2460     1.0  0.42040  0.23760  0.96210  1.0000 0.6800795649
O   O2319     1.0  0.40230  0.29610  0.93260  1.0000 -0.5303997674
O   O2320     1.0  0.41880  0.23440  0.94520  1.0000 -0.609555034
O   O2321     1.0  0.42720  0.22490  0.97300  1.0000 -0.6782680781
Ti  Ti233     1.0  0.44209  0.20066  0.97611  1.0000 2.0212494802
O   O2322     1.0  0.46880  0.21460  0.99080  1.0000 -0.6397820246
C   C2461     1.0  0.36030  0.04100  0.01700  1.0000 0.0362362238
C   C2462     1.0  0.37990  0.03960  0.01550  1.0000 -0.1087284717
C   C2463     1.0  0.39040  0.05310  0.00360  1.0000 0.637843934
O   O2323     1.0  0.32170  0.02230  0.04400  1.0000 -0.6939314659
O   O2324     1.0  0.40740  0.05620  0.00680  1.0000 -0.5588135763
O   O2325     1.0  0.38180  0.06260  0.99140  1.0000 -0.5588135763
O   O2326     1.0  0.37850  0.09900  0.89990  1.0000 -0.6397820246
O   O2327     1.0  0.42220  0.07350  0.97230  1.0000 -0.5777560007
O   O2328     1.0  0.39280  0.07630  0.96440  1.0000 -0.5588135763
C   C2464     1.0  0.40180  0.08060  0.92570  1.0000 0.0286004543
C   C2465     1.0  0.41530  0.07640  0.93950  1.0000 -0.1004600406
C   C2466     1.0  0.40980  0.07620  0.95990  1.0000 0.637843934
O   O2329     1.0  0.38630  0.31890  0.90930  1.0000 -0.5106411624
C   C2467     1.0  0.39940  0.66010  0.46400  1.0000 0.0760005572
C   C2468     1.0  0.38380  0.63750  0.44380  1.0000 0.0709581455
C   C2469     1.0  0.40020  0.67290  0.44890  1.0000 -0.1807206609
C   C2470     1.0  0.38470  0.65040  0.42890  1.0000 -0.189473289
C   C2471     1.0  0.39280  0.66800  0.43150  1.0000 0.0978843566
C   C2472     1.0  0.39120  0.64220  0.46140  1.0000 -0.1219500515
C   C2473     1.0  0.37360  0.64670  0.41400  1.0000 0.637843934
C   C2474     1.0  0.39030  0.62800  0.47750  1.0000 0.637843934
C   C2475     1.0  0.41110  0.68810  0.45000  1.0000 0.6285624754
O   O2330     1.0  0.41040  0.70010  0.43700  1.0000 -0.6397820246
O   O2331     1.0  0.41920  0.69170  0.46500  1.0000 -0.6517776188
O   O2332     1.0  0.38020  0.61390  0.47600  1.0000 -0.5677502138
O   O2333     1.0  0.40090  0.62970  0.49140  1.0000 -0.5777560007
O   O2334     1.0  0.36960  0.63000  0.41020  1.0000 -0.609555034
O   O2335     1.0  0.37060  0.65930  0.40220  1.0000 -0.6397820246
C   C2476     1.0  0.40360  0.76830  0.45800  1.0000 0.0614820425
C   C2477     1.0  0.41210  0.75530  0.47000  1.0000 -0.0708048282
C   C2478     1.0  0.42040  0.73760  0.46210  1.0000 0.6800795649
O   O2336     1.0  0.40230  0.79610  0.43260  1.0000 -0.5303997674
O   O2337     1.0  0.41880  0.73440  0.44520  1.0000 -0.609555034
O   O2338     1.0  0.42720  0.72490  0.47300  1.0000 -0.6782680781
Ti  Ti234     1.0  0.44209  0.70066  0.47611  1.0000 2.0212494802
O   O2339     1.0  0.46880  0.71460  0.49080  1.0000 -0.6397820246
C   C2479     1.0  0.36030  0.54100  0.51700  1.0000 0.0362362238
C   C2480     1.0  0.37990  0.53960  0.51550  1.0000 -0.1087284717
C   C2481     1.0  0.39040  0.55310  0.50360  1.0000 0.637843934
O   O2340     1.0  0.32170  0.52230  0.54400  1.0000 -0.6939314659
O   O2341     1.0  0.40740  0.55620  0.50680  1.0000 -0.5588135763
O   O2342     1.0  0.38180  0.56260  0.49140  1.0000 -0.5588135763
O   O2343     1.0  0.37850  0.59900  0.39990  1.0000 -0.6397820246
O   O2344     1.0  0.42220  0.57350  0.47230  1.0000 -0.5777560007
O   O2345     1.0  0.39280  0.57630  0.46440  1.0000 -0.5588135763
C   C2482     1.0  0.40180  0.58060  0.42570  1.0000 0.0286004543
C   C2483     1.0  0.41530  0.57640  0.43950  1.0000 -0.1004600406
C   C2484     1.0  0.40980  0.57620  0.45990  1.0000 0.637843934
O   O2346     1.0  0.38630  0.81890  0.40930  1.0000 -0.5106411624
C   C2485     1.0  0.89940  0.16010  0.46400  1.0000 0.0760005572
C   C2486     1.0  0.88380  0.13750  0.44380  1.0000 0.0709581455
C   C2487     1.0  0.90020  0.17290  0.44890  1.0000 -0.1807206609
C   C2488     1.0  0.88470  0.15040  0.42890  1.0000 -0.189473289
C   C2489     1.0  0.89280  0.16800  0.43150  1.0000 0.0978843566
C   C2490     1.0  0.89120  0.14220  0.46140  1.0000 -0.1219500515
C   C2491     1.0  0.87360  0.14670  0.41400  1.0000 0.637843934
C   C2492     1.0  0.89030  0.12800  0.47750  1.0000 0.637843934
C   C2493     1.0  0.91110  0.18810  0.45000  1.0000 0.6285624754
O   O2347     1.0  0.91040  0.20010  0.43700  1.0000 -0.6397820246
O   O2348     1.0  0.91920  0.19170  0.46500  1.0000 -0.6517776188
O   O2349     1.0  0.88020  0.11390  0.47600  1.0000 -0.5677502138
O   O2350     1.0  0.90090  0.12970  0.49140  1.0000 -0.5777560007
O   O2351     1.0  0.86960  0.13000  0.41020  1.0000 -0.609555034
O   O2352     1.0  0.87060  0.15930  0.40220  1.0000 -0.6397820246
C   C2494     1.0  0.90360  0.26830  0.45800  1.0000 0.0614820425
C   C2495     1.0  0.91210  0.25530  0.47000  1.0000 -0.0708048282
C   C2496     1.0  0.92040  0.23760  0.46210  1.0000 0.6800795649
O   O2353     1.0  0.90230  0.29610  0.43260  1.0000 -0.6517776188
O   O2354     1.0  0.91880  0.23440  0.44520  1.0000 -0.6162038559
O   O2355     1.0  0.92720  0.22490  0.47300  1.0000 -0.6782680781
Ti  Ti235     1.0  0.94209  0.20066  0.47611  1.0000 2.0212494802
O   O2356     1.0  0.96880  0.21460  0.49080  1.0000 -0.6397820246
C   C2497     1.0  0.86030  0.04100  0.51700  1.0000 0.0362362238
C   C2498     1.0  0.87990  0.03960  0.51550  1.0000 -0.1087284717
C   C2499     1.0  0.89040  0.05310  0.50360  1.0000 0.637843934
O   O2357     1.0  0.82170  0.02230  0.54400  1.0000 -0.6939314659
O   O2358     1.0  0.90740  0.05620  0.50680  1.0000 -0.5588135763
O   O2359     1.0  0.88180  0.06260  0.49140  1.0000 -0.5588135763
O   O2360     1.0  0.87850  0.09900  0.39990  1.0000 -0.6397820246
O   O2361     1.0  0.92220  0.07350  0.47230  1.0000 -0.5777560007
O   O2362     1.0  0.89280  0.07630  0.46440  1.0000 -0.5588135763
C   C2500     1.0  0.90180  0.08060  0.42570  1.0000 0.0286004543
C   C2501     1.0  0.91530  0.07640  0.43950  1.0000 -0.1004600406
C   C2502     1.0  0.90980  0.07620  0.45990  1.0000 0.637843934
O   O2363     1.0  0.88630  0.31890  0.40930  1.0000 -0.6007274885
C   C2503     1.0  0.89940  0.66010  0.96400  1.0000 0.0760005572
C   C2504     1.0  0.88380  0.63750  0.94380  1.0000 0.0709581455
C   C2505     1.0  0.90020  0.67290  0.94890  1.0000 -0.1807206609
C   C2506     1.0  0.88470  0.65040  0.92890  1.0000 -0.189473289
C   C2507     1.0  0.89280  0.66800  0.93150  1.0000 0.0978843566
C   C2508     1.0  0.89120  0.64220  0.96140  1.0000 -0.1219500515
C   C2509     1.0  0.87360  0.64670  0.91400  1.0000 0.637843934
C   C2510     1.0  0.89030  0.62800  0.97750  1.0000 0.637843934
C   C2511     1.0  0.91110  0.68810  0.95000  1.0000 0.6285624754
O   O2364     1.0  0.91040  0.70010  0.93700  1.0000 -0.6397820246
O   O2365     1.0  0.91920  0.69170  0.96500  1.0000 -0.6517776188
O   O2366     1.0  0.88020  0.61390  0.97600  1.0000 -0.5677502138
O   O2367     1.0  0.90090  0.62970  0.99140  1.0000 -0.5777560007
O   O2368     1.0  0.86960  0.63000  0.91020  1.0000 -0.609555034
O   O2369     1.0  0.87060  0.65930  0.90220  1.0000 -0.6397820246
C   C2512     1.0  0.90360  0.76830  0.95800  1.0000 0.0501834124
C   C2513     1.0  0.91210  0.75530  0.97000  1.0000 -0.0708048282
C   C2514     1.0  0.92040  0.73760  0.96210  1.0000 0.6800795649
O   O2370     1.0  0.90230  0.79610  0.93260  1.0000 -0.6517776188
O   O2371     1.0  0.91880  0.73440  0.94520  1.0000 -0.6162038559
O   O2372     1.0  0.92720  0.72490  0.97300  1.0000 -0.6782680781
Ti  Ti236     1.0  0.94209  0.70066  0.97611  1.0000 2.0212494802
O   O2373     1.0  0.96880  0.71460  0.99080  1.0000 -0.6397820246
C   C2515     1.0  0.86030  0.54100  0.01700  1.0000 0.0362362238
C   C2516     1.0  0.87990  0.53960  0.01550  1.0000 -0.1087284717
C   C2517     1.0  0.89040  0.55310  0.00360  1.0000 0.637843934
O   O2374     1.0  0.82170  0.52230  0.04400  1.0000 -0.6939314659
O   O2375     1.0  0.90740  0.55620  0.00680  1.0000 -0.5588135763
O   O2376     1.0  0.88180  0.56260  0.99140  1.0000 -0.5588135763
O   O2377     1.0  0.87850  0.59900  0.89990  1.0000 -0.6397820246
O   O2378     1.0  0.92220  0.57350  0.97230  1.0000 -0.5777560007
O   O2379     1.0  0.89280  0.57630  0.96440  1.0000 -0.5588135763
C   C2518     1.0  0.90180  0.58060  0.92570  1.0000 0.0286004543
C   C2519     1.0  0.91530  0.57640  0.93950  1.0000 -0.1004600406
C   C2520     1.0  0.90980  0.57620  0.95990  1.0000 0.637843934
O   O2380     1.0  0.88630  0.81890  0.90930  1.0000 -0.609555034
C   C2521     1.0  0.35060  0.66010  0.28600  1.0000 0.0760005572
C   C2522     1.0  0.36620  0.63750  0.30620  1.0000 0.0709581455
C   C2523     1.0  0.34980  0.67290  0.30110  1.0000 -0.1807206609
C   C2524     1.0  0.36530  0.65040  0.32110  1.0000 -0.189473289
C   C2525     1.0  0.35720  0.66800  0.31850  1.0000 0.0978843566
C   C2526     1.0  0.35880  0.64220  0.28860  1.0000 -0.1219500515
C   C2527     1.0  0.37640  0.64670  0.33600  1.0000 0.637843934
C   C2528     1.0  0.35970  0.62800  0.27250  1.0000 0.637843934
C   C2529     1.0  0.33890  0.68810  0.30000  1.0000 0.6285624754
O   O2381     1.0  0.33960  0.70010  0.31300  1.0000 -0.6397820246
O   O2382     1.0  0.33080  0.69170  0.28500  1.0000 -0.6517776188
O   O2383     1.0  0.36980  0.61390  0.27400  1.0000 -0.5677502138
O   O2384     1.0  0.34910  0.62970  0.25860  1.0000 -0.5777560007
O   O2385     1.0  0.38040  0.63000  0.33980  1.0000 -0.609555034
O   O2386     1.0  0.37940  0.65930  0.34780  1.0000 -0.6397820246
C   C2530     1.0  0.34640  0.76830  0.29200  1.0000 0.0501834124
C   C2531     1.0  0.33790  0.75530  0.28000  1.0000 -0.0708048282
C   C2532     1.0  0.32960  0.73760  0.28790  1.0000 0.6800795649
O   O2387     1.0  0.34770  0.79610  0.31740  1.0000 -0.6517776188
O   O2388     1.0  0.33120  0.73440  0.30480  1.0000 -0.6162038559
O   O2389     1.0  0.32280  0.72490  0.27700  1.0000 -0.6782680781
Ti  Ti237     1.0  0.30791  0.70066  0.27389  1.0000 2.0212494802
O   O2390     1.0  0.28120  0.71460  0.25920  1.0000 -0.6397820246
C   C2533     1.0  0.38970  0.54100  0.23300  1.0000 0.0362362238
C   C2534     1.0  0.37010  0.53960  0.23450  1.0000 -0.1087284717
C   C2535     1.0  0.35960  0.55310  0.24640  1.0000 0.637843934
O   O2391     1.0  0.42830  0.52230  0.20600  1.0000 -0.6939314659
O   O2392     1.0  0.34260  0.55620  0.24320  1.0000 -0.5588135763
O   O2393     1.0  0.36820  0.56260  0.25860  1.0000 -0.5588135763
O   O2394     1.0  0.37150  0.59900  0.35010  1.0000 -0.6397820246
O   O2395     1.0  0.32780  0.57350  0.27770  1.0000 -0.5777560007
O   O2396     1.0  0.35720  0.57630  0.28560  1.0000 -0.5588135763
C   C2536     1.0  0.34820  0.58060  0.32430  1.0000 0.0286004543
C   C2537     1.0  0.33470  0.57640  0.31050  1.0000 -0.1004600406
C   C2538     1.0  0.34020  0.57620  0.29010  1.0000 0.637843934
O   O2397     1.0  0.36370  0.81890  0.34070  1.0000 -0.609555034
C   C2539     1.0  0.35060  0.16010  0.78600  1.0000 0.0760005572
C   C2540     1.0  0.36620  0.13750  0.80620  1.0000 0.0709581455
C   C2541     1.0  0.34980  0.17290  0.80110  1.0000 -0.1807206609
C   C2542     1.0  0.36530  0.15040  0.82110  1.0000 -0.189473289
C   C2543     1.0  0.35720  0.16800  0.81850  1.0000 0.0978843566
C   C2544     1.0  0.35880  0.14220  0.78860  1.0000 -0.1219500515
C   C2545     1.0  0.37640  0.14670  0.83600  1.0000 0.637843934
C   C2546     1.0  0.35970  0.12800  0.77250  1.0000 0.637843934
C   C2547     1.0  0.33890  0.18810  0.80000  1.0000 0.6285624754
O   O2398     1.0  0.33960  0.20010  0.81300  1.0000 -0.6397820246
O   O2399     1.0  0.33080  0.19170  0.78500  1.0000 -0.6517776188
O   O2400     1.0  0.36980  0.11390  0.77400  1.0000 -0.5677502138
O   O2401     1.0  0.34910  0.12970  0.75860  1.0000 -0.5777560007
O   O2402     1.0  0.38040  0.13000  0.83980  1.0000 -0.609555034
O   O2403     1.0  0.37940  0.15930  0.84780  1.0000 -0.6397820246
C   C2548     1.0  0.34640  0.26830  0.79200  1.0000 0.0501834124
C   C2549     1.0  0.33790  0.25530  0.78000  1.0000 -0.0708048282
C   C2550     1.0  0.32960  0.23760  0.78790  1.0000 0.6800795649
O   O2404     1.0  0.34770  0.29610  0.81740  1.0000 -0.6517776188
O   O2405     1.0  0.33120  0.23440  0.80480  1.0000 -0.6162038559
O   O2406     1.0  0.32280  0.22490  0.77700  1.0000 -0.6782680781
Ti  Ti238     1.0  0.30791  0.20066  0.77389  1.0000 2.0212494802
O   O2407     1.0  0.28120  0.21460  0.75920  1.0000 -0.6397820246
C   C2551     1.0  0.38970  0.04100  0.73300  1.0000 0.0362362238
C   C2552     1.0  0.37010  0.03960  0.73450  1.0000 -0.1087284717
C   C2553     1.0  0.35960  0.05310  0.74640  1.0000 0.637843934
O   O2408     1.0  0.42830  0.02230  0.70600  1.0000 -0.6939314659
O   O2409     1.0  0.34260  0.05620  0.74320  1.0000 -0.5588135763
O   O2410     1.0  0.36820  0.06260  0.75860  1.0000 -0.5588135763
O   O2411     1.0  0.37150  0.09900  0.85010  1.0000 -0.6397820246
O   O2412     1.0  0.32780  0.07350  0.77770  1.0000 -0.5777560007
O   O2413     1.0  0.35720  0.07630  0.78560  1.0000 -0.5588135763
C   C2554     1.0  0.34820  0.08060  0.82430  1.0000 0.0286004543
C   C2555     1.0  0.33470  0.07640  0.81050  1.0000 -0.1004600406
C   C2556     1.0  0.34020  0.07620  0.79010  1.0000 0.637843934
O   O2414     1.0  0.36370  0.31890  0.84070  1.0000 -0.609555034
C   C2557     1.0  0.85060  0.66010  0.78600  1.0000 0.0760005572
C   C2558     1.0  0.86620  0.63750  0.80620  1.0000 0.0709581455
C   C2559     1.0  0.84980  0.67290  0.80110  1.0000 -0.1807206609
C   C2560     1.0  0.86530  0.65040  0.82110  1.0000 -0.189473289
C   C2561     1.0  0.85720  0.66800  0.81850  1.0000 0.0978843566
C   C2562     1.0  0.85880  0.64220  0.78860  1.0000 -0.1219500515
C   C2563     1.0  0.87640  0.64670  0.83600  1.0000 0.637843934
C   C2564     1.0  0.85970  0.62800  0.77250  1.0000 0.637843934
C   C2565     1.0  0.83890  0.68810  0.80000  1.0000 0.6285624754
O   O2415     1.0  0.83960  0.70010  0.81300  1.0000 -0.6397820246
O   O2416     1.0  0.83080  0.69170  0.78500  1.0000 -0.6517776188
O   O2417     1.0  0.86980  0.61390  0.77400  1.0000 -0.5677502138
O   O2418     1.0  0.84910  0.62970  0.75860  1.0000 -0.5777560007
O   O2419     1.0  0.88040  0.63000  0.83980  1.0000 -0.609555034
O   O2420     1.0  0.87940  0.65930  0.84780  1.0000 -0.6397820246
C   C2566     1.0  0.84640  0.76830  0.79200  1.0000 0.0614820425
C   C2567     1.0  0.83790  0.75530  0.78000  1.0000 -0.0708048282
C   C2568     1.0  0.82960  0.73760  0.78790  1.0000 0.6800795649
O   O2421     1.0  0.84770  0.79610  0.81740  1.0000 -0.5303997674
O   O2422     1.0  0.83120  0.73440  0.80480  1.0000 -0.6162038559
O   O2423     1.0  0.82280  0.72490  0.77700  1.0000 -0.6782680781
Ti  Ti239     1.0  0.80791  0.70066  0.77389  1.0000 2.0212494802
O   O2424     1.0  0.78120  0.71460  0.75920  1.0000 -0.6397820246
C   C2569     1.0  0.88970  0.54100  0.73300  1.0000 0.0362362238
C   C2570     1.0  0.87010  0.53960  0.73450  1.0000 -0.1087284717
C   C2571     1.0  0.85960  0.55310  0.74640  1.0000 0.637843934
O   O2425     1.0  0.92830  0.52230  0.70600  1.0000 -0.6939314659
O   O2426     1.0  0.84260  0.55620  0.74320  1.0000 -0.5588135763
O   O2427     1.0  0.86820  0.56260  0.75860  1.0000 -0.5588135763
O   O2428     1.0  0.87150  0.59900  0.85010  1.0000 -0.6397820246
O   O2429     1.0  0.82780  0.57350  0.77770  1.0000 -0.5777560007
O   O2430     1.0  0.85720  0.57630  0.78560  1.0000 -0.5588135763
C   C2572     1.0  0.84820  0.58060  0.82430  1.0000 0.0286004543
C   C2573     1.0  0.83470  0.57640  0.81050  1.0000 -0.1004600406
C   C2574     1.0  0.84020  0.57620  0.79010  1.0000 0.637843934
O   O2431     1.0  0.86370  0.81890  0.84070  1.0000 -0.521012765
C   C2575     1.0  0.85060  0.16010  0.28600  1.0000 0.0760005572
C   C2576     1.0  0.86620  0.13750  0.30620  1.0000 0.0709581455
C   C2577     1.0  0.84980  0.17290  0.30110  1.0000 -0.1807206609
C   C2578     1.0  0.86530  0.15040  0.32110  1.0000 -0.189473289
C   C2579     1.0  0.85720  0.16800  0.31850  1.0000 0.0978843566
C   C2580     1.0  0.85880  0.14220  0.28860  1.0000 -0.1219500515
C   C2581     1.0  0.87640  0.14670  0.33600  1.0000 0.637843934
C   C2582     1.0  0.85970  0.12800  0.27250  1.0000 0.637843934
C   C2583     1.0  0.83890  0.18810  0.30000  1.0000 0.6285624754
O   O2432     1.0  0.83960  0.20010  0.31300  1.0000 -0.6397820246
O   O2433     1.0  0.83080  0.19170  0.28500  1.0000 -0.6517776188
O   O2434     1.0  0.86980  0.11390  0.27400  1.0000 -0.5677502138
O   O2435     1.0  0.84910  0.12970  0.25860  1.0000 -0.5777560007
O   O2436     1.0  0.88040  0.13000  0.33980  1.0000 -0.609555034
O   O2437     1.0  0.87940  0.15930  0.34780  1.0000 -0.6397820246
C   C2584     1.0  0.84640  0.26830  0.29200  1.0000 0.0614820425
C   C2585     1.0  0.83790  0.25530  0.28000  1.0000 -0.0708048282
C   C2586     1.0  0.82960  0.23760  0.28790  1.0000 0.6800795649
O   O2438     1.0  0.84770  0.29610  0.31740  1.0000 -0.5303997674
O   O2439     1.0  0.83120  0.23440  0.30480  1.0000 -0.6162038559
O   O2440     1.0  0.82280  0.22490  0.27700  1.0000 -0.6782680781
Ti  Ti240     1.0  0.80791  0.20066  0.27389  1.0000 2.0212494802
O   O2441     1.0  0.78120  0.21460  0.25920  1.0000 -0.6397820246
C   C2587     1.0  0.88970  0.04100  0.23300  1.0000 0.0362362238
C   C2588     1.0  0.87010  0.03960  0.23450  1.0000 -0.1087284717
C   C2589     1.0  0.85960  0.05310  0.24640  1.0000 0.637843934
O   O2442     1.0  0.92830  0.02230  0.20600  1.0000 -0.6939314659
O   O2443     1.0  0.84260  0.05620  0.24320  1.0000 -0.5588135763
O   O2444     1.0  0.86820  0.06260  0.25860  1.0000 -0.5588135763
O   O2445     1.0  0.87150  0.09900  0.35010  1.0000 -0.6397820246
O   O2446     1.0  0.82780  0.07350  0.27770  1.0000 -0.5777560007
O   O2447     1.0  0.85720  0.07630  0.28560  1.0000 -0.5588135763
C   C2590     1.0  0.84820  0.08060  0.32430  1.0000 0.0286004543
C   C2591     1.0  0.83470  0.07640  0.31050  1.0000 -0.1004600406
C   C2592     1.0  0.84020  0.07620  0.29010  1.0000 0.637843934
O   O2448     1.0  0.86370  0.31890  0.34070  1.0000 -0.521012765
C   C2593     1.0  0.14940  0.53600  0.41010  1.0000 0.0709581455
C   C2594     1.0  0.13380  0.55620  0.38750  1.0000 0.0709581455
C   C2595     1.0  0.15020  0.55110  0.42290  1.0000 -0.1807206609
C   C2596     1.0  0.13470  0.57110  0.40040  1.0000 -0.189473289
C   C2597     1.0  0.14280  0.56850  0.41800  1.0000 0.0978843566
C   C2598     1.0  0.14120  0.53860  0.39220  1.0000 -0.1219500515
C   C2599     1.0  0.12360  0.58600  0.39670  1.0000 0.637843934
C   C2600     1.0  0.14030  0.52250  0.37800  1.0000 0.637843934
C   C2601     1.0  0.16110  0.55000  0.43810  1.0000 0.6285624754
O   O2449     1.0  0.16040  0.56300  0.45010  1.0000 -0.6397820246
O   O2450     1.0  0.16920  0.53500  0.44170  1.0000 -0.6517776188
O   O2451     1.0  0.13020  0.52400  0.36390  1.0000 -0.5677502138
O   O2452     1.0  0.15090  0.50860  0.37970  1.0000 -0.5777560007
O   O2453     1.0  0.11960  0.58980  0.38000  1.0000 -0.609555034
O   O2454     1.0  0.12060  0.59780  0.40930  1.0000 -0.6397820246
C   C2602     1.0  0.15360  0.54200  0.51830  1.0000 0.0614820425
C   C2603     1.0  0.16210  0.53000  0.50530  1.0000 -0.0708048282
C   C2604     1.0  0.17040  0.53790  0.48760  1.0000 0.6800795649
O   O2455     1.0  0.15230  0.56740  0.54610  1.0000 -0.6517776188
O   O2456     1.0  0.16880  0.55480  0.48440  1.0000 -0.6162038559
O   O2457     1.0  0.17720  0.52700  0.47490  1.0000 -0.6782680781
Ti  Ti241     1.0  0.19209  0.52389  0.45066  1.0000 2.0212494802
O   O2458     1.0  0.21880  0.50920  0.46460  1.0000 -0.6397820246
C   C2605     1.0  0.11030  0.48300  0.29100  1.0000 0.0362362238
C   C2606     1.0  0.12990  0.48450  0.28960  1.0000 -0.1087284717
C   C2607     1.0  0.14040  0.49640  0.30310  1.0000 0.637843934
O   O2459     1.0  0.07170  0.45600  0.27230  1.0000 -0.6939314659
O   O2460     1.0  0.15740  0.49320  0.30620  1.0000 -0.5588135763
O   O2461     1.0  0.13180  0.50860  0.31260  1.0000 -0.5588135763
O   O2462     1.0  0.12850  0.60010  0.34900  1.0000 -0.6397820246
O   O2463     1.0  0.17220  0.52770  0.32350  1.0000 -0.5777560007
O   O2464     1.0  0.14280  0.53560  0.32630  1.0000 -0.5588135763
C   C2608     1.0  0.15180  0.57430  0.33060  1.0000 0.0286004543
C   C2609     1.0  0.16530  0.56050  0.32640  1.0000 -0.1004600406
C   C2610     1.0  0.15980  0.54010  0.32620  1.0000 0.637843934
O   O2465     1.0  0.13630  0.59070  0.56890  1.0000 -0.6007274885
C   C2611     1.0  0.14940  0.03600  0.91010  1.0000 0.0760005572
C   C2612     1.0  0.13380  0.05620  0.88750  1.0000 0.0709581455
C   C2613     1.0  0.15020  0.05110  0.92290  1.0000 -0.1807206609
C   C2614     1.0  0.13470  0.07110  0.90040  1.0000 -0.189473289
C   C2615     1.0  0.14280  0.06850  0.91800  1.0000 0.0978843566
C   C2616     1.0  0.14120  0.03860  0.89220  1.0000 -0.1219500515
C   C2617     1.0  0.12360  0.08600  0.89670  1.0000 0.637843934
C   C2618     1.0  0.14030  0.02250  0.87800  1.0000 0.637843934
C   C2619     1.0  0.16110  0.05000  0.93810  1.0000 0.6285624754
O   O2466     1.0  0.16040  0.06300  0.95010  1.0000 -0.6397820246
O   O2467     1.0  0.16920  0.03500  0.94170  1.0000 -0.6517776188
O   O2468     1.0  0.13020  0.02400  0.86390  1.0000 -0.5677502138
O   O2469     1.0  0.15090  0.00860  0.87970  1.0000 -0.5677502138
O   O2470     1.0  0.11960  0.08980  0.88000  1.0000 -0.609555034
O   O2471     1.0  0.12060  0.09780  0.90930  1.0000 -0.6397820246
C   C2620     1.0  0.15360  0.04200  0.01830  1.0000 0.0614820425
C   C2621     1.0  0.16210  0.03000  0.00530  1.0000 -0.0708048282
C   C2622     1.0  0.17040  0.03790  0.98760  1.0000 0.6800795649
O   O2472     1.0  0.15230  0.06740  0.04610  1.0000 -0.6517776188
O   O2473     1.0  0.16880  0.05480  0.98440  1.0000 -0.6162038559
O   O2474     1.0  0.17720  0.02700  0.97490  1.0000 -0.6782680781
Ti  Ti242     1.0  0.19209  0.02389  0.95066  1.0000 2.0212494802
O   O2475     1.0  0.21880  0.00920  0.96460  1.0000 -0.6397820246
C   C2623     1.0  0.11030  0.98300  0.79100  1.0000 0.0286004543
C   C2624     1.0  0.12990  0.98450  0.78960  1.0000 -0.1087284717
C   C2625     1.0  0.14040  0.99640  0.80310  1.0000 0.637843934
O   O2476     1.0  0.07170  0.95600  0.77230  1.0000 -0.6939314659
O   O2477     1.0  0.15740  0.99320  0.80620  1.0000 -0.5588135763
O   O2478     1.0  0.13180  0.00860  0.81260  1.0000 -0.5548712105
O   O2479     1.0  0.12850  0.10010  0.84900  1.0000 -0.6397820246
O   O2480     1.0  0.17220  0.02770  0.82350  1.0000 -0.5777560007
O   O2481     1.0  0.14280  0.03560  0.82630  1.0000 -0.5588135763
C   C2626     1.0  0.15180  0.07430  0.83060  1.0000 0.0286004543
C   C2627     1.0  0.16530  0.06050  0.82640  1.0000 -0.1004600406
C   C2628     1.0  0.15980  0.04010  0.82620  1.0000 0.637843934
O   O2482     1.0  0.13630  0.09070  0.06890  1.0000 -0.6007274885
C   C2629     1.0  0.64940  0.53600  0.91010  1.0000 0.0760005572
C   C2630     1.0  0.63380  0.55620  0.88750  1.0000 0.0709581455
C   C2631     1.0  0.65020  0.55110  0.92290  1.0000 -0.1807206609
C   C2632     1.0  0.63470  0.57110  0.90040  1.0000 -0.189473289
C   C2633     1.0  0.64280  0.56850  0.91800  1.0000 0.0978843566
C   C2634     1.0  0.64120  0.53860  0.89220  1.0000 -0.1219500515
C   C2635     1.0  0.62360  0.58600  0.89670  1.0000 0.637843934
C   C2636     1.0  0.64030  0.52250  0.87800  1.0000 0.637843934
C   C2637     1.0  0.66110  0.55000  0.93810  1.0000 0.6285624754
O   O2483     1.0  0.66040  0.56300  0.95010  1.0000 -0.6397820246
O   O2484     1.0  0.66920  0.53500  0.94170  1.0000 -0.6517776188
O   O2485     1.0  0.63020  0.52400  0.86390  1.0000 -0.5677502138
O   O2486     1.0  0.65090  0.50860  0.87970  1.0000 -0.5777560007
O   O2487     1.0  0.61960  0.58980  0.88000  1.0000 -0.609555034
O   O2488     1.0  0.62060  0.59780  0.90930  1.0000 -0.6397820246
C   C2638     1.0  0.65360  0.54200  0.01830  1.0000 0.0614820425
C   C2639     1.0  0.66210  0.53000  0.00530  1.0000 -0.0708048282
C   C2640     1.0  0.67040  0.53790  0.98760  1.0000 0.6800795649
O   O2489     1.0  0.65230  0.56740  0.04610  1.0000 -0.5303997674
O   O2490     1.0  0.66880  0.55480  0.98440  1.0000 -0.609555034
O   O2491     1.0  0.67720  0.52700  0.97490  1.0000 -0.6782680781
Ti  Ti243     1.0  0.69209  0.52389  0.95066  1.0000 2.0212494802
O   O2492     1.0  0.71880  0.50920  0.96460  1.0000 -0.6397820246
C   C2641     1.0  0.61030  0.48300  0.79100  1.0000 0.0362362238
C   C2642     1.0  0.62990  0.48450  0.78960  1.0000 -0.1087284717
C   C2643     1.0  0.64040  0.49640  0.80310  1.0000 0.637843934
O   O2493     1.0  0.57170  0.45600  0.77230  1.0000 -0.6939314659
O   O2494     1.0  0.65740  0.49320  0.80620  1.0000 -0.5588135763
O   O2495     1.0  0.63180  0.50860  0.81260  1.0000 -0.5588135763
O   O2496     1.0  0.62850  0.60010  0.84900  1.0000 -0.6397820246
O   O2497     1.0  0.67220  0.52770  0.82350  1.0000 -0.5777560007
O   O2498     1.0  0.64280  0.53560  0.82630  1.0000 -0.5588135763
C   C2644     1.0  0.65180  0.57430  0.83060  1.0000 0.0286004543
C   C2645     1.0  0.66530  0.56050  0.82640  1.0000 -0.1004600406
C   C2646     1.0  0.65980  0.54010  0.82620  1.0000 0.637843934
O   O2499     1.0  0.63630  0.59070  0.06890  1.0000 -0.5037077391
C   C2647     1.0  0.64940  0.03600  0.41010  1.0000 0.0760005572
C   C2648     1.0  0.63380  0.05620  0.38750  1.0000 0.0709581455
C   C2649     1.0  0.65020  0.05110  0.42290  1.0000 -0.1807206609
C   C2650     1.0  0.63470  0.07110  0.40040  1.0000 -0.189473289
C   C2651     1.0  0.64280  0.06850  0.41800  1.0000 0.0978843566
C   C2652     1.0  0.64120  0.03860  0.39220  1.0000 -0.1219500515
C   C2653     1.0  0.62360  0.08600  0.39670  1.0000 0.637843934
C   C2654     1.0  0.64030  0.02250  0.37800  1.0000 0.637843934
C   C2655     1.0  0.66110  0.05000  0.43810  1.0000 0.6285624754
O   O2500     1.0  0.66040  0.06300  0.45010  1.0000 -0.6397820246
O   O2501     1.0  0.66920  0.03500  0.44170  1.0000 -0.6517776188
O   O2502     1.0  0.63020  0.02400  0.36390  1.0000 -0.5677502138
O   O2503     1.0  0.65090  0.00860  0.37970  1.0000 -0.5777560007
O   O2504     1.0  0.61960  0.08980  0.38000  1.0000 -0.609555034
O   O2505     1.0  0.62060  0.09780  0.40930  1.0000 -0.6397820246
C   C2656     1.0  0.65360  0.04200  0.51830  1.0000 0.0501834124
C   C2657     1.0  0.66210  0.03000  0.50530  1.0000 -0.0708048282
C   C2658     1.0  0.67040  0.03790  0.48760  1.0000 0.6800795649
O   O2506     1.0  0.65230  0.06740  0.54610  1.0000 -0.6517776188
O   O2507     1.0  0.66880  0.05480  0.48440  1.0000 -0.6162038559
O   O2508     1.0  0.67720  0.02700  0.47490  1.0000 -0.6782680781
Ti  Ti244     1.0  0.69209  0.02389  0.45066  1.0000 2.0212494802
O   O2509     1.0  0.71880  0.00920  0.46460  1.0000 -0.6397820246
C   C2659     1.0  0.61030  0.98300  0.29100  1.0000 0.0362362238
C   C2660     1.0  0.62990  0.98450  0.28960  1.0000 -0.1087284717
C   C2661     1.0  0.64040  0.99640  0.30310  1.0000 0.637843934
O   O2510     1.0  0.57170  0.95600  0.27230  1.0000 -0.6939314659
O   O2511     1.0  0.65740  0.99320  0.30620  1.0000 -0.5588135763
O   O2512     1.0  0.63180  0.00860  0.31260  1.0000 -0.5588135763
O   O2513     1.0  0.62850  0.10010  0.34900  1.0000 -0.6397820246
O   O2514     1.0  0.67220  0.02770  0.32350  1.0000 -0.5777560007
O   O2515     1.0  0.64280  0.03560  0.32630  1.0000 -0.5588135763
C   C2662     1.0  0.65180  0.07430  0.33060  1.0000 0.0286004543
C   C2663     1.0  0.66530  0.06050  0.32640  1.0000 -0.1004600406
C   C2664     1.0  0.65980  0.04010  0.32620  1.0000 0.637843934
O   O2516     1.0  0.63630  0.09070  0.56890  1.0000 -0.609555034
C   C2665     1.0  0.10060  0.21400  0.91010  1.0000 0.0760005572
C   C2666     1.0  0.11620  0.19380  0.88750  1.0000 0.0709581455
C   C2667     1.0  0.09980  0.19890  0.92290  1.0000 -0.1807206609
C   C2668     1.0  0.11530  0.17890  0.90040  1.0000 -0.189473289
C   C2669     1.0  0.10720  0.18150  0.91800  1.0000 0.0978843566
C   C2670     1.0  0.10880  0.21140  0.89220  1.0000 -0.1219500515
C   C2671     1.0  0.12640  0.16400  0.89670  1.0000 0.637843934
C   C2672     1.0  0.10970  0.22750  0.87800  1.0000 0.637843934
C   C2673     1.0  0.08890  0.20000  0.93810  1.0000 0.6285624754
O   O2517     1.0  0.08960  0.18700  0.95010  1.0000 -0.6397820246
O   O2518     1.0  0.08080  0.21500  0.94170  1.0000 -0.6517776188
O   O2519     1.0  0.11980  0.22600  0.86390  1.0000 -0.5677502138
O   O2520     1.0  0.09910  0.24140  0.87970  1.0000 -0.5777560007
O   O2521     1.0  0.13040  0.16020  0.88000  1.0000 -0.609555034
O   O2522     1.0  0.12940  0.15220  0.90930  1.0000 -0.6397820246
C   C2674     1.0  0.09640  0.20800  0.01830  1.0000 0.0614820425
C   C2675     1.0  0.08790  0.22000  0.00530  1.0000 -0.0708048282
C   C2676     1.0  0.07960  0.21210  0.98760  1.0000 0.6800795649
O   O2523     1.0  0.09770  0.18260  0.04610  1.0000 -0.5303997674
O   O2524     1.0  0.08120  0.19520  0.98440  1.0000 -0.609555034
O   O2525     1.0  0.07280  0.22300  0.97490  1.0000 -0.6782680781
Ti  Ti245     1.0  0.05791  0.22611  0.95066  1.0000 2.0212494802
O   O2526     1.0  0.03120  0.24080  0.96460  1.0000 -0.6397820246
C   C2677     1.0  0.13970  0.26700  0.79100  1.0000 0.0362362238
C   C2678     1.0  0.12010  0.26550  0.78960  1.0000 -0.1087284717
C   C2679     1.0  0.10960  0.25360  0.80310  1.0000 0.637843934
O   O2527     1.0  0.17830  0.29400  0.77230  1.0000 -0.6939314659
O   O2528     1.0  0.09260  0.25680  0.80620  1.0000 -0.5588135763
O   O2529     1.0  0.11820  0.24140  0.81260  1.0000 -0.5588135763
O   O2530     1.0  0.12150  0.14990  0.84900  1.0000 -0.6397820246
O   O2531     1.0  0.07780  0.22230  0.82350  1.0000 -0.5777560007
O   O2532     1.0  0.10720  0.21440  0.82630  1.0000 -0.5588135763
C   C2680     1.0  0.09820  0.17570  0.83060  1.0000 0.0286004543
C   C2681     1.0  0.08470  0.18950  0.82640  1.0000 -0.1004600406
C   C2682     1.0  0.09020  0.20990  0.82620  1.0000 0.637843934
O   O2533     1.0  0.11370  0.15930  0.06890  1.0000 -0.5106411624
C   C2683     1.0  0.10060  0.71400  0.41010  1.0000 0.0709581455
C   C2684     1.0  0.11620  0.69380  0.38750  1.0000 0.0709581455
C   C2685     1.0  0.09980  0.69890  0.42290  1.0000 -0.1807206609
C   C2686     1.0  0.11530  0.67890  0.40040  1.0000 -0.189473289
C   C2687     1.0  0.10720  0.68150  0.41800  1.0000 0.0978843566
C   C2688     1.0  0.10880  0.71140  0.39220  1.0000 -0.1219500515
C   C2689     1.0  0.12640  0.66400  0.39670  1.0000 0.637843934
C   C2690     1.0  0.10970  0.72750  0.37800  1.0000 0.637843934
C   C2691     1.0  0.08890  0.70000  0.43810  1.0000 0.6285624754
O   O2534     1.0  0.08960  0.68700  0.45010  1.0000 -0.6397820246
O   O2535     1.0  0.08080  0.71500  0.44170  1.0000 -0.6517776188
O   O2536     1.0  0.11980  0.72600  0.36390  1.0000 -0.5677502138
O   O2537     1.0  0.09910  0.74140  0.37970  1.0000 -0.5677502138
O   O2538     1.0  0.13040  0.66020  0.38000  1.0000 -0.609555034
O   O2539     1.0  0.12940  0.65220  0.40930  1.0000 -0.6397820246
C   C2692     1.0  0.09640  0.70800  0.51830  1.0000 0.0614820425
C   C2693     1.0  0.08790  0.72000  0.50530  1.0000 -0.0708048282
C   C2694     1.0  0.07960  0.71210  0.48760  1.0000 0.6800795649
O   O2540     1.0  0.09770  0.68260  0.54610  1.0000 -0.5303997674
O   O2541     1.0  0.08120  0.69520  0.48440  1.0000 -0.609555034
O   O2542     1.0  0.07280  0.72300  0.47490  1.0000 -0.6782680781
Ti  Ti246     1.0  0.05791  0.72611  0.45066  1.0000 2.0212494802
O   O2543     1.0  0.03120  0.74080  0.46460  1.0000 -0.6397820246
C   C2695     1.0  0.13970  0.76700  0.29100  1.0000 0.0286004543
C   C2696     1.0  0.12010  0.76550  0.28960  1.0000 -0.1087284717
C   C2697     1.0  0.10960  0.75360  0.30310  1.0000 0.637843934
O   O2544     1.0  0.17830  0.79400  0.27230  1.0000 -0.6939314659
O   O2545     1.0  0.09260  0.75680  0.30620  1.0000 -0.5588135763
O   O2546     1.0  0.11820  0.74140  0.31260  1.0000 -0.5588135763
O   O2547     1.0  0.12150  0.64990  0.34900  1.0000 -0.6397820246
O   O2548     1.0  0.07780  0.72230  0.32350  1.0000 -0.5777560007
O   O2549     1.0  0.10720  0.71440  0.32630  1.0000 -0.5588135763
C   C2698     1.0  0.09820  0.67570  0.33060  1.0000 0.0286004543
C   C2699     1.0  0.08470  0.68950  0.32640  1.0000 -0.1004600406
C   C2700     1.0  0.09020  0.70990  0.32620  1.0000 0.637843934
O   O2550     1.0  0.11370  0.65930  0.56890  1.0000 -0.5106411624
C   C2701     1.0  0.60060  0.21400  0.41010  1.0000 0.0760005572
C   C2702     1.0  0.61620  0.19380  0.38750  1.0000 0.0709581455
C   C2703     1.0  0.59980  0.19890  0.42290  1.0000 -0.1807206609
C   C2704     1.0  0.61530  0.17890  0.40040  1.0000 -0.189473289
C   C2705     1.0  0.60720  0.18150  0.41800  1.0000 0.0978843566
C   C2706     1.0  0.60880  0.21140  0.39220  1.0000 -0.1219500515
C   C2707     1.0  0.62640  0.16400  0.39670  1.0000 0.637843934
C   C2708     1.0  0.60970  0.22750  0.37800  1.0000 0.637843934
C   C2709     1.0  0.58890  0.20000  0.43810  1.0000 0.6285624754
O   O2551     1.0  0.58960  0.18700  0.45010  1.0000 -0.6397820246
O   O2552     1.0  0.58080  0.21500  0.44170  1.0000 -0.6517776188
O   O2553     1.0  0.61980  0.22600  0.36390  1.0000 -0.5677502138
O   O2554     1.0  0.59910  0.24140  0.37970  1.0000 -0.5777560007
O   O2555     1.0  0.63040  0.16020  0.38000  1.0000 -0.609555034
O   O2556     1.0  0.62940  0.15220  0.40930  1.0000 -0.6397820246
C   C2710     1.0  0.59640  0.20800  0.51830  1.0000 0.0614820425
C   C2711     1.0  0.58790  0.22000  0.50530  1.0000 -0.0708048282
C   C2712     1.0  0.57960  0.21210  0.48760  1.0000 0.6800795649
O   O2557     1.0  0.59770  0.18260  0.54610  1.0000 -0.5303997674
O   O2558     1.0  0.58120  0.19520  0.48440  1.0000 -0.6162038559
O   O2559     1.0  0.57280  0.22300  0.47490  1.0000 -0.6782680781
Ti  Ti247     1.0  0.55791  0.22611  0.45066  1.0000 2.0212494802
O   O2560     1.0  0.53120  0.24080  0.46460  1.0000 -0.6397820246
C   C2713     1.0  0.63970  0.26700  0.29100  1.0000 0.0362362238
C   C2714     1.0  0.62010  0.26550  0.28960  1.0000 -0.1087284717
C   C2715     1.0  0.60960  0.25360  0.30310  1.0000 0.637843934
O   O2561     1.0  0.67830  0.29400  0.27230  1.0000 -0.6939314659
O   O2562     1.0  0.59260  0.25680  0.30620  1.0000 -0.5588135763
O   O2563     1.0  0.61820  0.24140  0.31260  1.0000 -0.5588135763
O   O2564     1.0  0.62150  0.14990  0.34900  1.0000 -0.6397820246
O   O2565     1.0  0.57780  0.22230  0.32350  1.0000 -0.5777560007
O   O2566     1.0  0.60720  0.21440  0.32630  1.0000 -0.5588135763
C   C2716     1.0  0.59820  0.17570  0.33060  1.0000 0.0286004543
C   C2717     1.0  0.58470  0.18950  0.32640  1.0000 -0.1004600406
C   C2718     1.0  0.59020  0.20990  0.32620  1.0000 0.637843934
O   O2567     1.0  0.61370  0.15930  0.56890  1.0000 -0.521012765
C   C2719     1.0  0.60060  0.71400  0.91010  1.0000 0.0760005572
C   C2720     1.0  0.61620  0.69380  0.88750  1.0000 0.0709581455
C   C2721     1.0  0.59980  0.69890  0.92290  1.0000 -0.1807206609
C   C2722     1.0  0.61530  0.67890  0.90040  1.0000 -0.189473289
C   C2723     1.0  0.60720  0.68150  0.91800  1.0000 0.0978843566
C   C2724     1.0  0.60880  0.71140  0.89220  1.0000 -0.1219500515
C   C2725     1.0  0.62640  0.66400  0.89670  1.0000 0.637843934
C   C2726     1.0  0.60970  0.72750  0.87800  1.0000 0.637843934
C   C2727     1.0  0.58890  0.70000  0.93810  1.0000 0.6285624754
O   O2568     1.0  0.58960  0.68700  0.95010  1.0000 -0.6397820246
O   O2569     1.0  0.58080  0.71500  0.94170  1.0000 -0.6517776188
O   O2570     1.0  0.61980  0.72600  0.86390  1.0000 -0.5677502138
O   O2571     1.0  0.59910  0.74140  0.87970  1.0000 -0.5777560007
O   O2572     1.0  0.63040  0.66020  0.88000  1.0000 -0.609555034
O   O2573     1.0  0.62940  0.65220  0.90930  1.0000 -0.6397820246
C   C2728     1.0  0.59640  0.70800  0.01830  1.0000 0.0501834124
C   C2729     1.0  0.58790  0.72000  0.00530  1.0000 -0.0708048282
C   C2730     1.0  0.57960  0.71210  0.98760  1.0000 0.6800795649
O   O2574     1.0  0.59770  0.68260  0.04610  1.0000 -0.6517776188
O   O2575     1.0  0.58120  0.69520  0.98440  1.0000 -0.6162038559
O   O2576     1.0  0.57280  0.72300  0.97490  1.0000 -0.6782680781
Ti  Ti248     1.0  0.55791  0.72611  0.95066  1.0000 2.0212494802
O   O2577     1.0  0.53120  0.74080  0.96460  1.0000 -0.6397820246
C   C2731     1.0  0.63970  0.76700  0.79100  1.0000 0.0362362238
C   C2732     1.0  0.62010  0.76550  0.78960  1.0000 -0.1087284717
C   C2733     1.0  0.60960  0.75360  0.80310  1.0000 0.637843934
O   O2578     1.0  0.67830  0.79400  0.77230  1.0000 -0.6939314659
O   O2579     1.0  0.59260  0.75680  0.80620  1.0000 -0.5588135763
O   O2580     1.0  0.61820  0.74140  0.81260  1.0000 -0.5588135763
O   O2581     1.0  0.62150  0.64990  0.84900  1.0000 -0.6397820246
O   O2582     1.0  0.57780  0.72230  0.82350  1.0000 -0.5777560007
O   O2583     1.0  0.60720  0.71440  0.82630  1.0000 -0.5588135763
C   C2734     1.0  0.59820  0.67570  0.83060  1.0000 0.0286004543
C   C2735     1.0  0.58470  0.68950  0.82640  1.0000 -0.1004600406
C   C2736     1.0  0.59020  0.70990  0.82620  1.0000 0.637843934
O   O2584     1.0  0.61370  0.65930  0.06890  1.0000 -0.609555034
C   C2737     1.0  0.64940  0.71400  0.33990  1.0000 0.0760005572
C   C2738     1.0  0.63380  0.69380  0.36250  1.0000 0.0709581455
C   C2739     1.0  0.65020  0.69890  0.32710  1.0000 -0.1807206609
C   C2740     1.0  0.63470  0.67890  0.34960  1.0000 -0.189473289
C   C2741     1.0  0.64280  0.68150  0.33200  1.0000 0.0978843566
C   C2742     1.0  0.64120  0.71140  0.35780  1.0000 -0.1219500515
C   C2743     1.0  0.62360  0.66400  0.35330  1.0000 0.637843934
C   C2744     1.0  0.64030  0.72750  0.37200  1.0000 0.637843934
C   C2745     1.0  0.66110  0.70000  0.31190  1.0000 0.6285624754
O   O2585     1.0  0.66040  0.68700  0.29990  1.0000 -0.6397820246
O   O2586     1.0  0.66920  0.71500  0.30830  1.0000 -0.6517776188
O   O2587     1.0  0.63020  0.72600  0.38610  1.0000 -0.5677502138
O   O2588     1.0  0.65090  0.74140  0.37030  1.0000 -0.5777560007
O   O2589     1.0  0.61960  0.66020  0.37000  1.0000 -0.609555034
O   O2590     1.0  0.62060  0.65220  0.34070  1.0000 -0.6397820246
C   C2746     1.0  0.65360  0.70800  0.23170  1.0000 0.0614820425
C   C2747     1.0  0.66210  0.72000  0.24470  1.0000 -0.0708048282
C   C2748     1.0  0.67040  0.71210  0.26240  1.0000 0.6800795649
O   O2591     1.0  0.65230  0.68260  0.20390  1.0000 -0.5303997674
O   O2592     1.0  0.66880  0.69520  0.26560  1.0000 -0.609555034
O   O2593     1.0  0.67720  0.72300  0.27510  1.0000 -0.6782680781
Ti  Ti249     1.0  0.69209  0.72611  0.29934  1.0000 2.0212494802
O   O2594     1.0  0.71880  0.74080  0.28540  1.0000 -0.6397820246
C   C2749     1.0  0.61030  0.76700  0.45900  1.0000 0.0362362238
C   C2750     1.0  0.62990  0.76550  0.46040  1.0000 -0.1087284717
C   C2751     1.0  0.64040  0.75360  0.44690  1.0000 0.637843934
O   O2595     1.0  0.57170  0.79400  0.47770  1.0000 -0.6939314659
O   O2596     1.0  0.65740  0.75680  0.44380  1.0000 -0.5588135763
O   O2597     1.0  0.63180  0.74140  0.43740  1.0000 -0.5588135763
O   O2598     1.0  0.62850  0.64990  0.40100  1.0000 -0.6397820246
O   O2599     1.0  0.67220  0.72230  0.42650  1.0000 -0.5777560007
O   O2600     1.0  0.64280  0.71440  0.42370  1.0000 -0.5588135763
C   C2752     1.0  0.65180  0.67570  0.41940  1.0000 0.0286004543
C   C2753     1.0  0.66530  0.68950  0.42360  1.0000 -0.1004600406
C   C2754     1.0  0.65980  0.70990  0.42380  1.0000 0.637843934
O   O2601     1.0  0.63630  0.65930  0.18110  1.0000 -0.5106411624
C   C2755     1.0  0.64940  0.21400  0.83990  1.0000 0.0760005572
C   C2756     1.0  0.63380  0.19380  0.86250  1.0000 0.0709581455
C   C2757     1.0  0.65020  0.19890  0.82710  1.0000 -0.1807206609
C   C2758     1.0  0.63470  0.17890  0.84960  1.0000 -0.189473289
C   C2759     1.0  0.64280  0.18150  0.83200  1.0000 0.0978843566
C   C2760     1.0  0.64120  0.21140  0.85780  1.0000 -0.1219500515
C   C2761     1.0  0.62360  0.16400  0.85330  1.0000 0.637843934
C   C2762     1.0  0.64030  0.22750  0.87200  1.0000 0.637843934
C   C2763     1.0  0.66110  0.20000  0.81190  1.0000 0.6285624754
O   O2602     1.0  0.66040  0.18700  0.79990  1.0000 -0.6397820246
O   O2603     1.0  0.66920  0.21500  0.80830  1.0000 -0.6517776188
O   O2604     1.0  0.63020  0.22600  0.88610  1.0000 -0.5677502138
O   O2605     1.0  0.65090  0.24140  0.87030  1.0000 -0.5777560007
O   O2606     1.0  0.61960  0.16020  0.87000  1.0000 -0.609555034
O   O2607     1.0  0.62060  0.15220  0.84070  1.0000 -0.6397820246
C   C2764     1.0  0.65360  0.20800  0.73170  1.0000 0.0614820425
C   C2765     1.0  0.66210  0.22000  0.74470  1.0000 -0.0708048282
C   C2766     1.0  0.67040  0.21210  0.76240  1.0000 0.6800795649
O   O2608     1.0  0.65230  0.18260  0.70390  1.0000 -0.6517776188
O   O2609     1.0  0.66880  0.19520  0.76560  1.0000 -0.6162038559
O   O2610     1.0  0.67720  0.22300  0.77510  1.0000 -0.6782680781
Ti  Ti250     1.0  0.69209  0.22611  0.79934  1.0000 2.0212494802
O   O2611     1.0  0.71880  0.24080  0.78540  1.0000 -0.6397820246
C   C2767     1.0  0.61030  0.26700  0.95900  1.0000 0.0362362238
C   C2768     1.0  0.62990  0.26550  0.96040  1.0000 -0.1087284717
C   C2769     1.0  0.64040  0.25360  0.94690  1.0000 0.637843934
O   O2612     1.0  0.57170  0.29400  0.97770  1.0000 -0.6939314659
O   O2613     1.0  0.65740  0.25680  0.94380  1.0000 -0.5588135763
O   O2614     1.0  0.63180  0.24140  0.93740  1.0000 -0.5588135763
O   O2615     1.0  0.62850  0.14990  0.90100  1.0000 -0.6397820246
O   O2616     1.0  0.67220  0.22230  0.92650  1.0000 -0.5777560007
O   O2617     1.0  0.64280  0.21440  0.92370  1.0000 -0.5588135763
C   C2770     1.0  0.65180  0.17570  0.91940  1.0000 0.0286004543
C   C2771     1.0  0.66530  0.18950  0.92360  1.0000 -0.1004600406
C   C2772     1.0  0.65980  0.20990  0.92380  1.0000 0.637843934
O   O2618     1.0  0.63630  0.15930  0.68110  1.0000 -0.6007274885
C   C2773     1.0  0.14940  0.71400  0.83990  1.0000 0.0760005572
C   C2774     1.0  0.13380  0.69380  0.86250  1.0000 0.0709581455
C   C2775     1.0  0.15020  0.69890  0.82710  1.0000 -0.1807206609
C   C2776     1.0  0.13470  0.67890  0.84960  1.0000 -0.189473289
C   C2777     1.0  0.14280  0.68150  0.83200  1.0000 0.0978843566
C   C2778     1.0  0.14120  0.71140  0.85780  1.0000 -0.1219500515
C   C2779     1.0  0.12360  0.66400  0.85330  1.0000 0.637843934
C   C2780     1.0  0.14030  0.72750  0.87200  1.0000 0.637843934
C   C2781     1.0  0.16110  0.70000  0.81190  1.0000 0.6285624754
O   O2619     1.0  0.16040  0.68700  0.79990  1.0000 -0.6397820246
O   O2620     1.0  0.16920  0.71500  0.80830  1.0000 -0.6517776188
O   O2621     1.0  0.13020  0.72600  0.88610  1.0000 -0.5677502138
O   O2622     1.0  0.15090  0.74140  0.87030  1.0000 -0.5777560007
O   O2623     1.0  0.11960  0.66020  0.87000  1.0000 -0.609555034
O   O2624     1.0  0.12060  0.65220  0.84070  1.0000 -0.6397820246
C   C2782     1.0  0.15360  0.70800  0.73170  1.0000 0.0501834124
C   C2783     1.0  0.16210  0.72000  0.74470  1.0000 -0.0708048282
C   C2784     1.0  0.17040  0.71210  0.76240  1.0000 0.6800795649
O   O2625     1.0  0.15230  0.68260  0.70390  1.0000 -0.5303997674
O   O2626     1.0  0.16880  0.69520  0.76560  1.0000 -0.609555034
O   O2627     1.0  0.17720  0.72300  0.77510  1.0000 -0.6782680781
Ti  Ti251     1.0  0.19209  0.72611  0.79934  1.0000 2.0212494802
O   O2628     1.0  0.21880  0.74080  0.78540  1.0000 -0.6397820246
C   C2785     1.0  0.11030  0.76700  0.95900  1.0000 0.0362362238
C   C2786     1.0  0.12990  0.76550  0.96040  1.0000 -0.1087284717
C   C2787     1.0  0.14040  0.75360  0.94690  1.0000 0.637843934
O   O2629     1.0  0.07170  0.79400  0.97770  1.0000 -0.6939314659
O   O2630     1.0  0.15740  0.75680  0.94380  1.0000 -0.5588135763
O   O2631     1.0  0.13180  0.74140  0.93740  1.0000 -0.5548712105
O   O2632     1.0  0.12850  0.64990  0.90100  1.0000 -0.6397820246
O   O2633     1.0  0.17220  0.72230  0.92650  1.0000 -0.5777560007
O   O2634     1.0  0.14280  0.71440  0.92370  1.0000 -0.5588135763
C   C2788     1.0  0.15180  0.67570  0.91940  1.0000 0.0286004543
C   C2789     1.0  0.16530  0.68950  0.92360  1.0000 -0.1004600406
C   C2790     1.0  0.15980  0.70990  0.92380  1.0000 0.637843934
O   O2635     1.0  0.13630  0.65930  0.68110  1.0000 -0.5106411624
C   C2791     1.0  0.14940  0.21400  0.33990  1.0000 0.0760005572
C   C2792     1.0  0.13380  0.19380  0.36250  1.0000 0.0709581455
C   C2793     1.0  0.15020  0.19890  0.32710  1.0000 -0.1807206609
C   C2794     1.0  0.13470  0.17890  0.34960  1.0000 -0.189473289
C   C2795     1.0  0.14280  0.18150  0.33200  1.0000 0.0978843566
C   C2796     1.0  0.14120  0.21140  0.35780  1.0000 -0.1219500515
C   C2797     1.0  0.12360  0.16400  0.35330  1.0000 0.637843934
C   C2798     1.0  0.14030  0.22750  0.37200  1.0000 0.637843934
C   C2799     1.0  0.16110  0.20000  0.31190  1.0000 0.6285624754
O   O2636     1.0  0.16040  0.18700  0.29990  1.0000 -0.6397820246
O   O2637     1.0  0.16920  0.21500  0.30830  1.0000 -0.6517776188
O   O2638     1.0  0.13020  0.22600  0.38610  1.0000 -0.5677502138
O   O2639     1.0  0.15090  0.24140  0.37030  1.0000 -0.5777560007
O   O2640     1.0  0.11960  0.16020  0.37000  1.0000 -0.609555034
O   O2641     1.0  0.12060  0.15220  0.34070  1.0000 -0.6397820246
C   C2800     1.0  0.15360  0.20800  0.23170  1.0000 0.0501834124
C   C2801     1.0  0.16210  0.22000  0.24470  1.0000 -0.0708048282
C   C2802     1.0  0.17040  0.21210  0.26240  1.0000 0.6800795649
O   O2642     1.0  0.15230  0.18260  0.20390  1.0000 -0.5303997674
O   O2643     1.0  0.16880  0.19520  0.26560  1.0000 -0.609555034
O   O2644     1.0  0.17720  0.22300  0.27510  1.0000 -0.6782680781
Ti  Ti252     1.0  0.19209  0.22611  0.29934  1.0000 2.0212494802
O   O2645     1.0  0.21880  0.24080  0.28540  1.0000 -0.6397820246
C   C2803     1.0  0.11030  0.26700  0.45900  1.0000 0.0362362238
C   C2804     1.0  0.12990  0.26550  0.46040  1.0000 -0.1087284717
C   C2805     1.0  0.14040  0.25360  0.44690  1.0000 0.637843934
O   O2646     1.0  0.07170  0.29400  0.47770  1.0000 -0.6939314659
O   O2647     1.0  0.15740  0.25680  0.44380  1.0000 -0.5588135763
O   O2648     1.0  0.13180  0.24140  0.43740  1.0000 -0.5588135763
O   O2649     1.0  0.12850  0.14990  0.40100  1.0000 -0.6397820246
O   O2650     1.0  0.17220  0.22230  0.42650  1.0000 -0.5777560007
O   O2651     1.0  0.14280  0.21440  0.42370  1.0000 -0.5588135763
C   C2806     1.0  0.15180  0.17570  0.41940  1.0000 0.0286004543
C   C2807     1.0  0.16530  0.18950  0.42360  1.0000 -0.1004600406
C   C2808     1.0  0.15980  0.20990  0.42380  1.0000 0.637843934
O   O2652     1.0  0.13630  0.15930  0.18110  1.0000 -0.5106411624
C   C2809     1.0  0.60060  0.03600  0.83990  1.0000 0.0760005572
C   C2810     1.0  0.61620  0.05620  0.86250  1.0000 0.0709581455
C   C2811     1.0  0.59980  0.05110  0.82710  1.0000 -0.1807206609
C   C2812     1.0  0.61530  0.07110  0.84960  1.0000 -0.189473289
C   C2813     1.0  0.60720  0.06850  0.83200  1.0000 0.0978843566
C   C2814     1.0  0.60880  0.03860  0.85780  1.0000 -0.1219500515
C   C2815     1.0  0.62640  0.08600  0.85330  1.0000 0.637843934
C   C2816     1.0  0.60970  0.02250  0.87200  1.0000 0.637843934
C   C2817     1.0  0.58890  0.05000  0.81190  1.0000 0.6285624754
O   O2653     1.0  0.58960  0.06300  0.79990  1.0000 -0.6397820246
O   O2654     1.0  0.58080  0.03500  0.80830  1.0000 -0.6517776188
O   O2655     1.0  0.61980  0.02400  0.88610  1.0000 -0.5677502138
O   O2656     1.0  0.59910  0.00860  0.87030  1.0000 -0.5777560007
O   O2657     1.0  0.63040  0.08980  0.87000  1.0000 -0.609555034
O   O2658     1.0  0.62940  0.09780  0.84070  1.0000 -0.6397820246
C   C2818     1.0  0.59640  0.04200  0.73170  1.0000 0.0614820425
C   C2819     1.0  0.58790  0.03000  0.74470  1.0000 -0.0708048282
C   C2820     1.0  0.57960  0.03790  0.76240  1.0000 0.6800795649
O   O2659     1.0  0.59770  0.06740  0.70390  1.0000 -0.5303997674
O   O2660     1.0  0.58120  0.05480  0.76560  1.0000 -0.609555034
O   O2661     1.0  0.57280  0.02700  0.77510  1.0000 -0.6782680781
Ti  Ti253     1.0  0.55791  0.02389  0.79934  1.0000 2.0212494802
O   O2662     1.0  0.53120  0.00920  0.78540  1.0000 -0.6397820246
C   C2821     1.0  0.63970  0.98300  0.95900  1.0000 0.0362362238
C   C2822     1.0  0.62010  0.98450  0.96040  1.0000 -0.1087284717
C   C2823     1.0  0.60960  0.99640  0.94690  1.0000 0.637843934
O   O2663     1.0  0.67830  0.95600  0.97770  1.0000 -0.6939314659
O   O2664     1.0  0.59260  0.99320  0.94380  1.0000 -0.5588135763
O   O2665     1.0  0.61820  0.00860  0.93740  1.0000 -0.5588135763
O   O2666     1.0  0.62150  0.10010  0.90100  1.0000 -0.6397820246
O   O2667     1.0  0.57780  0.02770  0.92650  1.0000 -0.5777560007
O   O2668     1.0  0.60720  0.03560  0.92370  1.0000 -0.5588135763
C   C2824     1.0  0.59820  0.07430  0.91940  1.0000 0.0286004543
C   C2825     1.0  0.58470  0.06050  0.92360  1.0000 -0.1004600406
C   C2826     1.0  0.59020  0.04010  0.92380  1.0000 0.637843934
O   O2669     1.0  0.61370  0.09070  0.68110  1.0000 -0.5037077391
C   C2827     1.0  0.60060  0.53600  0.33990  1.0000 0.0760005572
C   C2828     1.0  0.61620  0.55620  0.36250  1.0000 0.0709581455
C   C2829     1.0  0.59980  0.55110  0.32710  1.0000 -0.1807206609
C   C2830     1.0  0.61530  0.57110  0.34960  1.0000 -0.189473289
C   C2831     1.0  0.60720  0.56850  0.33200  1.0000 0.0978843566
C   C2832     1.0  0.60880  0.53860  0.35780  1.0000 -0.1219500515
C   C2833     1.0  0.62640  0.58600  0.35330  1.0000 0.637843934
C   C2834     1.0  0.60970  0.52250  0.37200  1.0000 0.637843934
C   C2835     1.0  0.58890  0.55000  0.31190  1.0000 0.6285624754
O   O2670     1.0  0.58960  0.56300  0.29990  1.0000 -0.6397820246
O   O2671     1.0  0.58080  0.53500  0.30830  1.0000 -0.6517776188
O   O2672     1.0  0.61980  0.52400  0.38610  1.0000 -0.5677502138
O   O2673     1.0  0.59910  0.50860  0.37030  1.0000 -0.5777560007
O   O2674     1.0  0.63040  0.58980  0.37000  1.0000 -0.609555034
O   O2675     1.0  0.62940  0.59780  0.34070  1.0000 -0.6397820246
C   C2836     1.0  0.59640  0.54200  0.23170  1.0000 0.0501834124
C   C2837     1.0  0.58790  0.53000  0.24470  1.0000 -0.0708048282
C   C2838     1.0  0.57960  0.53790  0.26240  1.0000 0.6800795649
O   O2676     1.0  0.59770  0.56740  0.20390  1.0000 -0.6517776188
O   O2677     1.0  0.58120  0.55480  0.26560  1.0000 -0.6162038559
O   O2678     1.0  0.57280  0.52700  0.27510  1.0000 -0.6782680781
Ti  Ti254     1.0  0.55791  0.52389  0.29934  1.0000 2.0212494802
O   O2679     1.0  0.53120  0.50920  0.28540  1.0000 -0.6397820246
C   C2839     1.0  0.63970  0.48300  0.45900  1.0000 0.0362362238
C   C2840     1.0  0.62010  0.48450  0.46040  1.0000 -0.1087284717
C   C2841     1.0  0.60960  0.49640  0.44690  1.0000 0.637843934
O   O2680     1.0  0.67830  0.45600  0.47770  1.0000 -0.6939314659
O   O2681     1.0  0.59260  0.49320  0.44380  1.0000 -0.5588135763
O   O2682     1.0  0.61820  0.50860  0.43740  1.0000 -0.5588135763
O   O2683     1.0  0.62150  0.60010  0.40100  1.0000 -0.6397820246
O   O2684     1.0  0.57780  0.52770  0.42650  1.0000 -0.5777560007
O   O2685     1.0  0.60720  0.53560  0.42370  1.0000 -0.5588135763
C   C2842     1.0  0.59820  0.57430  0.41940  1.0000 0.0286004543
C   C2843     1.0  0.58470  0.56050  0.42360  1.0000 -0.1004600406
C   C2844     1.0  0.59020  0.54010  0.42380  1.0000 0.637843934
O   O2686     1.0  0.61370  0.59070  0.18110  1.0000 -0.609555034
C   C2845     1.0  0.10060  0.03600  0.33990  1.0000 0.0709581455
C   C2846     1.0  0.11620  0.05620  0.36250  1.0000 0.0709581455
C   C2847     1.0  0.09980  0.05110  0.32710  1.0000 -0.1807206609
C   C2848     1.0  0.11530  0.07110  0.34960  1.0000 -0.189473289
C   C2849     1.0  0.10720  0.06850  0.33200  1.0000 0.0978843566
C   C2850     1.0  0.10880  0.03860  0.35780  1.0000 -0.1219500515
C   C2851     1.0  0.12640  0.08600  0.35330  1.0000 0.637843934
C   C2852     1.0  0.10970  0.02250  0.37200  1.0000 0.637843934
C   C2853     1.0  0.08890  0.05000  0.31190  1.0000 0.6215376561
O   O2687     1.0  0.08960  0.06300  0.29990  1.0000 -0.6397820246
O   O2688     1.0  0.08080  0.03500  0.30830  1.0000 -0.6517776188
O   O2689     1.0  0.11980  0.02400  0.38610  1.0000 -0.5677502138
O   O2690     1.0  0.09910  0.00860  0.37030  1.0000 -0.5677502138
O   O2691     1.0  0.13040  0.08980  0.37000  1.0000 -0.609555034
O   O2692     1.0  0.12940  0.09780  0.34070  1.0000 -0.6397820246
C   C2854     1.0  0.09640  0.04200  0.23170  1.0000 0.0501834124
C   C2855     1.0  0.08790  0.03000  0.24470  1.0000 -0.0708048282
C   C2856     1.0  0.07960  0.03790  0.26240  1.0000 0.6800795649
O   O2693     1.0  0.09770  0.06740  0.20390  1.0000 -0.6517776188
O   O2694     1.0  0.08120  0.05480  0.26560  1.0000 -0.6162038559
O   O2695     1.0  0.07280  0.02700  0.27510  1.0000 -0.6782680781
Ti  Ti255     1.0  0.05791  0.02389  0.29934  1.0000 2.0212494802
O   O2696     1.0  0.03120  0.00920  0.28540  1.0000 -0.6397820246
C   C2857     1.0  0.13970  0.98300  0.45900  1.0000 0.0286004543
C   C2858     1.0  0.12010  0.98450  0.46040  1.0000 -0.1087284717
C   C2859     1.0  0.10960  0.99640  0.44690  1.0000 0.637843934
O   O2697     1.0  0.17830  0.95600  0.47770  1.0000 -0.6939314659
O   O2698     1.0  0.09260  0.99320  0.44380  1.0000 -0.5588135763
O   O2699     1.0  0.11820  0.00860  0.43740  1.0000 -0.5588135763
O   O2700     1.0  0.12150  0.10010  0.40100  1.0000 -0.6397820246
O   O2701     1.0  0.07780  0.02770  0.42650  1.0000 -0.5777560007
O   O2702     1.0  0.10720  0.03560  0.42370  1.0000 -0.5588135763
C   C2860     1.0  0.09820  0.07430  0.41940  1.0000 0.0286004543
C   C2861     1.0  0.08470  0.06050  0.42360  1.0000 -0.1004600406
C   C2862     1.0  0.09020  0.04010  0.42380  1.0000 0.637843934
O   O2703     1.0  0.11370  0.09070  0.18110  1.0000 -0.609555034
C   C2863     1.0  0.10060  0.53600  0.83990  1.0000 0.0760005572
C   C2864     1.0  0.11620  0.55620  0.86250  1.0000 0.0709581455
C   C2865     1.0  0.09980  0.55110  0.82710  1.0000 -0.1807206609
C   C2866     1.0  0.11530  0.57110  0.84960  1.0000 -0.189473289
C   C2867     1.0  0.10720  0.56850  0.83200  1.0000 0.0978843566
C   C2868     1.0  0.10880  0.53860  0.85780  1.0000 -0.1219500515
C   C2869     1.0  0.12640  0.58600  0.85330  1.0000 0.637843934
C   C2870     1.0  0.10970  0.52250  0.87200  1.0000 0.637843934
C   C2871     1.0  0.08890  0.55000  0.81190  1.0000 0.6285624754
O   O2704     1.0  0.08960  0.56300  0.79990  1.0000 -0.6397820246
O   O2705     1.0  0.08080  0.53500  0.80830  1.0000 -0.6517776188
O   O2706     1.0  0.11980  0.52400  0.88610  1.0000 -0.5677502138
O   O2707     1.0  0.09910  0.50860  0.87030  1.0000 -0.5677502138
O   O2708     1.0  0.13040  0.58980  0.87000  1.0000 -0.609555034
O   O2709     1.0  0.12940  0.59780  0.84070  1.0000 -0.6397820246
C   C2872     1.0  0.09640  0.54200  0.73170  1.0000 0.0501834124
C   C2873     1.0  0.08790  0.53000  0.74470  1.0000 -0.0708048282
C   C2874     1.0  0.07960  0.53790  0.76240  1.0000 0.6800795649
O   O2710     1.0  0.09770  0.56740  0.70390  1.0000 -0.6517776188
O   O2711     1.0  0.08120  0.55480  0.76560  1.0000 -0.6162038559
O   O2712     1.0  0.07280  0.52700  0.77510  1.0000 -0.6782680781
Ti  Ti256     1.0  0.05791  0.52389  0.79934  1.0000 2.0212494802
O   O2713     1.0  0.03120  0.50920  0.78540  1.0000 -0.6397820246
C   C2875     1.0  0.13970  0.48300  0.95900  1.0000 0.0362362238
C   C2876     1.0  0.12010  0.48450  0.96040  1.0000 -0.1087284717
C   C2877     1.0  0.10960  0.49640  0.94690  1.0000 0.637843934
O   O2714     1.0  0.17830  0.45600  0.97770  1.0000 -0.6939314659
O   O2715     1.0  0.09260  0.49320  0.94380  1.0000 -0.5588135763
O   O2716     1.0  0.11820  0.50860  0.93740  1.0000 -0.5588135763
O   O2717     1.0  0.12150  0.60010  0.90100  1.0000 -0.6397820246
O   O2718     1.0  0.07780  0.52770  0.92650  1.0000 -0.5777560007
O   O2719     1.0  0.10720  0.53560  0.92370  1.0000 -0.5588135763
C   C2878     1.0  0.09820  0.57430  0.91940  1.0000 0.0286004543
C   C2879     1.0  0.08470  0.56050  0.92360  1.0000 -0.1004600406
C   C2880     1.0  0.09020  0.54010  0.92380  1.0000 0.637843934
O   O2720     1.0  0.11370  0.59070  0.68110  1.0000 -0.609555034
C   C2881     1.0  0.03600  0.83990  0.60060  1.0000 0.0709581455
C   C2882     1.0  0.05620  0.86250  0.61620  1.0000 0.0709581455
C   C2883     1.0  0.05110  0.82710  0.59980  1.0000 -0.1807206609
C   C2884     1.0  0.07110  0.84960  0.61530  1.0000 -0.189473289
C   C2885     1.0  0.06850  0.83200  0.60720  1.0000 0.0978843566
C   C2886     1.0  0.03860  0.85780  0.60880  1.0000 -0.1219500515
C   C2887     1.0  0.08600  0.85330  0.62640  1.0000 0.637843934
C   C2888     1.0  0.02250  0.87200  0.60970  1.0000 0.637843934
C   C2889     1.0  0.05000  0.81190  0.58890  1.0000 0.6285624754
O   O2721     1.0  0.06300  0.79990  0.58960  1.0000 -0.6397820246
O   O2722     1.0  0.03500  0.80830  0.58080  1.0000 -0.6517776188
O   O2723     1.0  0.02400  0.88610  0.61980  1.0000 -0.5677502138
O   O2724     1.0  0.00860  0.87030  0.59910  1.0000 -0.5677502138
O   O2725     1.0  0.08980  0.87000  0.63040  1.0000 -0.609555034
O   O2726     1.0  0.09780  0.84070  0.62940  1.0000 -0.6397820246
C   C2890     1.0  0.04200  0.73170  0.59640  1.0000 0.0501834124
C   C2891     1.0  0.03000  0.74470  0.58790  1.0000 -0.0708048282
C   C2892     1.0  0.03790  0.76240  0.57960  1.0000 0.6800795649
O   O2727     1.0  0.06740  0.70390  0.59770  1.0000 -0.5303997674
O   O2728     1.0  0.05480  0.76560  0.58120  1.0000 -0.609555034
O   O2729     1.0  0.02700  0.77510  0.57280  1.0000 -0.6782680781
Ti  Ti257     1.0  0.02389  0.79934  0.55791  1.0000 2.0212494802
O   O2730     1.0  0.00920  0.78540  0.53120  1.0000 -0.6397820246
C   C2893     1.0  0.98300  0.95900  0.63970  1.0000 0.0362362238
C   C2894     1.0  0.98450  0.96040  0.62010  1.0000 -0.1087284717
C   C2895     1.0  0.99640  0.94690  0.60960  1.0000 0.637843934
O   O2731     1.0  0.95600  0.97770  0.67830  1.0000 -0.6939314659
O   O2732     1.0  0.99320  0.94380  0.59260  1.0000 -0.5588135763
O   O2733     1.0  0.00860  0.93740  0.61820  1.0000 -0.5588135763
O   O2734     1.0  0.10010  0.90100  0.62150  1.0000 -0.6397820246
O   O2735     1.0  0.02770  0.92650  0.57780  1.0000 -0.5777560007
O   O2736     1.0  0.03560  0.92370  0.60720  1.0000 -0.5588135763
C   C2896     1.0  0.07430  0.91940  0.59820  1.0000 0.0286004543
C   C2897     1.0  0.06050  0.92360  0.58470  1.0000 -0.1004600406
C   C2898     1.0  0.04010  0.92380  0.59020  1.0000 0.637843934
O   O2737     1.0  0.09070  0.68110  0.61370  1.0000 -0.5106411624
C   C2899     1.0  0.03600  0.33990  0.10060  1.0000 0.0709581455
C   C2900     1.0  0.05620  0.36250  0.11620  1.0000 0.0709581455
C   C2901     1.0  0.05110  0.32710  0.09980  1.0000 -0.1807206609
C   C2902     1.0  0.07110  0.34960  0.11530  1.0000 -0.189473289
C   C2903     1.0  0.06850  0.33200  0.10720  1.0000 0.0978843566
C   C2904     1.0  0.03860  0.35780  0.10880  1.0000 -0.1219500515
C   C2905     1.0  0.08600  0.35330  0.12640  1.0000 0.637843934
C   C2906     1.0  0.02250  0.37200  0.10970  1.0000 0.637843934
C   C2907     1.0  0.05000  0.31190  0.08890  1.0000 0.6285624754
O   O2738     1.0  0.06300  0.29990  0.08960  1.0000 -0.6397820246
O   O2739     1.0  0.03500  0.30830  0.08080  1.0000 -0.6517776188
O   O2740     1.0  0.02400  0.38610  0.11980  1.0000 -0.5677502138
O   O2741     1.0  0.00860  0.37030  0.09910  1.0000 -0.5777560007
O   O2742     1.0  0.08980  0.37000  0.13040  1.0000 -0.609555034
O   O2743     1.0  0.09780  0.34070  0.12940  1.0000 -0.6397820246
C   C2908     1.0  0.04200  0.23170  0.09640  1.0000 0.0501834124
C   C2909     1.0  0.03000  0.24470  0.08790  1.0000 -0.0708048282
C   C2910     1.0  0.03790  0.26240  0.07960  1.0000 0.6800795649
O   O2744     1.0  0.06740  0.20390  0.09770  1.0000 -0.5303997674
O   O2745     1.0  0.05480  0.26560  0.08120  1.0000 -0.609555034
O   O2746     1.0  0.02700  0.27510  0.07280  1.0000 -0.6782680781
Ti  Ti258     1.0  0.02389  0.29934  0.05791  1.0000 2.0212494802
O   O2747     1.0  0.00920  0.28540  0.03120  1.0000 -0.6397820246
C   C2911     1.0  0.98300  0.45900  0.13970  1.0000 0.0362362238
C   C2912     1.0  0.98450  0.46040  0.12010  1.0000 -0.1087284717
C   C2913     1.0  0.99640  0.44690  0.10960  1.0000 0.637843934
O   O2748     1.0  0.95600  0.47770  0.17830  1.0000 -0.6939314659
O   O2749     1.0  0.99320  0.44380  0.09260  1.0000 -0.5588135763
O   O2750     1.0  0.00860  0.43740  0.11820  1.0000 -0.5588135763
O   O2751     1.0  0.10010  0.40100  0.12150  1.0000 -0.6397820246
O   O2752     1.0  0.02770  0.42650  0.07780  1.0000 -0.5777560007
O   O2753     1.0  0.03560  0.42370  0.10720  1.0000 -0.5588135763
C   C2914     1.0  0.07430  0.41940  0.09820  1.0000 0.0286004543
C   C2915     1.0  0.06050  0.42360  0.08470  1.0000 -0.1004600406
C   C2916     1.0  0.04010  0.42380  0.09020  1.0000 0.637843934
O   O2754     1.0  0.09070  0.18110  0.11370  1.0000 -0.5106411624
C   C2917     1.0  0.53600  0.83990  0.10060  1.0000 0.0760005572
C   C2918     1.0  0.55620  0.86250  0.11620  1.0000 0.0709581455
C   C2919     1.0  0.55110  0.82710  0.09980  1.0000 -0.1807206609
C   C2920     1.0  0.57110  0.84960  0.11530  1.0000 -0.189473289
C   C2921     1.0  0.56850  0.83200  0.10720  1.0000 0.0978843566
C   C2922     1.0  0.53860  0.85780  0.10880  1.0000 -0.1219500515
C   C2923     1.0  0.58600  0.85330  0.12640  1.0000 0.637843934
C   C2924     1.0  0.52250  0.87200  0.10970  1.0000 0.637843934
C   C2925     1.0  0.55000  0.81190  0.08890  1.0000 0.6285624754
O   O2755     1.0  0.56300  0.79990  0.08960  1.0000 -0.6397820246
O   O2756     1.0  0.53500  0.80830  0.08080  1.0000 -0.6517776188
O   O2757     1.0  0.52400  0.88610  0.11980  1.0000 -0.5677502138
O   O2758     1.0  0.50860  0.87030  0.09910  1.0000 -0.5777560007
O   O2759     1.0  0.58980  0.87000  0.13040  1.0000 -0.609555034
O   O2760     1.0  0.59780  0.84070  0.12940  1.0000 -0.6397820246
C   C2926     1.0  0.54200  0.73170  0.09640  1.0000 0.0614820425
C   C2927     1.0  0.53000  0.74470  0.08790  1.0000 -0.0708048282
C   C2928     1.0  0.53790  0.76240  0.07960  1.0000 0.6800795649
O   O2761     1.0  0.56740  0.70390  0.09770  1.0000 -0.6517776188
O   O2762     1.0  0.55480  0.76560  0.08120  1.0000 -0.6162038559
O   O2763     1.0  0.52700  0.77510  0.07280  1.0000 -0.6782680781
Ti  Ti259     1.0  0.52389  0.79934  0.05791  1.0000 2.0212494802
O   O2764     1.0  0.50920  0.78540  0.03120  1.0000 -0.6397820246
C   C2929     1.0  0.48300  0.95900  0.13970  1.0000 0.0362362238
C   C2930     1.0  0.48450  0.96040  0.12010  1.0000 -0.1087284717
C   C2931     1.0  0.49640  0.94690  0.10960  1.0000 0.637843934
O   O2765     1.0  0.45600  0.97770  0.17830  1.0000 -0.6939314659
O   O2766     1.0  0.49320  0.94380  0.09260  1.0000 -0.5588135763
O   O2767     1.0  0.50860  0.93740  0.11820  1.0000 -0.5588135763
O   O2768     1.0  0.60010  0.90100  0.12150  1.0000 -0.6397820246
O   O2769     1.0  0.52770  0.92650  0.07780  1.0000 -0.5777560007
O   O2770     1.0  0.53560  0.92370  0.10720  1.0000 -0.5588135763
C   C2932     1.0  0.57430  0.91940  0.09820  1.0000 0.0286004543
C   C2933     1.0  0.56050  0.92360  0.08470  1.0000 -0.1004600406
C   C2934     1.0  0.54010  0.92380  0.09020  1.0000 0.637843934
O   O2771     1.0  0.59070  0.68110  0.11370  1.0000 -0.6007274885
C   C2935     1.0  0.53600  0.33990  0.60060  1.0000 0.0760005572
C   C2936     1.0  0.55620  0.36250  0.61620  1.0000 0.0709581455
C   C2937     1.0  0.55110  0.32710  0.59980  1.0000 -0.1807206609
C   C2938     1.0  0.57110  0.34960  0.61530  1.0000 -0.189473289
C   C2939     1.0  0.56850  0.33200  0.60720  1.0000 0.0978843566
C   C2940     1.0  0.53860  0.35780  0.60880  1.0000 -0.1219500515
C   C2941     1.0  0.58600  0.35330  0.62640  1.0000 0.637843934
C   C2942     1.0  0.52250  0.37200  0.60970  1.0000 0.637843934
C   C2943     1.0  0.55000  0.31190  0.58890  1.0000 0.6285624754
O   O2772     1.0  0.56300  0.29990  0.58960  1.0000 -0.6397820246
O   O2773     1.0  0.53500  0.30830  0.58080  1.0000 -0.6517776188
O   O2774     1.0  0.52400  0.38610  0.61980  1.0000 -0.5677502138
O   O2775     1.0  0.50860  0.37030  0.59910  1.0000 -0.5777560007
O   O2776     1.0  0.58980  0.37000  0.63040  1.0000 -0.609555034
O   O2777     1.0  0.59780  0.34070  0.62940  1.0000 -0.6397820246
C   C2944     1.0  0.54200  0.23170  0.59640  1.0000 0.0501834124
C   C2945     1.0  0.53000  0.24470  0.58790  1.0000 -0.0708048282
C   C2946     1.0  0.53790  0.26240  0.57960  1.0000 0.6800795649
O   O2778     1.0  0.56740  0.20390  0.59770  1.0000 -0.6517776188
O   O2779     1.0  0.55480  0.26560  0.58120  1.0000 -0.6162038559
O   O2780     1.0  0.52700  0.27510  0.57280  1.0000 -0.6782680781
Ti  Ti260     1.0  0.52389  0.29934  0.55791  1.0000 2.0212494802
O   O2781     1.0  0.50920  0.28540  0.53120  1.0000 -0.6397820246
C   C2947     1.0  0.48300  0.45900  0.63970  1.0000 0.0362362238
C   C2948     1.0  0.48450  0.46040  0.62010  1.0000 -0.1087284717
C   C2949     1.0  0.49640  0.44690  0.60960  1.0000 0.637843934
O   O2782     1.0  0.45600  0.47770  0.67830  1.0000 -0.6939314659
O   O2783     1.0  0.49320  0.44380  0.59260  1.0000 -0.5588135763
O   O2784     1.0  0.50860  0.43740  0.61820  1.0000 -0.5588135763
O   O2785     1.0  0.60010  0.40100  0.62150  1.0000 -0.6397820246
O   O2786     1.0  0.52770  0.42650  0.57780  1.0000 -0.5777560007
O   O2787     1.0  0.53560  0.42370  0.60720  1.0000 -0.5588135763
C   C2950     1.0  0.57430  0.41940  0.59820  1.0000 0.0286004543
C   C2951     1.0  0.56050  0.42360  0.58470  1.0000 -0.1004600406
C   C2952     1.0  0.54010  0.42380  0.59020  1.0000 0.637843934
O   O2788     1.0  0.59070  0.18110  0.61370  1.0000 -0.609555034
C   C2953     1.0  0.71400  0.33990  0.64940  1.0000 0.0760005572
C   C2954     1.0  0.69380  0.36250  0.63380  1.0000 0.0709581455
C   C2955     1.0  0.69890  0.32710  0.65020  1.0000 -0.1807206609
C   C2956     1.0  0.67890  0.34960  0.63470  1.0000 -0.189473289
C   C2957     1.0  0.68150  0.33200  0.64280  1.0000 0.0978843566
C   C2958     1.0  0.71140  0.35780  0.64120  1.0000 -0.1219500515
C   C2959     1.0  0.66400  0.35330  0.62360  1.0000 0.637843934
C   C2960     1.0  0.72750  0.37200  0.64030  1.0000 0.637843934
C   C2961     1.0  0.70000  0.31190  0.66110  1.0000 0.6285624754
O   O2789     1.0  0.68700  0.29990  0.66040  1.0000 -0.6397820246
O   O2790     1.0  0.71500  0.30830  0.66920  1.0000 -0.6517776188
O   O2791     1.0  0.72600  0.38610  0.63020  1.0000 -0.5677502138
O   O2792     1.0  0.74140  0.37030  0.65090  1.0000 -0.5777560007
O   O2793     1.0  0.66020  0.37000  0.61960  1.0000 -0.609555034
O   O2794     1.0  0.65220  0.34070  0.62060  1.0000 -0.6397820246
C   C2962     1.0  0.70800  0.23170  0.65360  1.0000 0.0614820425
C   C2963     1.0  0.72000  0.24470  0.66210  1.0000 -0.0708048282
C   C2964     1.0  0.71210  0.26240  0.67040  1.0000 0.6800795649
O   O2795     1.0  0.68260  0.20390  0.65230  1.0000 -0.5303997674
O   O2796     1.0  0.69520  0.26560  0.66880  1.0000 -0.609555034
O   O2797     1.0  0.72300  0.27510  0.67720  1.0000 -0.6782680781
Ti  Ti261     1.0  0.72611  0.29934  0.69209  1.0000 2.0212494802
O   O2798     1.0  0.74080  0.28540  0.71880  1.0000 -0.6397820246
C   C2965     1.0  0.76700  0.45900  0.61030  1.0000 0.0362362238
C   C2966     1.0  0.76550  0.46040  0.62990  1.0000 -0.1087284717
C   C2967     1.0  0.75360  0.44690  0.64040  1.0000 0.637843934
O   O2799     1.0  0.79400  0.47770  0.57170  1.0000 -0.6939314659
O   O2800     1.0  0.75680  0.44380  0.65740  1.0000 -0.5588135763
O   O2801     1.0  0.74140  0.43740  0.63180  1.0000 -0.5588135763
O   O2802     1.0  0.64990  0.40100  0.62850  1.0000 -0.6397820246
O   O2803     1.0  0.72230  0.42650  0.67220  1.0000 -0.5777560007
O   O2804     1.0  0.71440  0.42370  0.64280  1.0000 -0.5588135763
C   C2968     1.0  0.67570  0.41940  0.65180  1.0000 0.0286004543
C   C2969     1.0  0.68950  0.42360  0.66530  1.0000 -0.1004600406
C   C2970     1.0  0.70990  0.42380  0.65980  1.0000 0.637843934
O   O2805     1.0  0.65930  0.18110  0.63630  1.0000 -0.5106411624
C   C2971     1.0  0.71400  0.83990  0.14940  1.0000 0.0760005572
C   C2972     1.0  0.69380  0.86250  0.13380  1.0000 0.0709581455
C   C2973     1.0  0.69890  0.82710  0.15020  1.0000 -0.1807206609
C   C2974     1.0  0.67890  0.84960  0.13470  1.0000 -0.189473289
C   C2975     1.0  0.68150  0.83200  0.14280  1.0000 0.0978843566
C   C2976     1.0  0.71140  0.85780  0.14120  1.0000 -0.1219500515
C   C2977     1.0  0.66400  0.85330  0.12360  1.0000 0.637843934
C   C2978     1.0  0.72750  0.87200  0.14030  1.0000 0.637843934
C   C2979     1.0  0.70000  0.81190  0.16110  1.0000 0.6285624754
O   O2806     1.0  0.68700  0.79990  0.16040  1.0000 -0.6397820246
O   O2807     1.0  0.71500  0.80830  0.16920  1.0000 -0.6517776188
O   O2808     1.0  0.72600  0.88610  0.13020  1.0000 -0.5677502138
O   O2809     1.0  0.74140  0.87030  0.15090  1.0000 -0.5777560007
O   O2810     1.0  0.66020  0.87000  0.11960  1.0000 -0.609555034
O   O2811     1.0  0.65220  0.84070  0.12060  1.0000 -0.6397820246
C   C2980     1.0  0.70800  0.73170  0.15360  1.0000 0.0501834124
C   C2981     1.0  0.72000  0.74470  0.16210  1.0000 -0.0708048282
C   C2982     1.0  0.71210  0.76240  0.17040  1.0000 0.6800795649
O   O2812     1.0  0.68260  0.70390  0.15230  1.0000 -0.5303997674
O   O2813     1.0  0.69520  0.76560  0.16880  1.0000 -0.609555034
O   O2814     1.0  0.72300  0.77510  0.17720  1.0000 -0.6782680781
Ti  Ti262     1.0  0.72611  0.79934  0.19209  1.0000 2.0212494802
O   O2815     1.0  0.74080  0.78540  0.21880  1.0000 -0.6397820246
C   C2983     1.0  0.76700  0.95900  0.11030  1.0000 0.0362362238
C   C2984     1.0  0.76550  0.96040  0.12990  1.0000 -0.1087284717
C   C2985     1.0  0.75360  0.94690  0.14040  1.0000 0.637843934
O   O2816     1.0  0.79400  0.97770  0.07170  1.0000 -0.6939314659
O   O2817     1.0  0.75680  0.94380  0.15740  1.0000 -0.5588135763
O   O2818     1.0  0.74140  0.93740  0.13180  1.0000 -0.5588135763
O   O2819     1.0  0.64990  0.90100  0.12850  1.0000 -0.6397820246
O   O2820     1.0  0.72230  0.92650  0.17220  1.0000 -0.5777560007
O   O2821     1.0  0.71440  0.92370  0.14280  1.0000 -0.5588135763
C   C2986     1.0  0.67570  0.91940  0.15180  1.0000 0.0286004543
C   C2987     1.0  0.68950  0.92360  0.16530  1.0000 -0.1004600406
C   C2988     1.0  0.70990  0.92380  0.15980  1.0000 0.637843934
O   O2822     1.0  0.65930  0.68110  0.13630  1.0000 -0.5106411624
C   C2989     1.0  0.21400  0.33990  0.14940  1.0000 0.0709581455
C   C2990     1.0  0.19380  0.36250  0.13380  1.0000 0.0709581455
C   C2991     1.0  0.19890  0.32710  0.15020  1.0000 -0.1807206609
C   C2992     1.0  0.17890  0.34960  0.13470  1.0000 -0.189473289
C   C2993     1.0  0.18150  0.33200  0.14280  1.0000 0.0978843566
C   C2994     1.0  0.21140  0.35780  0.14120  1.0000 -0.1219500515
C   C2995     1.0  0.16400  0.35330  0.12360  1.0000 0.637843934
C   C2996     1.0  0.22750  0.37200  0.14030  1.0000 0.637843934
C   C2997     1.0  0.20000  0.31190  0.16110  1.0000 0.6285624754
O   O2823     1.0  0.18700  0.29990  0.16040  1.0000 -0.6397820246
O   O2824     1.0  0.21500  0.30830  0.16920  1.0000 -0.6517776188
O   O2825     1.0  0.22600  0.38610  0.13020  1.0000 -0.5677502138
O   O2826     1.0  0.24140  0.37030  0.15090  1.0000 -0.5777560007
O   O2827     1.0  0.16020  0.37000  0.11960  1.0000 -0.609555034
O   O2828     1.0  0.15220  0.34070  0.12060  1.0000 -0.6397820246
C   C2998     1.0  0.20800  0.23170  0.15360  1.0000 0.0614820425
C   C2999     1.0  0.22000  0.24470  0.16210  1.0000 -0.0708048282
C   C3000     1.0  0.21210  0.26240  0.17040  1.0000 0.6800795649
O   O2829     1.0  0.18260  0.20390  0.15230  1.0000 -0.6517776188
O   O2830     1.0  0.19520  0.26560  0.16880  1.0000 -0.6162038559
O   O2831     1.0  0.22300  0.27510  0.17720  1.0000 -0.6782680781
Ti  Ti263     1.0  0.22611  0.29934  0.19209  1.0000 2.0212494802
O   O2832     1.0  0.24080  0.28540  0.21880  1.0000 -0.6397820246
C   C3001     1.0  0.26700  0.45900  0.11030  1.0000 0.0362362238
C   C3002     1.0  0.26550  0.46040  0.12990  1.0000 -0.1087284717
C   C3003     1.0  0.25360  0.44690  0.14040  1.0000 0.637843934
O   O2833     1.0  0.29400  0.47770  0.07170  1.0000 -0.6939314659
O   O2834     1.0  0.25680  0.44380  0.15740  1.0000 -0.5588135763
O   O2835     1.0  0.24140  0.43740  0.13180  1.0000 -0.5588135763
O   O2836     1.0  0.14990  0.40100  0.12850  1.0000 -0.6397820246
O   O2837     1.0  0.22230  0.42650  0.17220  1.0000 -0.5777560007
O   O2838     1.0  0.21440  0.42370  0.14280  1.0000 -0.5588135763
C   C3004     1.0  0.17570  0.41940  0.15180  1.0000 0.0286004543
C   C3005     1.0  0.18950  0.42360  0.16530  1.0000 -0.1004600406
C   C3006     1.0  0.20990  0.42380  0.15980  1.0000 0.637843934
O   O2839     1.0  0.15930  0.18110  0.13630  1.0000 -0.6007274885
C   C3007     1.0  0.21400  0.83990  0.64940  1.0000 0.0709581455
C   C3008     1.0  0.19380  0.86250  0.63380  1.0000 0.0709581455
C   C3009     1.0  0.19890  0.82710  0.65020  1.0000 -0.1807206609
C   C3010     1.0  0.17890  0.84960  0.63470  1.0000 -0.189473289
C   C3011     1.0  0.18150  0.83200  0.64280  1.0000 0.0978843566
C   C3012     1.0  0.21140  0.85780  0.64120  1.0000 -0.1219500515
C   C3013     1.0  0.16400  0.85330  0.62360  1.0000 0.637843934
C   C3014     1.0  0.22750  0.87200  0.64030  1.0000 0.637843934
C   C3015     1.0  0.20000  0.81190  0.66110  1.0000 0.6285624754
O   O2840     1.0  0.18700  0.79990  0.66040  1.0000 -0.6397820246
O   O2841     1.0  0.21500  0.80830  0.66920  1.0000 -0.6517776188
O   O2842     1.0  0.22600  0.88610  0.63020  1.0000 -0.5677502138
O   O2843     1.0  0.24140  0.87030  0.65090  1.0000 -0.5777560007
O   O2844     1.0  0.16020  0.87000  0.61960  1.0000 -0.609555034
O   O2845     1.0  0.15220  0.84070  0.62060  1.0000 -0.6397820246
C   C3016     1.0  0.20800  0.73170  0.65360  1.0000 0.0614820425
C   C3017     1.0  0.22000  0.74470  0.66210  1.0000 -0.0708048282
C   C3018     1.0  0.21210  0.76240  0.67040  1.0000 0.6800795649
O   O2846     1.0  0.18260  0.70390  0.65230  1.0000 -0.6517776188
O   O2847     1.0  0.19520  0.76560  0.66880  1.0000 -0.6162038559
O   O2848     1.0  0.22300  0.77510  0.67720  1.0000 -0.6782680781
Ti  Ti264     1.0  0.22611  0.79934  0.69209  1.0000 2.0212494802
O   O2849     1.0  0.24080  0.78540  0.71880  1.0000 -0.6397820246
C   C3019     1.0  0.26700  0.95900  0.61030  1.0000 0.0286004543
C   C3020     1.0  0.26550  0.96040  0.62990  1.0000 -0.1087284717
C   C3021     1.0  0.25360  0.94690  0.64040  1.0000 0.637843934
O   O2850     1.0  0.29400  0.97770  0.57170  1.0000 -0.6939314659
O   O2851     1.0  0.25680  0.94380  0.65740  1.0000 -0.5588135763
O   O2852     1.0  0.24140  0.93740  0.63180  1.0000 -0.5588135763
O   O2853     1.0  0.14990  0.90100  0.62850  1.0000 -0.6397820246
O   O2854     1.0  0.22230  0.92650  0.67220  1.0000 -0.5777560007
O   O2855     1.0  0.21440  0.92370  0.64280  1.0000 -0.5588135763
C   C3022     1.0  0.17570  0.91940  0.65180  1.0000 0.0286004543
C   C3023     1.0  0.18950  0.92360  0.66530  1.0000 -0.1004600406
C   C3024     1.0  0.20990  0.92380  0.65980  1.0000 0.637843934
O   O2856     1.0  0.15930  0.68110  0.63630  1.0000 -0.6007274885
C   C3025     1.0  0.21400  0.91010  0.10060  1.0000 0.0709581455
C   C3026     1.0  0.19380  0.88750  0.11620  1.0000 0.0709581455
C   C3027     1.0  0.19890  0.92290  0.09980  1.0000 -0.1807206609
C   C3028     1.0  0.17890  0.90040  0.11530  1.0000 -0.189473289
C   C3029     1.0  0.18150  0.91800  0.10720  1.0000 0.0978843566
C   C3030     1.0  0.21140  0.89220  0.10880  1.0000 -0.1219500515
C   C3031     1.0  0.16400  0.89670  0.12640  1.0000 0.637843934
C   C3032     1.0  0.22750  0.87800  0.10970  1.0000 0.637843934
C   C3033     1.0  0.20000  0.93810  0.08890  1.0000 0.6285624754
O   O2857     1.0  0.18700  0.95010  0.08960  1.0000 -0.6397820246
O   O2858     1.0  0.21500  0.94170  0.08080  1.0000 -0.6517776188
O   O2859     1.0  0.22600  0.86390  0.11980  1.0000 -0.5677502138
O   O2860     1.0  0.24140  0.87970  0.09910  1.0000 -0.5777560007
O   O2861     1.0  0.16020  0.88000  0.13040  1.0000 -0.609555034
O   O2862     1.0  0.15220  0.90930  0.12940  1.0000 -0.6397820246
C   C3034     1.0  0.20800  0.01830  0.09640  1.0000 0.0614820425
C   C3035     1.0  0.22000  0.00530  0.08790  1.0000 -0.0708048282
C   C3036     1.0  0.21210  0.98760  0.07960  1.0000 0.6800795649
O   O2863     1.0  0.18260  0.04610  0.09770  1.0000 -0.5303997674
O   O2864     1.0  0.19520  0.98440  0.08120  1.0000 -0.609555034
O   O2865     1.0  0.22300  0.97490  0.07280  1.0000 -0.6782680781
Ti  Ti265     1.0  0.22611  0.95066  0.05791  1.0000 2.0212494802
O   O2866     1.0  0.24080  0.96460  0.03120  1.0000 -0.6397820246
C   C3037     1.0  0.26700  0.79100  0.13970  1.0000 0.0362362238
C   C3038     1.0  0.26550  0.78960  0.12010  1.0000 -0.1087284717
C   C3039     1.0  0.25360  0.80310  0.10960  1.0000 0.637843934
O   O2867     1.0  0.29400  0.77230  0.17830  1.0000 -0.6939314659
O   O2868     1.0  0.25680  0.80620  0.09260  1.0000 -0.5588135763
O   O2869     1.0  0.24140  0.81260  0.11820  1.0000 -0.5588135763
O   O2870     1.0  0.14990  0.84900  0.12150  1.0000 -0.6397820246
O   O2871     1.0  0.22230  0.82350  0.07780  1.0000 -0.5777560007
O   O2872     1.0  0.21440  0.82630  0.10720  1.0000 -0.5588135763
C   C3040     1.0  0.17570  0.83060  0.09820  1.0000 0.0286004543
C   C3041     1.0  0.18950  0.82640  0.08470  1.0000 -0.1004600406
C   C3042     1.0  0.20990  0.82620  0.09020  1.0000 0.637843934
O   O2873     1.0  0.15930  0.06890  0.11370  1.0000 -0.521012765
C   C3043     1.0  0.21400  0.41010  0.60060  1.0000 0.0760005572
C   C3044     1.0  0.19380  0.38750  0.61620  1.0000 0.0709581455
C   C3045     1.0  0.19890  0.42290  0.59980  1.0000 -0.1807206609
C   C3046     1.0  0.17890  0.40040  0.61530  1.0000 -0.189473289
C   C3047     1.0  0.18150  0.41800  0.60720  1.0000 0.0978843566
C   C3048     1.0  0.21140  0.39220  0.60880  1.0000 -0.1219500515
C   C3049     1.0  0.16400  0.39670  0.62640  1.0000 0.637843934
C   C3050     1.0  0.22750  0.37800  0.60970  1.0000 0.637843934
C   C3051     1.0  0.20000  0.43810  0.58890  1.0000 0.6285624754
O   O2874     1.0  0.18700  0.45010  0.58960  1.0000 -0.6397820246
O   O2875     1.0  0.21500  0.44170  0.58080  1.0000 -0.6517776188
O   O2876     1.0  0.22600  0.36390  0.61980  1.0000 -0.5677502138
O   O2877     1.0  0.24140  0.37970  0.59910  1.0000 -0.5777560007
O   O2878     1.0  0.16020  0.38000  0.63040  1.0000 -0.609555034
O   O2879     1.0  0.15220  0.40930  0.62940  1.0000 -0.6397820246
C   C3052     1.0  0.20800  0.51830  0.59640  1.0000 0.0614820425
C   C3053     1.0  0.22000  0.50530  0.58790  1.0000 -0.0708048282
C   C3054     1.0  0.21210  0.48760  0.57960  1.0000 0.6800795649
O   O2880     1.0  0.18260  0.54610  0.59770  1.0000 -0.5303997674
O   O2881     1.0  0.19520  0.48440  0.58120  1.0000 -0.609555034
O   O2882     1.0  0.22300  0.47490  0.57280  1.0000 -0.6782680781
Ti  Ti266     1.0  0.22611  0.45066  0.55791  1.0000 2.0212494802
O   O2883     1.0  0.24080  0.46460  0.53120  1.0000 -0.6397820246
C   C3055     1.0  0.26700  0.29100  0.63970  1.0000 0.0362362238
C   C3056     1.0  0.26550  0.28960  0.62010  1.0000 -0.1087284717
C   C3057     1.0  0.25360  0.30310  0.60960  1.0000 0.637843934
O   O2884     1.0  0.29400  0.27230  0.67830  1.0000 -0.6939314659
O   O2885     1.0  0.25680  0.30620  0.59260  1.0000 -0.5588135763
O   O2886     1.0  0.24140  0.31260  0.61820  1.0000 -0.5588135763
O   O2887     1.0  0.14990  0.34900  0.62150  1.0000 -0.6397820246
O   O2888     1.0  0.22230  0.32350  0.57780  1.0000 -0.5777560007
O   O2889     1.0  0.21440  0.32630  0.60720  1.0000 -0.5588135763
C   C3058     1.0  0.17570  0.33060  0.59820  1.0000 0.0286004543
C   C3059     1.0  0.18950  0.32640  0.58470  1.0000 -0.1004600406
C   C3060     1.0  0.20990  0.32620  0.59020  1.0000 0.637843934
O   O2890     1.0  0.15930  0.56890  0.61370  1.0000 -0.521012765
C   C3061     1.0  0.71400  0.91010  0.60060  1.0000 0.0760005572
C   C3062     1.0  0.69380  0.88750  0.61620  1.0000 0.0709581455
C   C3063     1.0  0.69890  0.92290  0.59980  1.0000 -0.1807206609
C   C3064     1.0  0.67890  0.90040  0.61530  1.0000 -0.189473289
C   C3065     1.0  0.68150  0.91800  0.60720  1.0000 0.0978843566
C   C3066     1.0  0.71140  0.89220  0.60880  1.0000 -0.1219500515
C   C3067     1.0  0.66400  0.89670  0.62640  1.0000 0.637843934
C   C3068     1.0  0.72750  0.87800  0.60970  1.0000 0.637843934
C   C3069     1.0  0.70000  0.93810  0.58890  1.0000 0.6285624754
O   O2891     1.0  0.68700  0.95010  0.58960  1.0000 -0.6397820246
O   O2892     1.0  0.71500  0.94170  0.58080  1.0000 -0.6517776188
O   O2893     1.0  0.72600  0.86390  0.61980  1.0000 -0.5677502138
O   O2894     1.0  0.74140  0.87970  0.59910  1.0000 -0.5777560007
O   O2895     1.0  0.66020  0.88000  0.63040  1.0000 -0.609555034
O   O2896     1.0  0.65220  0.90930  0.62940  1.0000 -0.6397820246
C   C3070     1.0  0.70800  0.01830  0.59640  1.0000 0.0501834124
C   C3071     1.0  0.72000  0.00530  0.58790  1.0000 -0.0708048282
C   C3072     1.0  0.71210  0.98760  0.57960  1.0000 0.6800795649
O   O2897     1.0  0.68260  0.04610  0.59770  1.0000 -0.6517776188
O   O2898     1.0  0.69520  0.98440  0.58120  1.0000 -0.6162038559
O   O2899     1.0  0.72300  0.97490  0.57280  1.0000 -0.6782680781
Ti  Ti267     1.0  0.72611  0.95066  0.55791  1.0000 2.0212494802
O   O2900     1.0  0.74080  0.96460  0.53120  1.0000 -0.6397820246
C   C3073     1.0  0.76700  0.79100  0.63970  1.0000 0.0362362238
C   C3074     1.0  0.76550  0.78960  0.62010  1.0000 -0.1087284717
C   C3075     1.0  0.75360  0.80310  0.60960  1.0000 0.637843934
O   O2901     1.0  0.79400  0.77230  0.67830  1.0000 -0.6939314659
O   O2902     1.0  0.75680  0.80620  0.59260  1.0000 -0.5588135763
O   O2903     1.0  0.74140  0.81260  0.61820  1.0000 -0.5588135763
O   O2904     1.0  0.64990  0.84900  0.62150  1.0000 -0.6397820246
O   O2905     1.0  0.72230  0.82350  0.57780  1.0000 -0.5777560007
O   O2906     1.0  0.71440  0.82630  0.60720  1.0000 -0.5588135763
C   C3076     1.0  0.67570  0.83060  0.59820  1.0000 0.0286004543
C   C3077     1.0  0.68950  0.82640  0.58470  1.0000 -0.1004600406
C   C3078     1.0  0.70990  0.82620  0.59020  1.0000 0.637843934
O   O2907     1.0  0.65930  0.06890  0.61370  1.0000 -0.609555034
C   C3079     1.0  0.71400  0.41010  0.10060  1.0000 0.0760005572
C   C3080     1.0  0.69380  0.38750  0.11620  1.0000 0.0709581455
C   C3081     1.0  0.69890  0.42290  0.09980  1.0000 -0.1807206609
C   C3082     1.0  0.67890  0.40040  0.11530  1.0000 -0.189473289
C   C3083     1.0  0.68150  0.41800  0.10720  1.0000 0.0978843566
C   C3084     1.0  0.71140  0.39220  0.10880  1.0000 -0.1219500515
C   C3085     1.0  0.66400  0.39670  0.12640  1.0000 0.637843934
C   C3086     1.0  0.72750  0.37800  0.10970  1.0000 0.637843934
C   C3087     1.0  0.70000  0.43810  0.08890  1.0000 0.6285624754
O   O2908     1.0  0.68700  0.45010  0.08960  1.0000 -0.6397820246
O   O2909     1.0  0.71500  0.44170  0.08080  1.0000 -0.6517776188
O   O2910     1.0  0.72600  0.36390  0.11980  1.0000 -0.5677502138
O   O2911     1.0  0.74140  0.37970  0.09910  1.0000 -0.5777560007
O   O2912     1.0  0.66020  0.38000  0.13040  1.0000 -0.609555034
O   O2913     1.0  0.65220  0.40930  0.12940  1.0000 -0.6397820246
C   C3088     1.0  0.70800  0.51830  0.09640  1.0000 0.0614820425
C   C3089     1.0  0.72000  0.50530  0.08790  1.0000 -0.0708048282
C   C3090     1.0  0.71210  0.48760  0.07960  1.0000 0.6800795649
O   O2914     1.0  0.68260  0.54610  0.09770  1.0000 -0.5303997674
O   O2915     1.0  0.69520  0.48440  0.08120  1.0000 -0.609555034
O   O2916     1.0  0.72300  0.47490  0.07280  1.0000 -0.6782680781
Ti  Ti268     1.0  0.72611  0.45066  0.05791  1.0000 2.0212494802
O   O2917     1.0  0.74080  0.46460  0.03120  1.0000 -0.6397820246
C   C3091     1.0  0.76700  0.29100  0.13970  1.0000 0.0362362238
C   C3092     1.0  0.76550  0.28960  0.12010  1.0000 -0.1087284717
C   C3093     1.0  0.75360  0.30310  0.10960  1.0000 0.637843934
O   O2918     1.0  0.79400  0.27230  0.17830  1.0000 -0.6939314659
O   O2919     1.0  0.75680  0.30620  0.09260  1.0000 -0.5588135763
O   O2920     1.0  0.74140  0.31260  0.11820  1.0000 -0.5588135763
O   O2921     1.0  0.64990  0.34900  0.12150  1.0000 -0.6397820246
O   O2922     1.0  0.72230  0.32350  0.07780  1.0000 -0.5777560007
O   O2923     1.0  0.71440  0.32630  0.10720  1.0000 -0.5588135763
C   C3094     1.0  0.67570  0.33060  0.09820  1.0000 0.0286004543
C   C3095     1.0  0.68950  0.32640  0.08470  1.0000 -0.1004600406
C   C3096     1.0  0.70990  0.32620  0.09020  1.0000 0.637843934
O   O2924     1.0  0.65930  0.56890  0.11370  1.0000 -0.5037077391
C   C3097     1.0  0.53600  0.41010  0.14940  1.0000 0.0760005572
C   C3098     1.0  0.55620  0.38750  0.13380  1.0000 0.0709581455
C   C3099     1.0  0.55110  0.42290  0.15020  1.0000 -0.1807206609
C   C3100     1.0  0.57110  0.40040  0.13470  1.0000 -0.189473289
C   C3101     1.0  0.56850  0.41800  0.14280  1.0000 0.0978843566
C   C3102     1.0  0.53860  0.39220  0.14120  1.0000 -0.1219500515
C   C3103     1.0  0.58600  0.39670  0.12360  1.0000 0.637843934
C   C3104     1.0  0.52250  0.37800  0.14030  1.0000 0.637843934
C   C3105     1.0  0.55000  0.43810  0.16110  1.0000 0.6285624754
O   O2925     1.0  0.56300  0.45010  0.16040  1.0000 -0.6397820246
O   O2926     1.0  0.53500  0.44170  0.16920  1.0000 -0.6517776188
O   O2927     1.0  0.52400  0.36390  0.13020  1.0000 -0.5677502138
O   O2928     1.0  0.50860  0.37970  0.15090  1.0000 -0.5777560007
O   O2929     1.0  0.58980  0.38000  0.11960  1.0000 -0.609555034
O   O2930     1.0  0.59780  0.40930  0.12060  1.0000 -0.6397820246
C   C3106     1.0  0.54200  0.51830  0.15360  1.0000 0.0501834124
C   C3107     1.0  0.53000  0.50530  0.16210  1.0000 -0.0708048282
C   C3108     1.0  0.53790  0.48760  0.17040  1.0000 0.6800795649
O   O2931     1.0  0.56740  0.54610  0.15230  1.0000 -0.6517776188
O   O2932     1.0  0.55480  0.48440  0.16880  1.0000 -0.6162038559
O   O2933     1.0  0.52700  0.47490  0.17720  1.0000 -0.6782680781
Ti  Ti269     1.0  0.52389  0.45066  0.19209  1.0000 2.0212494802
O   O2934     1.0  0.50920  0.46460  0.21880  1.0000 -0.6397820246
C   C3109     1.0  0.48300  0.29100  0.11030  1.0000 0.0362362238
C   C3110     1.0  0.48450  0.28960  0.12990  1.0000 -0.1087284717
C   C3111     1.0  0.49640  0.30310  0.14040  1.0000 0.637843934
O   O2935     1.0  0.45600  0.27230  0.07170  1.0000 -0.6939314659
O   O2936     1.0  0.49320  0.30620  0.15740  1.0000 -0.5588135763
O   O2937     1.0  0.50860  0.31260  0.13180  1.0000 -0.5588135763
O   O2938     1.0  0.60010  0.34900  0.12850  1.0000 -0.6397820246
O   O2939     1.0  0.52770  0.32350  0.17220  1.0000 -0.5777560007
O   O2940     1.0  0.53560  0.32630  0.14280  1.0000 -0.5588135763
C   C3112     1.0  0.57430  0.33060  0.15180  1.0000 0.0286004543
C   C3113     1.0  0.56050  0.32640  0.16530  1.0000 -0.1004600406
C   C3114     1.0  0.54010  0.32620  0.15980  1.0000 0.637843934
O   O2941     1.0  0.59070  0.56890  0.13630  1.0000 -0.609555034
C   C3115     1.0  0.53600  0.91010  0.64940  1.0000 0.0760005572
C   C3116     1.0  0.55620  0.88750  0.63380  1.0000 0.0709581455
C   C3117     1.0  0.55110  0.92290  0.65020  1.0000 -0.1807206609
C   C3118     1.0  0.57110  0.90040  0.63470  1.0000 -0.189473289
C   C3119     1.0  0.56850  0.91800  0.64280  1.0000 0.0978843566
C   C3120     1.0  0.53860  0.89220  0.64120  1.0000 -0.1219500515
C   C3121     1.0  0.58600  0.89670  0.62360  1.0000 0.637843934
C   C3122     1.0  0.52250  0.87800  0.64030  1.0000 0.637843934
C   C3123     1.0  0.55000  0.93810  0.66110  1.0000 0.6285624754
O   O2942     1.0  0.56300  0.95010  0.66040  1.0000 -0.6397820246
O   O2943     1.0  0.53500  0.94170  0.66920  1.0000 -0.6517776188
O   O2944     1.0  0.52400  0.86390  0.63020  1.0000 -0.5677502138
O   O2945     1.0  0.50860  0.87970  0.65090  1.0000 -0.5777560007
O   O2946     1.0  0.58980  0.88000  0.61960  1.0000 -0.609555034
O   O2947     1.0  0.59780  0.90930  0.62060  1.0000 -0.6397820246
C   C3124     1.0  0.54200  0.01830  0.65360  1.0000 0.0614820425
C   C3125     1.0  0.53000  0.00530  0.66210  1.0000 -0.0708048282
C   C3126     1.0  0.53790  0.98760  0.67040  1.0000 0.6800795649
O   O2948     1.0  0.56740  0.04610  0.65230  1.0000 -0.5303997674
O   O2949     1.0  0.55480  0.98440  0.66880  1.0000 -0.609555034
O   O2950     1.0  0.52700  0.97490  0.67720  1.0000 -0.6782680781
Ti  Ti270     1.0  0.52389  0.95066  0.69209  1.0000 2.0212494802
O   O2951     1.0  0.50920  0.96460  0.71880  1.0000 -0.6397820246
C   C3127     1.0  0.48300  0.79100  0.61030  1.0000 0.0362362238
C   C3128     1.0  0.48450  0.78960  0.62990  1.0000 -0.1087284717
C   C3129     1.0  0.49640  0.80310  0.64040  1.0000 0.637843934
O   O2952     1.0  0.45600  0.77230  0.57170  1.0000 -0.6939314659
O   O2953     1.0  0.49320  0.80620  0.65740  1.0000 -0.5588135763
O   O2954     1.0  0.50860  0.81260  0.63180  1.0000 -0.5588135763
O   O2955     1.0  0.60010  0.84900  0.62850  1.0000 -0.6397820246
O   O2956     1.0  0.52770  0.82350  0.67220  1.0000 -0.5777560007
O   O2957     1.0  0.53560  0.82630  0.64280  1.0000 -0.5588135763
C   C3130     1.0  0.57430  0.83060  0.65180  1.0000 0.0286004543
C   C3131     1.0  0.56050  0.82640  0.66530  1.0000 -0.1004600406
C   C3132     1.0  0.54010  0.82620  0.65980  1.0000 0.637843934
O   O2958     1.0  0.59070  0.06890  0.63630  1.0000 -0.5037077391
C   C3133     1.0  0.03600  0.41010  0.64940  1.0000 0.0760005572
C   C3134     1.0  0.05620  0.38750  0.63380  1.0000 0.0709581455
C   C3135     1.0  0.05110  0.42290  0.65020  1.0000 -0.1807206609
C   C3136     1.0  0.07110  0.40040  0.63470  1.0000 -0.189473289
C   C3137     1.0  0.06850  0.41800  0.64280  1.0000 0.0978843566
C   C3138     1.0  0.03860  0.39220  0.64120  1.0000 -0.1219500515
C   C3139     1.0  0.08600  0.39670  0.62360  1.0000 0.637843934
C   C3140     1.0  0.02250  0.37800  0.64030  1.0000 0.637843934
C   C3141     1.0  0.05000  0.43810  0.66110  1.0000 0.6285624754
O   O2959     1.0  0.06300  0.45010  0.66040  1.0000 -0.6397820246
O   O2960     1.0  0.03500  0.44170  0.66920  1.0000 -0.6517776188
O   O2961     1.0  0.02400  0.36390  0.63020  1.0000 -0.5677502138
O   O2962     1.0  0.00860  0.37970  0.65090  1.0000 -0.5777560007
O   O2963     1.0  0.08980  0.38000  0.61960  1.0000 -0.609555034
O   O2964     1.0  0.09780  0.40930  0.62060  1.0000 -0.6397820246
C   C3142     1.0  0.04200  0.51830  0.65360  1.0000 0.0614820425
C   C3143     1.0  0.03000  0.50530  0.66210  1.0000 -0.0708048282
C   C3144     1.0  0.03790  0.48760  0.67040  1.0000 0.6800795649
O   O2965     1.0  0.06740  0.54610  0.65230  1.0000 -0.6517776188
O   O2966     1.0  0.05480  0.48440  0.66880  1.0000 -0.6162038559
O   O2967     1.0  0.02700  0.47490  0.67720  1.0000 -0.6782680781
Ti  Ti271     1.0  0.02389  0.45066  0.69209  1.0000 2.0212494802
O   O2968     1.0  0.00920  0.46460  0.71880  1.0000 -0.6397820246
C   C3145     1.0  0.98300  0.29100  0.61030  1.0000 0.0362362238
C   C3146     1.0  0.98450  0.28960  0.62990  1.0000 -0.1087284717
C   C3147     1.0  0.99640  0.30310  0.64040  1.0000 0.637843934
O   O2969     1.0  0.95600  0.27230  0.57170  1.0000 -0.6939314659
O   O2970     1.0  0.99320  0.30620  0.65740  1.0000 -0.5588135763
O   O2971     1.0  0.00860  0.31260  0.63180  1.0000 -0.5588135763
O   O2972     1.0  0.10010  0.34900  0.62850  1.0000 -0.6397820246
O   O2973     1.0  0.02770  0.32350  0.67220  1.0000 -0.5777560007
O   O2974     1.0  0.03560  0.32630  0.64280  1.0000 -0.5588135763
C   C3148     1.0  0.07430  0.33060  0.65180  1.0000 0.0286004543
C   C3149     1.0  0.06050  0.32640  0.66530  1.0000 -0.1004600406
C   C3150     1.0  0.04010  0.32620  0.65980  1.0000 0.637843934
O   O2975     1.0  0.09070  0.56890  0.63630  1.0000 -0.6007274885
C   C3151     1.0  0.03600  0.91010  0.14940  1.0000 0.0709581455
C   C3152     1.0  0.05620  0.88750  0.13380  1.0000 0.0709581455
C   C3153     1.0  0.05110  0.92290  0.15020  1.0000 -0.1807206609
C   C3154     1.0  0.07110  0.90040  0.13470  1.0000 -0.189473289
C   C3155     1.0  0.06850  0.91800  0.14280  1.0000 0.0978843566
C   C3156     1.0  0.03860  0.89220  0.14120  1.0000 -0.1219500515
C   C3157     1.0  0.08600  0.89670  0.12360  1.0000 0.637843934
C   C3158     1.0  0.02250  0.87800  0.14030  1.0000 0.637843934
C   C3159     1.0  0.05000  0.93810  0.16110  1.0000 0.6285624754
O   O2976     1.0  0.06300  0.95010  0.16040  1.0000 -0.6397820246
O   O2977     1.0  0.03500  0.94170  0.16920  1.0000 -0.6517776188
O   O2978     1.0  0.02400  0.86390  0.13020  1.0000 -0.5677502138
O   O2979     1.0  0.00860  0.87970  0.15090  1.0000 -0.5777560007
O   O2980     1.0  0.08980  0.88000  0.11960  1.0000 -0.609555034
O   O2981     1.0  0.09780  0.90930  0.12060  1.0000 -0.6397820246
C   C3160     1.0  0.04200  0.01830  0.15360  1.0000 0.0614820425
C   C3161     1.0  0.03000  0.00530  0.16210  1.0000 -0.0708048282
C   C3162     1.0  0.03790  0.98760  0.17040  1.0000 0.6800795649
O   O2982     1.0  0.06740  0.04610  0.15230  1.0000 -0.6517776188
O   O2983     1.0  0.05480  0.98440  0.16880  1.0000 -0.6162038559
O   O2984     1.0  0.02700  0.97490  0.17720  1.0000 -0.6782680781
Ti  Ti272     1.0  0.02389  0.95066  0.19209  1.0000 2.0212494802
O   O2985     1.0  0.00920  0.96460  0.21880  1.0000 -0.6397820246
C   C3163     1.0  0.98300  0.79100  0.11030  1.0000 0.0362362238
C   C3164     1.0  0.98450  0.78960  0.12990  1.0000 -0.1087284717
C   C3165     1.0  0.99640  0.80310  0.14040  1.0000 0.637843934
O   O2986     1.0  0.95600  0.77230  0.07170  1.0000 -0.6939314659
O   O2987     1.0  0.99320  0.80620  0.15740  1.0000 -0.5588135763
O   O2988     1.0  0.00860  0.81260  0.13180  1.0000 -0.5588135763
O   O2989     1.0  0.10010  0.84900  0.12850  1.0000 -0.6397820246
O   O2990     1.0  0.02770  0.82350  0.17220  1.0000 -0.5777560007
O   O2991     1.0  0.03560  0.82630  0.14280  1.0000 -0.5588135763
C   C3166     1.0  0.07430  0.83060  0.15180  1.0000 0.0286004543
C   C3167     1.0  0.06050  0.82640  0.16530  1.0000 -0.1004600406
C   C3168     1.0  0.04010  0.82620  0.15980  1.0000 0.637843934
O   O2992     1.0  0.09070  0.06890  0.13630  1.0000 -0.6007274885
C   C3169     1.0  0.33990  0.64940  0.71400  1.0000 0.0760005572
C   C3170     1.0  0.36250  0.63380  0.69380  1.0000 0.0709581455
C   C3171     1.0  0.32710  0.65020  0.69890  1.0000 -0.1807206609
C   C3172     1.0  0.34960  0.63470  0.67890  1.0000 -0.189473289
C   C3173     1.0  0.33200  0.64280  0.68150  1.0000 0.0978843566
C   C3174     1.0  0.35780  0.64120  0.71140  1.0000 -0.1219500515
C   C3175     1.0  0.35330  0.62360  0.66400  1.0000 0.637843934
C   C3176     1.0  0.37200  0.64030  0.72750  1.0000 0.637843934
C   C3177     1.0  0.31190  0.66110  0.70000  1.0000 0.6285624754
O   O2993     1.0  0.29990  0.66040  0.68700  1.0000 -0.6397820246
O   O2994     1.0  0.30830  0.66920  0.71500  1.0000 -0.6517776188
O   O2995     1.0  0.38610  0.63020  0.72600  1.0000 -0.5677502138
O   O2996     1.0  0.37030  0.65090  0.74140  1.0000 -0.5777560007
O   O2997     1.0  0.37000  0.61960  0.66020  1.0000 -0.609555034
O   O2998     1.0  0.34070  0.62060  0.65220  1.0000 -0.6397820246
C   C3178     1.0  0.23170  0.65360  0.70800  1.0000 0.0614820425
C   C3179     1.0  0.24470  0.66210  0.72000  1.0000 -0.0708048282
C   C3180     1.0  0.26240  0.67040  0.71210  1.0000 0.6800795649
O   O2999     1.0  0.20390  0.65230  0.68260  1.0000 -0.5303997674
O   O3000     1.0  0.26560  0.66880  0.69520  1.0000 -0.609555034
O   O3001     1.0  0.27510  0.67720  0.72300  1.0000 -0.6782680781
Ti  Ti273     1.0  0.29934  0.69209  0.72611  1.0000 2.0212494802
O   O3002     1.0  0.28540  0.71880  0.74080  1.0000 -0.6397820246
C   C3181     1.0  0.45900  0.61030  0.76700  1.0000 0.0362362238
C   C3182     1.0  0.46040  0.62990  0.76550  1.0000 -0.1087284717
C   C3183     1.0  0.44690  0.64040  0.75360  1.0000 0.637843934
O   O3003     1.0  0.47770  0.57170  0.79400  1.0000 -0.6939314659
O   O3004     1.0  0.44380  0.65740  0.75680  1.0000 -0.5588135763
O   O3005     1.0  0.43740  0.63180  0.74140  1.0000 -0.5588135763
O   O3006     1.0  0.40100  0.62850  0.64990  1.0000 -0.6397820246
O   O3007     1.0  0.42650  0.67220  0.72230  1.0000 -0.5777560007
O   O3008     1.0  0.42370  0.64280  0.71440  1.0000 -0.5588135763
C   C3184     1.0  0.41940  0.65180  0.67570  1.0000 0.0286004543
C   C3185     1.0  0.42360  0.66530  0.68950  1.0000 -0.1004600406
C   C3186     1.0  0.42380  0.65980  0.70990  1.0000 0.637843934
O   O3009     1.0  0.18110  0.63630  0.65930  1.0000 -0.5106411624
C   C3187     1.0  0.33990  0.14940  0.21400  1.0000 0.0760005572
C   C3188     1.0  0.36250  0.13380  0.19380  1.0000 0.0709581455
C   C3189     1.0  0.32710  0.15020  0.19890  1.0000 -0.1807206609
C   C3190     1.0  0.34960  0.13470  0.17890  1.0000 -0.189473289
C   C3191     1.0  0.33200  0.14280  0.18150  1.0000 0.0978843566
C   C3192     1.0  0.35780  0.14120  0.21140  1.0000 -0.1219500515
C   C3193     1.0  0.35330  0.12360  0.16400  1.0000 0.637843934
C   C3194     1.0  0.37200  0.14030  0.22750  1.0000 0.637843934
C   C3195     1.0  0.31190  0.16110  0.20000  1.0000 0.6285624754
O   O3010     1.0  0.29990  0.16040  0.18700  1.0000 -0.6397820246
O   O3011     1.0  0.30830  0.16920  0.21500  1.0000 -0.6517776188
O   O3012     1.0  0.38610  0.13020  0.22600  1.0000 -0.5677502138
O   O3013     1.0  0.37030  0.15090  0.24140  1.0000 -0.5777560007
O   O3014     1.0  0.37000  0.11960  0.16020  1.0000 -0.609555034
O   O3015     1.0  0.34070  0.12060  0.15220  1.0000 -0.6397820246
C   C3196     1.0  0.23170  0.15360  0.20800  1.0000 0.0614820425
C   C3197     1.0  0.24470  0.16210  0.22000  1.0000 -0.0708048282
C   C3198     1.0  0.26240  0.17040  0.21210  1.0000 0.6800795649
O   O3016     1.0  0.20390  0.15230  0.18260  1.0000 -0.5303997674
O   O3017     1.0  0.26560  0.16880  0.19520  1.0000 -0.609555034
O   O3018     1.0  0.27510  0.17720  0.22300  1.0000 -0.6782680781
Ti  Ti274     1.0  0.29934  0.19209  0.22611  1.0000 2.0212494802
O   O3019     1.0  0.28540  0.21880  0.24080  1.0000 -0.6397820246
C   C3199     1.0  0.45900  0.11030  0.26700  1.0000 0.0362362238
C   C3200     1.0  0.46040  0.12990  0.26550  1.0000 -0.1087284717
C   C3201     1.0  0.44690  0.14040  0.25360  1.0000 0.637843934
O   O3020     1.0  0.47770  0.07170  0.29400  1.0000 -0.6939314659
O   O3021     1.0  0.44380  0.15740  0.25680  1.0000 -0.5588135763
O   O3022     1.0  0.43740  0.13180  0.24140  1.0000 -0.5588135763
O   O3023     1.0  0.40100  0.12850  0.14990  1.0000 -0.6397820246
O   O3024     1.0  0.42650  0.17220  0.22230  1.0000 -0.5777560007
O   O3025     1.0  0.42370  0.14280  0.21440  1.0000 -0.5588135763
C   C3202     1.0  0.41940  0.15180  0.17570  1.0000 0.0286004543
C   C3203     1.0  0.42360  0.16530  0.18950  1.0000 -0.1004600406
C   C3204     1.0  0.42380  0.15980  0.20990  1.0000 0.637843934
O   O3026     1.0  0.18110  0.13630  0.15930  1.0000 -0.5106411624
C   C3205     1.0  0.83990  0.64940  0.21400  1.0000 0.0760005572
C   C3206     1.0  0.86250  0.63380  0.19380  1.0000 0.0709581455
C   C3207     1.0  0.82710  0.65020  0.19890  1.0000 -0.1807206609
C   C3208     1.0  0.84960  0.63470  0.17890  1.0000 -0.189473289
C   C3209     1.0  0.83200  0.64280  0.18150  1.0000 0.0978843566
C   C3210     1.0  0.85780  0.64120  0.21140  1.0000 -0.1219500515
C   C3211     1.0  0.85330  0.62360  0.16400  1.0000 0.637843934
C   C3212     1.0  0.87200  0.64030  0.22750  1.0000 0.637843934
C   C3213     1.0  0.81190  0.66110  0.20000  1.0000 0.6285624754
O   O3027     1.0  0.79990  0.66040  0.18700  1.0000 -0.6397820246
O   O3028     1.0  0.80830  0.66920  0.21500  1.0000 -0.6517776188
O   O3029     1.0  0.88610  0.63020  0.22600  1.0000 -0.5677502138
O   O3030     1.0  0.87030  0.65090  0.24140  1.0000 -0.5777560007
O   O3031     1.0  0.87000  0.61960  0.16020  1.0000 -0.609555034
O   O3032     1.0  0.84070  0.62060  0.15220  1.0000 -0.6397820246
C   C3214     1.0  0.73170  0.65360  0.20800  1.0000 0.0614820425
C   C3215     1.0  0.74470  0.66210  0.22000  1.0000 -0.0708048282
C   C3216     1.0  0.76240  0.67040  0.21210  1.0000 0.6800795649
O   O3033     1.0  0.70390  0.65230  0.18260  1.0000 -0.6517776188
O   O3034     1.0  0.76560  0.66880  0.19520  1.0000 -0.6162038559
O   O3035     1.0  0.77510  0.67720  0.22300  1.0000 -0.6782680781
Ti  Ti275     1.0  0.79934  0.69209  0.22611  1.0000 2.0212494802
O   O3036     1.0  0.78540  0.71880  0.24080  1.0000 -0.6397820246
C   C3217     1.0  0.95900  0.61030  0.26700  1.0000 0.0362362238
C   C3218     1.0  0.96040  0.62990  0.26550  1.0000 -0.1087284717
C   C3219     1.0  0.94690  0.64040  0.25360  1.0000 0.637843934
O   O3037     1.0  0.97770  0.57170  0.29400  1.0000 -0.6939314659
O   O3038     1.0  0.94380  0.65740  0.25680  1.0000 -0.5588135763
O   O3039     1.0  0.93740  0.63180  0.24140  1.0000 -0.5588135763
O   O3040     1.0  0.90100  0.62850  0.14990  1.0000 -0.6397820246
O   O3041     1.0  0.92650  0.67220  0.22230  1.0000 -0.5777560007
O   O3042     1.0  0.92370  0.64280  0.21440  1.0000 -0.5588135763
C   C3220     1.0  0.91940  0.65180  0.17570  1.0000 0.0286004543
C   C3221     1.0  0.92360  0.66530  0.18950  1.0000 -0.1004600406
C   C3222     1.0  0.92380  0.65980  0.20990  1.0000 0.637843934
O   O3043     1.0  0.68110  0.63630  0.15930  1.0000 -0.6007274885
C   C3223     1.0  0.83990  0.14940  0.71400  1.0000 0.0760005572
C   C3224     1.0  0.86250  0.13380  0.69380  1.0000 0.0709581455
C   C3225     1.0  0.82710  0.15020  0.69890  1.0000 -0.1807206609
C   C3226     1.0  0.84960  0.13470  0.67890  1.0000 -0.189473289
C   C3227     1.0  0.83200  0.14280  0.68150  1.0000 0.0978843566
C   C3228     1.0  0.85780  0.14120  0.71140  1.0000 -0.1219500515
C   C3229     1.0  0.85330  0.12360  0.66400  1.0000 0.637843934
C   C3230     1.0  0.87200  0.14030  0.72750  1.0000 0.637843934
C   C3231     1.0  0.81190  0.16110  0.70000  1.0000 0.6285624754
O   O3044     1.0  0.79990  0.16040  0.68700  1.0000 -0.6397820246
O   O3045     1.0  0.80830  0.16920  0.71500  1.0000 -0.6517776188
O   O3046     1.0  0.88610  0.13020  0.72600  1.0000 -0.5677502138
O   O3047     1.0  0.87030  0.15090  0.74140  1.0000 -0.5777560007
O   O3048     1.0  0.87000  0.11960  0.66020  1.0000 -0.609555034
O   O3049     1.0  0.84070  0.12060  0.65220  1.0000 -0.6397820246
C   C3232     1.0  0.73170  0.15360  0.70800  1.0000 0.0614820425
C   C3233     1.0  0.74470  0.16210  0.72000  1.0000 -0.0708048282
C   C3234     1.0  0.76240  0.17040  0.71210  1.0000 0.6800795649
O   O3050     1.0  0.70390  0.15230  0.68260  1.0000 -0.5303997674
O   O3051     1.0  0.76560  0.16880  0.69520  1.0000 -0.609555034
O   O3052     1.0  0.77510  0.17720  0.72300  1.0000 -0.6782680781
Ti  Ti276     1.0  0.79934  0.19209  0.72611  1.0000 2.0212494802
O   O3053     1.0  0.78540  0.21880  0.74080  1.0000 -0.6397820246
C   C3235     1.0  0.95900  0.11030  0.76700  1.0000 0.0362362238
C   C3236     1.0  0.96040  0.12990  0.76550  1.0000 -0.1087284717
C   C3237     1.0  0.94690  0.14040  0.75360  1.0000 0.637843934
O   O3054     1.0  0.97770  0.07170  0.79400  1.0000 -0.6939314659
O   O3055     1.0  0.94380  0.15740  0.75680  1.0000 -0.5588135763
O   O3056     1.0  0.93740  0.13180  0.74140  1.0000 -0.5588135763
O   O3057     1.0  0.90100  0.12850  0.64990  1.0000 -0.6397820246
O   O3058     1.0  0.92650  0.17220  0.72230  1.0000 -0.5777560007
O   O3059     1.0  0.92370  0.14280  0.71440  1.0000 -0.5588135763
C   C3238     1.0  0.91940  0.15180  0.67570  1.0000 0.0286004543
C   C3239     1.0  0.92360  0.16530  0.68950  1.0000 -0.1004600406
C   C3240     1.0  0.92380  0.15980  0.70990  1.0000 0.637843934
O   O3060     1.0  0.68110  0.13630  0.65930  1.0000 -0.5106411624
C   C3241     1.0  0.83990  0.60060  0.03600  1.0000 0.0760005572
C   C3242     1.0  0.86250  0.61620  0.05620  1.0000 0.0709581455
C   C3243     1.0  0.82710  0.59980  0.05110  1.0000 -0.1807206609
C   C3244     1.0  0.84960  0.61530  0.07110  1.0000 -0.189473289
C   C3245     1.0  0.83200  0.60720  0.06850  1.0000 0.0978843566
C   C3246     1.0  0.85780  0.60880  0.03860  1.0000 -0.1219500515
C   C3247     1.0  0.85330  0.62640  0.08600  1.0000 0.637843934
C   C3248     1.0  0.87200  0.60970  0.02250  1.0000 0.637843934
C   C3249     1.0  0.81190  0.58890  0.05000  1.0000 0.6285624754
O   O3061     1.0  0.79990  0.58960  0.06300  1.0000 -0.6397820246
O   O3062     1.0  0.80830  0.58080  0.03500  1.0000 -0.6517776188
O   O3063     1.0  0.88610  0.61980  0.02400  1.0000 -0.5677502138
O   O3064     1.0  0.87030  0.59910  0.00860  1.0000 -0.5777560007
O   O3065     1.0  0.87000  0.63040  0.08980  1.0000 -0.609555034
O   O3066     1.0  0.84070  0.62940  0.09780  1.0000 -0.6397820246
C   C3250     1.0  0.73170  0.59640  0.04200  1.0000 0.0614820425
C   C3251     1.0  0.74470  0.58790  0.03000  1.0000 -0.0708048282
C   C3252     1.0  0.76240  0.57960  0.03790  1.0000 0.6800795649
O   O3067     1.0  0.70390  0.59770  0.06740  1.0000 -0.5303997674
O   O3068     1.0  0.76560  0.58120  0.05480  1.0000 -0.609555034
O   O3069     1.0  0.77510  0.57280  0.02700  1.0000 -0.6782680781
Ti  Ti277     1.0  0.79934  0.55791  0.02389  1.0000 2.0212494802
O   O3070     1.0  0.78540  0.53120  0.00920  1.0000 -0.6397820246
C   C3253     1.0  0.95900  0.63970  0.98300  1.0000 0.0362362238
C   C3254     1.0  0.96040  0.62010  0.98450  1.0000 -0.1087284717
C   C3255     1.0  0.94690  0.60960  0.99640  1.0000 0.637843934
O   O3071     1.0  0.97770  0.67830  0.95600  1.0000 -0.6939314659
O   O3072     1.0  0.94380  0.59260  0.99320  1.0000 -0.5588135763
O   O3073     1.0  0.93740  0.61820  0.00860  1.0000 -0.5588135763
O   O3074     1.0  0.90100  0.62150  0.10010  1.0000 -0.6397820246
O   O3075     1.0  0.92650  0.57780  0.02770  1.0000 -0.5777560007
O   O3076     1.0  0.92370  0.60720  0.03560  1.0000 -0.5588135763
C   C3256     1.0  0.91940  0.59820  0.07430  1.0000 0.0286004543
C   C3257     1.0  0.92360  0.58470  0.06050  1.0000 -0.1004600406
C   C3258     1.0  0.92380  0.59020  0.04010  1.0000 0.637843934
O   O3077     1.0  0.68110  0.61370  0.09070  1.0000 -0.5037077391
C   C3259     1.0  0.83990  0.10060  0.53600  1.0000 0.0760005572
C   C3260     1.0  0.86250  0.11620  0.55620  1.0000 0.0709581455
C   C3261     1.0  0.82710  0.09980  0.55110  1.0000 -0.1807206609
C   C3262     1.0  0.84960  0.11530  0.57110  1.0000 -0.189473289
C   C3263     1.0  0.83200  0.10720  0.56850  1.0000 0.0978843566
C   C3264     1.0  0.85780  0.10880  0.53860  1.0000 -0.1219500515
C   C3265     1.0  0.85330  0.12640  0.58600  1.0000 0.637843934
C   C3266     1.0  0.87200  0.10970  0.52250  1.0000 0.637843934
C   C3267     1.0  0.81190  0.08890  0.55000  1.0000 0.6285624754
O   O3078     1.0  0.79990  0.08960  0.56300  1.0000 -0.6397820246
O   O3079     1.0  0.80830  0.08080  0.53500  1.0000 -0.6517776188
O   O3080     1.0  0.88610  0.11980  0.52400  1.0000 -0.5677502138
O   O3081     1.0  0.87030  0.09910  0.50860  1.0000 -0.5777560007
O   O3082     1.0  0.87000  0.13040  0.58980  1.0000 -0.609555034
O   O3083     1.0  0.84070  0.12940  0.59780  1.0000 -0.6397820246
C   C3268     1.0  0.73170  0.09640  0.54200  1.0000 0.0501834124
C   C3269     1.0  0.74470  0.08790  0.53000  1.0000 -0.0708048282
C   C3270     1.0  0.76240  0.07960  0.53790  1.0000 0.6800795649
O   O3084     1.0  0.70390  0.09770  0.56740  1.0000 -0.6517776188
O   O3085     1.0  0.76560  0.08120  0.55480  1.0000 -0.6162038559
O   O3086     1.0  0.77510  0.07280  0.52700  1.0000 -0.6782680781
Ti  Ti278     1.0  0.79934  0.05791  0.52389  1.0000 2.0212494802
O   O3087     1.0  0.78540  0.03120  0.50920  1.0000 -0.6397820246
C   C3271     1.0  0.95900  0.13970  0.48300  1.0000 0.0362362238
C   C3272     1.0  0.96040  0.12010  0.48450  1.0000 -0.1087284717
C   C3273     1.0  0.94690  0.10960  0.49640  1.0000 0.637843934
O   O3088     1.0  0.97770  0.17830  0.45600  1.0000 -0.6939314659
O   O3089     1.0  0.94380  0.09260  0.49320  1.0000 -0.5588135763
O   O3090     1.0  0.93740  0.11820  0.50860  1.0000 -0.5588135763
O   O3091     1.0  0.90100  0.12150  0.60010  1.0000 -0.6397820246
O   O3092     1.0  0.92650  0.07780  0.52770  1.0000 -0.5777560007
O   O3093     1.0  0.92370  0.10720  0.53560  1.0000 -0.5588135763
C   C3274     1.0  0.91940  0.09820  0.57430  1.0000 0.0286004543
C   C3275     1.0  0.92360  0.08470  0.56050  1.0000 -0.1004600406
C   C3276     1.0  0.92380  0.09020  0.54010  1.0000 0.637843934
O   O3094     1.0  0.68110  0.11370  0.59070  1.0000 -0.609555034
C   C3277     1.0  0.33990  0.60060  0.53600  1.0000 0.0760005572
C   C3278     1.0  0.36250  0.61620  0.55620  1.0000 0.0709581455
C   C3279     1.0  0.32710  0.59980  0.55110  1.0000 -0.1807206609
C   C3280     1.0  0.34960  0.61530  0.57110  1.0000 -0.189473289
C   C3281     1.0  0.33200  0.60720  0.56850  1.0000 0.0978843566
C   C3282     1.0  0.35780  0.60880  0.53860  1.0000 -0.1219500515
C   C3283     1.0  0.35330  0.62640  0.58600  1.0000 0.637843934
C   C3284     1.0  0.37200  0.60970  0.52250  1.0000 0.637843934
C   C3285     1.0  0.31190  0.58890  0.55000  1.0000 0.6285624754
O   O3095     1.0  0.29990  0.58960  0.56300  1.0000 -0.6397820246
O   O3096     1.0  0.30830  0.58080  0.53500  1.0000 -0.6517776188
O   O3097     1.0  0.38610  0.61980  0.52400  1.0000 -0.5677502138
O   O3098     1.0  0.37030  0.59910  0.50860  1.0000 -0.5777560007
O   O3099     1.0  0.37000  0.63040  0.58980  1.0000 -0.609555034
O   O3100     1.0  0.34070  0.62940  0.59780  1.0000 -0.6397820246
C   C3286     1.0  0.23170  0.59640  0.54200  1.0000 0.0501834124
C   C3287     1.0  0.24470  0.58790  0.53000  1.0000 -0.0708048282
C   C3288     1.0  0.26240  0.57960  0.53790  1.0000 0.6800795649
O   O3101     1.0  0.20390  0.59770  0.56740  1.0000 -0.6517776188
O   O3102     1.0  0.26560  0.58120  0.55480  1.0000 -0.6162038559
O   O3103     1.0  0.27510  0.57280  0.52700  1.0000 -0.6782680781
Ti  Ti279     1.0  0.29934  0.55791  0.52389  1.0000 2.0212494802
O   O3104     1.0  0.28540  0.53120  0.50920  1.0000 -0.6397820246
C   C3289     1.0  0.45900  0.63970  0.48300  1.0000 0.0362362238
C   C3290     1.0  0.46040  0.62010  0.48450  1.0000 -0.1087284717
C   C3291     1.0  0.44690  0.60960  0.49640  1.0000 0.637843934
O   O3105     1.0  0.47770  0.67830  0.45600  1.0000 -0.6939314659
O   O3106     1.0  0.44380  0.59260  0.49320  1.0000 -0.5588135763
O   O3107     1.0  0.43740  0.61820  0.50860  1.0000 -0.5588135763
O   O3108     1.0  0.40100  0.62150  0.60010  1.0000 -0.6397820246
O   O3109     1.0  0.42650  0.57780  0.52770  1.0000 -0.5777560007
O   O3110     1.0  0.42370  0.60720  0.53560  1.0000 -0.5588135763
C   C3292     1.0  0.41940  0.59820  0.57430  1.0000 0.0286004543
C   C3293     1.0  0.42360  0.58470  0.56050  1.0000 -0.1004600406
C   C3294     1.0  0.42380  0.59020  0.54010  1.0000 0.637843934
O   O3111     1.0  0.18110  0.61370  0.59070  1.0000 -0.609555034
C   C3295     1.0  0.33990  0.10060  0.03600  1.0000 0.0760005572
C   C3296     1.0  0.36250  0.11620  0.05620  1.0000 0.0709581455
C   C3297     1.0  0.32710  0.09980  0.05110  1.0000 -0.1807206609
C   C3298     1.0  0.34960  0.11530  0.07110  1.0000 -0.189473289
C   C3299     1.0  0.33200  0.10720  0.06850  1.0000 0.0978843566
C   C3300     1.0  0.35780  0.10880  0.03860  1.0000 -0.1219500515
C   C3301     1.0  0.35330  0.12640  0.08600  1.0000 0.637843934
C   C3302     1.0  0.37200  0.10970  0.02250  1.0000 0.637843934
C   C3303     1.0  0.31190  0.08890  0.05000  1.0000 0.6285624754
O   O3112     1.0  0.29990  0.08960  0.06300  1.0000 -0.6397820246
O   O3113     1.0  0.30830  0.08080  0.03500  1.0000 -0.6517776188
O   O3114     1.0  0.38610  0.11980  0.02400  1.0000 -0.5677502138
O   O3115     1.0  0.37030  0.09910  0.00860  1.0000 -0.5777560007
O   O3116     1.0  0.37000  0.13040  0.08980  1.0000 -0.609555034
O   O3117     1.0  0.34070  0.12940  0.09780  1.0000 -0.6397820246
C   C3304     1.0  0.23170  0.09640  0.04200  1.0000 0.0501834124
C   C3305     1.0  0.24470  0.08790  0.03000  1.0000 -0.0708048282
C   C3306     1.0  0.26240  0.07960  0.03790  1.0000 0.6800795649
O   O3118     1.0  0.20390  0.09770  0.06740  1.0000 -0.6517776188
O   O3119     1.0  0.26560  0.08120  0.05480  1.0000 -0.6162038559
O   O3120     1.0  0.27510  0.07280  0.02700  1.0000 -0.6782680781
Ti  Ti280     1.0  0.29934  0.05791  0.02389  1.0000 2.0212494802
O   O3121     1.0  0.28540  0.03120  0.00920  1.0000 -0.6397820246
C   C3307     1.0  0.45900  0.13970  0.98300  1.0000 0.0362362238
C   C3308     1.0  0.46040  0.12010  0.98450  1.0000 -0.1087284717
C   C3309     1.0  0.44690  0.10960  0.99640  1.0000 0.637843934
O   O3122     1.0  0.47770  0.17830  0.95600  1.0000 -0.6939314659
O   O3123     1.0  0.44380  0.09260  0.99320  1.0000 -0.5588135763
O   O3124     1.0  0.43740  0.11820  0.00860  1.0000 -0.5588135763
O   O3125     1.0  0.40100  0.12150  0.10010  1.0000 -0.6397820246
O   O3126     1.0  0.42650  0.07780  0.02770  1.0000 -0.5777560007
O   O3127     1.0  0.42370  0.10720  0.03560  1.0000 -0.5588135763
C   C3310     1.0  0.41940  0.09820  0.07430  1.0000 0.0286004543
C   C3311     1.0  0.42360  0.08470  0.06050  1.0000 -0.1004600406
C   C3312     1.0  0.42380  0.09020  0.04010  1.0000 0.637843934
O   O3128     1.0  0.18110  0.11370  0.09070  1.0000 -0.609555034
C   C3313     1.0  0.41010  0.14940  0.53600  1.0000 0.0760005572
C   C3314     1.0  0.38750  0.13380  0.55620  1.0000 0.0709581455
C   C3315     1.0  0.42290  0.15020  0.55110  1.0000 -0.1807206609
C   C3316     1.0  0.40040  0.13470  0.57110  1.0000 -0.189473289
C   C3317     1.0  0.41800  0.14280  0.56850  1.0000 0.0978843566
C   C3318     1.0  0.39220  0.14120  0.53860  1.0000 -0.1219500515
C   C3319     1.0  0.39670  0.12360  0.58600  1.0000 0.637843934
C   C3320     1.0  0.37800  0.14030  0.52250  1.0000 0.637843934
C   C3321     1.0  0.43810  0.16110  0.55000  1.0000 0.6285624754
O   O3129     1.0  0.45010  0.16040  0.56300  1.0000 -0.6397820246
O   O3130     1.0  0.44170  0.16920  0.53500  1.0000 -0.6517776188
O   O3131     1.0  0.36390  0.13020  0.52400  1.0000 -0.5677502138
O   O3132     1.0  0.37970  0.15090  0.50860  1.0000 -0.5777560007
O   O3133     1.0  0.38000  0.11960  0.58980  1.0000 -0.609555034
O   O3134     1.0  0.40930  0.12060  0.59780  1.0000 -0.6397820246
C   C3322     1.0  0.51830  0.15360  0.54200  1.0000 0.0614820425
C   C3323     1.0  0.50530  0.16210  0.53000  1.0000 -0.0708048282
C   C3324     1.0  0.48760  0.17040  0.53790  1.0000 0.6800795649
O   O3135     1.0  0.54610  0.15230  0.56740  1.0000 -0.6517776188
O   O3136     1.0  0.48440  0.16880  0.55480  1.0000 -0.6162038559
O   O3137     1.0  0.47490  0.17720  0.52700  1.0000 -0.6782680781
Ti  Ti281     1.0  0.45066  0.19209  0.52389  1.0000 2.0212494802
O   O3138     1.0  0.46460  0.21880  0.50920  1.0000 -0.6397820246
C   C3325     1.0  0.29100  0.11030  0.48300  1.0000 0.0362362238
C   C3326     1.0  0.28960  0.12990  0.48450  1.0000 -0.1087284717
C   C3327     1.0  0.30310  0.14040  0.49640  1.0000 0.637843934
O   O3139     1.0  0.27230  0.07170  0.45600  1.0000 -0.6939314659
O   O3140     1.0  0.30620  0.15740  0.49320  1.0000 -0.5588135763
O   O3141     1.0  0.31260  0.13180  0.50860  1.0000 -0.5588135763
O   O3142     1.0  0.34900  0.12850  0.60010  1.0000 -0.6397820246
O   O3143     1.0  0.32350  0.17220  0.52770  1.0000 -0.5777560007
O   O3144     1.0  0.32630  0.14280  0.53560  1.0000 -0.5588135763
C   C3328     1.0  0.33060  0.15180  0.57430  1.0000 0.0286004543
C   C3329     1.0  0.32640  0.16530  0.56050  1.0000 -0.1004600406
C   C3330     1.0  0.32620  0.15980  0.54010  1.0000 0.637843934
O   O3145     1.0  0.56890  0.13630  0.59070  1.0000 -0.6007274885
C   C3331     1.0  0.41010  0.64940  0.03600  1.0000 0.0760005572
C   C3332     1.0  0.38750  0.63380  0.05620  1.0000 0.0709581455
C   C3333     1.0  0.42290  0.65020  0.05110  1.0000 -0.1807206609
C   C3334     1.0  0.40040  0.63470  0.07110  1.0000 -0.189473289
C   C3335     1.0  0.41800  0.64280  0.06850  1.0000 0.0978843566
C   C3336     1.0  0.39220  0.64120  0.03860  1.0000 -0.1219500515
C   C3337     1.0  0.39670  0.62360  0.08600  1.0000 0.637843934
C   C3338     1.0  0.37800  0.64030  0.02250  1.0000 0.637843934
C   C3339     1.0  0.43810  0.66110  0.05000  1.0000 0.6285624754
O   O3146     1.0  0.45010  0.66040  0.06300  1.0000 -0.6397820246
O   O3147     1.0  0.44170  0.66920  0.03500  1.0000 -0.6517776188
O   O3148     1.0  0.36390  0.63020  0.02400  1.0000 -0.5677502138
O   O3149     1.0  0.37970  0.65090  0.00860  1.0000 -0.5777560007
O   O3150     1.0  0.38000  0.61960  0.08980  1.0000 -0.609555034
O   O3151     1.0  0.40930  0.62060  0.09780  1.0000 -0.6397820246
C   C3340     1.0  0.51830  0.65360  0.04200  1.0000 0.0501834124
C   C3341     1.0  0.50530  0.66210  0.03000  1.0000 -0.0708048282
C   C3342     1.0  0.48760  0.67040  0.03790  1.0000 0.6800795649
O   O3152     1.0  0.54610  0.65230  0.06740  1.0000 -0.5303997674
O   O3153     1.0  0.48440  0.66880  0.05480  1.0000 -0.609555034
O   O3154     1.0  0.47490  0.67720  0.02700  1.0000 -0.6782680781
Ti  Ti282     1.0  0.45066  0.69209  0.02389  1.0000 2.0212494802
O   O3155     1.0  0.46460  0.71880  0.00920  1.0000 -0.6397820246
C   C3343     1.0  0.29100  0.61030  0.98300  1.0000 0.0362362238
C   C3344     1.0  0.28960  0.62990  0.98450  1.0000 -0.1087284717
C   C3345     1.0  0.30310  0.64040  0.99640  1.0000 0.637843934
O   O3156     1.0  0.27230  0.57170  0.95600  1.0000 -0.6939314659
O   O3157     1.0  0.30620  0.65740  0.99320  1.0000 -0.5588135763
O   O3158     1.0  0.31260  0.63180  0.00860  1.0000 -0.5548712105
O   O3159     1.0  0.34900  0.62850  0.10010  1.0000 -0.6397820246
O   O3160     1.0  0.32350  0.67220  0.02770  1.0000 -0.5777560007
O   O3161     1.0  0.32630  0.64280  0.03560  1.0000 -0.5588135763
C   C3346     1.0  0.33060  0.65180  0.07430  1.0000 0.0286004543
C   C3347     1.0  0.32640  0.66530  0.06050  1.0000 -0.1004600406
C   C3348     1.0  0.32620  0.65980  0.04010  1.0000 0.637843934
O   O3162     1.0  0.56890  0.63630  0.09070  1.0000 -0.521012765
C   C3349     1.0  0.91010  0.14940  0.03600  1.0000 0.0760005572
C   C3350     1.0  0.88750  0.13380  0.05620  1.0000 0.0709581455
C   C3351     1.0  0.92290  0.15020  0.05110  1.0000 -0.1807206609
C   C3352     1.0  0.90040  0.13470  0.07110  1.0000 -0.189473289
C   C3353     1.0  0.91800  0.14280  0.06850  1.0000 0.0978843566
C   C3354     1.0  0.89220  0.14120  0.03860  1.0000 -0.1219500515
C   C3355     1.0  0.89670  0.12360  0.08600  1.0000 0.637843934
C   C3356     1.0  0.87800  0.14030  0.02250  1.0000 0.637843934
C   C3357     1.0  0.93810  0.16110  0.05000  1.0000 0.6285624754
O   O3163     1.0  0.95010  0.16040  0.06300  1.0000 -0.6397820246
O   O3164     1.0  0.94170  0.16920  0.03500  1.0000 -0.6517776188
O   O3165     1.0  0.86390  0.13020  0.02400  1.0000 -0.5677502138
O   O3166     1.0  0.87970  0.15090  0.00860  1.0000 -0.5777560007
O   O3167     1.0  0.88000  0.11960  0.08980  1.0000 -0.609555034
O   O3168     1.0  0.90930  0.12060  0.09780  1.0000 -0.6397820246
C   C3358     1.0  0.01830  0.15360  0.04200  1.0000 0.0614820425
C   C3359     1.0  0.00530  0.16210  0.03000  1.0000 -0.0708048282
C   C3360     1.0  0.98760  0.17040  0.03790  1.0000 0.6800795649
O   O3169     1.0  0.04610  0.15230  0.06740  1.0000 -0.6517776188
O   O3170     1.0  0.98440  0.16880  0.05480  1.0000 -0.6162038559
O   O3171     1.0  0.97490  0.17720  0.02700  1.0000 -0.6782680781
Ti  Ti283     1.0  0.95066  0.19209  0.02389  1.0000 2.0212494802
O   O3172     1.0  0.96460  0.21880  0.00920  1.0000 -0.6397820246
C   C3361     1.0  0.79100  0.11030  0.98300  1.0000 0.0362362238
C   C3362     1.0  0.78960  0.12990  0.98450  1.0000 -0.1087284717
C   C3363     1.0  0.80310  0.14040  0.99640  1.0000 0.637843934
O   O3173     1.0  0.77230  0.07170  0.95600  1.0000 -0.6939314659
O   O3174     1.0  0.80620  0.15740  0.99320  1.0000 -0.5588135763
O   O3175     1.0  0.81260  0.13180  0.00860  1.0000 -0.5588135763
O   O3176     1.0  0.84900  0.12850  0.10010  1.0000 -0.6397820246
O   O3177     1.0  0.82350  0.17220  0.02770  1.0000 -0.5777560007
O   O3178     1.0  0.82630  0.14280  0.03560  1.0000 -0.5588135763
C   C3364     1.0  0.83060  0.15180  0.07430  1.0000 0.0286004543
C   C3365     1.0  0.82640  0.16530  0.06050  1.0000 -0.1004600406
C   C3366     1.0  0.82620  0.15980  0.04010  1.0000 0.637843934
O   O3179     1.0  0.06890  0.13630  0.09070  1.0000 -0.6007274885
C   C3367     1.0  0.91010  0.64940  0.53600  1.0000 0.0760005572
C   C3368     1.0  0.88750  0.63380  0.55620  1.0000 0.0709581455
C   C3369     1.0  0.92290  0.65020  0.55110  1.0000 -0.1807206609
C   C3370     1.0  0.90040  0.63470  0.57110  1.0000 -0.189473289
C   C3371     1.0  0.91800  0.64280  0.56850  1.0000 0.0978843566
C   C3372     1.0  0.89220  0.64120  0.53860  1.0000 -0.1219500515
C   C3373     1.0  0.89670  0.62360  0.58600  1.0000 0.637843934
C   C3374     1.0  0.87800  0.64030  0.52250  1.0000 0.637843934
C   C3375     1.0  0.93810  0.66110  0.55000  1.0000 0.6285624754
O   O3180     1.0  0.95010  0.66040  0.56300  1.0000 -0.6397820246
O   O3181     1.0  0.94170  0.66920  0.53500  1.0000 -0.6517776188
O   O3182     1.0  0.86390  0.63020  0.52400  1.0000 -0.5677502138
O   O3183     1.0  0.87970  0.65090  0.50860  1.0000 -0.5777560007
O   O3184     1.0  0.88000  0.61960  0.58980  1.0000 -0.609555034
O   O3185     1.0  0.90930  0.62060  0.59780  1.0000 -0.6397820246
C   C3376     1.0  0.01830  0.65360  0.54200  1.0000 0.0614820425
C   C3377     1.0  0.00530  0.66210  0.53000  1.0000 -0.0708048282
C   C3378     1.0  0.98760  0.67040  0.53790  1.0000 0.6800795649
O   O3186     1.0  0.04610  0.65230  0.56740  1.0000 -0.6517776188
O   O3187     1.0  0.98440  0.66880  0.55480  1.0000 -0.6162038559
O   O3188     1.0  0.97490  0.67720  0.52700  1.0000 -0.6782680781
Ti  Ti284     1.0  0.95066  0.69209  0.52389  1.0000 2.0212494802
O   O3189     1.0  0.96460  0.71880  0.50920  1.0000 -0.6397820246
C   C3379     1.0  0.79100  0.61030  0.48300  1.0000 0.0362362238
C   C3380     1.0  0.78960  0.62990  0.48450  1.0000 -0.1087284717
C   C3381     1.0  0.80310  0.64040  0.49640  1.0000 0.637843934
O   O3190     1.0  0.77230  0.57170  0.45600  1.0000 -0.6939314659
O   O3191     1.0  0.80620  0.65740  0.49320  1.0000 -0.5588135763
O   O3192     1.0  0.81260  0.63180  0.50860  1.0000 -0.5588135763
O   O3193     1.0  0.84900  0.62850  0.60010  1.0000 -0.6397820246
O   O3194     1.0  0.82350  0.67220  0.52770  1.0000 -0.5777560007
O   O3195     1.0  0.82630  0.64280  0.53560  1.0000 -0.5588135763
C   C3382     1.0  0.83060  0.65180  0.57430  1.0000 0.0286004543
C   C3383     1.0  0.82640  0.66530  0.56050  1.0000 -0.1004600406
C   C3384     1.0  0.82620  0.65980  0.54010  1.0000 0.637843934
O   O3196     1.0  0.06890  0.63630  0.59070  1.0000 -0.6007274885
C   C3385     1.0  0.91010  0.10060  0.21400  1.0000 0.0760005572
C   C3386     1.0  0.88750  0.11620  0.19380  1.0000 0.0709581455
C   C3387     1.0  0.92290  0.09980  0.19890  1.0000 -0.1807206609
C   C3388     1.0  0.90040  0.11530  0.17890  1.0000 -0.189473289
C   C3389     1.0  0.91800  0.10720  0.18150  1.0000 0.0978843566
C   C3390     1.0  0.89220  0.10880  0.21140  1.0000 -0.1219500515
C   C3391     1.0  0.89670  0.12640  0.16400  1.0000 0.637843934
C   C3392     1.0  0.87800  0.10970  0.22750  1.0000 0.637843934
C   C3393     1.0  0.93810  0.08890  0.20000  1.0000 0.6285624754
O   O3197     1.0  0.95010  0.08960  0.18700  1.0000 -0.6397820246
O   O3198     1.0  0.94170  0.08080  0.21500  1.0000 -0.6517776188
O   O3199     1.0  0.86390  0.11980  0.22600  1.0000 -0.5677502138
O   O3200     1.0  0.87970  0.09910  0.24140  1.0000 -0.5777560007
O   O3201     1.0  0.88000  0.13040  0.16020  1.0000 -0.609555034
O   O3202     1.0  0.90930  0.12940  0.15220  1.0000 -0.6397820246
C   C3394     1.0  0.01830  0.09640  0.20800  1.0000 0.0614820425
C   C3395     1.0  0.00530  0.08790  0.22000  1.0000 -0.0708048282
C   C3396     1.0  0.98760  0.07960  0.21210  1.0000 0.6800795649
O   O3203     1.0  0.04610  0.09770  0.18260  1.0000 -0.5303997674
O   O3204     1.0  0.98440  0.08120  0.19520  1.0000 -0.6162038559
O   O3205     1.0  0.97490  0.07280  0.22300  1.0000 -0.6782680781
Ti  Ti285     1.0  0.95066  0.05791  0.22611  1.0000 2.0212494802
O   O3206     1.0  0.96460  0.03120  0.24080  1.0000 -0.6397820246
C   C3397     1.0  0.79100  0.13970  0.26700  1.0000 0.0362362238
C   C3398     1.0  0.78960  0.12010  0.26550  1.0000 -0.1087284717
C   C3399     1.0  0.80310  0.10960  0.25360  1.0000 0.637843934
O   O3207     1.0  0.77230  0.17830  0.29400  1.0000 -0.6939314659
O   O3208     1.0  0.80620  0.09260  0.25680  1.0000 -0.5588135763
O   O3209     1.0  0.81260  0.11820  0.24140  1.0000 -0.5588135763
O   O3210     1.0  0.84900  0.12150  0.14990  1.0000 -0.6397820246
O   O3211     1.0  0.82350  0.07780  0.22230  1.0000 -0.5777560007
O   O3212     1.0  0.82630  0.10720  0.21440  1.0000 -0.5588135763
C   C3400     1.0  0.83060  0.09820  0.17570  1.0000 0.0286004543
C   C3401     1.0  0.82640  0.08470  0.18950  1.0000 -0.1004600406
C   C3402     1.0  0.82620  0.09020  0.20990  1.0000 0.637843934
O   O3213     1.0  0.06890  0.11370  0.15930  1.0000 -0.521012765
C   C3403     1.0  0.91010  0.60060  0.71400  1.0000 0.0760005572
C   C3404     1.0  0.88750  0.61620  0.69380  1.0000 0.0709581455
C   C3405     1.0  0.92290  0.59980  0.69890  1.0000 -0.1807206609
C   C3406     1.0  0.90040  0.61530  0.67890  1.0000 -0.189473289
C   C3407     1.0  0.91800  0.60720  0.68150  1.0000 0.0978843566
C   C3408     1.0  0.89220  0.60880  0.71140  1.0000 -0.1219500515
C   C3409     1.0  0.89670  0.62640  0.66400  1.0000 0.637843934
C   C3410     1.0  0.87800  0.60970  0.72750  1.0000 0.637843934
C   C3411     1.0  0.93810  0.58890  0.70000  1.0000 0.6285624754
O   O3214     1.0  0.95010  0.58960  0.68700  1.0000 -0.6397820246
O   O3215     1.0  0.94170  0.58080  0.71500  1.0000 -0.6517776188
O   O3216     1.0  0.86390  0.61980  0.72600  1.0000 -0.5677502138
O   O3217     1.0  0.87970  0.59910  0.74140  1.0000 -0.5777560007
O   O3218     1.0  0.88000  0.63040  0.66020  1.0000 -0.609555034
O   O3219     1.0  0.90930  0.62940  0.65220  1.0000 -0.6397820246
C   C3412     1.0  0.01830  0.59640  0.70800  1.0000 0.0614820425
C   C3413     1.0  0.00530  0.58790  0.72000  1.0000 -0.0708048282
C   C3414     1.0  0.98760  0.57960  0.71210  1.0000 0.6800795649
O   O3220     1.0  0.04610  0.59770  0.68260  1.0000 -0.5303997674
O   O3221     1.0  0.98440  0.58120  0.69520  1.0000 -0.6162038559
O   O3222     1.0  0.97490  0.57280  0.72300  1.0000 -0.6782680781
Ti  Ti286     1.0  0.95066  0.55791  0.72611  1.0000 2.0212494802
O   O3223     1.0  0.96460  0.53120  0.74080  1.0000 -0.6397820246
C   C3415     1.0  0.79100  0.63970  0.76700  1.0000 0.0362362238
C   C3416     1.0  0.78960  0.62010  0.76550  1.0000 -0.1087284717
C   C3417     1.0  0.80310  0.60960  0.75360  1.0000 0.637843934
O   O3224     1.0  0.77230  0.67830  0.79400  1.0000 -0.6939314659
O   O3225     1.0  0.80620  0.59260  0.75680  1.0000 -0.5588135763
O   O3226     1.0  0.81260  0.61820  0.74140  1.0000 -0.5588135763
O   O3227     1.0  0.84900  0.62150  0.64990  1.0000 -0.6397820246
O   O3228     1.0  0.82350  0.57780  0.72230  1.0000 -0.5777560007
O   O3229     1.0  0.82630  0.60720  0.71440  1.0000 -0.5588135763
C   C3418     1.0  0.83060  0.59820  0.67570  1.0000 0.0286004543
C   C3419     1.0  0.82640  0.58470  0.68950  1.0000 -0.1004600406
C   C3420     1.0  0.82620  0.59020  0.70990  1.0000 0.637843934
O   O3230     1.0  0.06890  0.61370  0.65930  1.0000 -0.521012765
C   C3421     1.0  0.41010  0.10060  0.71400  1.0000 0.0760005572
C   C3422     1.0  0.38750  0.11620  0.69380  1.0000 0.0709581455
C   C3423     1.0  0.42290  0.09980  0.69890  1.0000 -0.1807206609
C   C3424     1.0  0.40040  0.11530  0.67890  1.0000 -0.189473289
C   C3425     1.0  0.41800  0.10720  0.68150  1.0000 0.0978843566
C   C3426     1.0  0.39220  0.10880  0.71140  1.0000 -0.1219500515
C   C3427     1.0  0.39670  0.12640  0.66400  1.0000 0.637843934
C   C3428     1.0  0.37800  0.10970  0.72750  1.0000 0.637843934
C   C3429     1.0  0.43810  0.08890  0.70000  1.0000 0.6285624754
O   O3231     1.0  0.45010  0.08960  0.68700  1.0000 -0.6397820246
O   O3232     1.0  0.44170  0.08080  0.71500  1.0000 -0.6517776188
O   O3233     1.0  0.36390  0.11980  0.72600  1.0000 -0.5677502138
O   O3234     1.0  0.37970  0.09910  0.74140  1.0000 -0.5777560007
O   O3235     1.0  0.38000  0.13040  0.66020  1.0000 -0.609555034
O   O3236     1.0  0.40930  0.12940  0.65220  1.0000 -0.6397820246
C   C3430     1.0  0.51830  0.09640  0.70800  1.0000 0.0614820425
C   C3431     1.0  0.50530  0.08790  0.72000  1.0000 -0.0708048282
C   C3432     1.0  0.48760  0.07960  0.71210  1.0000 0.6800795649
O   O3237     1.0  0.54610  0.09770  0.68260  1.0000 -0.5303997674
O   O3238     1.0  0.48440  0.08120  0.69520  1.0000 -0.609555034
O   O3239     1.0  0.47490  0.07280  0.72300  1.0000 -0.6782680781
Ti  Ti287     1.0  0.45066  0.05791  0.72611  1.0000 2.0212494802
O   O3240     1.0  0.46460  0.03120  0.74080  1.0000 -0.6397820246
C   C3433     1.0  0.29100  0.13970  0.76700  1.0000 0.0362362238
C   C3434     1.0  0.28960  0.12010  0.76550  1.0000 -0.1087284717
C   C3435     1.0  0.30310  0.10960  0.75360  1.0000 0.637843934
O   O3241     1.0  0.27230  0.17830  0.79400  1.0000 -0.6939314659
O   O3242     1.0  0.30620  0.09260  0.75680  1.0000 -0.5588135763
O   O3243     1.0  0.31260  0.11820  0.74140  1.0000 -0.5588135763
O   O3244     1.0  0.34900  0.12150  0.64990  1.0000 -0.6397820246
O   O3245     1.0  0.32350  0.07780  0.72230  1.0000 -0.5777560007
O   O3246     1.0  0.32630  0.10720  0.71440  1.0000 -0.5588135763
C   C3436     1.0  0.33060  0.09820  0.67570  1.0000 0.0286004543
C   C3437     1.0  0.32640  0.08470  0.68950  1.0000 -0.1004600406
C   C3438     1.0  0.32620  0.09020  0.70990  1.0000 0.637843934
O   O3247     1.0  0.56890  0.11370  0.65930  1.0000 -0.5037077391
C   C3439     1.0  0.41010  0.60060  0.21400  1.0000 0.0760005572
C   C3440     1.0  0.38750  0.61620  0.19380  1.0000 0.0709581455
C   C3441     1.0  0.42290  0.59980  0.19890  1.0000 -0.1807206609
C   C3442     1.0  0.40040  0.61530  0.17890  1.0000 -0.189473289
C   C3443     1.0  0.41800  0.60720  0.18150  1.0000 0.0978843566
C   C3444     1.0  0.39220  0.60880  0.21140  1.0000 -0.1219500515
C   C3445     1.0  0.39670  0.62640  0.16400  1.0000 0.637843934
C   C3446     1.0  0.37800  0.60970  0.22750  1.0000 0.637843934
C   C3447     1.0  0.43810  0.58890  0.20000  1.0000 0.6285624754
O   O3248     1.0  0.45010  0.58960  0.18700  1.0000 -0.6397820246
O   O3249     1.0  0.44170  0.58080  0.21500  1.0000 -0.6517776188
O   O3250     1.0  0.36390  0.61980  0.22600  1.0000 -0.5677502138
O   O3251     1.0  0.37970  0.59910  0.24140  1.0000 -0.5777560007
O   O3252     1.0  0.38000  0.63040  0.16020  1.0000 -0.609555034
O   O3253     1.0  0.40930  0.62940  0.15220  1.0000 -0.6397820246
C   C3448     1.0  0.51830  0.59640  0.20800  1.0000 0.0501834124
C   C3449     1.0  0.50530  0.58790  0.22000  1.0000 -0.0708048282
C   C3450     1.0  0.48760  0.57960  0.21210  1.0000 0.6800795649
O   O3254     1.0  0.54610  0.59770  0.18260  1.0000 -0.6517776188
O   O3255     1.0  0.48440  0.58120  0.19520  1.0000 -0.6162038559
O   O3256     1.0  0.47490  0.57280  0.22300  1.0000 -0.6782680781
Ti  Ti288     1.0  0.45066  0.55791  0.22611  1.0000 2.0212494802
O   O3257     1.0  0.46460  0.53120  0.24080  1.0000 -0.6397820246
C   C3451     1.0  0.29100  0.63970  0.26700  1.0000 0.0362362238
C   C3452     1.0  0.28960  0.62010  0.26550  1.0000 -0.1087284717
C   C3453     1.0  0.30310  0.60960  0.25360  1.0000 0.637843934
O   O3258     1.0  0.27230  0.67830  0.29400  1.0000 -0.6939314659
O   O3259     1.0  0.30620  0.59260  0.25680  1.0000 -0.5588135763
O   O3260     1.0  0.31260  0.61820  0.24140  1.0000 -0.5588135763
O   O3261     1.0  0.34900  0.62150  0.14990  1.0000 -0.6397820246
O   O3262     1.0  0.32350  0.57780  0.22230  1.0000 -0.5777560007
O   O3263     1.0  0.32630  0.60720  0.21440  1.0000 -0.5588135763
C   C3454     1.0  0.33060  0.59820  0.17570  1.0000 0.0286004543
C   C3455     1.0  0.32640  0.58470  0.18950  1.0000 -0.1004600406
C   C3456     1.0  0.32620  0.59020  0.20990  1.0000 0.637843934
O   O3264     1.0  0.56890  0.61370  0.15930  1.0000 -0.609555034
O   O3265     1.0  0.25000  0.09450  0.84450  1.0000 -1.2097808958
Ti  Ti289     1.0  0.25000  0.07632  0.82632  1.0000 1.1999577752
O   O3266     1.0  0.25000  0.59450  0.34450  1.0000 -1.2097808958
Ti  Ti290     1.0  0.25000  0.57632  0.32632  1.0000 1.1999577752
O   O3267     1.0  0.75000  0.09450  0.34450  1.0000 -1.2097808958
Ti  Ti291     1.0  0.75000  0.07632  0.32632  1.0000 1.1999577752
O   O3268     1.0  0.50000  0.15550  0.34450  1.0000 -1.2097808958
Ti  Ti292     1.0  0.50000  0.17368  0.32632  1.0000 1.1999577752
O   O3269     1.0  0.50000  0.65550  0.84450  1.0000 -1.2097808958
Ti  Ti293     1.0  0.50000  0.67368  0.82632  1.0000 1.1999577752
O   O3270     1.0  0.00000  0.15550  0.84450  1.0000 -1.2097808958
Ti  Ti294     1.0  0.00000  0.17368  0.82632  1.0000 1.1999577752
O   O3271     1.0  0.00000  0.59450  0.90550  1.0000 -1.2097808958
Ti  Ti295     1.0  0.00000  0.57632  0.92368  1.0000 1.1999577752
O   O3272     1.0  0.50000  0.59450  0.40550  1.0000 -1.2097808958
Ti  Ti296     1.0  0.50000  0.57632  0.42368  1.0000 1.1999577752
O   O3273     1.0  0.75000  0.65550  0.40550  1.0000 -1.2097808958
Ti  Ti297     1.0  0.75000  0.67368  0.42368  1.0000 1.1999577752
O   O3274     1.0  0.25000  0.65550  0.90550  1.0000 -1.2097808958
Ti  Ti298     1.0  0.25000  0.67368  0.92368  1.0000 1.1999577752
O   O3275     1.0  0.84450  0.25000  0.09450  1.0000 -1.2097808958
Ti  Ti299     1.0  0.82632  0.25000  0.07632  1.0000 1.1999577752
O   O3276     1.0  0.84450  0.75000  0.59450  1.0000 -1.2097808958
Ti  Ti300     1.0  0.82632  0.75000  0.57632  1.0000 1.1999577752
O   O3277     1.0  0.34450  0.25000  0.59450  1.0000 -1.2097808958
Ti  Ti301     1.0  0.32632  0.25000  0.57632  1.0000 1.1999577752
O   O3278     1.0  0.34450  0.50000  0.15550  1.0000 -1.2097808958
Ti  Ti302     1.0  0.32632  0.50000  0.17368  1.0000 1.1999577752
O   O3279     1.0  0.34450  0.00000  0.65550  1.0000 -1.2097808958
Ti  Ti303     1.0  0.32632  0.00000  0.67368  1.0000 1.1999577752
O   O3280     1.0  0.84450  0.50000  0.65550  1.0000 -1.2097808958
Ti  Ti304     1.0  0.82632  0.50000  0.67368  1.0000 1.1999577752
O   O3281     1.0  0.90550  0.00000  0.59450  1.0000 -1.2097808958
Ti  Ti305     1.0  0.92368  0.00000  0.57632  1.0000 1.1999577752
O   O3282     1.0  0.90550  0.50000  0.09450  1.0000 -1.2097808958
Ti  Ti306     1.0  0.92368  0.50000  0.07632  1.0000 1.1999577752
O   O3283     1.0  0.40550  0.75000  0.65550  1.0000 -1.2097808958
Ti  Ti307     1.0  0.42368  0.75000  0.67368  1.0000 1.1999577752
O   O3284     1.0  0.40550  0.25000  0.15550  1.0000 -1.2097808958
Ti  Ti308     1.0  0.42368  0.25000  0.17368  1.0000 1.1999577752
O   O3285     1.0  0.09450  0.84450  0.25000  1.0000 -1.2097808958
Ti  Ti309     1.0  0.07632  0.82632  0.25000  1.0000 1.1999577752
O   O3286     1.0  0.09450  0.34450  0.75000  1.0000 -1.2097808958
Ti  Ti310     1.0  0.07632  0.32632  0.75000  1.0000 1.1999577752
O   O3287     1.0  0.59450  0.34450  0.25000  1.0000 -1.2097808958
Ti  Ti311     1.0  0.57632  0.32632  0.25000  1.0000 1.1999577752
O   O3288     1.0  0.15550  0.34450  0.50000  1.0000 -1.2097808958
Ti  Ti312     1.0  0.17368  0.32632  0.50000  1.0000 1.1999577752
O   O3289     1.0  0.15550  0.84450  0.00000  1.0000 -1.2097808958
Ti  Ti313     1.0  0.17368  0.82632  0.00000  1.0000 1.1999577752
O   O3290     1.0  0.65550  0.84450  0.50000  1.0000 -1.2097808958
Ti  Ti314     1.0  0.67368  0.82632  0.50000  1.0000 1.1999577752
O   O3291     1.0  0.59450  0.90550  0.00000  1.0000 -1.2097808958
Ti  Ti315     1.0  0.57632  0.92368  0.00000  1.0000 1.1999577752
O   O3292     1.0  0.59450  0.40550  0.50000  1.0000 -1.2097808958
Ti  Ti316     1.0  0.57632  0.42368  0.50000  1.0000 1.1999577752
O   O3293     1.0  0.65550  0.40550  0.75000  1.0000 -1.2097808958
Ti  Ti317     1.0  0.67368  0.42368  0.75000  1.0000 1.1999577752
O   O3294     1.0  0.65550  0.90550  0.25000  1.0000 -1.2097808958
Ti  Ti318     1.0  0.67368  0.92368  0.25000  1.0000 1.1999577752
O   O3295     1.0  0.84450  0.00000  0.15550  1.0000 -1.2097808958
Ti  Ti319     1.0  0.82632  0.00000  0.17368  1.0000 1.1999577752
O   O3296     1.0  0.90550  0.75000  0.15550  1.0000 -1.2097808958
Ti  Ti320     1.0  0.92368  0.75000  0.17368  1.0000 1.1999577752
O   O3297     1.0  0.90550  0.25000  0.65550  1.0000 -1.2097808958
Ti  Ti321     1.0  0.92368  0.25000  0.67368  1.0000 1.1999577752
O   O3298     1.0  0.34450  0.75000  0.09450  1.0000 -1.2097808958
Ti  Ti322     1.0  0.32632  0.75000  0.07632  1.0000 1.1999577752
O   O3299     1.0  0.40550  0.00000  0.09450  1.0000 -1.2097808958
Ti  Ti323     1.0  0.42368  0.00000  0.07632  1.0000 1.1999577752
O   O3300     1.0  0.40550  0.50000  0.59450  1.0000 -1.2097808958
Ti  Ti324     1.0  0.42368  0.50000  0.57632  1.0000 1.1999577752
O   O3301     1.0  0.00000  0.09450  0.40550  1.0000 -1.2097808958
Ti  Ti325     1.0  0.00000  0.07632  0.42368  1.0000 1.1999577752
O   O3302     1.0  0.50000  0.09450  0.90550  1.0000 -1.2097808958
Ti  Ti326     1.0  0.50000  0.07632  0.92368  1.0000 1.1999577752
O   O3303     1.0  0.75000  0.59450  0.84450  1.0000 -1.2097808958
Ti  Ti327     1.0  0.75000  0.57632  0.82632  1.0000 1.1999577752
O   O3304     1.0  0.75000  0.15550  0.90550  1.0000 -1.2097808958
Ti  Ti328     1.0  0.75000  0.17368  0.92368  1.0000 1.1999577752
O   O3305     1.0  0.25000  0.15550  0.40550  1.0000 -1.2097808958
Ti  Ti329     1.0  0.25000  0.17368  0.42368  1.0000 1.1999577752
O   O3306     1.0  0.00000  0.65550  0.34450  1.0000 -1.2097808958
Ti  Ti330     1.0  0.00000  0.67368  0.32632  1.0000 1.1999577752
O   O3307     1.0  0.59450  0.84450  0.75000  1.0000 -1.2097808958
Ti  Ti331     1.0  0.57632  0.82632  0.75000  1.0000 1.1999577752
O   O3308     1.0  0.09450  0.40550  0.00000  1.0000 -1.2097808958
Ti  Ti332     1.0  0.07632  0.42368  0.00000  1.0000 1.1999577752
O   O3309     1.0  0.09450  0.90550  0.50000  1.0000 -1.2097808958
Ti  Ti333     1.0  0.07632  0.92368  0.50000  1.0000 1.1999577752
O   O3310     1.0  0.65550  0.34450  0.00000  1.0000 -1.2097808958
Ti  Ti334     1.0  0.67368  0.32632  0.00000  1.0000 1.1999577752
O   O3311     1.0  0.15550  0.90550  0.75000  1.0000 -1.2097808958
Ti  Ti335     1.0  0.17368  0.92368  0.75000  1.0000 1.1999577752
O   O3312     1.0  0.15550  0.40550  0.25000  1.0000 -1.2097808958
Ti  Ti336     1.0  0.17368  0.42368  0.25000  1.0000 1.1999577752
O   O3313     1.0  0.75000  0.90550  0.15550  1.0000 -0.9051110239
Ti  Ti337     1.0  0.75000  0.92368  0.17368  1.0000 1.1999577752
O   O3314     1.0  0.25000  0.90550  0.65550  1.0000 -0.9043483926
Ti  Ti338     1.0  0.25000  0.92368  0.67368  1.0000 1.1999577752
O   O3315     1.0  0.50000  0.84450  0.65550  1.0000 -0.9043483926
Ti  Ti339     1.0  0.50000  0.82632  0.67368  1.0000 1.1999577752
O   O3316     1.0  0.00000  0.84450  0.15550  1.0000 -0.9051110239
Ti  Ti340     1.0  0.00000  0.82632  0.17368  1.0000 1.1999577752
O   O3317     1.0  0.00000  0.40550  0.09450  1.0000 -0.9043483926
Ti  Ti341     1.0  0.00000  0.42368  0.07632  1.0000 1.1999577752
O   O3318     1.0  0.50000  0.40550  0.59450  1.0000 -0.9043483926
Ti  Ti342     1.0  0.50000  0.42368  0.57632  1.0000 1.1999577752
O   O3319     1.0  0.25000  0.34450  0.59450  1.0000 -0.9043483926
Ti  Ti343     1.0  0.25000  0.32632  0.57632  1.0000 1.1999577752
O   O3320     1.0  0.75000  0.34450  0.09450  1.0000 -0.9043483926
Ti  Ti344     1.0  0.75000  0.32632  0.07632  1.0000 1.1999577752
O   O3321     1.0  0.15550  0.75000  0.90550  1.0000 -0.9043483926
Ti  Ti345     1.0  0.17368  0.75000  0.92368  1.0000 1.1999577752
O   O3322     1.0  0.15550  0.25000  0.40550  1.0000 -0.9043483926
Ti  Ti346     1.0  0.17368  0.25000  0.42368  1.0000 1.1999577752
O   O3323     1.0  0.65550  0.50000  0.84450  1.0000 -0.9043483926
Ti  Ti347     1.0  0.67368  0.50000  0.82632  1.0000 1.1999577752
O   O3324     1.0  0.65550  0.00000  0.34450  1.0000 -0.9043483926
Ti  Ti348     1.0  0.67368  0.00000  0.32632  1.0000 1.1999577752
O   O3325     1.0  0.09450  0.00000  0.40550  1.0000 -0.9043483926
Ti  Ti349     1.0  0.07632  0.00000  0.42368  1.0000 1.1999577752
O   O3326     1.0  0.09450  0.50000  0.90550  1.0000 -0.9043483926
Ti  Ti350     1.0  0.07632  0.50000  0.92368  1.0000 1.1999577752
O   O3327     1.0  0.59450  0.25000  0.34450  1.0000 -0.9043483926
Ti  Ti351     1.0  0.57632  0.25000  0.32632  1.0000 1.1999577752
O   O3328     1.0  0.59450  0.75000  0.84450  1.0000 -0.9043483926
Ti  Ti352     1.0  0.57632  0.75000  0.82632  1.0000 1.1999577752
O   O3329     1.0  0.90550  0.15550  0.75000  1.0000 -0.9043483926
Ti  Ti353     1.0  0.92368  0.17368  0.75000  1.0000 1.1999577752
O   O3330     1.0  0.90550  0.65550  0.25000  1.0000 -0.9051110239
Ti  Ti354     1.0  0.92368  0.67368  0.25000  1.0000 1.1999577752
O   O3331     1.0  0.84450  0.65550  0.50000  1.0000 -0.9043483926
Ti  Ti355     1.0  0.82632  0.67368  0.50000  1.0000 1.1999577752
O   O3332     1.0  0.84450  0.15550  0.00000  1.0000 -0.9051110239
Ti  Ti356     1.0  0.82632  0.17368  0.00000  1.0000 1.1999577752
O   O3333     1.0  0.40550  0.09450  0.00000  1.0000 -0.9043483926
Ti  Ti357     1.0  0.42368  0.07632  0.00000  1.0000 1.1999577752
O   O3334     1.0  0.40550  0.59450  0.50000  1.0000 -0.9043483926
Ti  Ti358     1.0  0.42368  0.57632  0.50000  1.0000 1.1999577752
O   O3335     1.0  0.34450  0.59450  0.25000  1.0000 -0.9043483926
Ti  Ti359     1.0  0.32632  0.57632  0.25000  1.0000 1.1999577752
O   O3336     1.0  0.34450  0.09450  0.75000  1.0000 -0.9043483926
Ti  Ti360     1.0  0.32632  0.07632  0.75000  1.0000 1.1999577752
O   O3337     1.0  0.15550  0.50000  0.34450  1.0000 -0.9043483926
Ti  Ti361     1.0  0.17368  0.50000  0.32632  1.0000 1.1999577752
O   O3338     1.0  0.15550  0.00000  0.84450  1.0000 -0.9043483926
Ti  Ti362     1.0  0.17368  0.00000  0.82632  1.0000 1.1999577752
O   O3339     1.0  0.09450  0.25000  0.84450  1.0000 -0.9043483926
Ti  Ti363     1.0  0.07632  0.25000  0.82632  1.0000 1.1999577752
O   O3340     1.0  0.09450  0.75000  0.34450  1.0000 -0.9043483926
Ti  Ti364     1.0  0.07632  0.75000  0.32632  1.0000 1.1999577752
O   O3341     1.0  0.65550  0.75000  0.40550  1.0000 -0.9043483926
Ti  Ti365     1.0  0.67368  0.75000  0.42368  1.0000 1.1999577752
O   O3342     1.0  0.65550  0.25000  0.90550  1.0000 -0.9043483926
Ti  Ti366     1.0  0.67368  0.25000  0.92368  1.0000 1.1999577752
O   O3343     1.0  0.59450  0.00000  0.90550  1.0000 -0.9043483926
Ti  Ti367     1.0  0.57632  0.00000  0.92368  1.0000 1.1999577752
O   O3344     1.0  0.59450  0.50000  0.40550  1.0000 -0.9043483926
Ti  Ti368     1.0  0.57632  0.50000  0.42368  1.0000 1.1999577752
O   O3345     1.0  0.00000  0.90550  0.59450  1.0000 -0.9043483926
Ti  Ti369     1.0  0.00000  0.92368  0.57632  1.0000 1.1999577752
O   O3346     1.0  0.50000  0.90550  0.09450  1.0000 -0.9051110239
Ti  Ti370     1.0  0.50000  0.92368  0.07632  1.0000 1.1999577752
O   O3347     1.0  0.75000  0.40550  0.65550  1.0000 -0.9043483926
Ti  Ti371     1.0  0.75000  0.42368  0.67368  1.0000 1.1999577752
O   O3348     1.0  0.25000  0.40550  0.15550  1.0000 -0.9043483926
Ti  Ti372     1.0  0.25000  0.42368  0.17368  1.0000 1.1999577752
O   O3349     1.0  0.25000  0.84450  0.09450  1.0000 -0.9043483926
Ti  Ti373     1.0  0.25000  0.82632  0.07632  1.0000 1.1999577752
O   O3350     1.0  0.75000  0.84450  0.59450  1.0000 -0.9043483926
Ti  Ti374     1.0  0.75000  0.82632  0.57632  1.0000 1.1999577752
O   O3351     1.0  0.50000  0.34450  0.15550  1.0000 -0.9043483926
Ti  Ti375     1.0  0.50000  0.32632  0.17368  1.0000 1.1999577752
O   O3352     1.0  0.00000  0.34450  0.65550  1.0000 -0.9043483926
Ti  Ti376     1.0  0.00000  0.32632  0.67368  1.0000 1.1999577752
O   O3353     1.0  0.40550  0.65550  0.75000  1.0000 -0.9043483926
Ti  Ti377     1.0  0.42368  0.67368  0.75000  1.0000 1.1999577752
O   O3354     1.0  0.40550  0.15550  0.25000  1.0000 -0.9043483926
Ti  Ti378     1.0  0.42368  0.17368  0.25000  1.0000 1.1999577752
O   O3355     1.0  0.90550  0.59450  0.00000  1.0000 -0.9051110239
Ti  Ti379     1.0  0.92368  0.57632  0.00000  1.0000 1.1999577752
O   O3356     1.0  0.90550  0.09450  0.50000  1.0000 -0.9043483926
Ti  Ti380     1.0  0.92368  0.07632  0.50000  1.0000 1.1999577752
O   O3357     1.0  0.34450  0.15550  0.50000  1.0000 -0.9043483926
Ti  Ti381     1.0  0.32632  0.17368  0.50000  1.0000 1.1999577752
O   O3358     1.0  0.34450  0.65550  0.00000  1.0000 -0.9051110239
Ti  Ti382     1.0  0.32632  0.67368  0.00000  1.0000 1.1999577752
O   O3359     1.0  0.84450  0.09450  0.25000  1.0000 -0.9043483926
Ti  Ti383     1.0  0.82632  0.07632  0.25000  1.0000 1.1999577752
O   O3360     1.0  0.84450  0.59450  0.75000  1.0000 -0.9043483926
Ti  Ti384     1.0  0.82632  0.57632  0.75000  1.0000 1.1999577752
O   O3361     1.0  0.19960  0.05040  0.95670  1.0000 -1.2905169269
C   C3457     1.0  0.24340  0.00660  0.98290  1.0000 -0.2568039497
C   C3458     1.0  0.23550  0.01450  0.96860  1.0000 0.5682193007
C   C3459     1.0  0.14480  0.10520  0.84520  1.0000 0.6729532129
C   C3460     1.0  0.15710  0.09290  0.83420  1.0000 -0.1087284717
C   C3461     1.0  0.18440  0.06560  0.82610  1.0000 0.0709581455
Co  Co97      1.0  0.15949  0.09051  0.05559  1.0000 1.9695231878
Ti  Ti385     1.0  0.09051  0.15949  0.05559  1.0000 1.1911382492
Ti  Ti386     1.0  0.17946  0.07054  0.96682  1.0000 1.9108156136
O   O3362     1.0  0.19960  0.55040  0.45670  1.0000 -1.2905169269
C   C3462     1.0  0.24340  0.50660  0.48290  1.0000 -0.2568039497
C   C3463     1.0  0.23550  0.51450  0.46860  1.0000 0.5682193007
C   C3464     1.0  0.14480  0.60520  0.34520  1.0000 0.6729532129
C   C3465     1.0  0.15710  0.59290  0.33420  1.0000 -0.1087284717
C   C3466     1.0  0.18440  0.56560  0.32610  1.0000 0.0614820425
Co  Co98      1.0  0.15949  0.59051  0.55559  1.0000 1.9695231878
Ti  Ti387     1.0  0.09051  0.65949  0.55559  1.0000 1.1911382492
Ti  Ti388     1.0  0.17946  0.57054  0.46682  1.0000 1.9108156136
O   O3363     1.0  0.69960  0.05040  0.45670  1.0000 -1.2905169269
C   C3467     1.0  0.74340  0.00660  0.48290  1.0000 -0.2568039497
C   C3468     1.0  0.73550  0.01450  0.46860  1.0000 0.5682193007
C   C3469     1.0  0.64480  0.10520  0.34520  1.0000 0.6729532129
C   C3470     1.0  0.65710  0.09290  0.33420  1.0000 -0.1087284717
C   C3471     1.0  0.68440  0.06560  0.32610  1.0000 0.0709581455
Co  Co99      1.0  0.65949  0.09051  0.55559  1.0000 1.978124679
Ti  Ti389     1.0  0.59051  0.15949  0.55559  1.0000 1.1911382492
Ti  Ti390     1.0  0.67946  0.07054  0.46682  1.0000 1.9108156136
O   O3364     1.0  0.55040  0.19960  0.45670  1.0000 -1.2905169269
C   C3472     1.0  0.50660  0.24340  0.48290  1.0000 -0.2568039497
C   C3473     1.0  0.51450  0.23550  0.46860  1.0000 0.5682193007
C   C3474     1.0  0.60520  0.14480  0.34520  1.0000 0.6729532129
C   C3475     1.0  0.59290  0.15710  0.33420  1.0000 -0.1087284717
C   C3476     1.0  0.56560  0.18440  0.32610  1.0000 0.0709581455
Ti  Ti391     1.0  0.57054  0.17946  0.46682  1.0000 1.9108156136
O   O3365     1.0  0.55040  0.69960  0.95670  1.0000 -1.2905169269
C   C3477     1.0  0.50660  0.74340  0.98290  1.0000 -0.2568039497
C   C3478     1.0  0.51450  0.73550  0.96860  1.0000 0.5682193007
C   C3479     1.0  0.60520  0.64480  0.84520  1.0000 0.6729532129
C   C3480     1.0  0.59290  0.65710  0.83420  1.0000 -0.1004600406
C   C3481     1.0  0.56560  0.68440  0.82610  1.0000 0.0614820425
Co  Co100     1.0  0.59051  0.65949  0.05559  1.0000 1.9695231878
Ti  Ti392     1.0  0.65949  0.59051  0.05559  1.0000 1.170162172
Ti  Ti393     1.0  0.57054  0.67946  0.96682  1.0000 1.9108156136
O   O3366     1.0  0.05040  0.55040  0.79330  1.0000 -1.2905169269
C   C3482     1.0  0.00660  0.50660  0.76710  1.0000 -0.2568039497
C   C3483     1.0  0.01450  0.51450  0.78140  1.0000 0.5682193007
C   C3484     1.0  0.10520  0.60520  0.90480  1.0000 0.6729532129
C   C3485     1.0  0.09290  0.59290  0.91580  1.0000 -0.1087284717
C   C3486     1.0  0.06560  0.56560  0.92390  1.0000 0.0614820425
Co  Co101     1.0  0.09051  0.59051  0.69441  1.0000 1.9695231878
Ti  Ti394     1.0  0.15949  0.65949  0.69441  1.0000 1.1911382492
Ti  Ti395     1.0  0.07054  0.57054  0.78318  1.0000 1.9108156136
O   O3367     1.0  0.05040  0.05040  0.29330  1.0000 -1.2905169269
C   C3487     1.0  0.00660  0.00660  0.26710  1.0000 -0.2568039497
C   C3488     1.0  0.01450  0.01450  0.28140  1.0000 0.5682193007
C   C3489     1.0  0.10520  0.10520  0.40480  1.0000 0.6729532129
C   C3490     1.0  0.09290  0.09290  0.41580  1.0000 -0.1087284717
C   C3491     1.0  0.06560  0.06560  0.42390  1.0000 0.0709581455
Co  Co102     1.0  0.09051  0.09051  0.19441  1.0000 1.9695231878
Ti  Ti396     1.0  0.15949  0.15949  0.19441  1.0000 1.1911382492
Ti  Ti397     1.0  0.07054  0.07054  0.28318  1.0000 1.9108156136
O   O3368     1.0  0.55040  0.55040  0.29330  1.0000 -1.2905169269
C   C3492     1.0  0.50660  0.50660  0.26710  1.0000 -0.2568039497
C   C3493     1.0  0.51450  0.51450  0.28140  1.0000 0.5682193007
C   C3494     1.0  0.60520  0.60520  0.40480  1.0000 0.6729532129
C   C3495     1.0  0.59290  0.59290  0.41580  1.0000 -0.1004600406
C   C3496     1.0  0.56560  0.56560  0.42390  1.0000 0.0614820425
Co  Co103     1.0  0.59051  0.59051  0.19441  1.0000 1.978124679
Ti  Ti398     1.0  0.65949  0.65949  0.19441  1.0000 1.1911382492
Ti  Ti399     1.0  0.57054  0.57054  0.28318  1.0000 1.9108156136
O   O3369     1.0  0.69960  0.69960  0.29330  1.0000 -1.2905169269
C   C3497     1.0  0.74340  0.74340  0.26710  1.0000 -0.2568039497
C   C3498     1.0  0.73550  0.73550  0.28140  1.0000 0.5682193007
C   C3499     1.0  0.64480  0.64480  0.40480  1.0000 0.6729532129
C   C3500     1.0  0.65710  0.65710  0.41580  1.0000 -0.1004600406
C   C3501     1.0  0.68440  0.68440  0.42390  1.0000 0.0614820425
Ti  Ti400     1.0  0.67946  0.67946  0.28318  1.0000 1.9108156136
O   O3370     1.0  0.69960  0.19960  0.79330  1.0000 -1.2905169269
C   C3502     1.0  0.74340  0.24340  0.76710  1.0000 -0.2568039497
C   C3503     1.0  0.73550  0.23550  0.78140  1.0000 0.5682193007
C   C3504     1.0  0.64480  0.14480  0.90480  1.0000 0.6729532129
C   C3505     1.0  0.65710  0.15710  0.91580  1.0000 -0.1087284717
C   C3506     1.0  0.68440  0.18440  0.92390  1.0000 0.0709581455
Co  Co104     1.0  0.65949  0.15949  0.69441  1.0000 1.9461875825
Ti  Ti401     1.0  0.59051  0.09051  0.69441  1.0000 1.170162172
Ti  Ti402     1.0  0.67946  0.17946  0.78318  1.0000 1.9108156136
O   O3371     1.0  0.19960  0.69960  0.79330  1.0000 -1.2905169269
C   C3507     1.0  0.24340  0.74340  0.76710  1.0000 -0.2568039497
C   C3508     1.0  0.23550  0.73550  0.78140  1.0000 0.5682193007
C   C3509     1.0  0.14480  0.64480  0.90480  1.0000 0.6729532129
C   C3510     1.0  0.15710  0.65710  0.91580  1.0000 -0.1087284717
C   C3511     1.0  0.18440  0.68440  0.92390  1.0000 0.0614820425
Ti  Ti403     1.0  0.17946  0.67946  0.78318  1.0000 1.9108156136
O   O3372     1.0  0.19960  0.19960  0.29330  1.0000 -1.2905169269
C   C3512     1.0  0.24340  0.24340  0.26710  1.0000 -0.2568039497
C   C3513     1.0  0.23550  0.23550  0.28140  1.0000 0.5682193007
C   C3514     1.0  0.14480  0.14480  0.40480  1.0000 0.6729532129
C   C3515     1.0  0.15710  0.15710  0.41580  1.0000 -0.1087284717
C   C3516     1.0  0.18440  0.18440  0.42390  1.0000 0.0709581455
Ti  Ti404     1.0  0.17946  0.17946  0.28318  1.0000 1.9108156136
O   O3373     1.0  0.95670  0.19960  0.05040  1.0000 -1.2905169269
C   C3517     1.0  0.98290  0.24340  0.00660  1.0000 -0.2568039497
C   C3518     1.0  0.96860  0.23550  0.01450  1.0000 0.5682193007
C   C3519     1.0  0.84520  0.14480  0.10520  1.0000 0.6729532129
C   C3520     1.0  0.83420  0.15710  0.09290  1.0000 -0.1087284717
C   C3521     1.0  0.82610  0.18440  0.06560  1.0000 0.0709581455
Co  Co105     1.0  0.05559  0.15949  0.09051  1.0000 1.9461875825
Ti  Ti405     1.0  0.05559  0.09051  0.15949  1.0000 1.1911382492
Ti  Ti406     1.0  0.96682  0.17946  0.07054  1.0000 1.9108156136
O   O3374     1.0  0.95670  0.69960  0.55040  1.0000 -1.2905169269
C   C3522     1.0  0.98290  0.74340  0.50660  1.0000 -0.2568039497
C   C3523     1.0  0.96860  0.73550  0.51450  1.0000 0.5682193007
C   C3524     1.0  0.84520  0.64480  0.60520  1.0000 0.6729532129
C   C3525     1.0  0.83420  0.65710  0.59290  1.0000 -0.1004600406
C   C3526     1.0  0.82610  0.68440  0.56560  1.0000 0.0614820425
Co  Co106     1.0  0.05559  0.65949  0.59051  1.0000 1.9421053842
Ti  Ti407     1.0  0.05559  0.59051  0.65949  1.0000 1.1911382492
Ti  Ti408     1.0  0.96682  0.67946  0.57054  1.0000 1.9108156136
O   O3375     1.0  0.45670  0.19960  0.55040  1.0000 -1.2905169269
C   C3527     1.0  0.48290  0.24340  0.50660  1.0000 -0.2568039497
C   C3528     1.0  0.46860  0.23550  0.51450  1.0000 0.5682193007
C   C3529     1.0  0.34520  0.14480  0.60520  1.0000 0.6729532129
C   C3530     1.0  0.33420  0.15710  0.59290  1.0000 -0.1087284717
C   C3531     1.0  0.32610  0.18440  0.56560  1.0000 0.0709581455
Co  Co107     1.0  0.55559  0.15949  0.59051  1.0000 1.9695231878
Ti  Ti409     1.0  0.55559  0.09051  0.65949  1.0000 1.170162172
Ti  Ti410     1.0  0.46682  0.17946  0.57054  1.0000 1.9108156136
O   O3376     1.0  0.45670  0.55040  0.19960  1.0000 -1.2905169269
C   C3532     1.0  0.48290  0.50660  0.24340  1.0000 -0.2568039497
C   C3533     1.0  0.46860  0.51450  0.23550  1.0000 0.5682193007
C   C3534     1.0  0.34520  0.60520  0.14480  1.0000 0.6729532129
C   C3535     1.0  0.33420  0.59290  0.15710  1.0000 -0.1087284717
C   C3536     1.0  0.32610  0.56560  0.18440  1.0000 0.0614820425
Co  Co108     1.0  0.55559  0.59051  0.15949  1.0000 1.978124679
Ti  Ti411     1.0  0.55559  0.65949  0.09051  1.0000 1.1911382492
Ti  Ti412     1.0  0.46682  0.57054  0.17946  1.0000 1.9108156136
O   O3377     1.0  0.45670  0.05040  0.69960  1.0000 -1.2905169269
C   C3537     1.0  0.48290  0.00660  0.74340  1.0000 -0.2568039497
C   C3538     1.0  0.46860  0.01450  0.73550  1.0000 0.5682193007
C   C3539     1.0  0.34520  0.10520  0.64480  1.0000 0.6729532129
C   C3540     1.0  0.33420  0.09290  0.65710  1.0000 -0.1087284717
C   C3541     1.0  0.32610  0.06560  0.68440  1.0000 0.0709581455
Ti  Ti413     1.0  0.46682  0.07054  0.67946  1.0000 1.9108156136
O   O3378     1.0  0.79330  0.05040  0.55040  1.0000 -1.2905169269
C   C3542     1.0  0.76710  0.00660  0.50660  1.0000 -0.2568039497
C   C3543     1.0  0.78140  0.01450  0.51450  1.0000 0.5682193007
C   C3544     1.0  0.90480  0.10520  0.60520  1.0000 0.6729532129
C   C3545     1.0  0.91580  0.09290  0.59290  1.0000 -0.1087284717
C   C3546     1.0  0.92390  0.06560  0.56560  1.0000 0.0709581455
Co  Co109     1.0  0.69441  0.09051  0.59051  1.0000 1.978124679
Ti  Ti414     1.0  0.69441  0.15949  0.65949  1.0000 1.1911382492
Ti  Ti415     1.0  0.78318  0.07054  0.57054  1.0000 1.9108156136
O   O3379     1.0  0.29330  0.05040  0.05040  1.0000 -1.2905169269
C   C3547     1.0  0.26710  0.00660  0.00660  1.0000 -0.2568039497
C   C3548     1.0  0.28140  0.01450  0.01450  1.0000 0.5682193007
C   C3549     1.0  0.40480  0.10520  0.10520  1.0000 0.6729532129
C   C3550     1.0  0.41580  0.09290  0.09290  1.0000 -0.1087284717
C   C3551     1.0  0.42390  0.06560  0.06560  1.0000 0.0709581455
Co  Co110     1.0  0.19441  0.09051  0.09051  1.0000 1.9695231878
Ti  Ti416     1.0  0.19441  0.15949  0.15949  1.0000 1.1911382492
Ti  Ti417     1.0  0.28318  0.07054  0.07054  1.0000 1.9108156136
O   O3380     1.0  0.29330  0.55040  0.55040  1.0000 -1.2905169269
C   C3552     1.0  0.26710  0.50660  0.50660  1.0000 -0.2568039497
C   C3553     1.0  0.28140  0.51450  0.51450  1.0000 0.5682193007
C   C3554     1.0  0.40480  0.60520  0.60520  1.0000 0.6729532129
C   C3555     1.0  0.41580  0.59290  0.59290  1.0000 -0.1004600406
C   C3556     1.0  0.42390  0.56560  0.56560  1.0000 0.0614820425
Co  Co111     1.0  0.19441  0.59051  0.59051  1.0000 1.9695231878
Ti  Ti418     1.0  0.19441  0.65949  0.65949  1.0000 1.1911382492
Ti  Ti419     1.0  0.28318  0.57054  0.57054  1.0000 1.9108156136
O   O3381     1.0  0.29330  0.69960  0.69960  1.0000 -1.2905169269
C   C3557     1.0  0.26710  0.74340  0.74340  1.0000 -0.2568039497
C   C3558     1.0  0.28140  0.73550  0.73550  1.0000 0.5682193007
C   C3559     1.0  0.40480  0.64480  0.64480  1.0000 0.6729532129
C   C3560     1.0  0.41580  0.65710  0.65710  1.0000 -0.1004600406
C   C3561     1.0  0.42390  0.68440  0.68440  1.0000 0.0614820425
Ti  Ti420     1.0  0.28318  0.67946  0.67946  1.0000 1.9108156136
O   O3382     1.0  0.29330  0.19960  0.19960  1.0000 -1.2905169269
C   C3562     1.0  0.26710  0.24340  0.24340  1.0000 -0.2568039497
C   C3563     1.0  0.28140  0.23550  0.23550  1.0000 0.5682193007
C   C3564     1.0  0.40480  0.14480  0.14480  1.0000 0.6729532129
C   C3565     1.0  0.41580  0.15710  0.15710  1.0000 -0.1087284717
C   C3566     1.0  0.42390  0.18440  0.18440  1.0000 0.0709581455
Ti  Ti421     1.0  0.28318  0.17946  0.17946  1.0000 1.9108156136
O   O3383     1.0  0.79330  0.69960  0.19960  1.0000 -1.2905169269
C   C3567     1.0  0.76710  0.74340  0.24340  1.0000 -0.2568039497
C   C3568     1.0  0.78140  0.73550  0.23550  1.0000 0.5682193007
C   C3569     1.0  0.90480  0.64480  0.14480  1.0000 0.6729532129
C   C3570     1.0  0.91580  0.65710  0.15710  1.0000 -0.1004600406
C   C3571     1.0  0.92390  0.68440  0.18440  1.0000 0.0614820425
Co  Co112     1.0  0.69441  0.65949  0.15949  1.0000 1.9461875825
Ti  Ti422     1.0  0.69441  0.59051  0.09051  1.0000 1.170162172
Ti  Ti423     1.0  0.78318  0.67946  0.17946  1.0000 1.9108156136
O   O3384     1.0  0.79330  0.19960  0.69960  1.0000 -1.2905169269
C   C3572     1.0  0.76710  0.24340  0.74340  1.0000 -0.2568039497
C   C3573     1.0  0.78140  0.23550  0.73550  1.0000 0.5682193007
C   C3574     1.0  0.90480  0.14480  0.64480  1.0000 0.6729532129
C   C3575     1.0  0.91580  0.15710  0.65710  1.0000 -0.1087284717
C   C3576     1.0  0.92390  0.18440  0.68440  1.0000 0.0709581455
Ti  Ti424     1.0  0.78318  0.17946  0.67946  1.0000 1.9108156136
O   O3385     1.0  0.05040  0.95670  0.19960  1.0000 -1.2905169269
C   C3577     1.0  0.00660  0.98290  0.24340  1.0000 -0.2568039497
C   C3578     1.0  0.01450  0.96860  0.23550  1.0000 0.5682193007
C   C3579     1.0  0.10520  0.84520  0.14480  1.0000 0.6729532129
C   C3580     1.0  0.09290  0.83420  0.15710  1.0000 -0.1087284717
C   C3581     1.0  0.06560  0.82610  0.18440  1.0000 0.0614820425
Co  Co113     1.0  0.09051  0.05559  0.15949  1.0000 1.9695231878
Ti  Ti425     1.0  0.15949  0.05559  0.09051  1.0000 1.1911382492
Ti  Ti426     1.0  0.07054  0.96682  0.17946  1.0000 1.9108156136
O   O3386     1.0  0.05040  0.45670  0.69960  1.0000 -1.2905169269
C   C3582     1.0  0.00660  0.48290  0.74340  1.0000 -0.2568039497
C   C3583     1.0  0.01450  0.46860  0.73550  1.0000 0.5682193007
C   C3584     1.0  0.10520  0.34520  0.64480  1.0000 0.6729532129
C   C3585     1.0  0.09290  0.33420  0.65710  1.0000 -0.1087284717
C   C3586     1.0  0.06560  0.32610  0.68440  1.0000 0.0614820425
Co  Co114     1.0  0.09051  0.55559  0.65949  1.0000 1.9695231878
Ti  Ti427     1.0  0.15949  0.55559  0.59051  1.0000 1.1911382492
Ti  Ti428     1.0  0.07054  0.46682  0.67946  1.0000 1.9108156136
O   O3387     1.0  0.55040  0.45670  0.19960  1.0000 -1.2905169269
C   C3587     1.0  0.50660  0.48290  0.24340  1.0000 -0.2568039497
C   C3588     1.0  0.51450  0.46860  0.23550  1.0000 0.5682193007
C   C3589     1.0  0.60520  0.34520  0.14480  1.0000 0.6729532129
C   C3590     1.0  0.59290  0.33420  0.15710  1.0000 -0.1087284717
C   C3591     1.0  0.56560  0.32610  0.18440  1.0000 0.0709581455
Co  Co115     1.0  0.59051  0.55559  0.15949  1.0000 1.978124679
Ti  Ti429     1.0  0.65949  0.55559  0.09051  1.0000 1.170162172
Ti  Ti430     1.0  0.57054  0.46682  0.17946  1.0000 1.9108156136
O   O3388     1.0  0.19960  0.45670  0.55040  1.0000 -1.2905169269
C   C3592     1.0  0.24340  0.48290  0.50660  1.0000 -0.2568039497
C   C3593     1.0  0.23550  0.46860  0.51450  1.0000 0.5682193007
C   C3594     1.0  0.14480  0.34520  0.60520  1.0000 0.6729532129
C   C3595     1.0  0.15710  0.33420  0.59290  1.0000 -0.1087284717
C   C3596     1.0  0.18440  0.32610  0.56560  1.0000 0.0614820425
Ti  Ti431     1.0  0.17946  0.46682  0.57054  1.0000 1.9108156136
O   O3389     1.0  0.69960  0.45670  0.05040  1.0000 -1.2905169269
C   C3597     1.0  0.74340  0.48290  0.00660  1.0000 -0.2568039497
C   C3598     1.0  0.73550  0.46860  0.01450  1.0000 0.5682193007
C   C3599     1.0  0.64480  0.34520  0.10520  1.0000 0.6729532129
C   C3600     1.0  0.65710  0.33420  0.09290  1.0000 -0.1087284717
C   C3601     1.0  0.68440  0.32610  0.06560  1.0000 0.0709581455
Ti  Ti432     1.0  0.67946  0.46682  0.07054  1.0000 1.9108156136
O   O3390     1.0  0.55040  0.79330  0.05040  1.0000 -1.2905169269
C   C3602     1.0  0.50660  0.76710  0.00660  1.0000 -0.2568039497
C   C3603     1.0  0.51450  0.78140  0.01450  1.0000 0.5682193007
C   C3604     1.0  0.60520  0.90480  0.10520  1.0000 0.6729532129
C   C3605     1.0  0.59290  0.91580  0.09290  1.0000 -0.1004600406
C   C3606     1.0  0.56560  0.92390  0.06560  1.0000 0.0614820425
Co  Co116     1.0  0.59051  0.69441  0.09051  1.0000 1.9695231878
Ti  Ti433     1.0  0.65949  0.69441  0.15949  1.0000 1.1911382492
Ti  Ti434     1.0  0.57054  0.78318  0.07054  1.0000 1.9108156136
O   O3391     1.0  0.55040  0.29330  0.55040  1.0000 -1.2905169269
C   C3607     1.0  0.50660  0.26710  0.50660  1.0000 -0.2568039497
C   C3608     1.0  0.51450  0.28140  0.51450  1.0000 0.5682193007
C   C3609     1.0  0.60520  0.40480  0.60520  1.0000 0.6729532129
C   C3610     1.0  0.59290  0.41580  0.59290  1.0000 -0.1087284717
C   C3611     1.0  0.56560  0.42390  0.56560  1.0000 0.0614820425
Co  Co117     1.0  0.59051  0.19441  0.59051  1.0000 1.9695231878
Ti  Ti435     1.0  0.65949  0.19441  0.65949  1.0000 1.1911382492
Ti  Ti436     1.0  0.57054  0.28318  0.57054  1.0000 1.9108156136
O   O3392     1.0  0.69960  0.29330  0.69960  1.0000 -1.2905169269
C   C3612     1.0  0.74340  0.26710  0.74340  1.0000 -0.2568039497
C   C3613     1.0  0.73550  0.28140  0.73550  1.0000 0.5682193007
C   C3614     1.0  0.64480  0.40480  0.64480  1.0000 0.6729532129
C   C3615     1.0  0.65710  0.41580  0.65710  1.0000 -0.1087284717
C   C3616     1.0  0.68440  0.42390  0.68440  1.0000 0.0614820425
Ti  Ti437     1.0  0.67946  0.28318  0.67946  1.0000 1.9108156136
O   O3393     1.0  0.69960  0.79330  0.19960  1.0000 -1.2905169269
C   C3617     1.0  0.74340  0.76710  0.24340  1.0000 -0.2568039497
C   C3618     1.0  0.73550  0.78140  0.23550  1.0000 0.5682193007
C   C3619     1.0  0.64480  0.90480  0.14480  1.0000 0.6729532129
C   C3620     1.0  0.65710  0.91580  0.15710  1.0000 -0.1004600406
C   C3621     1.0  0.68440  0.92390  0.18440  1.0000 0.0614820425
Ti  Ti438     1.0  0.67946  0.78318  0.17946  1.0000 1.9108156136
O   O3394     1.0  0.19960  0.29330  0.19960  1.0000 -1.2905169269
C   C3622     1.0  0.24340  0.26710  0.24340  1.0000 -0.2568039497
C   C3623     1.0  0.23550  0.28140  0.23550  1.0000 0.5682193007
C   C3624     1.0  0.14480  0.40480  0.14480  1.0000 0.6729532129
C   C3625     1.0  0.15710  0.41580  0.15710  1.0000 -0.1087284717
C   C3626     1.0  0.18440  0.42390  0.18440  1.0000 0.0614820425
Co  Co118     1.0  0.15949  0.19441  0.15949  1.0000 1.9461875825
Ti  Ti439     1.0  0.09051  0.19441  0.09051  1.0000 1.1911382492
Ti  Ti440     1.0  0.17946  0.28318  0.17946  1.0000 1.9108156136
O   O3395     1.0  0.19960  0.79330  0.69960  1.0000 -1.2905169269
C   C3627     1.0  0.24340  0.76710  0.74340  1.0000 -0.2568039497
C   C3628     1.0  0.23550  0.78140  0.73550  1.0000 0.5682193007
C   C3629     1.0  0.14480  0.90480  0.64480  1.0000 0.6729532129
C   C3630     1.0  0.15710  0.91580  0.65710  1.0000 -0.1004600406
C   C3631     1.0  0.18440  0.92390  0.68440  1.0000 0.0614820425
Co  Co119     1.0  0.15949  0.69441  0.65949  1.0000 1.9461875825
Ti  Ti441     1.0  0.09051  0.69441  0.59051  1.0000 1.1911382492
Ti  Ti442     1.0  0.17946  0.78318  0.67946  1.0000 1.9108156136
O   O3396     1.0  0.80040  0.44960  0.54330  1.0000 -1.2905169269
C   C3632     1.0  0.75660  0.49340  0.51710  1.0000 -0.2568039497
C   C3633     1.0  0.76450  0.48550  0.53140  1.0000 0.5682193007
C   C3634     1.0  0.85520  0.39480  0.65480  1.0000 0.6729532129
C   C3635     1.0  0.84290  0.40710  0.66580  1.0000 -0.1087284717
C   C3636     1.0  0.81560  0.43440  0.67390  1.0000 0.0709581455
Co  Co120     1.0  0.84051  0.40949  0.44441  1.0000 1.9461875825
Ti  Ti443     1.0  0.90949  0.34051  0.44441  1.0000 1.1911382492
Ti  Ti444     1.0  0.82054  0.42946  0.53318  1.0000 1.9108156136
O   O3397     1.0  0.30040  0.44960  0.04330  1.0000 -1.2905169269
C   C3637     1.0  0.25660  0.49340  0.01710  1.0000 -0.2568039497
C   C3638     1.0  0.26450  0.48550  0.03140  1.0000 0.5682193007
C   C3639     1.0  0.35520  0.39480  0.15480  1.0000 0.6729532129
C   C3640     1.0  0.34290  0.40710  0.16580  1.0000 -0.1087284717
C   C3641     1.0  0.31560  0.43440  0.17390  1.0000 0.0614820425
Co  Co121     1.0  0.34051  0.40949  0.94441  1.0000 1.9421053842
Ti  Ti445     1.0  0.40949  0.34051  0.94441  1.0000 1.1911382492
Ti  Ti446     1.0  0.32054  0.42946  0.03318  1.0000 1.9108156136
O   O3398     1.0  0.94960  0.80040  0.04330  1.0000 -1.2905169269
C   C3642     1.0  0.99340  0.75660  0.01710  1.0000 -0.2568039497
C   C3643     1.0  0.98550  0.76450  0.03140  1.0000 0.5682193007
C   C3644     1.0  0.89480  0.85520  0.15480  1.0000 0.6729532129
C   C3645     1.0  0.90710  0.84290  0.16580  1.0000 -0.1004600406
C   C3646     1.0  0.93440  0.81560  0.17390  1.0000 0.0614820425
Co  Co122     1.0  0.90949  0.84051  0.94441  1.0000 1.9695231878
Ti  Ti447     1.0  0.84051  0.90949  0.94441  1.0000 1.1911382492
Ti  Ti448     1.0  0.92946  0.82054  0.03318  1.0000 1.9108156136
O   O3399     1.0  0.94960  0.30040  0.54330  1.0000 -1.2905169269
C   C3647     1.0  0.99340  0.25660  0.51710  1.0000 -0.2568039497
C   C3648     1.0  0.98550  0.26450  0.53140  1.0000 0.5682193007
C   C3649     1.0  0.89480  0.35520  0.65480  1.0000 0.6729532129
C   C3650     1.0  0.90710  0.34290  0.66580  1.0000 -0.1087284717
C   C3651     1.0  0.93440  0.31560  0.67390  1.0000 0.0709581455
Ti  Ti449     1.0  0.92946  0.32054  0.53318  1.0000 1.9108156136
O   O3400     1.0  0.30040  0.30040  0.70670  1.0000 -1.2905169269
C   C3652     1.0  0.25660  0.25660  0.73290  1.0000 -0.2568039497
C   C3653     1.0  0.26450  0.26450  0.71860  1.0000 0.5682193007
C   C3654     1.0  0.35520  0.35520  0.59520  1.0000 0.6729532129
C   C3655     1.0  0.34290  0.34290  0.58420  1.0000 -0.1087284717
C   C3656     1.0  0.31560  0.31560  0.57610  1.0000 0.0614820425
Co  Co123     1.0  0.34051  0.34051  0.80559  1.0000 1.978124679
Ti  Ti450     1.0  0.40949  0.40949  0.80559  1.0000 1.1911382492
Ti  Ti451     1.0  0.32054  0.32054  0.71682  1.0000 1.9108156136
O   O3401     1.0  0.30040  0.80040  0.20670  1.0000 -1.2905169269
C   C3657     1.0  0.25660  0.75660  0.23290  1.0000 -0.2568039497
C   C3658     1.0  0.26450  0.76450  0.21860  1.0000 0.5682193007
C   C3659     1.0  0.35520  0.85520  0.09520  1.0000 0.6729532129
C   C3660     1.0  0.34290  0.84290  0.08420  1.0000 -0.1004600406
C   C3661     1.0  0.31560  0.81560  0.07610  1.0000 0.0614820425
Co  Co124     1.0  0.34051  0.84051  0.30559  1.0000 1.978124679
Ti  Ti452     1.0  0.40949  0.90949  0.30559  1.0000 1.170162172
Ti  Ti453     1.0  0.32054  0.82054  0.21682  1.0000 1.9108156136
O   O3402     1.0  0.80040  0.30040  0.20670  1.0000 -1.2905169269
C   C3662     1.0  0.75660  0.25660  0.23290  1.0000 -0.2568039497
C   C3663     1.0  0.76450  0.26450  0.21860  1.0000 0.5682193007
C   C3664     1.0  0.85520  0.35520  0.09520  1.0000 0.6729532129
C   C3665     1.0  0.84290  0.34290  0.08420  1.0000 -0.1087284717
C   C3666     1.0  0.81560  0.31560  0.07610  1.0000 0.0709581455
Co  Co125     1.0  0.84051  0.34051  0.30559  1.0000 1.9695231878
Ti  Ti454     1.0  0.90949  0.40949  0.30559  1.0000 1.1911382492
Ti  Ti455     1.0  0.82054  0.32054  0.21682  1.0000 1.9108156136
O   O3403     1.0  0.80040  0.80040  0.70670  1.0000 -1.2905169269
C   C3667     1.0  0.75660  0.75660  0.73290  1.0000 -0.2568039497
C   C3668     1.0  0.76450  0.76450  0.71860  1.0000 0.5682193007
C   C3669     1.0  0.85520  0.85520  0.59520  1.0000 0.6729532129
C   C3670     1.0  0.84290  0.84290  0.58420  1.0000 -0.1004600406
C   C3671     1.0  0.81560  0.81560  0.57610  1.0000 0.0614820425
Co  Co126     1.0  0.84051  0.84051  0.80559  1.0000 1.9695231878
Ti  Ti456     1.0  0.90949  0.90949  0.80559  1.0000 1.1911382492
Ti  Ti457     1.0  0.82054  0.82054  0.71682  1.0000 1.9108156136
O   O3404     1.0  0.44960  0.94960  0.20670  1.0000 -1.2905169269
C   C3672     1.0  0.49340  0.99340  0.23290  1.0000 -0.2568039497
C   C3673     1.0  0.48550  0.98550  0.21860  1.0000 0.5682193007
C   C3674     1.0  0.39480  0.89480  0.09520  1.0000 0.6729532129
C   C3675     1.0  0.40710  0.90710  0.08420  1.0000 -0.1004600406
C   C3676     1.0  0.43440  0.93440  0.07610  1.0000 0.0614820425
Ti  Ti458     1.0  0.42946  0.92946  0.21682  1.0000 1.9108156136
O   O3405     1.0  0.44960  0.44960  0.70670  1.0000 -1.2905169269
C   C3677     1.0  0.49340  0.49340  0.73290  1.0000 -0.2568039497
C   C3678     1.0  0.48550  0.48550  0.71860  1.0000 0.5682193007
C   C3679     1.0  0.39480  0.39480  0.59520  1.0000 0.6729532129
C   C3680     1.0  0.40710  0.40710  0.58420  1.0000 -0.1087284717
C   C3681     1.0  0.43440  0.43440  0.57610  1.0000 0.0614820425
Ti  Ti459     1.0  0.42946  0.42946  0.71682  1.0000 1.9108156136
O   O3406     1.0  0.94960  0.94960  0.70670  1.0000 -1.2905169269
C   C3682     1.0  0.99340  0.99340  0.73290  1.0000 -0.2568039497
C   C3683     1.0  0.98550  0.98550  0.71860  1.0000 0.5682193007
C   C3684     1.0  0.89480  0.89480  0.59520  1.0000 0.6729532129
C   C3685     1.0  0.90710  0.90710  0.58420  1.0000 -0.1004600406
C   C3686     1.0  0.93440  0.93440  0.57610  1.0000 0.0614820425
Ti  Ti460     1.0  0.92946  0.92946  0.71682  1.0000 1.9108156136
O   O3407     1.0  0.94960  0.20670  0.44960  1.0000 -1.2905169269
C   C3687     1.0  0.99340  0.23290  0.49340  1.0000 -0.2568039497
C   C3688     1.0  0.98550  0.21860  0.48550  1.0000 0.5682193007
C   C3689     1.0  0.89480  0.09520  0.39480  1.0000 0.6729532129
C   C3690     1.0  0.90710  0.08420  0.40710  1.0000 -0.1087284717
C   C3691     1.0  0.93440  0.07610  0.43440  1.0000 0.0709581455
Co  Co127     1.0  0.90949  0.30559  0.40949  1.0000 1.9461875825
Ti  Ti461     1.0  0.84051  0.30559  0.34051  1.0000 1.1911382492
Ti  Ti462     1.0  0.92946  0.21682  0.42946  1.0000 1.9108156136
O   O3408     1.0  0.94960  0.70670  0.94960  1.0000 -1.2905169269
C   C3692     1.0  0.99340  0.73290  0.99340  1.0000 -0.2568039497
C   C3693     1.0  0.98550  0.71860  0.98550  1.0000 0.5682193007
C   C3694     1.0  0.89480  0.59520  0.89480  1.0000 0.6729532129
C   C3695     1.0  0.90710  0.58420  0.90710  1.0000 -0.1004600406
C   C3696     1.0  0.93440  0.57610  0.93440  1.0000 0.0614820425
Co  Co128     1.0  0.90949  0.80559  0.90949  1.0000 1.9695231878
Ti  Ti463     1.0  0.84051  0.80559  0.84051  1.0000 1.1911382492
Ti  Ti464     1.0  0.92946  0.71682  0.92946  1.0000 1.9108156136
O   O3409     1.0  0.30040  0.70670  0.30040  1.0000 -1.2905169269
C   C3697     1.0  0.25660  0.73290  0.25660  1.0000 -0.2568039497
C   C3698     1.0  0.26450  0.71860  0.26450  1.0000 0.5682193007
C   C3699     1.0  0.35520  0.59520  0.35520  1.0000 0.6729532129
C   C3700     1.0  0.34290  0.58420  0.34290  1.0000 -0.1087284717
C   C3701     1.0  0.31560  0.57610  0.31560  1.0000 0.0614820425
Co  Co129     1.0  0.34051  0.80559  0.34051  1.0000 1.978124679
Ti  Ti465     1.0  0.40949  0.80559  0.40949  1.0000 1.1911382492
Ti  Ti466     1.0  0.32054  0.71682  0.32054  1.0000 1.9108156136
O   O3410     1.0  0.30040  0.20670  0.80040  1.0000 -1.2905169269
C   C3702     1.0  0.25660  0.23290  0.75660  1.0000 -0.2568039497
C   C3703     1.0  0.26450  0.21860  0.76450  1.0000 0.5682193007
C   C3704     1.0  0.35520  0.09520  0.85520  1.0000 0.6729532129
C   C3705     1.0  0.34290  0.08420  0.84290  1.0000 -0.1087284717
C   C3706     1.0  0.31560  0.07610  0.81560  1.0000 0.0709581455
Co  Co130     1.0  0.34051  0.30559  0.84051  1.0000 1.978124679
Ti  Ti467     1.0  0.40949  0.30559  0.90949  1.0000 1.1911382492
Ti  Ti468     1.0  0.32054  0.21682  0.82054  1.0000 1.9108156136
O   O3411     1.0  0.80040  0.70670  0.80040  1.0000 -1.2905169269
C   C3707     1.0  0.75660  0.73290  0.75660  1.0000 -0.2568039497
C   C3708     1.0  0.76450  0.71860  0.76450  1.0000 0.5682193007
C   C3709     1.0  0.85520  0.59520  0.85520  1.0000 0.6729532129
C   C3710     1.0  0.84290  0.58420  0.84290  1.0000 -0.1004600406
C   C3711     1.0  0.81560  0.57610  0.81560  1.0000 0.0614820425
Ti  Ti469     1.0  0.82054  0.71682  0.82054  1.0000 1.9108156136
O   O3412     1.0  0.80040  0.20670  0.30040  1.0000 -1.2905169269
C   C3712     1.0  0.75660  0.23290  0.25660  1.0000 -0.2568039497
C   C3713     1.0  0.76450  0.21860  0.26450  1.0000 0.5682193007
C   C3714     1.0  0.85520  0.09520  0.35520  1.0000 0.6729532129
C   C3715     1.0  0.84290  0.08420  0.34290  1.0000 -0.1087284717
C   C3716     1.0  0.81560  0.07610  0.31560  1.0000 0.0709581455
Ti  Ti470     1.0  0.82054  0.21682  0.32054  1.0000 1.9108156136
O   O3413     1.0  0.80040  0.04330  0.94960  1.0000 -1.2905169269
C   C3717     1.0  0.75660  0.01710  0.99340  1.0000 -0.2568039497
C   C3718     1.0  0.76450  0.03140  0.98550  1.0000 0.5682193007
C   C3719     1.0  0.85520  0.15480  0.89480  1.0000 0.6729532129
C   C3720     1.0  0.84290  0.16580  0.90710  1.0000 -0.1087284717
C   C3721     1.0  0.81560  0.17390  0.93440  1.0000 0.0709581455
Co  Co131     1.0  0.84051  0.94441  0.90949  1.0000 1.9461875825
Ti  Ti471     1.0  0.90949  0.94441  0.84051  1.0000 1.1911382492
Ti  Ti472     1.0  0.82054  0.03318  0.92946  1.0000 1.9108156136
O   O3414     1.0  0.30040  0.04330  0.44960  1.0000 -1.2905169269
C   C3722     1.0  0.25660  0.01710  0.49340  1.0000 -0.2568039497
C   C3723     1.0  0.26450  0.03140  0.48550  1.0000 0.5682193007
C   C3724     1.0  0.35520  0.15480  0.39480  1.0000 0.6729532129
C   C3725     1.0  0.34290  0.16580  0.40710  1.0000 -0.1087284717
C   C3726     1.0  0.31560  0.17390  0.43440  1.0000 0.0709581455
Co  Co132     1.0  0.34051  0.94441  0.40949  1.0000 1.9695231878
Ti  Ti473     1.0  0.40949  0.94441  0.34051  1.0000 1.170162172
Ti  Ti474     1.0  0.32054  0.03318  0.42946  1.0000 1.9108156136
O   O3415     1.0  0.44960  0.54330  0.80040  1.0000 -1.2905169269
C   C3727     1.0  0.49340  0.51710  0.75660  1.0000 -0.2568039497
C   C3728     1.0  0.48550  0.53140  0.76450  1.0000 0.5682193007
C   C3729     1.0  0.39480  0.65480  0.85520  1.0000 0.6729532129
C   C3730     1.0  0.40710  0.66580  0.84290  1.0000 -0.1004600406
C   C3731     1.0  0.43440  0.67390  0.81560  1.0000 0.0614820425
Co  Co133     1.0  0.40949  0.44441  0.84051  1.0000 1.9421053842
Ti  Ti475     1.0  0.34051  0.44441  0.90949  1.0000 1.1911382492
Ti  Ti476     1.0  0.42946  0.53318  0.82054  1.0000 1.9108156136
O   O3416     1.0  0.44960  0.04330  0.30040  1.0000 -1.2905169269
C   C3732     1.0  0.49340  0.01710  0.25660  1.0000 -0.2568039497
C   C3733     1.0  0.48550  0.03140  0.26450  1.0000 0.5682193007
C   C3734     1.0  0.39480  0.15480  0.35520  1.0000 0.6729532129
C   C3735     1.0  0.40710  0.16580  0.34290  1.0000 -0.1087284717
C   C3736     1.0  0.43440  0.17390  0.31560  1.0000 0.0709581455
Ti  Ti477     1.0  0.42946  0.03318  0.32054  1.0000 1.9108156136
O   O3417     1.0  0.70670  0.30040  0.30040  1.0000 -1.2905169269
C   C3737     1.0  0.73290  0.25660  0.25660  1.0000 -0.2568039497
C   C3738     1.0  0.71860  0.26450  0.26450  1.0000 0.5682193007
C   C3739     1.0  0.59520  0.35520  0.35520  1.0000 0.6729532129
C   C3740     1.0  0.58420  0.34290  0.34290  1.0000 -0.1087284717
C   C3741     1.0  0.57610  0.31560  0.31560  1.0000 0.0709581455
Co  Co134     1.0  0.80559  0.34051  0.34051  1.0000 1.9695231878
Ti  Ti478     1.0  0.80559  0.40949  0.40949  1.0000 1.1911382492
Ti  Ti479     1.0  0.71682  0.32054  0.32054  1.0000 1.9108156136
O   O3418     1.0  0.70670  0.80040  0.80040  1.0000 -1.2905169269
C   C3742     1.0  0.73290  0.75660  0.75660  1.0000 -0.2568039497
C   C3743     1.0  0.71860  0.76450  0.76450  1.0000 0.5682193007
C   C3744     1.0  0.59520  0.85520  0.85520  1.0000 0.6729532129
C   C3745     1.0  0.58420  0.84290  0.84290  1.0000 -0.1004600406
C   C3746     1.0  0.57610  0.81560  0.81560  1.0000 0.0614820425
Co  Co135     1.0  0.80559  0.84051  0.84051  1.0000 1.9695231878
Ti  Ti480     1.0  0.80559  0.90949  0.90949  1.0000 1.1911382492
Ti  Ti481     1.0  0.71682  0.82054  0.82054  1.0000 1.9108156136
O   O3419     1.0  0.20670  0.30040  0.80040  1.0000 -1.2905169269
C   C3747     1.0  0.23290  0.25660  0.75660  1.0000 -0.2568039497
C   C3748     1.0  0.21860  0.26450  0.76450  1.0000 0.5682193007
C   C3749     1.0  0.09520  0.35520  0.85520  1.0000 0.6729532129
C   C3750     1.0  0.08420  0.34290  0.84290  1.0000 -0.1087284717
C   C3751     1.0  0.07610  0.31560  0.81560  1.0000 0.0614820425
Co  Co136     1.0  0.30559  0.34051  0.84051  1.0000 1.978124679
Ti  Ti482     1.0  0.30559  0.40949  0.90949  1.0000 1.1911382492
Ti  Ti483     1.0  0.21682  0.32054  0.82054  1.0000 1.9108156136
O   O3420     1.0  0.20670  0.80040  0.30040  1.0000 -1.2905169269
C   C3752     1.0  0.23290  0.75660  0.25660  1.0000 -0.2568039497
C   C3753     1.0  0.21860  0.76450  0.26450  1.0000 0.5682193007
C   C3754     1.0  0.09520  0.85520  0.35520  1.0000 0.6729532129
C   C3755     1.0  0.08420  0.84290  0.34290  1.0000 -0.1087284717
C   C3756     1.0  0.07610  0.81560  0.31560  1.0000 0.0614820425
Co  Co137     1.0  0.30559  0.84051  0.34051  1.0000 1.978124679
Ti  Ti484     1.0  0.30559  0.90949  0.40949  1.0000 1.1911382492
Ti  Ti485     1.0  0.21682  0.82054  0.32054  1.0000 1.9108156136
O   O3421     1.0  0.20670  0.44960  0.94960  1.0000 -1.2905169269
C   C3757     1.0  0.23290  0.49340  0.99340  1.0000 -0.2568039497
C   C3758     1.0  0.21860  0.48550  0.98550  1.0000 0.5682193007
C   C3759     1.0  0.09520  0.39480  0.89480  1.0000 0.6729532129
C   C3760     1.0  0.08420  0.40710  0.90710  1.0000 -0.1087284717
C   C3761     1.0  0.07610  0.43440  0.93440  1.0000 0.0614820425
Ti  Ti486     1.0  0.21682  0.42946  0.92946  1.0000 1.9108156136
O   O3422     1.0  0.70670  0.44960  0.44960  1.0000 -1.2905169269
C   C3762     1.0  0.73290  0.49340  0.49340  1.0000 -0.2568039497
C   C3763     1.0  0.71860  0.48550  0.48550  1.0000 0.5682193007
C   C3764     1.0  0.59520  0.39480  0.39480  1.0000 0.6729532129
C   C3765     1.0  0.58420  0.40710  0.40710  1.0000 -0.1087284717
C   C3766     1.0  0.57610  0.43440  0.43440  1.0000 0.0709581455
Ti  Ti487     1.0  0.71682  0.42946  0.42946  1.0000 1.9108156136
O   O3423     1.0  0.70670  0.94960  0.94960  1.0000 -1.2905169269
C   C3767     1.0  0.73290  0.99340  0.99340  1.0000 -0.2568039497
C   C3768     1.0  0.71860  0.98550  0.98550  1.0000 0.5682193007
C   C3769     1.0  0.59520  0.89480  0.89480  1.0000 0.6729532129
C   C3770     1.0  0.58420  0.90710  0.90710  1.0000 -0.1004600406
C   C3771     1.0  0.57610  0.93440  0.93440  1.0000 0.0614820425
Ti  Ti488     1.0  0.71682  0.92946  0.92946  1.0000 1.9108156136
O   O3424     1.0  0.54330  0.80040  0.44960  1.0000 -1.2905169269
C   C3772     1.0  0.51710  0.75660  0.49340  1.0000 -0.2568039497
C   C3773     1.0  0.53140  0.76450  0.48550  1.0000 0.5682193007
C   C3774     1.0  0.65480  0.85520  0.39480  1.0000 0.6729532129
C   C3775     1.0  0.66580  0.84290  0.40710  1.0000 -0.1004600406
C   C3776     1.0  0.67390  0.81560  0.43440  1.0000 0.0614820425
Co  Co138     1.0  0.44441  0.84051  0.40949  1.0000 1.9461875825
Ti  Ti489     1.0  0.44441  0.90949  0.34051  1.0000 1.170162172
Ti  Ti490     1.0  0.53318  0.82054  0.42946  1.0000 1.9108156136
O   O3425     1.0  0.54330  0.30040  0.94960  1.0000 -1.2905169269
C   C3777     1.0  0.51710  0.25660  0.99340  1.0000 -0.2568039497
C   C3778     1.0  0.53140  0.26450  0.98550  1.0000 0.5682193007
C   C3779     1.0  0.65480  0.35520  0.89480  1.0000 0.6729532129
C   C3780     1.0  0.66580  0.34290  0.90710  1.0000 -0.1087284717
C   C3781     1.0  0.67390  0.31560  0.93440  1.0000 0.0709581455
Co  Co139     1.0  0.44441  0.34051  0.90949  1.0000 1.9421053842
Ti  Ti491     1.0  0.44441  0.40949  0.84051  1.0000 1.1911382492
Ti  Ti492     1.0  0.53318  0.32054  0.92946  1.0000 1.9108156136
O   O3426     1.0  0.04330  0.94960  0.80040  1.0000 -1.2905169269
C   C3782     1.0  0.01710  0.99340  0.75660  1.0000 -0.2568039497
C   C3783     1.0  0.03140  0.98550  0.76450  1.0000 0.5682193007
C   C3784     1.0  0.15480  0.89480  0.85520  1.0000 0.6729532129
C   C3785     1.0  0.16580  0.90710  0.84290  1.0000 -0.1004600406
C   C3786     1.0  0.17390  0.93440  0.81560  1.0000 0.0614820425
Co  Co140     1.0  0.94441  0.90949  0.84051  1.0000 1.9461875825
Ti  Ti493     1.0  0.94441  0.84051  0.90949  1.0000 1.1911382492
Ti  Ti494     1.0  0.03318  0.92946  0.82054  1.0000 1.9108156136
O   O3427     1.0  0.04330  0.44960  0.30040  1.0000 -1.2905169269
C   C3787     1.0  0.01710  0.49340  0.25660  1.0000 -0.2568039497
C   C3788     1.0  0.03140  0.48550  0.26450  1.0000 0.5682193007
C   C3789     1.0  0.15480  0.39480  0.35520  1.0000 0.6729532129
C   C3790     1.0  0.16580  0.40710  0.34290  1.0000 -0.1087284717
C   C3791     1.0  0.17390  0.43440  0.31560  1.0000 0.0614820425
Co  Co141     1.0  0.94441  0.40949  0.34051  1.0000 1.9695231878
Ti  Ti495     1.0  0.94441  0.34051  0.40949  1.0000 1.1911382492
Ti  Ti496     1.0  0.03318  0.42946  0.32054  1.0000 1.9108156136
O   O3428     1.0  0.80040  0.94960  0.04330  1.0000 -1.2905169269
C   C3792     1.0  0.75660  0.99340  0.01710  1.0000 -0.2568039497
C   C3793     1.0  0.76450  0.98550  0.03140  1.0000 0.5682193007
C   C3794     1.0  0.85520  0.89480  0.15480  1.0000 0.6729532129
C   C3795     1.0  0.84290  0.90710  0.16580  1.0000 -0.1004600406
C   C3796     1.0  0.81560  0.93440  0.17390  1.0000 0.0614820425
Ti  Ti497     1.0  0.82054  0.92946  0.03318  1.0000 1.9108156136
O   O3429     1.0  0.30040  0.94960  0.54330  1.0000 -1.2905169269
C   C3797     1.0  0.25660  0.99340  0.51710  1.0000 -0.2568039497
C   C3798     1.0  0.26450  0.98550  0.53140  1.0000 0.5682193007
C   C3799     1.0  0.35520  0.89480  0.65480  1.0000 0.6729532129
C   C3800     1.0  0.34290  0.90710  0.66580  1.0000 -0.1004600406
C   C3801     1.0  0.31560  0.93440  0.67390  1.0000 0.0614820425
Co  Co142     1.0  0.34051  0.90949  0.44441  1.0000 1.9695231878
Ti  Ti498     1.0  0.40949  0.84051  0.44441  1.0000 1.1911382492
Ti  Ti499     1.0  0.32054  0.92946  0.53318  1.0000 1.9108156136
O   O3430     1.0  0.44960  0.80040  0.54330  1.0000 -1.2905169269
C   C3802     1.0  0.49340  0.75660  0.51710  1.0000 -0.2568039497
C   C3803     1.0  0.48550  0.76450  0.53140  1.0000 0.5682193007
C   C3804     1.0  0.39480  0.85520  0.65480  1.0000 0.6729532129
C   C3805     1.0  0.40710  0.84290  0.66580  1.0000 -0.1004600406
C   C3806     1.0  0.43440  0.81560  0.67390  1.0000 0.0614820425
Ti  Ti500     1.0  0.42946  0.82054  0.53318  1.0000 1.9108156136
O   O3431     1.0  0.44960  0.30040  0.04330  1.0000 -1.2905169269
C   C3807     1.0  0.49340  0.25660  0.01710  1.0000 -0.2568039497
C   C3808     1.0  0.48550  0.26450  0.03140  1.0000 0.5682193007
C   C3809     1.0  0.39480  0.35520  0.15480  1.0000 0.6729532129
C   C3810     1.0  0.40710  0.34290  0.16580  1.0000 -0.1087284717
C   C3811     1.0  0.43440  0.31560  0.17390  1.0000 0.0709581455
Ti  Ti501     1.0  0.42946  0.32054  0.03318  1.0000 1.9108156136
O   O3432     1.0  0.94960  0.44960  0.20670  1.0000 -1.2905169269
C   C3812     1.0  0.99340  0.49340  0.23290  1.0000 -0.2568039497
C   C3813     1.0  0.98550  0.48550  0.21860  1.0000 0.5682193007
C   C3814     1.0  0.89480  0.39480  0.09520  1.0000 0.6729532129
C   C3815     1.0  0.90710  0.40710  0.08420  1.0000 -0.1087284717
C   C3816     1.0  0.93440  0.43440  0.07610  1.0000 0.0709581455
Ti  Ti502     1.0  0.92946  0.42946  0.21682  1.0000 1.9108156136
O   O3433     1.0  0.04330  0.80040  0.94960  1.0000 -1.2905169269
C   C3817     1.0  0.01710  0.75660  0.99340  1.0000 -0.2568039497
C   C3818     1.0  0.03140  0.76450  0.98550  1.0000 0.5682193007
C   C3819     1.0  0.15480  0.85520  0.89480  1.0000 0.6729532129
C   C3820     1.0  0.16580  0.84290  0.90710  1.0000 -0.1004600406
C   C3821     1.0  0.17390  0.81560  0.93440  1.0000 0.0614820425
Ti  Ti503     1.0  0.03318  0.82054  0.92946  1.0000 1.9108156136
O   O3434     1.0  0.04330  0.30040  0.44960  1.0000 -1.2905169269
C   C3822     1.0  0.01710  0.25660  0.49340  1.0000 -0.2568039497
C   C3823     1.0  0.03140  0.26450  0.48550  1.0000 0.5682193007
C   C3824     1.0  0.15480  0.35520  0.39480  1.0000 0.6729532129
C   C3825     1.0  0.16580  0.34290  0.40710  1.0000 -0.1087284717
C   C3826     1.0  0.17390  0.31560  0.43440  1.0000 0.0614820425
Ti  Ti504     1.0  0.03318  0.32054  0.42946  1.0000 1.9108156136
O   O3435     1.0  0.54330  0.44960  0.80040  1.0000 -1.2905169269
C   C3827     1.0  0.51710  0.49340  0.75660  1.0000 -0.2568039497
C   C3828     1.0  0.53140  0.48550  0.76450  1.0000 0.5682193007
C   C3829     1.0  0.65480  0.39480  0.85520  1.0000 0.6729532129
C   C3830     1.0  0.66580  0.40710  0.84290  1.0000 -0.1087284717
C   C3831     1.0  0.67390  0.43440  0.81560  1.0000 0.0709581455
Ti  Ti505     1.0  0.53318  0.42946  0.82054  1.0000 1.9108156136
O   O3436     1.0  0.54330  0.94960  0.30040  1.0000 -1.2905169269
C   C3832     1.0  0.51710  0.99340  0.25660  1.0000 -0.2568039497
C   C3833     1.0  0.53140  0.98550  0.26450  1.0000 0.5682193007
C   C3834     1.0  0.65480  0.89480  0.35520  1.0000 0.6729532129
C   C3835     1.0  0.66580  0.90710  0.34290  1.0000 -0.1004600406
C   C3836     1.0  0.67390  0.93440  0.31560  1.0000 0.0614820425
Ti  Ti506     1.0  0.53318  0.92946  0.32054  1.0000 1.9108156136
O   O3437     1.0  0.20670  0.94960  0.44960  1.0000 -1.2905169269
C   C3837     1.0  0.23290  0.99340  0.49340  1.0000 -0.2568039497
C   C3838     1.0  0.21860  0.98550  0.48550  1.0000 0.5682193007
C   C3839     1.0  0.09520  0.89480  0.39480  1.0000 0.6729532129
C   C3840     1.0  0.08420  0.90710  0.40710  1.0000 -0.1004600406
C   C3841     1.0  0.07610  0.93440  0.43440  1.0000 0.0614820425
Ti  Ti507     1.0  0.21682  0.92946  0.42946  1.0000 1.9108156136
O   O3438     1.0  0.94960  0.04330  0.80040  1.0000 -1.2905169269
C   C3842     1.0  0.99340  0.01710  0.75660  1.0000 -0.2568039497
C   C3843     1.0  0.98550  0.03140  0.76450  1.0000 0.5682193007
C   C3844     1.0  0.89480  0.15480  0.85520  1.0000 0.6729532129
C   C3845     1.0  0.90710  0.16580  0.84290  1.0000 -0.1087284717
C   C3846     1.0  0.93440  0.17390  0.81560  1.0000 0.0709581455
Ti  Ti508     1.0  0.92946  0.03318  0.82054  1.0000 1.9108156136
O   O3439     1.0  0.94960  0.54330  0.30040  1.0000 -1.2905169269
C   C3847     1.0  0.99340  0.51710  0.25660  1.0000 -0.2568039497
C   C3848     1.0  0.98550  0.53140  0.26450  1.0000 0.5682193007
C   C3849     1.0  0.89480  0.65480  0.35520  1.0000 0.6729532129
C   C3850     1.0  0.90710  0.66580  0.34290  1.0000 -0.1004600406
C   C3851     1.0  0.93440  0.67390  0.31560  1.0000 0.0614820425
Co  Co143     1.0  0.90949  0.44441  0.34051  1.0000 1.9695231878
Ti  Ti509     1.0  0.84051  0.44441  0.40949  1.0000 1.1911382492
Ti  Ti510     1.0  0.92946  0.53318  0.32054  1.0000 1.9108156136
O   O3440     1.0  0.80040  0.54330  0.44960  1.0000 -1.2905169269
C   C3852     1.0  0.75660  0.51710  0.49340  1.0000 -0.2568039497
C   C3853     1.0  0.76450  0.53140  0.48550  1.0000 0.5682193007
C   C3854     1.0  0.85520  0.65480  0.39480  1.0000 0.6729532129
C   C3855     1.0  0.84290  0.66580  0.40710  1.0000 -0.1004600406
C   C3856     1.0  0.81560  0.67390  0.43440  1.0000 0.0614820425
Ti  Ti511     1.0  0.82054  0.53318  0.42946  1.0000 1.9108156136
O   O3441     1.0  0.30040  0.54330  0.94960  1.0000 -1.2905169269
C   C3857     1.0  0.25660  0.51710  0.99340  1.0000 -0.2568039497
C   C3858     1.0  0.26450  0.53140  0.98550  1.0000 0.5682193007
C   C3859     1.0  0.35520  0.65480  0.89480  1.0000 0.6729532129
C   C3860     1.0  0.34290  0.66580  0.90710  1.0000 -0.1004600406
C   C3861     1.0  0.31560  0.67390  0.93440  1.0000 0.0614820425
Ti  Ti512     1.0  0.32054  0.53318  0.92946  1.0000 1.9108156136
O   O3442     1.0  0.44960  0.20670  0.94960  1.0000 -1.2905169269
C   C3862     1.0  0.49340  0.23290  0.99340  1.0000 -0.2568039497
C   C3863     1.0  0.48550  0.21860  0.98550  1.0000 0.5682193007
C   C3864     1.0  0.39480  0.09520  0.89480  1.0000 0.6729532129
C   C3865     1.0  0.40710  0.08420  0.90710  1.0000 -0.1087284717
C   C3866     1.0  0.43440  0.07610  0.93440  1.0000 0.0709581455
Ti  Ti513     1.0  0.42946  0.21682  0.92946  1.0000 1.9108156136
O   O3443     1.0  0.44960  0.70670  0.44960  1.0000 -1.2905169269
C   C3867     1.0  0.49340  0.73290  0.49340  1.0000 -0.2568039497
C   C3868     1.0  0.48550  0.71860  0.48550  1.0000 0.5682193007
C   C3869     1.0  0.39480  0.59520  0.39480  1.0000 0.6729532129
C   C3870     1.0  0.40710  0.58420  0.40710  1.0000 -0.1087284717
C   C3871     1.0  0.43440  0.57610  0.43440  1.0000 0.0614820425
Ti  Ti514     1.0  0.42946  0.71682  0.42946  1.0000 1.9108156136
O   O3444     1.0  0.69960  0.55040  0.95670  1.0000 -1.2905169269
C   C3872     1.0  0.74340  0.50660  0.98290  1.0000 -0.2568039497
C   C3873     1.0  0.73550  0.51450  0.96860  1.0000 0.5682193007
C   C3874     1.0  0.64480  0.60520  0.84520  1.0000 0.6729532129
C   C3875     1.0  0.65710  0.59290  0.83420  1.0000 -0.1004600406
C   C3876     1.0  0.68440  0.56560  0.82610  1.0000 0.0614820425
Ti  Ti515     1.0  0.67946  0.57054  0.96682  1.0000 1.9108156136
O   O3445     1.0  0.05040  0.19960  0.95670  1.0000 -1.2905169269
C   C3877     1.0  0.00660  0.24340  0.98290  1.0000 -0.2568039497
C   C3878     1.0  0.01450  0.23550  0.96860  1.0000 0.5682193007
C   C3879     1.0  0.10520  0.14480  0.84520  1.0000 0.6729532129
C   C3880     1.0  0.09290  0.15710  0.83420  1.0000 -0.1087284717
C   C3881     1.0  0.06560  0.18440  0.82610  1.0000 0.0709581455
Ti  Ti516     1.0  0.07054  0.17946  0.96682  1.0000 1.9108156136
O   O3446     1.0  0.05040  0.69960  0.45670  1.0000 -1.2905169269
C   C3882     1.0  0.00660  0.74340  0.48290  1.0000 -0.2568039497
C   C3883     1.0  0.01450  0.73550  0.46860  1.0000 0.5682193007
C   C3884     1.0  0.10520  0.64480  0.34520  1.0000 0.6729532129
C   C3885     1.0  0.09290  0.65710  0.33420  1.0000 -0.1087284717
C   C3886     1.0  0.06560  0.68440  0.32610  1.0000 0.0614820425
Ti  Ti517     1.0  0.07054  0.67946  0.46682  1.0000 1.9108156136
O   O3447     1.0  0.55040  0.05040  0.79330  1.0000 -1.2905169269
C   C3887     1.0  0.50660  0.00660  0.76710  1.0000 -0.2568039497
C   C3888     1.0  0.51450  0.01450  0.78140  1.0000 0.5682193007
C   C3889     1.0  0.60520  0.10520  0.90480  1.0000 0.6729532129
C   C3890     1.0  0.59290  0.09290  0.91580  1.0000 -0.1087284717
C   C3891     1.0  0.56560  0.06560  0.92390  1.0000 0.0709581455
Ti  Ti518     1.0  0.57054  0.07054  0.78318  1.0000 1.9108156136
O   O3448     1.0  0.05040  0.79330  0.55040  1.0000 -1.2905169269
C   C3892     1.0  0.00660  0.76710  0.50660  1.0000 -0.2568039497
C   C3893     1.0  0.01450  0.78140  0.51450  1.0000 0.5682193007
C   C3894     1.0  0.10520  0.90480  0.60520  1.0000 0.6729532129
C   C3895     1.0  0.09290  0.91580  0.59290  1.0000 -0.1004600406
C   C3896     1.0  0.06560  0.92390  0.56560  1.0000 0.0614820425
Ti  Ti519     1.0  0.07054  0.78318  0.57054  1.0000 1.9108156136
O   O3449     1.0  0.05040  0.29330  0.05040  1.0000 -1.2905169269
C   C3897     1.0  0.00660  0.26710  0.00660  1.0000 -0.2568039497
C   C3898     1.0  0.01450  0.28140  0.01450  1.0000 0.5682193007
C   C3899     1.0  0.10520  0.40480  0.10520  1.0000 0.6729532129
C   C3900     1.0  0.09290  0.41580  0.09290  1.0000 -0.1087284717
C   C3901     1.0  0.06560  0.42390  0.06560  1.0000 0.0614820425
Ti  Ti520     1.0  0.07054  0.28318  0.07054  1.0000 1.9108156136
O   O3450     1.0  0.19960  0.95670  0.05040  1.0000 -1.2905169269
C   C3902     1.0  0.24340  0.98290  0.00660  1.0000 -0.2568039497
C   C3903     1.0  0.23550  0.96860  0.01450  1.0000 0.5682193007
C   C3904     1.0  0.14480  0.84520  0.10520  1.0000 0.6729532129
C   C3905     1.0  0.15710  0.83420  0.09290  1.0000 -0.1087284717
C   C3906     1.0  0.18440  0.82610  0.06560  1.0000 0.0614820425
Ti  Ti521     1.0  0.17946  0.96682  0.07054  1.0000 1.9108156136
O   O3451     1.0  0.69960  0.95670  0.55040  1.0000 -1.2905169269
C   C3907     1.0  0.74340  0.98290  0.50660  1.0000 -0.2568039497
C   C3908     1.0  0.73550  0.96860  0.51450  1.0000 0.5682193007
C   C3909     1.0  0.64480  0.84520  0.60520  1.0000 0.6729532129
C   C3910     1.0  0.65710  0.83420  0.59290  1.0000 -0.1004600406
C   C3911     1.0  0.68440  0.82610  0.56560  1.0000 0.0614820425
Co  Co144     1.0  0.65949  0.05559  0.59051  1.0000 1.978124679
Ti  Ti522     1.0  0.59051  0.05559  0.65949  1.0000 1.170162172
Ti  Ti523     1.0  0.67946  0.96682  0.57054  1.0000 1.9108156136
O   O3452     1.0  0.55040  0.95670  0.69960  1.0000 -1.2905169269
C   C3912     1.0  0.50660  0.98290  0.74340  1.0000 -0.2568039497
C   C3913     1.0  0.51450  0.96860  0.73550  1.0000 0.5682193007
C   C3914     1.0  0.60520  0.84520  0.64480  1.0000 0.6729532129
C   C3915     1.0  0.59290  0.83420  0.65710  1.0000 -0.1004600406
C   C3916     1.0  0.56560  0.82610  0.68440  1.0000 0.0614820425
Ti  Ti524     1.0  0.57054  0.96682  0.67946  1.0000 1.9108156136
O   O3453     1.0  0.79330  0.55040  0.05040  1.0000 -1.2905169269
C   C3917     1.0  0.76710  0.50660  0.00660  1.0000 -0.2568039497
C   C3918     1.0  0.78140  0.51450  0.01450  1.0000 0.5682193007
C   C3919     1.0  0.90480  0.60520  0.10520  1.0000 0.6729532129
C   C3920     1.0  0.91580  0.59290  0.09290  1.0000 -0.1004600406
C   C3921     1.0  0.92390  0.56560  0.06560  1.0000 0.0614820425
Ti  Ti525     1.0  0.78318  0.57054  0.07054  1.0000 1.9108156136
O   O3454     1.0  0.45670  0.69960  0.05040  1.0000 -1.2905169269
C   C3922     1.0  0.48290  0.74340  0.00660  1.0000 -0.2568039497
C   C3923     1.0  0.46860  0.73550  0.01450  1.0000 0.5682193007
C   C3924     1.0  0.34520  0.64480  0.10520  1.0000 0.6729532129
C   C3925     1.0  0.33420  0.65710  0.09290  1.0000 -0.1087284717
C   C3926     1.0  0.32610  0.68440  0.06560  1.0000 0.0614820425
Ti  Ti526     1.0  0.46682  0.67946  0.07054  1.0000 1.9108156136
O   O3455     1.0  0.95670  0.05040  0.19960  1.0000 -1.2905169269
C   C3927     1.0  0.98290  0.00660  0.24340  1.0000 -0.2568039497
C   C3928     1.0  0.96860  0.01450  0.23550  1.0000 0.5682193007
C   C3929     1.0  0.84520  0.10520  0.14480  1.0000 0.6729532129
C   C3930     1.0  0.83420  0.09290  0.15710  1.0000 -0.1087284717
C   C3931     1.0  0.82610  0.06560  0.18440  1.0000 0.0709581455
Ti  Ti527     1.0  0.96682  0.07054  0.17946  1.0000 1.9108156136
O   O3456     1.0  0.95670  0.55040  0.69960  1.0000 -1.2905169269
C   C3932     1.0  0.98290  0.50660  0.74340  1.0000 -0.2568039497
C   C3933     1.0  0.96860  0.51450  0.73550  1.0000 0.5682193007
C   C3934     1.0  0.84520  0.60520  0.64480  1.0000 0.6729532129
C   C3935     1.0  0.83420  0.59290  0.65710  1.0000 -0.1004600406
C   C3936     1.0  0.82610  0.56560  0.68440  1.0000 0.0614820425
Ti  Ti528     1.0  0.96682  0.57054  0.67946  1.0000 1.9108156136
C   C3937     1.0  0.14730  0.14730  0.07870  1.0000 0.1378777196
Ti  Ti529     1.0  0.14001  0.14001  0.86436  1.0000 1.9192721306
C   C3938     1.0  0.14730  0.64730  0.57870  1.0000 0.1378777196
Ti  Ti530     1.0  0.14001  0.64001  0.36436  1.0000 1.9192721306
C   C3939     1.0  0.64730  0.14730  0.57870  1.0000 0.1325357347
Ti  Ti531     1.0  0.64001  0.14001  0.36436  1.0000 1.9192721306
C   C3940     1.0  0.64730  0.64730  0.07870  1.0000 0.1378777196
Ti  Ti532     1.0  0.64001  0.64001  0.86436  1.0000 1.9192721306
C   C3941     1.0  0.60270  0.10270  0.57870  1.0000 0.1325357347
Ti  Ti533     1.0  0.60999  0.10999  0.36436  1.0000 1.9192721306
C   C3942     1.0  0.60270  0.60270  0.07870  1.0000 0.1378777196
Ti  Ti534     1.0  0.60999  0.60999  0.86436  1.0000 1.9192721306
C   C3943     1.0  0.10270  0.64730  0.67130  1.0000 0.1378777196
Ti  Ti535     1.0  0.10999  0.64001  0.88564  1.0000 1.9192721306
C   C3944     1.0  0.10270  0.14730  0.17130  1.0000 0.1378777196
Ti  Ti536     1.0  0.10999  0.14001  0.38564  1.0000 1.9192721306
C   C3945     1.0  0.60270  0.14730  0.67130  1.0000 0.1378777196
Ti  Ti537     1.0  0.60999  0.14001  0.88564  1.0000 1.9192721306
C   C3946     1.0  0.64730  0.60270  0.17130  1.0000 0.1325357347
Ti  Ti538     1.0  0.64001  0.60999  0.38564  1.0000 1.9192721306
C   C3947     1.0  0.14730  0.60270  0.67130  1.0000 0.1378777196
Ti  Ti539     1.0  0.14001  0.60999  0.88564  1.0000 1.9192721306
C   C3948     1.0  0.07870  0.14730  0.14730  1.0000 0.1378777196
Ti  Ti540     1.0  0.86436  0.14001  0.14001  1.0000 1.9192721306
C   C3949     1.0  0.07870  0.64730  0.64730  1.0000 0.1378777196
Ti  Ti541     1.0  0.86436  0.64001  0.64001  1.0000 1.9192721306
C   C3950     1.0  0.57870  0.14730  0.64730  1.0000 0.1378777196
Ti  Ti542     1.0  0.36436  0.14001  0.64001  1.0000 1.9192721306
C   C3951     1.0  0.57870  0.64730  0.14730  1.0000 0.1325357347
Ti  Ti543     1.0  0.36436  0.64001  0.14001  1.0000 1.9192721306
C   C3952     1.0  0.57870  0.60270  0.10270  1.0000 0.1325357347
Ti  Ti544     1.0  0.36436  0.60999  0.10999  1.0000 1.9192721306
C   C3953     1.0  0.07870  0.60270  0.60270  1.0000 0.1378777196
Ti  Ti545     1.0  0.86436  0.60999  0.60999  1.0000 1.9192721306
C   C3954     1.0  0.67130  0.10270  0.64730  1.0000 0.1325357347
Ti  Ti546     1.0  0.88564  0.10999  0.64001  1.0000 1.9192721306
C   C3955     1.0  0.67130  0.60270  0.14730  1.0000 0.1378777196
Ti  Ti547     1.0  0.88564  0.60999  0.14001  1.0000 1.9192721306
C   C3956     1.0  0.17130  0.64730  0.60270  1.0000 0.1325357347
Ti  Ti548     1.0  0.38564  0.64001  0.60999  1.0000 1.9192721306
C   C3957     1.0  0.17130  0.14730  0.10270  1.0000 0.1325357347
Ti  Ti549     1.0  0.38564  0.14001  0.10999  1.0000 1.9192721306
C   C3958     1.0  0.67130  0.14730  0.60270  1.0000 0.1325357347
Ti  Ti550     1.0  0.88564  0.14001  0.60999  1.0000 1.9192721306
C   C3959     1.0  0.14730  0.07870  0.14730  1.0000 0.1325357347
Ti  Ti551     1.0  0.14001  0.86436  0.14001  1.0000 1.9192721306
C   C3960     1.0  0.14730  0.57870  0.64730  1.0000 0.1325357347
Ti  Ti552     1.0  0.14001  0.36436  0.64001  1.0000 1.9192721306
C   C3961     1.0  0.64730  0.07870  0.64730  1.0000 0.1325357347
Ti  Ti553     1.0  0.64001  0.86436  0.64001  1.0000 1.9192721306
C   C3962     1.0  0.64730  0.57870  0.14730  1.0000 0.1325357347
Ti  Ti554     1.0  0.64001  0.36436  0.14001  1.0000 1.9192721306
C   C3963     1.0  0.10270  0.57870  0.60270  1.0000 0.1378777196
Ti  Ti555     1.0  0.10999  0.36436  0.60999  1.0000 1.9192721306
C   C3964     1.0  0.10270  0.07870  0.10270  1.0000 0.1378777196
Ti  Ti556     1.0  0.10999  0.86436  0.10999  1.0000 1.9192721306
C   C3965     1.0  0.60270  0.07870  0.60270  1.0000 0.1325357347
Ti  Ti557     1.0  0.60999  0.86436  0.60999  1.0000 1.9192721306
C   C3966     1.0  0.64730  0.67130  0.10270  1.0000 0.1325357347
Ti  Ti558     1.0  0.64001  0.88564  0.10999  1.0000 1.9192721306
C   C3967     1.0  0.14730  0.67130  0.60270  1.0000 0.1378777196
Ti  Ti559     1.0  0.14001  0.88564  0.60999  1.0000 1.9192721306
C   C3968     1.0  0.60270  0.17130  0.64730  1.0000 0.1325357347
Ti  Ti560     1.0  0.60999  0.38564  0.64001  1.0000 1.9192721306
C   C3969     1.0  0.60270  0.67130  0.14730  1.0000 0.1378777196
Ti  Ti561     1.0  0.60999  0.88564  0.14001  1.0000 1.9192721306
C   C3970     1.0  0.89730  0.39730  0.42130  1.0000 0.1378777196
Ti  Ti562     1.0  0.89001  0.39001  0.63564  1.0000 1.9192721306
C   C3971     1.0  0.89730  0.89730  0.92130  1.0000 0.1378777196
Ti  Ti563     1.0  0.89001  0.89001  0.13564  1.0000 1.9192721306
C   C3972     1.0  0.85270  0.85270  0.92130  1.0000 0.1378777196
Ti  Ti564     1.0  0.85999  0.85999  0.13564  1.0000 1.9192721306
C   C3973     1.0  0.85270  0.35270  0.42130  1.0000 0.1378777196
Ti  Ti565     1.0  0.85999  0.35999  0.63564  1.0000 1.9192721306
C   C3974     1.0  0.35270  0.85270  0.42130  1.0000 0.1378777196
Ti  Ti566     1.0  0.35999  0.85999  0.63564  1.0000 1.9192721306
C   C3975     1.0  0.35270  0.35270  0.92130  1.0000 0.1378777196
Ti  Ti567     1.0  0.35999  0.35999  0.13564  1.0000 1.9192721306
C   C3976     1.0  0.39730  0.35270  0.82870  1.0000 0.1325357347
Ti  Ti568     1.0  0.39001  0.35999  0.61436  1.0000 1.9192721306
C   C3977     1.0  0.39730  0.85270  0.32870  1.0000 0.1325357347
Ti  Ti569     1.0  0.39001  0.85999  0.11436  1.0000 1.9192721306
C   C3978     1.0  0.89730  0.85270  0.82870  1.0000 0.1378777196
Ti  Ti570     1.0  0.89001  0.85999  0.61436  1.0000 1.9192721306
C   C3979     1.0  0.35270  0.89730  0.32870  1.0000 0.1325357347
Ti  Ti571     1.0  0.35999  0.89001  0.11436  1.0000 1.9192721306
C   C3980     1.0  0.85270  0.89730  0.82870  1.0000 0.1378777196
Ti  Ti572     1.0  0.85999  0.89001  0.61436  1.0000 1.9192721306
C   C3981     1.0  0.89730  0.32870  0.35270  1.0000 0.1378777196
Ti  Ti573     1.0  0.89001  0.11436  0.35999  1.0000 1.9192721306
C   C3982     1.0  0.89730  0.82870  0.85270  1.0000 0.1378777196
Ti  Ti574     1.0  0.89001  0.61436  0.85999  1.0000 1.9192721306
C   C3983     1.0  0.35270  0.82870  0.39730  1.0000 0.1325357347
Ti  Ti575     1.0  0.35999  0.61436  0.39001  1.0000 1.9192721306
C   C3984     1.0  0.85270  0.82870  0.89730  1.0000 0.1325357347
Ti  Ti576     1.0  0.85999  0.61436  0.89001  1.0000 1.9192721306
C   C3985     1.0  0.85270  0.92130  0.85270  1.0000 0.1378777196
Ti  Ti577     1.0  0.85999  0.13564  0.85999  1.0000 1.9192721306
C   C3986     1.0  0.85270  0.42130  0.35270  1.0000 0.1378777196
Ti  Ti578     1.0  0.85999  0.63564  0.35999  1.0000 1.9192721306
C   C3987     1.0  0.35270  0.92130  0.35270  1.0000 0.1378777196
Ti  Ti579     1.0  0.35999  0.13564  0.35999  1.0000 1.9192721306
C   C3988     1.0  0.35270  0.42130  0.85270  1.0000 0.1378777196
Ti  Ti580     1.0  0.35999  0.63564  0.85999  1.0000 1.9192721306
C   C3989     1.0  0.39730  0.42130  0.89730  1.0000 0.1378777196
Ti  Ti581     1.0  0.39001  0.63564  0.89001  1.0000 1.9192721306
C   C3990     1.0  0.39730  0.92130  0.39730  1.0000 0.1378777196
Ti  Ti582     1.0  0.39001  0.13564  0.39001  1.0000 1.9192721306
C   C3991     1.0  0.89730  0.92130  0.89730  1.0000 0.1378777196
Ti  Ti583     1.0  0.89001  0.13564  0.89001  1.0000 1.9192721306
C   C3992     1.0  0.82870  0.39730  0.35270  1.0000 0.1378777196
Ti  Ti584     1.0  0.61436  0.39001  0.35999  1.0000 1.9192721306
C   C3993     1.0  0.82870  0.89730  0.85270  1.0000 0.1325357347
Ti  Ti585     1.0  0.61436  0.89001  0.85999  1.0000 1.9192721306
C   C3994     1.0  0.32870  0.35270  0.89730  1.0000 0.1325357347
Ti  Ti586     1.0  0.11436  0.35999  0.89001  1.0000 1.9192721306
C   C3995     1.0  0.32870  0.85270  0.39730  1.0000 0.1325357347
Ti  Ti587     1.0  0.11436  0.85999  0.39001  1.0000 1.9192721306
C   C3996     1.0  0.82870  0.85270  0.89730  1.0000 0.1378777196
Ti  Ti588     1.0  0.61436  0.85999  0.89001  1.0000 1.9192721306
C   C3997     1.0  0.42130  0.89730  0.39730  1.0000 0.1378777196
Ti  Ti589     1.0  0.63564  0.89001  0.39001  1.0000 1.9192721306
C   C3998     1.0  0.92130  0.89730  0.89730  1.0000 0.1378777196
Ti  Ti590     1.0  0.13564  0.89001  0.89001  1.0000 1.9192721306
C   C3999     1.0  0.92130  0.85270  0.85270  1.0000 0.1378777196
Ti  Ti591     1.0  0.13564  0.85999  0.85999  1.0000 1.9192721306
C   C4000     1.0  0.92130  0.35270  0.35270  1.0000 0.1378777196
Ti  Ti592     1.0  0.13564  0.35999  0.35999  1.0000 1.9192721306
C   C4001     1.0  0.42130  0.85270  0.35270  1.0000 0.1378777196
Ti  Ti593     1.0  0.63564  0.85999  0.35999  1.0000 1.9192721306
C   C4002     1.0  0.42130  0.35270  0.85270  1.0000 0.1378777196
Ti  Ti594     1.0  0.63564  0.35999  0.85999  1.0000 1.9192721306
C   C4003     1.0  0.39730  0.89730  0.42130  1.0000 0.1325357347
Ti  Ti595     1.0  0.39001  0.89001  0.63564  1.0000 1.9192721306
C   C4004     1.0  0.39730  0.39730  0.92130  1.0000 0.1378777196
Ti  Ti596     1.0  0.39001  0.39001  0.13564  1.0000 1.9192721306
C   C4005     1.0  0.89730  0.35270  0.32870  1.0000 0.1378777196
Ti  Ti597     1.0  0.89001  0.35999  0.11436  1.0000 1.9192721306
C   C4006     1.0  0.35270  0.39730  0.82870  1.0000 0.1325357347
Ti  Ti598     1.0  0.35999  0.39001  0.61436  1.0000 1.9192721306
C   C4007     1.0  0.85270  0.39730  0.32870  1.0000 0.1325357347
Ti  Ti599     1.0  0.85999  0.39001  0.11436  1.0000 1.9192721306
C   C4008     1.0  0.42130  0.39730  0.89730  1.0000 0.1378777196
Ti  Ti600     1.0  0.63564  0.39001  0.89001  1.0000 1.9192721306
C   C4009     1.0  0.92130  0.39730  0.39730  1.0000 0.1378777196
Ti  Ti601     1.0  0.13564  0.39001  0.39001  1.0000 1.9192721306
C   C4010     1.0  0.32870  0.89730  0.35270  1.0000 0.1325357347
Ti  Ti602     1.0  0.11436  0.89001  0.35999  1.0000 1.9192721306
C   C4011     1.0  0.32870  0.39730  0.85270  1.0000 0.1325357347
Ti  Ti603     1.0  0.11436  0.39001  0.85999  1.0000 1.9192721306
C   C4012     1.0  0.82870  0.35270  0.39730  1.0000 0.1378777196
Ti  Ti604     1.0  0.61436  0.35999  0.39001  1.0000 1.9192721306
C   C4013     1.0  0.89730  0.42130  0.39730  1.0000 0.1325357347
Ti  Ti605     1.0  0.89001  0.63564  0.39001  1.0000 1.9192721306
C   C4014     1.0  0.35270  0.32870  0.89730  1.0000 0.1325357347
Ti  Ti606     1.0  0.35999  0.11436  0.89001  1.0000 1.9192721306
C   C4015     1.0  0.85270  0.32870  0.39730  1.0000 0.1378777196
Ti  Ti607     1.0  0.85999  0.11436  0.39001  1.0000 1.9192721306
C   C4016     1.0  0.39730  0.82870  0.35270  1.0000 0.1325357347
Ti  Ti608     1.0  0.39001  0.61436  0.35999  1.0000 1.9192721306
C   C4017     1.0  0.39730  0.32870  0.85270  1.0000 0.1325357347
Ti  Ti609     1.0  0.39001  0.11436  0.85999  1.0000 1.9192721306
C   C4018     1.0  0.10270  0.60270  0.57870  1.0000 0.1378777196
Ti  Ti610     1.0  0.10999  0.60999  0.36436  1.0000 1.9192721306
C   C4019     1.0  0.10270  0.10270  0.07870  1.0000 0.1378777196
Ti  Ti611     1.0  0.10999  0.10999  0.86436  1.0000 1.9192721306
C   C4020     1.0  0.60270  0.64730  0.17130  1.0000 0.1325357347
Ti  Ti612     1.0  0.60999  0.64001  0.38564  1.0000 1.9192721306
C   C4021     1.0  0.64730  0.10270  0.67130  1.0000 0.1378777196
Ti  Ti613     1.0  0.64001  0.10999  0.88564  1.0000 1.9192721306
C   C4022     1.0  0.14730  0.10270  0.17130  1.0000 0.1378777196
Ti  Ti614     1.0  0.14001  0.10999  0.38564  1.0000 1.9192721306
C   C4023     1.0  0.10270  0.67130  0.64730  1.0000 0.1378777196
Ti  Ti615     1.0  0.10999  0.88564  0.64001  1.0000 1.9192721306
C   C4024     1.0  0.10270  0.17130  0.14730  1.0000 0.1378777196
Ti  Ti616     1.0  0.10999  0.38564  0.14001  1.0000 1.9192721306
C   C4025     1.0  0.64730  0.17130  0.60270  1.0000 0.1378777196
Ti  Ti617     1.0  0.64001  0.38564  0.60999  1.0000 1.9192721306
C   C4026     1.0  0.14730  0.17130  0.10270  1.0000 0.1378777196
Ti  Ti618     1.0  0.14001  0.38564  0.10999  1.0000 1.9192721306
C   C4027     1.0  0.60270  0.57870  0.10270  1.0000 0.1325357347
Ti  Ti619     1.0  0.60999  0.36436  0.10999  1.0000 1.9192721306
C   C4028     1.0  0.17130  0.60270  0.64730  1.0000 0.1378777196
Ti  Ti620     1.0  0.38564  0.60999  0.64001  1.0000 1.9192721306
C   C4029     1.0  0.17130  0.10270  0.14730  1.0000 0.1378777196
Ti  Ti621     1.0  0.38564  0.10999  0.14001  1.0000 1.9192721306
C   C4030     1.0  0.67130  0.64730  0.10270  1.0000 0.1378777196
Ti  Ti622     1.0  0.88564  0.64001  0.10999  1.0000 1.9192721306
C   C4031     1.0  0.57870  0.10270  0.60270  1.0000 0.1378777196
Ti  Ti623     1.0  0.36436  0.10999  0.60999  1.0000 1.9192721306
C   C4032     1.0  0.07870  0.10270  0.10270  1.0000 0.1378777196
Ti  Ti624     1.0  0.86436  0.10999  0.10999  1.0000 1.9192721306
O   O3457     1.0  0.12500  0.12500  0.87990  1.0000 -1.3135581901
Ti  Ti625     1.0  0.12500  0.12500  0.90800  1.0000 1.9340423851
O   O3458     1.0  0.12500  0.62500  0.37990  1.0000 -1.3135581901
Ti  Ti626     1.0  0.12500  0.62500  0.40800  1.0000 1.9340423851
O   O3459     1.0  0.62500  0.12500  0.37990  1.0000 -1.3135581901
Ti  Ti627     1.0  0.62500  0.12500  0.40800  1.0000 1.9421053842
O   O3460     1.0  0.62500  0.62500  0.87990  1.0000 -1.3135581901
Ti  Ti628     1.0  0.62500  0.62500  0.90800  1.0000 1.9421053842
O   O3461     1.0  0.12500  0.62500  0.87010  1.0000 -1.3135581901
Ti  Ti629     1.0  0.12500  0.62500  0.84200  1.0000 1.9340423851
O   O3462     1.0  0.12500  0.12500  0.37010  1.0000 -1.3135581901
Ti  Ti630     1.0  0.12500  0.12500  0.34200  1.0000 1.9340423851
O   O3463     1.0  0.62500  0.62500  0.37010  1.0000 -1.3135581901
Ti  Ti631     1.0  0.62500  0.62500  0.34200  1.0000 1.9421053842
O   O3464     1.0  0.87990  0.12500  0.12500  1.0000 -1.3135581901
Ti  Ti632     1.0  0.90800  0.12500  0.12500  1.0000 1.9421053842
O   O3465     1.0  0.87990  0.62500  0.62500  1.0000 -1.3135581901
Ti  Ti633     1.0  0.90800  0.62500  0.62500  1.0000 1.9421053842
O   O3466     1.0  0.37990  0.12500  0.62500  1.0000 -1.3135581901
Ti  Ti634     1.0  0.40800  0.12500  0.62500  1.0000 1.9421053842
O   O3467     1.0  0.37990  0.62500  0.12500  1.0000 -1.3135581901
Ti  Ti635     1.0  0.40800  0.62500  0.12500  1.0000 1.9421053842
O   O3468     1.0  0.87010  0.12500  0.62500  1.0000 -1.3135581901
Ti  Ti636     1.0  0.84200  0.12500  0.62500  1.0000 1.9421053842
O   O3469     1.0  0.37010  0.62500  0.62500  1.0000 -1.3135581901
Ti  Ti637     1.0  0.34200  0.62500  0.62500  1.0000 1.9421053842
O   O3470     1.0  0.37010  0.12500  0.12500  1.0000 -1.3135581901
Ti  Ti638     1.0  0.34200  0.12500  0.12500  1.0000 1.9421053842
O   O3471     1.0  0.12500  0.87990  0.12500  1.0000 -1.3135581901
Ti  Ti639     1.0  0.12500  0.90800  0.12500  1.0000 1.9340423851
O   O3472     1.0  0.12500  0.37990  0.62500  1.0000 -1.3135581901
Ti  Ti640     1.0  0.12500  0.40800  0.62500  1.0000 1.9340423851
O   O3473     1.0  0.62500  0.37990  0.12500  1.0000 -1.3135581901
Ti  Ti641     1.0  0.62500  0.40800  0.12500  1.0000 1.9421053842
O   O3474     1.0  0.62500  0.87990  0.62500  1.0000 -1.3135581901
Ti  Ti642     1.0  0.62500  0.90800  0.62500  1.0000 1.9421053842
O   O3475     1.0  0.62500  0.87010  0.12500  1.0000 -1.3135581901
Ti  Ti643     1.0  0.62500  0.84200  0.12500  1.0000 1.9421053842
O   O3476     1.0  0.62500  0.37010  0.62500  1.0000 -1.3135581901
Ti  Ti644     1.0  0.62500  0.34200  0.62500  1.0000 1.9421053842
O   O3477     1.0  0.87500  0.37500  0.62010  1.0000 -1.3135581901
Ti  Ti645     1.0  0.87500  0.37500  0.59200  1.0000 1.9421053842
O   O3478     1.0  0.87500  0.87500  0.12010  1.0000 -1.3135581901
Ti  Ti646     1.0  0.87500  0.87500  0.09200  1.0000 1.9421053842
O   O3479     1.0  0.37500  0.37500  0.62990  1.0000 -1.3135581901
Ti  Ti647     1.0  0.37500  0.37500  0.65800  1.0000 1.9421053842
O   O3480     1.0  0.87500  0.87500  0.62990  1.0000 -1.3135581901
Ti  Ti648     1.0  0.87500  0.87500  0.65800  1.0000 1.9421053842
O   O3481     1.0  0.37500  0.87500  0.12990  1.0000 -1.3135581901
Ti  Ti649     1.0  0.37500  0.87500  0.15800  1.0000 1.9421053842
O   O3482     1.0  0.87500  0.12990  0.37500  1.0000 -1.3135581901
Ti  Ti650     1.0  0.87500  0.15800  0.37500  1.0000 1.9421053842
O   O3483     1.0  0.87500  0.62990  0.87500  1.0000 -1.3135581901
Ti  Ti651     1.0  0.87500  0.65800  0.87500  1.0000 1.9421053842
O   O3484     1.0  0.37500  0.62990  0.37500  1.0000 -1.3135581901
Ti  Ti652     1.0  0.37500  0.65800  0.37500  1.0000 1.9421053842
O   O3485     1.0  0.87500  0.12010  0.87500  1.0000 -1.3135581901
Ti  Ti653     1.0  0.87500  0.09200  0.87500  1.0000 1.9421053842
O   O3486     1.0  0.37500  0.62010  0.87500  1.0000 -1.3135581901
Ti  Ti654     1.0  0.37500  0.59200  0.87500  1.0000 1.9421053842
O   O3487     1.0  0.37500  0.12010  0.37500  1.0000 -1.3135581901
Ti  Ti655     1.0  0.37500  0.09200  0.37500  1.0000 1.9421053842
O   O3488     1.0  0.62990  0.37500  0.37500  1.0000 -1.3135581901
Ti  Ti656     1.0  0.65800  0.37500  0.37500  1.0000 1.9421053842
O   O3489     1.0  0.62990  0.87500  0.87500  1.0000 -1.3135581901
Ti  Ti657     1.0  0.65800  0.87500  0.87500  1.0000 1.9421053842
O   O3490     1.0  0.12990  0.37500  0.87500  1.0000 -1.3135581901
Ti  Ti658     1.0  0.15800  0.37500  0.87500  1.0000 1.9340423851
O   O3491     1.0  0.62010  0.87500  0.37500  1.0000 -1.3135581901
Ti  Ti659     1.0  0.59200  0.87500  0.37500  1.0000 1.9421053842
O   O3492     1.0  0.12010  0.87500  0.87500  1.0000 -1.3135581901
Ti  Ti660     1.0  0.09200  0.87500  0.87500  1.0000 1.9340423851
O   O3493     1.0  0.12010  0.37500  0.37500  1.0000 -1.3135581901
Ti  Ti661     1.0  0.09200  0.37500  0.37500  1.0000 1.9340423851
O   O3494     1.0  0.37500  0.87500  0.62010  1.0000 -1.3135581901
Ti  Ti662     1.0  0.37500  0.87500  0.59200  1.0000 1.9421053842
O   O3495     1.0  0.37500  0.37500  0.12010  1.0000 -1.3135581901
Ti  Ti663     1.0  0.37500  0.37500  0.09200  1.0000 1.9421053842
O   O3496     1.0  0.87500  0.37500  0.12990  1.0000 -1.3135581901
Ti  Ti664     1.0  0.87500  0.37500  0.15800  1.0000 1.9421053842
O   O3497     1.0  0.62010  0.37500  0.87500  1.0000 -1.3135581901
Ti  Ti665     1.0  0.59200  0.37500  0.87500  1.0000 1.9421053842
O   O3498     1.0  0.12990  0.87500  0.37500  1.0000 -1.3135581901
Ti  Ti666     1.0  0.15800  0.87500  0.37500  1.0000 1.9340423851
O   O3499     1.0  0.87500  0.62010  0.37500  1.0000 -1.3135581901
Ti  Ti667     1.0  0.87500  0.59200  0.37500  1.0000 1.9421053842
O   O3500     1.0  0.37500  0.12990  0.87500  1.0000 -1.3135581901
Ti  Ti668     1.0  0.37500  0.15800  0.87500  1.0000 1.9421053842
O   O3501     1.0  0.62500  0.12500  0.87010  1.0000 -1.3135581901
Ti  Ti669     1.0  0.62500  0.12500  0.84200  1.0000 1.9421053842
O   O3502     1.0  0.12500  0.87010  0.62500  1.0000 -1.3135581901
Ti  Ti670     1.0  0.12500  0.84200  0.62500  1.0000 1.9340423851
O   O3503     1.0  0.12500  0.37010  0.12500  1.0000 -1.3135581901
Ti  Ti671     1.0  0.12500  0.34200  0.12500  1.0000 1.9340423851
O   O3504     1.0  0.87010  0.62500  0.12500  1.0000 -1.3135581901
Ti  Ti672     1.0  0.84200  0.62500  0.12500  1.0000 1.9421053842
C   C4033     1.0  0.19920  0.09510  0.05080  1.0000 0.653666533
C   C4034     1.0  0.21295  0.09330  0.03705  1.0000 -0.1807206609
C   C4035     1.0  0.23920  0.08500  0.01080  1.0000 0.0210823154
C   C4036     1.0  0.25820  0.01530  0.99180  1.0000 0.1633640405
C   C4037     1.0  0.16280  0.13900  0.08720  1.0000 -0.2434164581
C   C4038     1.0  0.16890  0.12240  0.08110  1.0000 0.637843934
C   C4039     1.0  0.19920  0.59510  0.55080  1.0000 0.653666533
C   C4040     1.0  0.21295  0.59330  0.53705  1.0000 -0.1807206609
C   C4041     1.0  0.23920  0.58500  0.51080  1.0000 0.0210823154
C   C4042     1.0  0.25820  0.51530  0.49180  1.0000 0.1633640405
C   C4043     1.0  0.16280  0.63900  0.58720  1.0000 -0.2434164581
C   C4044     1.0  0.16890  0.62240  0.58110  1.0000 0.637843934
C   C4045     1.0  0.69920  0.59510  0.05080  1.0000 0.6113946866
C   C4046     1.0  0.71295  0.59330  0.03705  1.0000 -0.1807206609
C   C4047     1.0  0.73920  0.58500  0.01080  1.0000 0.0115756702
C   C4048     1.0  0.75820  0.51530  0.99180  1.0000 0.1658578557
C   C4049     1.0  0.66280  0.63900  0.08720  1.0000 -0.2460900714
C   C4050     1.0  0.66890  0.62240  0.08110  1.0000 0.5911077041
C   C4051     1.0  0.55080  0.15490  0.55080  1.0000 0.6285624754
C   C4052     1.0  0.53705  0.15670  0.53705  1.0000 -0.1807206609
C   C4053     1.0  0.51080  0.16500  0.51080  1.0000 0.0210823154
C   C4054     1.0  0.49180  0.23470  0.49180  1.0000 0.1633640405
C   C4055     1.0  0.58720  0.11100  0.58720  1.0000 -0.2434164581
C   C4056     1.0  0.58110  0.12760  0.58110  1.0000 0.6215376561
C   C4057     1.0  0.55080  0.65490  0.05080  1.0000 0.6285624754
C   C4058     1.0  0.53705  0.65670  0.03705  1.0000 -0.1807206609
C   C4059     1.0  0.51080  0.66500  0.01080  1.0000 0.0210823154
C   C4060     1.0  0.49180  0.73470  0.99180  1.0000 0.1633640405
C   C4061     1.0  0.58720  0.61100  0.08720  1.0000 -0.2434164581
C   C4062     1.0  0.58110  0.62760  0.08110  1.0000 0.6215376561
C   C4063     1.0  0.05080  0.15490  0.05080  1.0000 0.6285624754
C   C4064     1.0  0.03705  0.15670  0.03705  1.0000 -0.1807206609
C   C4065     1.0  0.01080  0.16500  0.01080  1.0000 0.0210823154
C   C4066     1.0  0.99180  0.23470  0.99180  1.0000 0.1633640405
C   C4067     1.0  0.08720  0.11100  0.08720  1.0000 -0.2434164581
C   C4068     1.0  0.08110  0.12760  0.08110  1.0000 0.6215376561
C   C4069     1.0  0.05080  0.65490  0.55080  1.0000 0.637843934
C   C4070     1.0  0.03705  0.65670  0.53705  1.0000 -0.1807206609
C   C4071     1.0  0.01080  0.66500  0.51080  1.0000 0.0210823154
C   C4072     1.0  0.99180  0.73470  0.49180  1.0000 0.1633640405
C   C4073     1.0  0.08720  0.61100  0.58720  1.0000 -0.2434164581
C   C4074     1.0  0.08110  0.62760  0.58110  1.0000 0.6215376561
C   C4075     1.0  0.05080  0.59510  0.69920  1.0000 0.6285624754
C   C4076     1.0  0.03705  0.59330  0.71295  1.0000 -0.1807206609
C   C4077     1.0  0.01080  0.58500  0.73920  1.0000 0.0210823154
C   C4078     1.0  0.99180  0.51530  0.75820  1.0000 0.1633640405
C   C4079     1.0  0.08720  0.63900  0.66280  1.0000 -0.2434164581
C   C4080     1.0  0.08110  0.62240  0.66890  1.0000 0.6215376561
C   C4081     1.0  0.55080  0.59510  0.19920  1.0000 0.653666533
C   C4082     1.0  0.53705  0.59330  0.21295  1.0000 -0.1807206609
C   C4083     1.0  0.51080  0.58500  0.23920  1.0000 0.0210823154
C   C4084     1.0  0.49180  0.51530  0.25820  1.0000 0.1633640405
C   C4085     1.0  0.58720  0.63900  0.16280  1.0000 -0.2434164581
C   C4086     1.0  0.58110  0.62240  0.16890  1.0000 0.637843934
C   C4087     1.0  0.69920  0.65490  0.19920  1.0000 0.637843934
C   C4088     1.0  0.71295  0.65670  0.21295  1.0000 -0.1807206609
C   C4089     1.0  0.73920  0.66500  0.23920  1.0000 0.0210823154
C   C4090     1.0  0.75820  0.73470  0.25820  1.0000 0.1633640405
C   C4091     1.0  0.66280  0.61100  0.16280  1.0000 -0.2434164581
C   C4092     1.0  0.66890  0.62760  0.16890  1.0000 0.6215376561
C   C4093     1.0  0.69920  0.15490  0.69920  1.0000 0.637843934
C   C4094     1.0  0.71295  0.15670  0.71295  1.0000 -0.1807206609
C   C4095     1.0  0.73920  0.16500  0.73920  1.0000 0.0210823154
C   C4096     1.0  0.75820  0.23470  0.75820  1.0000 0.1658578557
C   C4097     1.0  0.66280  0.11100  0.66280  1.0000 -0.2460900714
C   C4098     1.0  0.66890  0.12760  0.66890  1.0000 0.6215376561
C   C4099     1.0  0.05080  0.19920  0.09510  1.0000 0.637843934
C   C4100     1.0  0.03705  0.21295  0.09330  1.0000 -0.1807206609
C   C4101     1.0  0.01080  0.23920  0.08500  1.0000 0.0210823154
C   C4102     1.0  0.99180  0.25820  0.01530  1.0000 0.1633640405
C   C4103     1.0  0.08720  0.16280  0.13900  1.0000 -0.2434164581
C   C4104     1.0  0.08110  0.16890  0.12240  1.0000 0.6215376561
C   C4105     1.0  0.05080  0.69920  0.59510  1.0000 0.637843934
C   C4106     1.0  0.03705  0.71295  0.59330  1.0000 -0.1807206609
C   C4107     1.0  0.01080  0.73920  0.58500  1.0000 0.0210823154
C   C4108     1.0  0.99180  0.75820  0.51530  1.0000 0.1633640405
C   C4109     1.0  0.08720  0.66280  0.63900  1.0000 -0.2434164581
C   C4110     1.0  0.08110  0.66890  0.62240  1.0000 0.6215376561
C   C4111     1.0  0.55080  0.19920  0.59510  1.0000 0.653666533
C   C4112     1.0  0.53705  0.21295  0.59330  1.0000 -0.1807206609
C   C4113     1.0  0.51080  0.23920  0.58500  1.0000 0.0210823154
C   C4114     1.0  0.49180  0.25820  0.51530  1.0000 0.1633640405
C   C4115     1.0  0.58720  0.16280  0.63900  1.0000 -0.2434164581
C   C4116     1.0  0.58110  0.16890  0.62240  1.0000 0.637843934
C   C4117     1.0  0.55080  0.55080  0.15490  1.0000 0.653666533
C   C4118     1.0  0.53705  0.53705  0.15670  1.0000 -0.1807206609
C   C4119     1.0  0.51080  0.51080  0.16500  1.0000 0.0210823154
C   C4120     1.0  0.49180  0.49180  0.23470  1.0000 0.1633640405
C   C4121     1.0  0.58720  0.58720  0.11100  1.0000 -0.2434164581
C   C4122     1.0  0.58110  0.58110  0.12760  1.0000 0.637843934
C   C4123     1.0  0.55080  0.05080  0.65490  1.0000 0.6113946866
C   C4124     1.0  0.53705  0.03705  0.65670  1.0000 -0.189473289
C   C4125     1.0  0.51080  0.01080  0.66500  1.0000 0.0115756702
C   C4126     1.0  0.49180  0.99180  0.73470  1.0000 0.1633640405
C   C4127     1.0  0.58720  0.08720  0.61100  1.0000 -0.2460900714
C   C4128     1.0  0.58110  0.08110  0.62760  1.0000 0.5911077041
C   C4129     1.0  0.05080  0.55080  0.65490  1.0000 0.6285624754
C   C4130     1.0  0.03705  0.53705  0.65670  1.0000 -0.1807206609
C   C4131     1.0  0.01080  0.51080  0.66500  1.0000 0.0210823154
C   C4132     1.0  0.99180  0.49180  0.73470  1.0000 0.1633640405
C   C4133     1.0  0.08720  0.58720  0.61100  1.0000 -0.2434164581
C   C4134     1.0  0.08110  0.58110  0.62760  1.0000 0.6215376561
C   C4135     1.0  0.05080  0.05080  0.15490  1.0000 0.6285624754
C   C4136     1.0  0.03705  0.03705  0.15670  1.0000 -0.1807206609
C   C4137     1.0  0.01080  0.01080  0.16500  1.0000 0.0210823154
C   C4138     1.0  0.99180  0.99180  0.23470  1.0000 0.1633640405
C   C4139     1.0  0.08720  0.08720  0.11100  1.0000 -0.2434164581
C   C4140     1.0  0.08110  0.08110  0.12760  1.0000 0.6215376561
C   C4141     1.0  0.69920  0.05080  0.59510  1.0000 0.653666533
C   C4142     1.0  0.71295  0.03705  0.59330  1.0000 -0.189473289
C   C4143     1.0  0.73920  0.01080  0.58500  1.0000 0.0210823154
C   C4144     1.0  0.75820  0.99180  0.51530  1.0000 0.1633640405
C   C4145     1.0  0.66280  0.08720  0.63900  1.0000 -0.2434164581
C   C4146     1.0  0.66890  0.08110  0.62240  1.0000 0.637843934
C   C4147     1.0  0.69920  0.55080  0.09510  1.0000 0.6113946866
C   C4148     1.0  0.71295  0.53705  0.09330  1.0000 -0.1807206609
C   C4149     1.0  0.73920  0.51080  0.08500  1.0000 0.0115756702
C   C4150     1.0  0.75820  0.49180  0.01530  1.0000 0.1658578557
C   C4151     1.0  0.66280  0.58720  0.13900  1.0000 -0.2460900714
C   C4152     1.0  0.66890  0.58110  0.12240  1.0000 0.5911077041
C   C4153     1.0  0.19920  0.69920  0.65490  1.0000 0.637843934
C   C4154     1.0  0.21295  0.71295  0.65670  1.0000 -0.1807206609
C   C4155     1.0  0.23920  0.73920  0.66500  1.0000 0.0210823154
C   C4156     1.0  0.25820  0.75820  0.73470  1.0000 0.1633640405
C   C4157     1.0  0.16280  0.66280  0.61100  1.0000 -0.2434164581
C   C4158     1.0  0.16890  0.66890  0.62760  1.0000 0.6215376561
C   C4159     1.0  0.19920  0.19920  0.15490  1.0000 0.637843934
C   C4160     1.0  0.21295  0.21295  0.15670  1.0000 -0.1807206609
C   C4161     1.0  0.23920  0.23920  0.16500  1.0000 0.0210823154
C   C4162     1.0  0.25820  0.25820  0.23470  1.0000 0.1633640405
C   C4163     1.0  0.16280  0.16280  0.11100  1.0000 -0.2434164581
C   C4164     1.0  0.16890  0.16890  0.12760  1.0000 0.6215376561
C   C4165     1.0  0.69920  0.69920  0.15490  1.0000 0.637843934
C   C4166     1.0  0.71295  0.71295  0.15670  1.0000 -0.1807206609
C   C4167     1.0  0.73920  0.73920  0.16500  1.0000 0.0210823154
C   C4168     1.0  0.75820  0.75820  0.23470  1.0000 0.1633640405
C   C4169     1.0  0.66280  0.66280  0.11100  1.0000 -0.2434164581
C   C4170     1.0  0.66890  0.66890  0.12760  1.0000 0.6215376561
C   C4171     1.0  0.09510  0.05080  0.19920  1.0000 0.653666533
C   C4172     1.0  0.09330  0.03705  0.21295  1.0000 -0.1807206609
C   C4173     1.0  0.08500  0.01080  0.23920  1.0000 0.0210823154
C   C4174     1.0  0.01530  0.99180  0.25820  1.0000 0.1633640405
C   C4175     1.0  0.13900  0.08720  0.16280  1.0000 -0.2434164581
C   C4176     1.0  0.12240  0.08110  0.16890  1.0000 0.637843934
C   C4177     1.0  0.09510  0.55080  0.69920  1.0000 0.653666533
C   C4178     1.0  0.09330  0.53705  0.71295  1.0000 -0.1807206609
C   C4179     1.0  0.08500  0.51080  0.73920  1.0000 0.0210823154
C   C4180     1.0  0.01530  0.49180  0.75820  1.0000 0.1633640405
C   C4181     1.0  0.13900  0.58720  0.66280  1.0000 -0.2434164581
C   C4182     1.0  0.12240  0.58110  0.66890  1.0000 0.637843934
C   C4183     1.0  0.59510  0.05080  0.69920  1.0000 0.6113946866
C   C4184     1.0  0.59330  0.03705  0.71295  1.0000 -0.189473289
C   C4185     1.0  0.58500  0.01080  0.73920  1.0000 0.0115756702
C   C4186     1.0  0.51530  0.99180  0.75820  1.0000 0.1633640405
C   C4187     1.0  0.63900  0.08720  0.66280  1.0000 -0.2460900714
C   C4188     1.0  0.62240  0.08110  0.66890  1.0000 0.5911077041
C   C4189     1.0  0.15490  0.55080  0.55080  1.0000 0.6285624754
C   C4190     1.0  0.15670  0.53705  0.53705  1.0000 -0.1807206609
C   C4191     1.0  0.16500  0.51080  0.51080  1.0000 0.0210823154
C   C4192     1.0  0.23470  0.49180  0.49180  1.0000 0.1633640405
C   C4193     1.0  0.11100  0.58720  0.58720  1.0000 -0.2434164581
C   C4194     1.0  0.12760  0.58110  0.58110  1.0000 0.6215376561
C   C4195     1.0  0.15490  0.05080  0.05080  1.0000 0.6285624754
C   C4196     1.0  0.15670  0.03705  0.03705  1.0000 -0.1807206609
C   C4197     1.0  0.16500  0.01080  0.01080  1.0000 0.0210823154
C   C4198     1.0  0.23470  0.99180  0.99180  1.0000 0.1633640405
C   C4199     1.0  0.11100  0.08720  0.08720  1.0000 -0.2434164581
C   C4200     1.0  0.12760  0.08110  0.08110  1.0000 0.6215376561
C   C4201     1.0  0.65490  0.55080  0.05080  1.0000 0.6113946866
C   C4202     1.0  0.65670  0.53705  0.03705  1.0000 -0.1807206609
C   C4203     1.0  0.66500  0.51080  0.01080  1.0000 0.0115756702
C   C4204     1.0  0.73470  0.49180  0.99180  1.0000 0.1658578557
C   C4205     1.0  0.61100  0.58720  0.08720  1.0000 -0.2460900714
C   C4206     1.0  0.62760  0.58110  0.08110  1.0000 0.5911077041
C   C4207     1.0  0.65490  0.05080  0.55080  1.0000 0.653666533
C   C4208     1.0  0.65670  0.03705  0.53705  1.0000 -0.189473289
C   C4209     1.0  0.66500  0.01080  0.51080  1.0000 0.0210823154
C   C4210     1.0  0.73470  0.99180  0.49180  1.0000 0.1633640405
C   C4211     1.0  0.61100  0.08720  0.58720  1.0000 -0.2434164581
C   C4212     1.0  0.62760  0.08110  0.58110  1.0000 0.637843934
C   C4213     1.0  0.59510  0.69920  0.05080  1.0000 0.653666533
C   C4214     1.0  0.59330  0.71295  0.03705  1.0000 -0.1807206609
C   C4215     1.0  0.58500  0.73920  0.01080  1.0000 0.0210823154
C   C4216     1.0  0.51530  0.75820  0.99180  1.0000 0.1633640405
C   C4217     1.0  0.63900  0.66280  0.08720  1.0000 -0.2434164581
C   C4218     1.0  0.62240  0.66890  0.08110  1.0000 0.637843934
C   C4219     1.0  0.59510  0.19920  0.55080  1.0000 0.6285624754
C   C4220     1.0  0.59330  0.21295  0.53705  1.0000 -0.1807206609
C   C4221     1.0  0.58500  0.23920  0.51080  1.0000 0.0210823154
C   C4222     1.0  0.51530  0.25820  0.49180  1.0000 0.1633640405
C   C4223     1.0  0.63900  0.16280  0.58720  1.0000 -0.2434164581
C   C4224     1.0  0.62240  0.16890  0.58110  1.0000 0.6215376561
C   C4225     1.0  0.65490  0.19920  0.69920  1.0000 0.637843934
C   C4226     1.0  0.65670  0.21295  0.71295  1.0000 -0.1807206609
C   C4227     1.0  0.66500  0.23920  0.73920  1.0000 0.0210823154
C   C4228     1.0  0.73470  0.25820  0.75820  1.0000 0.1658578557
C   C4229     1.0  0.61100  0.16280  0.66280  1.0000 -0.2434164581
C   C4230     1.0  0.62760  0.16890  0.66890  1.0000 0.6215376561
C   C4231     1.0  0.15490  0.19920  0.19920  1.0000 0.637843934
C   C4232     1.0  0.15670  0.21295  0.21295  1.0000 -0.1807206609
C   C4233     1.0  0.16500  0.23920  0.23920  1.0000 0.0210823154
C   C4234     1.0  0.23470  0.25820  0.25820  1.0000 0.1633640405
C   C4235     1.0  0.11100  0.16280  0.16280  1.0000 -0.2434164581
C   C4236     1.0  0.12760  0.16890  0.16890  1.0000 0.6215376561
C   C4237     1.0  0.15490  0.69920  0.69920  1.0000 0.637843934
C   C4238     1.0  0.15670  0.71295  0.71295  1.0000 -0.1807206609
C   C4239     1.0  0.16500  0.73920  0.73920  1.0000 0.0210823154
C   C4240     1.0  0.23470  0.75820  0.75820  1.0000 0.1633640405
C   C4241     1.0  0.11100  0.66280  0.66280  1.0000 -0.2434164581
C   C4242     1.0  0.12760  0.66890  0.66890  1.0000 0.6215376561
C   C4243     1.0  0.84510  0.44920  0.44920  1.0000 0.637843934
C   C4244     1.0  0.84330  0.46295  0.46295  1.0000 -0.1807206609
C   C4245     1.0  0.83500  0.48920  0.48920  1.0000 0.0210823154
C   C4246     1.0  0.76530  0.50820  0.50820  1.0000 0.1658578557
C   C4247     1.0  0.88900  0.41280  0.41280  1.0000 -0.2460900714
C   C4248     1.0  0.87240  0.41890  0.41890  1.0000 0.6215376561
C   C4249     1.0  0.84510  0.94920  0.94920  1.0000 0.637843934
C   C4250     1.0  0.84330  0.96295  0.96295  1.0000 -0.1807206609
C   C4251     1.0  0.83500  0.98920  0.98920  1.0000 0.0210823154
C   C4252     1.0  0.76530  0.00820  0.00820  1.0000 0.1658578557
C   C4253     1.0  0.88900  0.91280  0.91280  1.0000 -0.2460900714
C   C4254     1.0  0.87240  0.91890  0.91890  1.0000 0.6215376561
C   C4255     1.0  0.34510  0.44920  0.94920  1.0000 0.637843934
C   C4256     1.0  0.34330  0.46295  0.96295  1.0000 -0.1807206609
C   C4257     1.0  0.33500  0.48920  0.98920  1.0000 0.0210823154
C   C4258     1.0  0.26530  0.50820  0.00820  1.0000 0.1633640405
C   C4259     1.0  0.38900  0.41280  0.91280  1.0000 -0.2434164581
C   C4260     1.0  0.37240  0.41890  0.91890  1.0000 0.6215376561
C   C4261     1.0  0.34510  0.94920  0.44920  1.0000 0.653666533
C   C4262     1.0  0.34330  0.96295  0.46295  1.0000 -0.1807206609
C   C4263     1.0  0.33500  0.98920  0.48920  1.0000 0.0210823154
C   C4264     1.0  0.26530  0.00820  0.50820  1.0000 0.1633640405
C   C4265     1.0  0.38900  0.91280  0.41280  1.0000 -0.2434164581
C   C4266     1.0  0.37240  0.91890  0.41890  1.0000 0.637843934
C   C4267     1.0  0.90490  0.80080  0.94920  1.0000 0.653666533
C   C4268     1.0  0.90670  0.78705  0.96295  1.0000 -0.1807206609
C   C4269     1.0  0.91500  0.76080  0.98920  1.0000 0.0210823154
C   C4270     1.0  0.98470  0.74180  0.00820  1.0000 0.1633640405
C   C4271     1.0  0.86100  0.83720  0.91280  1.0000 -0.2434164581
C   C4272     1.0  0.87760  0.83110  0.91890  1.0000 0.637843934
C   C4273     1.0  0.90490  0.30080  0.44920  1.0000 0.637843934
C   C4274     1.0  0.90670  0.28705  0.46295  1.0000 -0.1807206609
C   C4275     1.0  0.91500  0.26080  0.48920  1.0000 0.0210823154
C   C4276     1.0  0.98470  0.24180  0.50820  1.0000 0.1658578557
C   C4277     1.0  0.86100  0.33720  0.41280  1.0000 -0.2434164581
C   C4278     1.0  0.87760  0.33110  0.41890  1.0000 0.6215376561
C   C4279     1.0  0.34510  0.30080  0.80080  1.0000 0.653666533
C   C4280     1.0  0.34330  0.28705  0.78705  1.0000 -0.189473289
C   C4281     1.0  0.33500  0.26080  0.76080  1.0000 0.0210823154
C   C4282     1.0  0.26530  0.24180  0.74180  1.0000 0.1633640405
C   C4283     1.0  0.38900  0.33720  0.83720  1.0000 -0.2434164581
C   C4284     1.0  0.37240  0.33110  0.83110  1.0000 0.637843934
C   C4285     1.0  0.84510  0.30080  0.30080  1.0000 0.6285624754
C   C4286     1.0  0.84330  0.28705  0.28705  1.0000 -0.1807206609
C   C4287     1.0  0.83500  0.26080  0.26080  1.0000 0.0210823154
C   C4288     1.0  0.76530  0.24180  0.24180  1.0000 0.1633640405
C   C4289     1.0  0.88900  0.33720  0.33720  1.0000 -0.2434164581
C   C4290     1.0  0.87240  0.33110  0.33110  1.0000 0.6215376561
C   C4291     1.0  0.84510  0.80080  0.80080  1.0000 0.6285624754
C   C4292     1.0  0.84330  0.78705  0.78705  1.0000 -0.1807206609
C   C4293     1.0  0.83500  0.76080  0.76080  1.0000 0.0210823154
C   C4294     1.0  0.76530  0.74180  0.74180  1.0000 0.1658578557
C   C4295     1.0  0.88900  0.83720  0.83720  1.0000 -0.2434164581
C   C4296     1.0  0.87240  0.83110  0.83110  1.0000 0.6215376561
C   C4297     1.0  0.40490  0.94920  0.30080  1.0000 0.6113946866
C   C4298     1.0  0.40670  0.96295  0.28705  1.0000 -0.1807206609
C   C4299     1.0  0.41500  0.98920  0.26080  1.0000 0.0115756702
C   C4300     1.0  0.48470  0.00820  0.24180  1.0000 0.1633640405
C   C4301     1.0  0.36100  0.91280  0.33720  1.0000 -0.2460900714
C   C4302     1.0  0.37760  0.91890  0.33110  1.0000 0.5911077041
C   C4303     1.0  0.40490  0.44920  0.80080  1.0000 0.637843934
C   C4304     1.0  0.40670  0.46295  0.78705  1.0000 -0.1807206609
C   C4305     1.0  0.41500  0.48920  0.76080  1.0000 0.0210823154
C   C4306     1.0  0.48470  0.50820  0.74180  1.0000 0.1633640405
C   C4307     1.0  0.36100  0.41280  0.83720  1.0000 -0.2460900714
C   C4308     1.0  0.37760  0.41890  0.83110  1.0000 0.6215376561
C   C4309     1.0  0.94920  0.30080  0.40490  1.0000 0.637843934
C   C4310     1.0  0.96295  0.28705  0.40670  1.0000 -0.1807206609
C   C4311     1.0  0.98920  0.26080  0.41500  1.0000 0.0210823154
C   C4312     1.0  0.00820  0.24180  0.48470  1.0000 0.1633640405
C   C4313     1.0  0.91280  0.33720  0.36100  1.0000 -0.2460900714
C   C4314     1.0  0.91890  0.33110  0.37760  1.0000 0.6215376561
C   C4315     1.0  0.44920  0.30080  0.90490  1.0000 0.637843934
C   C4316     1.0  0.46295  0.28705  0.90670  1.0000 -0.1807206609
C   C4317     1.0  0.48920  0.26080  0.91500  1.0000 0.0210823154
C   C4318     1.0  0.50820  0.24180  0.98470  1.0000 0.1633640405
C   C4319     1.0  0.41280  0.33720  0.86100  1.0000 -0.2460900714
C   C4320     1.0  0.41890  0.33110  0.87760  1.0000 0.6215376561
C   C4321     1.0  0.30080  0.80080  0.34510  1.0000 0.653666533
C   C4322     1.0  0.28705  0.78705  0.34330  1.0000 -0.1807206609
C   C4323     1.0  0.26080  0.76080  0.33500  1.0000 0.0210823154
C   C4324     1.0  0.24180  0.74180  0.26530  1.0000 0.1633640405
C   C4325     1.0  0.33720  0.83720  0.38900  1.0000 -0.2434164581
C   C4326     1.0  0.33110  0.83110  0.37240  1.0000 0.637843934
C   C4327     1.0  0.30080  0.30080  0.84510  1.0000 0.653666533
C   C4328     1.0  0.28705  0.28705  0.84330  1.0000 -0.189473289
C   C4329     1.0  0.26080  0.26080  0.83500  1.0000 0.0210823154
C   C4330     1.0  0.24180  0.24180  0.76530  1.0000 0.1633640405
C   C4331     1.0  0.33720  0.33720  0.88900  1.0000 -0.2434164581
C   C4332     1.0  0.33110  0.33110  0.87240  1.0000 0.637843934
C   C4333     1.0  0.80080  0.80080  0.84510  1.0000 0.6285624754
C   C4334     1.0  0.78705  0.78705  0.84330  1.0000 -0.1807206609
C   C4335     1.0  0.76080  0.76080  0.83500  1.0000 0.0210823154
C   C4336     1.0  0.74180  0.74180  0.76530  1.0000 0.1658578557
C   C4337     1.0  0.83720  0.83720  0.88900  1.0000 -0.2434164581
C   C4338     1.0  0.83110  0.83110  0.87240  1.0000 0.6215376561
C   C4339     1.0  0.80080  0.94920  0.90490  1.0000 0.637843934
C   C4340     1.0  0.78705  0.96295  0.90670  1.0000 -0.1807206609
C   C4341     1.0  0.76080  0.98920  0.91500  1.0000 0.0210823154
C   C4342     1.0  0.74180  0.00820  0.98470  1.0000 0.1658578557
C   C4343     1.0  0.83720  0.91280  0.86100  1.0000 -0.2460900714
C   C4344     1.0  0.83110  0.91890  0.87760  1.0000 0.6215376561
C   C4345     1.0  0.80080  0.44920  0.40490  1.0000 0.6113946866
C   C4346     1.0  0.78705  0.46295  0.40670  1.0000 -0.189473289
C   C4347     1.0  0.76080  0.48920  0.41500  1.0000 0.0115756702
C   C4348     1.0  0.74180  0.50820  0.48470  1.0000 0.1658578557
C   C4349     1.0  0.83720  0.41280  0.36100  1.0000 -0.2434164581
C   C4350     1.0  0.83110  0.41890  0.37760  1.0000 0.5911077041
C   C4351     1.0  0.44920  0.44920  0.84510  1.0000 0.637843934
C   C4352     1.0  0.46295  0.46295  0.84330  1.0000 -0.1807206609
C   C4353     1.0  0.48920  0.48920  0.83500  1.0000 0.0210823154
C   C4354     1.0  0.50820  0.50820  0.76530  1.0000 0.1633640405
C   C4355     1.0  0.41280  0.41280  0.88900  1.0000 -0.2434164581
C   C4356     1.0  0.41890  0.41890  0.87240  1.0000 0.6215376561
C   C4357     1.0  0.44920  0.94920  0.34510  1.0000 0.6113946866
C   C4358     1.0  0.46295  0.96295  0.34330  1.0000 -0.1807206609
C   C4359     1.0  0.48920  0.98920  0.33500  1.0000 0.0115756702
C   C4360     1.0  0.50820  0.00820  0.26530  1.0000 0.1633640405
C   C4361     1.0  0.41280  0.91280  0.38900  1.0000 -0.2460900714
C   C4362     1.0  0.41890  0.91890  0.37240  1.0000 0.5911077041
C   C4363     1.0  0.94920  0.44920  0.34510  1.0000 0.653666533
C   C4364     1.0  0.96295  0.46295  0.34330  1.0000 -0.1807206609
C   C4365     1.0  0.98920  0.48920  0.33500  1.0000 0.0210823154
C   C4366     1.0  0.00820  0.50820  0.26530  1.0000 0.1633640405
C   C4367     1.0  0.91280  0.41280  0.38900  1.0000 -0.2434164581
C   C4368     1.0  0.91890  0.41890  0.37240  1.0000 0.637843934
C   C4369     1.0  0.94920  0.94920  0.84510  1.0000 0.637843934
C   C4370     1.0  0.96295  0.96295  0.84330  1.0000 -0.1807206609
C   C4371     1.0  0.98920  0.98920  0.83500  1.0000 0.0210823154
C   C4372     1.0  0.00820  0.00820  0.76530  1.0000 0.1633640405
C   C4373     1.0  0.91280  0.91280  0.88900  1.0000 -0.2434164581
C   C4374     1.0  0.91890  0.91890  0.87240  1.0000 0.6215376561
C   C4375     1.0  0.80080  0.34510  0.30080  1.0000 0.653666533
C   C4376     1.0  0.78705  0.34330  0.28705  1.0000 -0.1807206609
C   C4377     1.0  0.76080  0.33500  0.26080  1.0000 0.0210823154
C   C4378     1.0  0.74180  0.26530  0.24180  1.0000 0.1633640405
C   C4379     1.0  0.83720  0.38900  0.33720  1.0000 -0.2434164581
C   C4380     1.0  0.83110  0.37240  0.33110  1.0000 0.637843934
C   C4381     1.0  0.80080  0.84510  0.80080  1.0000 0.653666533
C   C4382     1.0  0.78705  0.84330  0.78705  1.0000 -0.1807206609
C   C4383     1.0  0.76080  0.83500  0.76080  1.0000 0.0210823154
C   C4384     1.0  0.74180  0.76530  0.74180  1.0000 0.1633640405
C   C4385     1.0  0.83720  0.88900  0.83720  1.0000 -0.2434164581
C   C4386     1.0  0.83110  0.87240  0.83110  1.0000 0.637843934
C   C4387     1.0  0.30080  0.40490  0.94920  1.0000 0.637843934
C   C4388     1.0  0.28705  0.40670  0.96295  1.0000 -0.1807206609
C   C4389     1.0  0.26080  0.41500  0.98920  1.0000 0.0210823154
C   C4390     1.0  0.24180  0.48470  0.00820  1.0000 0.1633640405
C   C4391     1.0  0.33720  0.36100  0.91280  1.0000 -0.2460900714
C   C4392     1.0  0.33110  0.37760  0.91890  1.0000 0.6215376561
C   C4393     1.0  0.30080  0.90490  0.44920  1.0000 0.6285624754
C   C4394     1.0  0.28705  0.90670  0.46295  1.0000 -0.1807206609
C   C4395     1.0  0.26080  0.91500  0.48920  1.0000 0.0210823154
C   C4396     1.0  0.24180  0.98470  0.50820  1.0000 0.1633640405
C   C4397     1.0  0.33720  0.86100  0.41280  1.0000 -0.2434164581
C   C4398     1.0  0.33110  0.87760  0.41890  1.0000 0.6215376561
C   C4399     1.0  0.44920  0.84510  0.44920  1.0000 0.637843934
C   C4400     1.0  0.46295  0.84330  0.46295  1.0000 -0.1807206609
C   C4401     1.0  0.48920  0.83500  0.48920  1.0000 0.0210823154
C   C4402     1.0  0.50820  0.76530  0.50820  1.0000 0.1633640405
C   C4403     1.0  0.41280  0.88900  0.41280  1.0000 -0.2434164581
C   C4404     1.0  0.41890  0.87240  0.41890  1.0000 0.6215376561
C   C4405     1.0  0.44920  0.34510  0.94920  1.0000 0.637843934
C   C4406     1.0  0.46295  0.34330  0.96295  1.0000 -0.1807206609
C   C4407     1.0  0.48920  0.33500  0.98920  1.0000 0.0210823154
C   C4408     1.0  0.50820  0.26530  0.00820  1.0000 0.1633640405
C   C4409     1.0  0.41280  0.38900  0.91280  1.0000 -0.2434164581
C   C4410     1.0  0.41890  0.37240  0.91890  1.0000 0.6215376561
C   C4411     1.0  0.94920  0.84510  0.94920  1.0000 0.6285624754
C   C4412     1.0  0.96295  0.84330  0.96295  1.0000 -0.1807206609
C   C4413     1.0  0.98920  0.83500  0.98920  1.0000 0.0210823154
C   C4414     1.0  0.00820  0.76530  0.00820  1.0000 0.1633640405
C   C4415     1.0  0.91280  0.88900  0.91280  1.0000 -0.2434164581
C   C4416     1.0  0.91890  0.87240  0.91890  1.0000 0.6215376561
C   C4417     1.0  0.94920  0.34510  0.44920  1.0000 0.6113946866
C   C4418     1.0  0.96295  0.34330  0.46295  1.0000 -0.189473289
C   C4419     1.0  0.98920  0.33500  0.48920  1.0000 0.0115756702
C   C4420     1.0  0.00820  0.26530  0.50820  1.0000 0.1633640405
C   C4421     1.0  0.91280  0.38900  0.41280  1.0000 -0.2434164581
C   C4422     1.0  0.91890  0.37240  0.41890  1.0000 0.5911077041
C   C4423     1.0  0.94920  0.90490  0.80080  1.0000 0.637843934
C   C4424     1.0  0.96295  0.90670  0.78705  1.0000 -0.1807206609
C   C4425     1.0  0.98920  0.91500  0.76080  1.0000 0.0210823154
C   C4426     1.0  0.00820  0.98470  0.74180  1.0000 0.1633640405
C   C4427     1.0  0.91280  0.86100  0.83720  1.0000 -0.2460900714
C   C4428     1.0  0.91890  0.87760  0.83110  1.0000 0.6215376561
C   C4429     1.0  0.44920  0.90490  0.30080  1.0000 0.6113946866
C   C4430     1.0  0.46295  0.90670  0.28705  1.0000 -0.1807206609
C   C4431     1.0  0.48920  0.91500  0.26080  1.0000 0.0115756702
C   C4432     1.0  0.50820  0.98470  0.24180  1.0000 0.1633640405
C   C4433     1.0  0.41280  0.86100  0.33720  1.0000 -0.2460900714
C   C4434     1.0  0.41890  0.87760  0.33110  1.0000 0.5911077041
C   C4435     1.0  0.80080  0.90490  0.94920  1.0000 0.6113946866
C   C4436     1.0  0.78705  0.90670  0.96295  1.0000 -0.189473289
C   C4437     1.0  0.76080  0.91500  0.98920  1.0000 0.0115756702
C   C4438     1.0  0.74180  0.98470  0.00820  1.0000 0.1658578557
C   C4439     1.0  0.83720  0.86100  0.91280  1.0000 -0.2460900714
C   C4440     1.0  0.83110  0.87760  0.91890  1.0000 0.5911077041
C   C4441     1.0  0.80080  0.40490  0.44920  1.0000 0.637843934
C   C4442     1.0  0.78705  0.40670  0.46295  1.0000 -0.1807206609
C   C4443     1.0  0.76080  0.41500  0.48920  1.0000 0.0210823154
C   C4444     1.0  0.74180  0.48470  0.50820  1.0000 0.1658578557
C   C4445     1.0  0.83720  0.36100  0.41280  1.0000 -0.2434164581
C   C4446     1.0  0.83110  0.37760  0.41890  1.0000 0.6215376561
C   C4447     1.0  0.94920  0.40490  0.30080  1.0000 0.6285624754
C   C4448     1.0  0.96295  0.40670  0.28705  1.0000 -0.1807206609
C   C4449     1.0  0.98920  0.41500  0.26080  1.0000 0.0210823154
C   C4450     1.0  0.00820  0.48470  0.24180  1.0000 0.1633640405
C   C4451     1.0  0.91280  0.36100  0.33720  1.0000 -0.2434164581
C   C4452     1.0  0.91890  0.37760  0.33110  1.0000 0.6215376561
C   C4453     1.0  0.44920  0.40490  0.80080  1.0000 0.6113946866
C   C4454     1.0  0.46295  0.40670  0.78705  1.0000 -0.189473289
C   C4455     1.0  0.48920  0.41500  0.76080  1.0000 0.0115756702
C   C4456     1.0  0.50820  0.48470  0.74180  1.0000 0.1633640405
C   C4457     1.0  0.41280  0.36100  0.83720  1.0000 -0.2434164581
C   C4458     1.0  0.41890  0.37760  0.83110  1.0000 0.5911077041
C   C4459     1.0  0.30080  0.34510  0.80080  1.0000 0.653666533
C   C4460     1.0  0.28705  0.34330  0.78705  1.0000 -0.189473289
C   C4461     1.0  0.26080  0.33500  0.76080  1.0000 0.0210823154
C   C4462     1.0  0.24180  0.26530  0.74180  1.0000 0.1633640405
C   C4463     1.0  0.33720  0.38900  0.83720  1.0000 -0.2434164581
C   C4464     1.0  0.33110  0.37240  0.83110  1.0000 0.637843934
C   C4465     1.0  0.30080  0.84510  0.30080  1.0000 0.653666533
C   C4466     1.0  0.28705  0.84330  0.28705  1.0000 -0.1807206609
C   C4467     1.0  0.26080  0.83500  0.26080  1.0000 0.0210823154
C   C4468     1.0  0.24180  0.76530  0.24180  1.0000 0.1633640405
C   C4469     1.0  0.33720  0.88900  0.33720  1.0000 -0.2434164581
C   C4470     1.0  0.33110  0.87240  0.33110  1.0000 0.637843934
C   C4471     1.0  0.94920  0.80080  0.90490  1.0000 0.6285624754
C   C4472     1.0  0.96295  0.78705  0.90670  1.0000 -0.1807206609
C   C4473     1.0  0.98920  0.76080  0.91500  1.0000 0.0210823154
C   C4474     1.0  0.00820  0.74180  0.98470  1.0000 0.1633640405
C   C4475     1.0  0.91280  0.83720  0.86100  1.0000 -0.2434164581
C   C4476     1.0  0.91890  0.83110  0.87760  1.0000 0.6215376561
C   C4477     1.0  0.44920  0.80080  0.40490  1.0000 0.637843934
C   C4478     1.0  0.46295  0.78705  0.40670  1.0000 -0.1807206609
C   C4479     1.0  0.48920  0.76080  0.41500  1.0000 0.0210823154
C   C4480     1.0  0.50820  0.74180  0.48470  1.0000 0.1633640405
C   C4481     1.0  0.41280  0.83720  0.36100  1.0000 -0.2434164581
C   C4482     1.0  0.41890  0.83110  0.37760  1.0000 0.6215376561
C   C4483     1.0  0.30080  0.94920  0.40490  1.0000 0.6285624754
C   C4484     1.0  0.28705  0.96295  0.40670  1.0000 -0.1807206609
C   C4485     1.0  0.26080  0.98920  0.41500  1.0000 0.0210823154
C   C4486     1.0  0.24180  0.00820  0.48470  1.0000 0.1633640405
C   C4487     1.0  0.33720  0.91280  0.36100  1.0000 -0.2434164581
C   C4488     1.0  0.33110  0.91890  0.37760  1.0000 0.6215376561
C   C4489     1.0  0.30080  0.44920  0.90490  1.0000 0.6113946866
C   C4490     1.0  0.28705  0.46295  0.90670  1.0000 -0.189473289
C   C4491     1.0  0.26080  0.48920  0.91500  1.0000 0.0115756702
C   C4492     1.0  0.24180  0.50820  0.98470  1.0000 0.1633640405
C   C4493     1.0  0.33720  0.41280  0.86100  1.0000 -0.2434164581
C   C4494     1.0  0.33110  0.41890  0.87760  1.0000 0.5911077041
C   C4495     1.0  0.80080  0.30080  0.34510  1.0000 0.6285624754
C   C4496     1.0  0.78705  0.28705  0.34330  1.0000 -0.1807206609
C   C4497     1.0  0.76080  0.26080  0.33500  1.0000 0.0210823154
C   C4498     1.0  0.74180  0.24180  0.26530  1.0000 0.1633640405
C   C4499     1.0  0.83720  0.33720  0.38900  1.0000 -0.2434164581
C   C4500     1.0  0.83110  0.33110  0.37240  1.0000 0.6215376561
C   C4501     1.0  0.90490  0.94920  0.80080  1.0000 0.6113946866
C   C4502     1.0  0.90670  0.96295  0.78705  1.0000 -0.189473289
C   C4503     1.0  0.91500  0.98920  0.76080  1.0000 0.0115756702
C   C4504     1.0  0.98470  0.00820  0.74180  1.0000 0.1658578557
C   C4505     1.0  0.86100  0.91280  0.83720  1.0000 -0.2434164581
C   C4506     1.0  0.87760  0.91890  0.83110  1.0000 0.5911077041
C   C4507     1.0  0.90490  0.44920  0.30080  1.0000 0.6285624754
C   C4508     1.0  0.90670  0.46295  0.28705  1.0000 -0.1807206609
C   C4509     1.0  0.91500  0.48920  0.26080  1.0000 0.0210823154
C   C4510     1.0  0.98470  0.50820  0.24180  1.0000 0.1633640405
C   C4511     1.0  0.86100  0.41280  0.33720  1.0000 -0.2434164581
C   C4512     1.0  0.87760  0.41890  0.33110  1.0000 0.6215376561
C   C4513     1.0  0.40490  0.30080  0.94920  1.0000 0.6113946866
C   C4514     1.0  0.40670  0.28705  0.96295  1.0000 -0.189473289
C   C4515     1.0  0.41500  0.26080  0.98920  1.0000 0.0115756702
C   C4516     1.0  0.48470  0.24180  0.00820  1.0000 0.1633640405
C   C4517     1.0  0.36100  0.33720  0.91280  1.0000 -0.2434164581
C   C4518     1.0  0.37760  0.33110  0.91890  1.0000 0.5911077041
C   C4519     1.0  0.40490  0.80080  0.44920  1.0000 0.6113946866
C   C4520     1.0  0.40670  0.78705  0.46295  1.0000 -0.189473289
C   C4521     1.0  0.41500  0.76080  0.48920  1.0000 0.0115756702
C   C4522     1.0  0.48470  0.74180  0.50820  1.0000 0.1633640405
C   C4523     1.0  0.36100  0.83720  0.41280  1.0000 -0.2434164581
C   C4524     1.0  0.37760  0.83110  0.41890  1.0000 0.5911077041
C   C4525     1.0  0.34510  0.80080  0.30080  1.0000 0.653666533
C   C4526     1.0  0.34330  0.78705  0.28705  1.0000 -0.1807206609
C   C4527     1.0  0.33500  0.76080  0.26080  1.0000 0.0210823154
C   C4528     1.0  0.26530  0.74180  0.24180  1.0000 0.1633640405
C   C4529     1.0  0.38900  0.83720  0.33720  1.0000 -0.2434164581
C   C4530     1.0  0.37240  0.83110  0.33110  1.0000 0.637843934
C   C4531     1.0  0.09510  0.19920  0.05080  1.0000 0.6113946866
C   C4532     1.0  0.09330  0.21295  0.03705  1.0000 -0.189473289
C   C4533     1.0  0.08500  0.23920  0.01080  1.0000 0.0115756702
C   C4534     1.0  0.01530  0.25820  0.99180  1.0000 0.1633640405
C   C4535     1.0  0.13900  0.16280  0.08720  1.0000 -0.2434164581
C   C4536     1.0  0.12240  0.16890  0.08110  1.0000 0.5911077041
C   C4537     1.0  0.09510  0.69920  0.55080  1.0000 0.6113946866
C   C4538     1.0  0.09330  0.71295  0.53705  1.0000 -0.189473289
C   C4539     1.0  0.08500  0.73920  0.51080  1.0000 0.0115756702
C   C4540     1.0  0.01530  0.75820  0.49180  1.0000 0.1633640405
C   C4541     1.0  0.13900  0.66280  0.58720  1.0000 -0.2434164581
C   C4542     1.0  0.12240  0.66890  0.58110  1.0000 0.5911077041
C   C4543     1.0  0.65490  0.69920  0.19920  1.0000 0.6113946866
C   C4544     1.0  0.65670  0.71295  0.21295  1.0000 -0.189473289
C   C4545     1.0  0.66500  0.73920  0.23920  1.0000 0.0115756702
C   C4546     1.0  0.73470  0.75820  0.25820  1.0000 0.1633640405
C   C4547     1.0  0.61100  0.66280  0.16280  1.0000 -0.2460900714
C   C4548     1.0  0.62760  0.66890  0.16890  1.0000 0.5911077041
C   C4549     1.0  0.59510  0.55080  0.19920  1.0000 0.653666533
C   C4550     1.0  0.59330  0.53705  0.21295  1.0000 -0.1807206609
C   C4551     1.0  0.58500  0.51080  0.23920  1.0000 0.0210823154
C   C4552     1.0  0.51530  0.49180  0.25820  1.0000 0.1633640405
C   C4553     1.0  0.63900  0.58720  0.16280  1.0000 -0.2434164581
C   C4554     1.0  0.62240  0.58110  0.16890  1.0000 0.637843934
C   C4555     1.0  0.55080  0.69920  0.09510  1.0000 0.6285624754
C   C4556     1.0  0.53705  0.71295  0.09330  1.0000 -0.1807206609
C   C4557     1.0  0.51080  0.73920  0.08500  1.0000 0.0210823154
C   C4558     1.0  0.49180  0.75820  0.01530  1.0000 0.1633640405
C   C4559     1.0  0.58720  0.66280  0.13900  1.0000 -0.2434164581
C   C4560     1.0  0.58110  0.66890  0.12240  1.0000 0.6215376561
C   C4561     1.0  0.69920  0.19920  0.65490  1.0000 0.6113946866
C   C4562     1.0  0.71295  0.21295  0.65670  1.0000 -0.189473289
C   C4563     1.0  0.73920  0.23920  0.66500  1.0000 0.0115756702
C   C4564     1.0  0.75820  0.25820  0.73470  1.0000 0.1658578557
C   C4565     1.0  0.66280  0.16280  0.61100  1.0000 -0.2460900714
C   C4566     1.0  0.66890  0.16890  0.62760  1.0000 0.5911077041
C   C4567     1.0  0.19920  0.05080  0.09510  1.0000 0.6285624754
C   C4568     1.0  0.21295  0.03705  0.09330  1.0000 -0.1807206609
C   C4569     1.0  0.23920  0.01080  0.08500  1.0000 0.0210823154
C   C4570     1.0  0.25820  0.99180  0.01530  1.0000 0.1633640405
C   C4571     1.0  0.16280  0.08720  0.13900  1.0000 -0.2434164581
C   C4572     1.0  0.16890  0.08110  0.12240  1.0000 0.6215376561
C   C4573     1.0  0.19920  0.55080  0.59510  1.0000 0.6285624754
C   C4574     1.0  0.21295  0.53705  0.59330  1.0000 -0.1807206609
C   C4575     1.0  0.23920  0.51080  0.58500  1.0000 0.0210823154
C   C4576     1.0  0.25820  0.49180  0.51530  1.0000 0.1633640405
C   C4577     1.0  0.16280  0.58720  0.63900  1.0000 -0.2434164581
C   C4578     1.0  0.16890  0.58110  0.62240  1.0000 0.6215376561
C   C4579     1.0  0.19920  0.65490  0.69920  1.0000 0.6113946866
C   C4580     1.0  0.21295  0.65670  0.71295  1.0000 -0.189473289
C   C4581     1.0  0.23920  0.66500  0.73920  1.0000 0.0115756702
C   C4582     1.0  0.25820  0.73470  0.75820  1.0000 0.1633640405
C   C4583     1.0  0.16280  0.61100  0.66280  1.0000 -0.2434164581
C   C4584     1.0  0.16890  0.62760  0.66890  1.0000 0.5911077041
C   C4585     1.0  0.19920  0.15490  0.19920  1.0000 0.6113946866
C   C4586     1.0  0.21295  0.15670  0.21295  1.0000 -0.189473289
C   C4587     1.0  0.23920  0.16500  0.23920  1.0000 0.0115756702
C   C4588     1.0  0.25820  0.23470  0.25820  1.0000 0.1633640405
C   C4589     1.0  0.16280  0.11100  0.16280  1.0000 -0.2434164581
C   C4590     1.0  0.16890  0.12760  0.16890  1.0000 0.5911077041
C   C4591     1.0  0.69920  0.09510  0.55080  1.0000 0.653666533
C   C4592     1.0  0.71295  0.09330  0.53705  1.0000 -0.189473289
C   C4593     1.0  0.73920  0.08500  0.51080  1.0000 0.0210823154
C   C4594     1.0  0.75820  0.01530  0.49180  1.0000 0.1658578557
C   C4595     1.0  0.66280  0.13900  0.58720  1.0000 -0.2434164581
C   C4596     1.0  0.66890  0.12240  0.58110  1.0000 0.637843934
C   C4597     1.0  0.05080  0.09510  0.19920  1.0000 0.6285624754
C   C4598     1.0  0.03705  0.09330  0.21295  1.0000 -0.1807206609
C   C4599     1.0  0.01080  0.08500  0.23920  1.0000 0.0210823154
C   C4600     1.0  0.99180  0.01530  0.25820  1.0000 0.1633640405
C   C4601     1.0  0.08720  0.13900  0.16280  1.0000 -0.2434164581
C   C4602     1.0  0.08110  0.12240  0.16890  1.0000 0.6215376561
C   C4603     1.0  0.55080  0.09510  0.69920  1.0000 0.6113946866
C   C4604     1.0  0.53705  0.09330  0.71295  1.0000 -0.189473289
C   C4605     1.0  0.51080  0.08500  0.73920  1.0000 0.0115756702
C   C4606     1.0  0.49180  0.01530  0.75820  1.0000 0.1658578557
C   C4607     1.0  0.58720  0.13900  0.66280  1.0000 -0.2460900714
C   C4608     1.0  0.58110  0.12240  0.66890  1.0000 0.5911077041
C   C4609     1.0  0.27720  0.11020  0.77720  1.0000 0.0614820425
C   C4610     1.0  0.28310  0.16940  0.78310  1.0000 0.6800795649
C   C4611     1.0  0.28060  0.14930  0.78060  1.0000 -0.1087284717
C   C4612     1.0  0.27720  0.61020  0.27720  1.0000 0.0614820425
C   C4613     1.0  0.28310  0.66940  0.28310  1.0000 0.6800795649
C   C4614     1.0  0.28060  0.64930  0.28060  1.0000 -0.1087284717
C   C4615     1.0  0.47280  0.13980  0.27720  1.0000 0.0614820425
C   C4616     1.0  0.46690  0.08060  0.28310  1.0000 0.6800795649
C   C4617     1.0  0.46940  0.10070  0.28060  1.0000 -0.1087284717
C   C4618     1.0  0.47280  0.63980  0.77720  1.0000 0.0614820425
C   C4619     1.0  0.46690  0.58060  0.78310  1.0000 0.6800795649
C   C4620     1.0  0.46940  0.60070  0.78060  1.0000 -0.1087284717
C   C4621     1.0  0.97280  0.13980  0.77720  1.0000 0.0614820425
C   C4622     1.0  0.96690  0.08060  0.78310  1.0000 0.6800795649
C   C4623     1.0  0.96940  0.10070  0.78060  1.0000 -0.1087284717
C   C4624     1.0  0.97280  0.61020  0.97280  1.0000 0.0614820425
C   C4625     1.0  0.96690  0.66940  0.96690  1.0000 0.6800795649
C   C4626     1.0  0.96940  0.64930  0.96940  1.0000 -0.1087284717
C   C4627     1.0  0.97280  0.11020  0.47280  1.0000 0.0614820425
C   C4628     1.0  0.96690  0.16940  0.46690  1.0000 0.6800795649
C   C4629     1.0  0.96940  0.14930  0.46940  1.0000 -0.1087284717
C   C4630     1.0  0.47280  0.61020  0.47280  1.0000 0.0614820425
C   C4631     1.0  0.46690  0.66940  0.46690  1.0000 0.6800795649
C   C4632     1.0  0.46940  0.64930  0.46940  1.0000 -0.1087284717
C   C4633     1.0  0.47280  0.11020  0.97280  1.0000 0.0614820425
C   C4634     1.0  0.46690  0.16940  0.96690  1.0000 0.6800795649
C   C4635     1.0  0.46940  0.14930  0.96940  1.0000 -0.1087284717
C   C4636     1.0  0.77720  0.63980  0.47280  1.0000 0.0614820425
C   C4637     1.0  0.78310  0.58060  0.46690  1.0000 0.6800795649
C   C4638     1.0  0.78060  0.60070  0.46940  1.0000 -0.1087284717
C   C4639     1.0  0.77720  0.13980  0.97280  1.0000 0.0614820425
C   C4640     1.0  0.78310  0.08060  0.96690  1.0000 0.6800795649
C   C4641     1.0  0.78060  0.10070  0.96940  1.0000 -0.1087284717
C   C4642     1.0  0.77720  0.27720  0.11020  1.0000 0.0614820425
C   C4643     1.0  0.78310  0.28310  0.16940  1.0000 0.6800795649
C   C4644     1.0  0.78060  0.28060  0.14930  1.0000 -0.1087284717
C   C4645     1.0  0.77720  0.77720  0.61020  1.0000 0.0614820425
C   C4646     1.0  0.78310  0.78310  0.66940  1.0000 0.6800795649
C   C4647     1.0  0.78060  0.78060  0.64930  1.0000 -0.1087284717
C   C4648     1.0  0.27720  0.27720  0.61020  1.0000 0.0614820425
C   C4649     1.0  0.28310  0.28310  0.66940  1.0000 0.6800795649
C   C4650     1.0  0.28060  0.28060  0.64930  1.0000 -0.1087284717
C   C4651     1.0  0.27720  0.47280  0.13980  1.0000 0.0614820425
C   C4652     1.0  0.28310  0.46690  0.08060  1.0000 0.6800795649
C   C4653     1.0  0.28060  0.46940  0.10070  1.0000 -0.1087284717
C   C4654     1.0  0.27720  0.97280  0.63980  1.0000 0.0614820425
C   C4655     1.0  0.28310  0.96690  0.58060  1.0000 0.6800795649
C   C4656     1.0  0.28060  0.96940  0.60070  1.0000 -0.1087284717
C   C4657     1.0  0.77720  0.47280  0.63980  1.0000 0.0614820425
C   C4658     1.0  0.78310  0.46690  0.58060  1.0000 0.6800795649
C   C4659     1.0  0.78060  0.46940  0.60070  1.0000 -0.1087284717
C   C4660     1.0  0.97280  0.97280  0.61020  1.0000 0.0614820425
C   C4661     1.0  0.96690  0.96690  0.66940  1.0000 0.6800795649
C   C4662     1.0  0.96940  0.96940  0.64930  1.0000 -0.1087284717
C   C4663     1.0  0.97280  0.47280  0.11020  1.0000 0.0614820425
C   C4664     1.0  0.96690  0.46690  0.16940  1.0000 0.6800795649
C   C4665     1.0  0.96940  0.46940  0.14930  1.0000 -0.1087284717
C   C4666     1.0  0.47280  0.97280  0.11020  1.0000 0.0614820425
C   C4667     1.0  0.46690  0.96690  0.16940  1.0000 0.6800795649
C   C4668     1.0  0.46940  0.96940  0.14930  1.0000 -0.1087284717
C   C4669     1.0  0.47280  0.47280  0.61020  1.0000 0.0614820425
C   C4670     1.0  0.46690  0.46690  0.66940  1.0000 0.6800795649
C   C4671     1.0  0.46940  0.46940  0.64930  1.0000 -0.1087284717
C   C4672     1.0  0.47280  0.77720  0.63980  1.0000 0.0614820425
C   C4673     1.0  0.46690  0.78310  0.58060  1.0000 0.6800795649
C   C4674     1.0  0.46940  0.78060  0.60070  1.0000 -0.1087284717
C   C4675     1.0  0.97280  0.77720  0.13980  1.0000 0.0614820425
C   C4676     1.0  0.96690  0.78310  0.08060  1.0000 0.6800795649
C   C4677     1.0  0.96940  0.78060  0.10070  1.0000 -0.1087284717
C   C4678     1.0  0.11020  0.77720  0.27720  1.0000 0.0614820425
C   C4679     1.0  0.16940  0.78310  0.28310  1.0000 0.6800795649
C   C4680     1.0  0.14930  0.78060  0.28060  1.0000 -0.1087284717
C   C4681     1.0  0.61020  0.77720  0.77720  1.0000 0.0614820425
C   C4682     1.0  0.66940  0.78310  0.78310  1.0000 0.6800795649
C   C4683     1.0  0.64930  0.78060  0.78060  1.0000 -0.1087284717
C   C4684     1.0  0.61020  0.27720  0.27720  1.0000 0.0614820425
C   C4685     1.0  0.66940  0.28310  0.28310  1.0000 0.6800795649
C   C4686     1.0  0.64930  0.28060  0.28060  1.0000 -0.1087284717
C   C4687     1.0  0.13980  0.27720  0.47280  1.0000 0.0614820425
C   C4688     1.0  0.08060  0.28310  0.46690  1.0000 0.6800795649
C   C4689     1.0  0.10070  0.28060  0.46940  1.0000 -0.1087284717
C   C4690     1.0  0.13980  0.77720  0.97280  1.0000 0.0614820425
C   C4691     1.0  0.08060  0.78310  0.96690  1.0000 0.6800795649
C   C4692     1.0  0.10070  0.78060  0.96940  1.0000 -0.1087284717
C   C4693     1.0  0.63980  0.77720  0.47280  1.0000 0.0614820425
C   C4694     1.0  0.58060  0.78310  0.46690  1.0000 0.6800795649
C   C4695     1.0  0.60070  0.78060  0.46940  1.0000 -0.1087284717
C   C4696     1.0  0.61020  0.97280  0.97280  1.0000 0.0614820425
C   C4697     1.0  0.66940  0.96690  0.96690  1.0000 0.6800795649
C   C4698     1.0  0.64930  0.96940  0.96940  1.0000 -0.1087284717
C   C4699     1.0  0.61020  0.47280  0.47280  1.0000 0.0614820425
C   C4700     1.0  0.66940  0.46690  0.46690  1.0000 0.6800795649
C   C4701     1.0  0.64930  0.46940  0.46940  1.0000 -0.1087284717
C   C4702     1.0  0.11020  0.97280  0.47280  1.0000 0.0614820425
C   C4703     1.0  0.16940  0.96690  0.46690  1.0000 0.6800795649
C   C4704     1.0  0.14930  0.96940  0.46940  1.0000 -0.1087284717
C   C4705     1.0  0.11020  0.47280  0.97280  1.0000 0.0614820425
C   C4706     1.0  0.16940  0.46690  0.96690  1.0000 0.6800795649
C   C4707     1.0  0.14930  0.46940  0.96940  1.0000 -0.1087284717
C   C4708     1.0  0.63980  0.47280  0.77720  1.0000 0.0614820425
C   C4709     1.0  0.58060  0.46690  0.78310  1.0000 0.6800795649
C   C4710     1.0  0.60070  0.46940  0.78060  1.0000 -0.1087284717
C   C4711     1.0  0.63980  0.97280  0.27720  1.0000 0.0614820425
C   C4712     1.0  0.58060  0.96690  0.28310  1.0000 0.6800795649
C   C4713     1.0  0.60070  0.96940  0.28060  1.0000 -0.1087284717
C   C4714     1.0  0.86020  0.52720  0.72280  1.0000 0.0614820425
C   C4715     1.0  0.91940  0.53310  0.71690  1.0000 0.6800795649
C   C4716     1.0  0.89930  0.53060  0.71940  1.0000 -0.1087284717
C   C4717     1.0  0.86020  0.02720  0.22280  1.0000 0.0614820425
C   C4718     1.0  0.91940  0.03310  0.21690  1.0000 0.6800795649
C   C4719     1.0  0.89930  0.03060  0.21940  1.0000 -0.1087284717
C   C4720     1.0  0.88980  0.72280  0.22280  1.0000 0.0614820425
C   C4721     1.0  0.83060  0.71690  0.21690  1.0000 0.6800795649
C   C4722     1.0  0.85070  0.71940  0.21940  1.0000 -0.1087284717
C   C4723     1.0  0.38980  0.72280  0.72280  1.0000 0.0614820425
C   C4724     1.0  0.33060  0.71690  0.71690  1.0000 0.6800795649
C   C4725     1.0  0.35070  0.71940  0.71940  1.0000 -0.1087284717
C   C4726     1.0  0.38980  0.22280  0.22280  1.0000 0.0614820425
C   C4727     1.0  0.33060  0.21690  0.21690  1.0000 0.6800795649
C   C4728     1.0  0.35070  0.21940  0.21940  1.0000 -0.1087284717
C   C4729     1.0  0.36020  0.22280  0.52720  1.0000 0.0614820425
C   C4730     1.0  0.41940  0.21690  0.53310  1.0000 0.6800795649
C   C4731     1.0  0.39930  0.21940  0.53060  1.0000 -0.1087284717
C   C4732     1.0  0.36020  0.72280  0.02720  1.0000 0.0614820425
C   C4733     1.0  0.41940  0.71690  0.03310  1.0000 0.6800795649
C   C4734     1.0  0.39930  0.71940  0.03060  1.0000 -0.1087284717
C   C4735     1.0  0.86020  0.72280  0.52720  1.0000 0.0614820425
C   C4736     1.0  0.91940  0.71690  0.53310  1.0000 0.6800795649
C   C4737     1.0  0.89930  0.71940  0.53060  1.0000 -0.1087284717
C   C4738     1.0  0.38980  0.02720  0.02720  1.0000 0.0614820425
C   C4739     1.0  0.33060  0.03310  0.03310  1.0000 0.6800795649
C   C4740     1.0  0.35070  0.03060  0.03060  1.0000 -0.1087284717
C   C4741     1.0  0.38980  0.52720  0.52720  1.0000 0.0614820425
C   C4742     1.0  0.33060  0.53310  0.53310  1.0000 0.6800795649
C   C4743     1.0  0.35070  0.53060  0.53060  1.0000 -0.1087284717
C   C4744     1.0  0.88980  0.02720  0.52720  1.0000 0.0614820425
C   C4745     1.0  0.83060  0.03310  0.53310  1.0000 0.6800795649
C   C4746     1.0  0.85070  0.03060  0.53060  1.0000 -0.1087284717
C   C4747     1.0  0.88980  0.52720  0.02720  1.0000 0.0614820425
C   C4748     1.0  0.83060  0.53310  0.03310  1.0000 0.6800795649
C   C4749     1.0  0.85070  0.53060  0.03060  1.0000 -0.1087284717
C   C4750     1.0  0.02720  0.02720  0.38980  1.0000 0.0614820425
C   C4751     1.0  0.03310  0.03310  0.33060  1.0000 0.6800795649
C   C4752     1.0  0.03060  0.03060  0.35070  1.0000 -0.1087284717
C   C4753     1.0  0.02720  0.52720  0.88980  1.0000 0.0614820425
C   C4754     1.0  0.03310  0.53310  0.83060  1.0000 0.6800795649
C   C4755     1.0  0.03060  0.53060  0.85070  1.0000 -0.1087284717
C   C4756     1.0  0.52720  0.02720  0.88980  1.0000 0.0614820425
C   C4757     1.0  0.53310  0.03310  0.83060  1.0000 0.6800795649
C   C4758     1.0  0.53060  0.03060  0.85070  1.0000 -0.1087284717
C   C4759     1.0  0.52720  0.52720  0.38980  1.0000 0.0614820425
C   C4760     1.0  0.53310  0.53310  0.33060  1.0000 0.6800795649
C   C4761     1.0  0.53060  0.53060  0.35070  1.0000 -0.1087284717
C   C4762     1.0  0.22280  0.52720  0.36020  1.0000 0.0614820425
C   C4763     1.0  0.21690  0.53310  0.41940  1.0000 0.6800795649
C   C4764     1.0  0.21940  0.53060  0.39930  1.0000 -0.1087284717
C   C4765     1.0  0.22280  0.02720  0.86020  1.0000 0.0614820425
C   C4766     1.0  0.21690  0.03310  0.91940  1.0000 0.6800795649
C   C4767     1.0  0.21940  0.03060  0.89930  1.0000 -0.1087284717
C   C4768     1.0  0.72280  0.52720  0.86020  1.0000 0.0614820425
C   C4769     1.0  0.71690  0.53310  0.91940  1.0000 0.6800795649
C   C4770     1.0  0.71940  0.53060  0.89930  1.0000 -0.1087284717
C   C4771     1.0  0.72280  0.22280  0.88980  1.0000 0.0614820425
C   C4772     1.0  0.71690  0.21690  0.83060  1.0000 0.6800795649
C   C4773     1.0  0.71940  0.21940  0.85070  1.0000 -0.1087284717
C   C4774     1.0  0.72280  0.72280  0.38980  1.0000 0.0614820425
C   C4775     1.0  0.71690  0.71690  0.33060  1.0000 0.6800795649
C   C4776     1.0  0.71940  0.71940  0.35070  1.0000 -0.1087284717
C   C4777     1.0  0.22280  0.22280  0.38980  1.0000 0.0614820425
C   C4778     1.0  0.21690  0.21690  0.33060  1.0000 0.6800795649
C   C4779     1.0  0.21940  0.21940  0.35070  1.0000 -0.1087284717
C   C4780     1.0  0.52720  0.72280  0.86020  1.0000 0.0614820425
C   C4781     1.0  0.53310  0.71690  0.91940  1.0000 0.6800795649
C   C4782     1.0  0.53060  0.71940  0.89930  1.0000 -0.1087284717
C   C4783     1.0  0.02720  0.72280  0.36020  1.0000 0.0614820425
C   C4784     1.0  0.03310  0.71690  0.41940  1.0000 0.6800795649
C   C4785     1.0  0.03060  0.71940  0.39930  1.0000 -0.1087284717
C   C4786     1.0  0.52720  0.36020  0.22280  1.0000 0.0614820425
C   C4787     1.0  0.53310  0.41940  0.21690  1.0000 0.6800795649
C   C4788     1.0  0.53060  0.39930  0.21940  1.0000 -0.1087284717
C   C4789     1.0  0.52720  0.86020  0.72280  1.0000 0.0614820425
C   C4790     1.0  0.53310  0.91940  0.71690  1.0000 0.6800795649
C   C4791     1.0  0.53060  0.89930  0.71940  1.0000 -0.1087284717
C   C4792     1.0  0.02720  0.36020  0.72280  1.0000 0.0614820425
C   C4793     1.0  0.03310  0.41940  0.71690  1.0000 0.6800795649
C   C4794     1.0  0.03060  0.39930  0.71940  1.0000 -0.1087284717
C   C4795     1.0  0.02720  0.38980  0.02720  1.0000 0.0614820425
C   C4796     1.0  0.03310  0.33060  0.03310  1.0000 0.6800795649
C   C4797     1.0  0.03060  0.35070  0.03060  1.0000 -0.1087284717
C   C4798     1.0  0.02720  0.88980  0.52720  1.0000 0.0614820425
C   C4799     1.0  0.03310  0.83060  0.53310  1.0000 0.6800795649
C   C4800     1.0  0.03060  0.85070  0.53060  1.0000 -0.1087284717
C   C4801     1.0  0.52720  0.38980  0.52720  1.0000 0.0614820425
C   C4802     1.0  0.53310  0.33060  0.53310  1.0000 0.6800795649
C   C4803     1.0  0.53060  0.35070  0.53060  1.0000 -0.1087284717
C   C4804     1.0  0.52720  0.88980  0.02720  1.0000 0.0614820425
C   C4805     1.0  0.53310  0.83060  0.03310  1.0000 0.6800795649
C   C4806     1.0  0.53060  0.85070  0.03060  1.0000 -0.1087284717
C   C4807     1.0  0.72280  0.86020  0.52720  1.0000 0.0614820425
C   C4808     1.0  0.71690  0.91940  0.53310  1.0000 0.6800795649
C   C4809     1.0  0.71940  0.89930  0.53060  1.0000 -0.1087284717
C   C4810     1.0  0.72280  0.36020  0.02720  1.0000 0.0614820425
C   C4811     1.0  0.71690  0.41940  0.03310  1.0000 0.6800795649
C   C4812     1.0  0.71940  0.39930  0.03060  1.0000 -0.1087284717
C   C4813     1.0  0.22280  0.88980  0.72280  1.0000 0.0614820425
C   C4814     1.0  0.21690  0.83060  0.71690  1.0000 0.6800795649
C   C4815     1.0  0.21940  0.85070  0.71940  1.0000 -0.1087284717
C   C4816     1.0  0.22280  0.38980  0.22280  1.0000 0.0614820425
C   C4817     1.0  0.21690  0.33060  0.21690  1.0000 0.6800795649
C   C4818     1.0  0.21940  0.35070  0.21940  1.0000 -0.1087284717
C   C4819     1.0  0.72280  0.88980  0.22280  1.0000 0.0614820425
C   C4820     1.0  0.71690  0.83060  0.21690  1.0000 0.6800795649
C   C4821     1.0  0.71940  0.85070  0.21940  1.0000 -0.1087284717
C   C4822     1.0  0.72280  0.38980  0.72280  1.0000 0.0614820425
C   C4823     1.0  0.71690  0.33060  0.71690  1.0000 0.6800795649
C   C4824     1.0  0.71940  0.35070  0.71940  1.0000 -0.1087284717
C   C4825     1.0  0.02720  0.86020  0.22280  1.0000 0.0614820425
C   C4826     1.0  0.03310  0.91940  0.21690  1.0000 0.6800795649
C   C4827     1.0  0.03060  0.89930  0.21940  1.0000 -0.1087284717
C   C4828     1.0  0.22280  0.36020  0.52720  1.0000 0.0614820425
C   C4829     1.0  0.21690  0.41940  0.53310  1.0000 0.6800795649
C   C4830     1.0  0.21940  0.39930  0.53060  1.0000 -0.1087284717
C   C4831     1.0  0.22280  0.86020  0.02720  1.0000 0.0614820425
C   C4832     1.0  0.21690  0.91940  0.03310  1.0000 0.6800795649
C   C4833     1.0  0.21940  0.89930  0.03060  1.0000 -0.1087284717
C   C4834     1.0  0.22280  0.72280  0.88980  1.0000 0.0614820425
C   C4835     1.0  0.21690  0.71690  0.83060  1.0000 0.6800795649
C   C4836     1.0  0.21940  0.71940  0.85070  1.0000 -0.1087284717
C   C4837     1.0  0.72280  0.02720  0.36020  1.0000 0.0614820425
C   C4838     1.0  0.71690  0.03310  0.41940  1.0000 0.6800795649
C   C4839     1.0  0.71940  0.03060  0.39930  1.0000 -0.1087284717
C   C4840     1.0  0.52720  0.22280  0.36020  1.0000 0.0614820425
C   C4841     1.0  0.53310  0.21690  0.41940  1.0000 0.6800795649
C   C4842     1.0  0.53060  0.21940  0.39930  1.0000 -0.1087284717
C   C4843     1.0  0.02720  0.22280  0.86020  1.0000 0.0614820425
C   C4844     1.0  0.03310  0.21690  0.91940  1.0000 0.6800795649
C   C4845     1.0  0.03060  0.21940  0.89930  1.0000 -0.1087284717
C   C4846     1.0  0.88980  0.22280  0.72280  1.0000 0.0614820425
C   C4847     1.0  0.83060  0.21690  0.71690  1.0000 0.6800795649
C   C4848     1.0  0.85070  0.21940  0.71940  1.0000 -0.1087284717
C   C4849     1.0  0.86020  0.22280  0.02720  1.0000 0.0614820425
C   C4850     1.0  0.91940  0.21690  0.03310  1.0000 0.6800795649
C   C4851     1.0  0.89930  0.21940  0.03060  1.0000 -0.1087284717
C   C4852     1.0  0.36020  0.52720  0.22280  1.0000 0.0614820425
C   C4853     1.0  0.41940  0.53310  0.21690  1.0000 0.6800795649
C   C4854     1.0  0.39930  0.53060  0.21940  1.0000 -0.1087284717
C   C4855     1.0  0.36020  0.02720  0.72280  1.0000 0.0614820425
C   C4856     1.0  0.41940  0.03310  0.71690  1.0000 0.6800795649
C   C4857     1.0  0.39930  0.03060  0.71940  1.0000 -0.1087284717
C   C4858     1.0  0.13980  0.47280  0.27720  1.0000 0.0614820425
C   C4859     1.0  0.08060  0.46690  0.28310  1.0000 0.6800795649
C   C4860     1.0  0.10070  0.46940  0.28060  1.0000 -0.1087284717
C   C4861     1.0  0.13980  0.97280  0.77720  1.0000 0.0614820425
C   C4862     1.0  0.08060  0.96690  0.78310  1.0000 0.6800795649
C   C4863     1.0  0.10070  0.96940  0.78060  1.0000 -0.1087284717
C   C4864     1.0  0.11020  0.27720  0.77720  1.0000 0.0614820425
C   C4865     1.0  0.16940  0.28310  0.78310  1.0000 0.6800795649
C   C4866     1.0  0.14930  0.28060  0.78060  1.0000 -0.1087284717
C   C4867     1.0  0.63980  0.27720  0.97280  1.0000 0.0614820425
C   C4868     1.0  0.58060  0.28310  0.96690  1.0000 0.6800795649
C   C4869     1.0  0.60070  0.28060  0.96940  1.0000 -0.1087284717
C   C4870     1.0  0.77720  0.97280  0.13980  1.0000 0.0614820425
C   C4871     1.0  0.78310  0.96690  0.08060  1.0000 0.6800795649
C   C4872     1.0  0.78060  0.96940  0.10070  1.0000 -0.1087284717
C   C4873     1.0  0.27720  0.77720  0.11020  1.0000 0.0614820425
C   C4874     1.0  0.28310  0.78310  0.16940  1.0000 0.6800795649
C   C4875     1.0  0.28060  0.78060  0.14930  1.0000 -0.1087284717
C   C4876     1.0  0.47280  0.27720  0.13980  1.0000 0.0614820425
C   C4877     1.0  0.46690  0.28310  0.08060  1.0000 0.6800795649
C   C4878     1.0  0.46940  0.28060  0.10070  1.0000 -0.1087284717
C   C4879     1.0  0.97280  0.27720  0.63980  1.0000 0.0614820425
C   C4880     1.0  0.96690  0.28310  0.58060  1.0000 0.6800795649
C   C4881     1.0  0.96940  0.28060  0.60070  1.0000 -0.1087284717
C   C4882     1.0  0.97280  0.63980  0.27720  1.0000 0.0614820425
C   C4883     1.0  0.96690  0.58060  0.28310  1.0000 0.6800795649
C   C4884     1.0  0.96940  0.60070  0.28060  1.0000 -0.1087284717
C   C4885     1.0  0.27720  0.13980  0.47280  1.0000 0.0614820425
C   C4886     1.0  0.28310  0.08060  0.46690  1.0000 0.6800795649
C   C4887     1.0  0.28060  0.10070  0.46940  1.0000 -0.1087284717
C   C4888     1.0  0.27720  0.63980  0.97280  1.0000 0.0614820425
C   C4889     1.0  0.28310  0.58060  0.96690  1.0000 0.6800795649
C   C4890     1.0  0.28060  0.60070  0.96940  1.0000 -0.1087284717
C   C4891     1.0  0.77720  0.11020  0.27720  1.0000 0.0614820425
C   C4892     1.0  0.78310  0.16940  0.28310  1.0000 0.6800795649
C   C4893     1.0  0.78060  0.14930  0.28060  1.0000 -0.1087284717
C   C4894     1.0  0.77720  0.61020  0.77720  1.0000 0.0614820425
C   C4895     1.0  0.78310  0.66940  0.78310  1.0000 0.6800795649
C   C4896     1.0  0.78060  0.64930  0.78060  1.0000 -0.1087284717
O   O3505     1.0  0.17000  0.08000  0.08000  1.0000 -1.1486883741
O   O3506     1.0  0.17000  0.58000  0.58000  1.0000 -1.1486883741
O   O3507     1.0  0.67000  0.08000  0.58000  1.0000 -1.2672647328
O   O3508     1.0  0.67000  0.58000  0.08000  1.0000 -0.7137142212
O   O3509     1.0  0.58000  0.17000  0.58000  1.0000 -1.1486883741
O   O3510     1.0  0.08000  0.58000  0.67000  1.0000 -1.1486883741
O   O3511     1.0  0.67000  0.67000  0.17000  1.0000 -0.9679591831
O   O3512     1.0  0.08000  0.17000  0.08000  1.0000 -0.9679591831
O   O3513     1.0  0.08000  0.67000  0.58000  1.0000 -0.9679591831
O   O3514     1.0  0.58000  0.67000  0.08000  1.0000 -1.1486883741
O   O3515     1.0  0.58000  0.58000  0.17000  1.0000 -1.2672647328
O   O3516     1.0  0.17000  0.67000  0.67000  1.0000 -0.9679591831
O   O3517     1.0  0.17000  0.17000  0.17000  1.0000 -0.9679591831
O   O3518     1.0  0.08000  0.08000  0.17000  1.0000 -1.1486883741
O   O3519     1.0  0.58000  0.08000  0.67000  1.0000 -0.7189601154
O   O3520     1.0  0.67000  0.17000  0.67000  1.0000 -0.9679591831
O   O3521     1.0  0.83000  0.42000  0.42000  1.0000 -0.9679591831
O   O3522     1.0  0.92000  0.83000  0.92000  1.0000 -1.1486883741
O   O3523     1.0  0.33000  0.33000  0.83000  1.0000 -1.2672647328
O   O3524     1.0  0.83000  0.83000  0.83000  1.0000 -1.1486883741
O   O3525     1.0  0.42000  0.92000  0.33000  1.0000 -0.7137142212
O   O3526     1.0  0.92000  0.33000  0.42000  1.0000 -0.9679591831
O   O3527     1.0  0.33000  0.83000  0.33000  1.0000 -1.2672647328
O   O3528     1.0  0.83000  0.92000  0.92000  1.0000 -0.9679591831
O   O3529     1.0  0.42000  0.42000  0.83000  1.0000 -0.9679591831
O   O3530     1.0  0.83000  0.33000  0.33000  1.0000 -1.1486883741
O   O3531     1.0  0.33000  0.42000  0.92000  1.0000 -0.9679591831
O   O3532     1.0  0.42000  0.83000  0.42000  1.0000 -0.9679591831
O   O3533     1.0  0.92000  0.92000  0.83000  1.0000 -0.9679591831
O   O3534     1.0  0.92000  0.42000  0.33000  1.0000 -1.1486883741
O   O3535     1.0  0.33000  0.92000  0.42000  1.0000 -1.1486883741
O   O3536     1.0  0.42000  0.33000  0.92000  1.0000 -0.9679591831
  Ti  Ti673     1.0  0.23635  0.11764  0.83985  1.0000
  Co  Co145     1.0  0.11764  0.23635  0.83985  1.0000
  Ti  Ti674     1.0  0.23635  0.61764  0.33985  1.0000
  Co  Co146     1.0  0.11764  0.73635  0.33985  1.0000
  Ti  Ti675     1.0  0.73635  0.11764  0.33985  1.0000
  Co  Co147     1.0  0.61764  0.23635  0.33985  1.0000
  Ti  Ti676     1.0  0.73635  0.61764  0.83985  1.0000
  Co  Co148     1.0  0.61764  0.73635  0.83985  1.0000
  Ti  Ti677     1.0  0.51365  0.13236  0.33985  1.0000
  Co  Co149     1.0  0.63236  0.01365  0.33985  1.0000
  Ti  Ti678     1.0  0.51365  0.63236  0.83985  1.0000
  Co  Co150     1.0  0.63236  0.51365  0.83985  1.0000
  Ti  Ti679     1.0  0.01365  0.13236  0.83985  1.0000
  Co  Co151     1.0  0.13236  0.01365  0.83985  1.0000
  Ti  Ti680     1.0  0.01365  0.63236  0.33985  1.0000
  Co  Co152     1.0  0.13236  0.51365  0.33985  1.0000
  Ti  Ti681     1.0  0.01365  0.61764  0.91015  1.0000
  Co  Co153     1.0  0.13236  0.73635  0.91015  1.0000
  Ti  Ti682     1.0  0.01365  0.11764  0.41015  1.0000
  Co  Co154     1.0  0.13236  0.23635  0.41015  1.0000
  Ti  Ti683     1.0  0.51365  0.61764  0.41015  1.0000
  Co  Co155     1.0  0.63236  0.73635  0.41015  1.0000
  Ti  Ti684     1.0  0.51365  0.11764  0.91015  1.0000
  Co  Co156     1.0  0.63236  0.23635  0.91015  1.0000
  Ti  Ti685     1.0  0.73635  0.63236  0.41015  1.0000
  Co  Co157     1.0  0.61764  0.51365  0.41015  1.0000
  Ti  Ti686     1.0  0.73635  0.13236  0.91015  1.0000
  Co  Co158     1.0  0.61764  0.01365  0.91015  1.0000
  Ti  Ti687     1.0  0.23635  0.63236  0.91015  1.0000
  Co  Co159     1.0  0.11764  0.51365  0.91015  1.0000
  Ti  Ti688     1.0  0.23635  0.13236  0.41015  1.0000
  Co  Co160     1.0  0.11764  0.01365  0.41015  1.0000
  Ti  Ti689     1.0  0.83985  0.23635  0.11764  1.0000
  Co  Co161     1.0  0.83985  0.11764  0.23635  1.0000
  Ti  Ti690     1.0  0.83985  0.73635  0.61764  1.0000
  Co  Co162     1.0  0.83985  0.61764  0.73635  1.0000
  Ti  Ti691     1.0  0.33985  0.23635  0.61764  1.0000
  Co  Co163     1.0  0.33985  0.11764  0.73635  1.0000
  Ti  Ti692     1.0  0.33985  0.73635  0.11764  1.0000
  Co  Co164     1.0  0.33985  0.61764  0.23635  1.0000
  Ti  Ti693     1.0  0.33985  0.51365  0.13236  1.0000
  Co  Co165     1.0  0.33985  0.63236  0.01365  1.0000
  Ti  Ti694     1.0  0.33985  0.01365  0.63236  1.0000
  Co  Co166     1.0  0.33985  0.13236  0.51365  1.0000
  Ti  Ti695     1.0  0.83985  0.51365  0.63236  1.0000
  Co  Co167     1.0  0.83985  0.63236  0.51365  1.0000
  Ti  Ti696     1.0  0.83985  0.01365  0.13236  1.0000
  Co  Co168     1.0  0.83985  0.13236  0.01365  1.0000
  Ti  Ti697     1.0  0.91015  0.01365  0.61764  1.0000
  Co  Co169     1.0  0.91015  0.13236  0.73635  1.0000
  Ti  Ti698     1.0  0.91015  0.51365  0.11764  1.0000
  Co  Co170     1.0  0.91015  0.63236  0.23635  1.0000
  Ti  Ti699     1.0  0.41015  0.01365  0.11764  1.0000
  Co  Co171     1.0  0.41015  0.13236  0.23635  1.0000
  Ti  Ti700     1.0  0.41015  0.51365  0.61764  1.0000
  Co  Co172     1.0  0.41015  0.63236  0.73635  1.0000
  Ti  Ti701     1.0  0.41015  0.73635  0.63236  1.0000
  Co  Co173     1.0  0.41015  0.61764  0.51365  1.0000
  Ti  Ti702     1.0  0.41015  0.23635  0.13236  1.0000
  Co  Co174     1.0  0.41015  0.11764  0.01365  1.0000
  Ti  Ti703     1.0  0.91015  0.73635  0.13236  1.0000
  Co  Co175     1.0  0.91015  0.61764  0.01365  1.0000
  Ti  Ti704     1.0  0.91015  0.23635  0.63236  1.0000
  Co  Co176     1.0  0.91015  0.11764  0.51365  1.0000
  Ti  Ti705     1.0  0.11764  0.83985  0.23635  1.0000
  Co  Co177     1.0  0.23635  0.83985  0.11764  1.0000
  Ti  Ti706     1.0  0.11764  0.33985  0.73635  1.0000
  Co  Co178     1.0  0.23635  0.33985  0.61764  1.0000
  Ti  Ti707     1.0  0.61764  0.83985  0.73635  1.0000
  Co  Co179     1.0  0.73635  0.83985  0.61764  1.0000
  Ti  Ti708     1.0  0.61764  0.33985  0.23635  1.0000
  Co  Co180     1.0  0.73635  0.33985  0.11764  1.0000
  Ti  Ti709     1.0  0.13236  0.33985  0.51365  1.0000
  Co  Co181     1.0  0.01365  0.33985  0.63236  1.0000
  Ti  Ti710     1.0  0.13236  0.83985  0.01365  1.0000
  Co  Co182     1.0  0.01365  0.83985  0.13236  1.0000
  Ti  Ti711     1.0  0.63236  0.33985  0.01365  1.0000
  Co  Co183     1.0  0.51365  0.33985  0.13236  1.0000
  Ti  Ti712     1.0  0.63236  0.83985  0.51365  1.0000
  Co  Co184     1.0  0.51365  0.83985  0.63236  1.0000
  Ti  Ti713     1.0  0.61764  0.91015  0.01365  1.0000
  Co  Co185     1.0  0.73635  0.91015  0.13236  1.0000
  Ti  Ti714     1.0  0.61764  0.41015  0.51365  1.0000
  Co  Co186     1.0  0.73635  0.41015  0.63236  1.0000
  Ti  Ti715     1.0  0.11764  0.91015  0.51365  1.0000
  Co  Co187     1.0  0.23635  0.91015  0.63236  1.0000
  Ti  Ti716     1.0  0.11764  0.41015  0.01365  1.0000
  Co  Co188     1.0  0.23635  0.41015  0.13236  1.0000
  Ti  Ti717     1.0  0.63236  0.41015  0.73635  1.0000
  Co  Co189     1.0  0.51365  0.41015  0.61764  1.0000
  Ti  Ti718     1.0  0.63236  0.91015  0.23635  1.0000
  Co  Co190     1.0  0.51365  0.91015  0.11764  1.0000
  Ti  Ti719     1.0  0.13236  0.41015  0.23635  1.0000
  Co  Co191     1.0  0.01365  0.41015  0.11764  1.0000
  Ti  Ti720     1.0  0.13236  0.91015  0.73635  1.0000
  Co  Co192     1.0  0.01365  0.91015  0.61764  1.0000
  Ti  Ti721     1.0  0.86764  0.48635  0.66015  1.0000
  Co  Co193     1.0  0.98635  0.36764  0.66015  1.0000
  Ti  Ti722     1.0  0.86764  0.98635  0.16015  1.0000
  Co  Co194     1.0  0.98635  0.86764  0.16015  1.0000
  Ti  Ti723     1.0  0.36764  0.48635  0.16015  1.0000
  Co  Co195     1.0  0.48635  0.36764  0.16015  1.0000
  Ti  Ti724     1.0  0.36764  0.98635  0.66015  1.0000
  Co  Co196     1.0  0.48635  0.86764  0.66015  1.0000
  Ti  Ti725     1.0  0.88236  0.76365  0.16015  1.0000
  Co  Co197     1.0  0.76365  0.88236  0.16015  1.0000
  Ti  Ti726     1.0  0.88236  0.26365  0.66015  1.0000
  Co  Co198     1.0  0.76365  0.38236  0.66015  1.0000
  Ti  Ti727     1.0  0.38236  0.76365  0.66015  1.0000
  Co  Co199     1.0  0.26365  0.88236  0.66015  1.0000
  Ti  Ti728     1.0  0.38236  0.26365  0.16015  1.0000
  Co  Co200     1.0  0.26365  0.38236  0.16015  1.0000
  Ti  Ti729     1.0  0.36764  0.26365  0.58985  1.0000
  Co  Co201     1.0  0.48635  0.38236  0.58985  1.0000
  Ti  Ti730     1.0  0.36764  0.76365  0.08985  1.0000
  Co  Co202     1.0  0.48635  0.88236  0.08985  1.0000
  Ti  Ti731     1.0  0.86764  0.26365  0.08985  1.0000
  Co  Co203     1.0  0.98635  0.38236  0.08985  1.0000
  Ti  Ti732     1.0  0.86764  0.76365  0.58985  1.0000
  Co  Co204     1.0  0.98635  0.88236  0.58985  1.0000
  Ti  Ti733     1.0  0.38236  0.98635  0.08985  1.0000
  Co  Co205     1.0  0.26365  0.86764  0.08985  1.0000
  Ti  Ti734     1.0  0.38236  0.48635  0.58985  1.0000
  Co  Co206     1.0  0.26365  0.36764  0.58985  1.0000
  Ti  Ti735     1.0  0.88236  0.98635  0.58985  1.0000
  Co  Co207     1.0  0.76365  0.86764  0.58985  1.0000
  Ti  Ti736     1.0  0.88236  0.48635  0.08985  1.0000
  Co  Co208     1.0  0.76365  0.36764  0.08985  1.0000
  Ti  Ti737     1.0  0.98635  0.08985  0.38236  1.0000
  Co  Co209     1.0  0.86764  0.08985  0.26365  1.0000
  Ti  Ti738     1.0  0.98635  0.58985  0.88236  1.0000
  Co  Co210     1.0  0.86764  0.58985  0.76365  1.0000
  Ti  Ti739     1.0  0.48635  0.08985  0.88236  1.0000
  Co  Co211     1.0  0.36764  0.08985  0.76365  1.0000
  Ti  Ti740     1.0  0.48635  0.58985  0.38236  1.0000
  Co  Co212     1.0  0.36764  0.58985  0.26365  1.0000
  Ti  Ti741     1.0  0.26365  0.58985  0.36764  1.0000
  Co  Co213     1.0  0.38236  0.58985  0.48635  1.0000
  Ti  Ti742     1.0  0.26365  0.08985  0.86764  1.0000
  Co  Co214     1.0  0.38236  0.08985  0.98635  1.0000
  Ti  Ti743     1.0  0.76365  0.58985  0.86764  1.0000
  Co  Co215     1.0  0.88236  0.58985  0.98635  1.0000
  Ti  Ti744     1.0  0.76365  0.08985  0.36764  1.0000
  Co  Co216     1.0  0.88236  0.08985  0.48635  1.0000
  Ti  Ti745     1.0  0.76365  0.16015  0.88236  1.0000
  Co  Co217     1.0  0.88236  0.16015  0.76365  1.0000
  Ti  Ti746     1.0  0.76365  0.66015  0.38236  1.0000
  Co  Co218     1.0  0.88236  0.66015  0.26365  1.0000
  Ti  Ti747     1.0  0.26365  0.16015  0.38236  1.0000
  Co  Co219     1.0  0.38236  0.16015  0.26365  1.0000
  Ti  Ti748     1.0  0.26365  0.66015  0.88236  1.0000
  Co  Co220     1.0  0.38236  0.66015  0.76365  1.0000
  Ti  Ti749     1.0  0.48635  0.66015  0.86764  1.0000
  Co  Co221     1.0  0.36764  0.66015  0.98635  1.0000
  Ti  Ti750     1.0  0.48635  0.16015  0.36764  1.0000
  Co  Co222     1.0  0.36764  0.16015  0.48635  1.0000
  Ti  Ti751     1.0  0.98635  0.66015  0.36764  1.0000
  Co  Co223     1.0  0.86764  0.66015  0.48635  1.0000
  Ti  Ti752     1.0  0.98635  0.16015  0.86764  1.0000
  Co  Co224     1.0  0.86764  0.16015  0.98635  1.0000
  Ti  Ti753     1.0  0.58985  0.36764  0.26365  1.0000
  Co  Co225     1.0  0.58985  0.48635  0.38236  1.0000
  Ti  Ti754     1.0  0.58985  0.86764  0.76365  1.0000
  Co  Co226     1.0  0.58985  0.98635  0.88236  1.0000
  Ti  Ti755     1.0  0.08985  0.36764  0.76365  1.0000
  Co  Co227     1.0  0.08985  0.48635  0.88236  1.0000
  Ti  Ti756     1.0  0.08985  0.86764  0.26365  1.0000
  Co  Co228     1.0  0.08985  0.98635  0.38236  1.0000
  Ti  Ti757     1.0  0.08985  0.38236  0.98635  1.0000
  Co  Co229     1.0  0.08985  0.26365  0.86764  1.0000
  Ti  Ti758     1.0  0.08985  0.88236  0.48635  1.0000
  Co  Co230     1.0  0.08985  0.76365  0.36764  1.0000
  Ti  Ti759     1.0  0.58985  0.38236  0.48635  1.0000
  Co  Co231     1.0  0.58985  0.26365  0.36764  1.0000
  Ti  Ti760     1.0  0.58985  0.88236  0.98635  1.0000
  Co  Co232     1.0  0.58985  0.76365  0.86764  1.0000
  Ti  Ti761     1.0  0.66015  0.86764  0.48635  1.0000
  Co  Co233     1.0  0.66015  0.98635  0.36764  1.0000
  Ti  Ti762     1.0  0.66015  0.36764  0.98635  1.0000
  Co  Co234     1.0  0.66015  0.48635  0.86764  1.0000
  Ti  Ti763     1.0  0.16015  0.86764  0.98635  1.0000
  Co  Co235     1.0  0.16015  0.98635  0.86764  1.0000
  Ti  Ti764     1.0  0.16015  0.36764  0.48635  1.0000
  Co  Co236     1.0  0.16015  0.48635  0.36764  1.0000
  Ti  Ti765     1.0  0.16015  0.88236  0.76365  1.0000
  Co  Co237     1.0  0.16015  0.76365  0.88236  1.0000
  Ti  Ti766     1.0  0.16015  0.38236  0.26365  1.0000
  Co  Co238     1.0  0.16015  0.26365  0.38236  1.0000
  Ti  Ti767     1.0  0.66015  0.88236  0.26365  1.0000
  Co  Co239     1.0  0.66015  0.76365  0.38236  1.0000
  Ti  Ti768     1.0  0.66015  0.38236  0.76365  1.0000
  Co  Co240     1.0  0.66015  0.26365  0.88236  1.0000
  Co  Co241     1.0  0.25000  0.07632  0.82632  1.0000
  Co  Co242     1.0  0.25000  0.57632  0.32632  1.0000
  Co  Co243     1.0  0.75000  0.07632  0.32632  1.0000
  Co  Co244     1.0  0.50000  0.17368  0.32632  1.0000
  Co  Co245     1.0  0.50000  0.67368  0.82632  1.0000
  Co  Co246     1.0  0.00000  0.17368  0.82632  1.0000
  Co  Co247     1.0  0.00000  0.57632  0.92368  1.0000
  Co  Co248     1.0  0.50000  0.57632  0.42368  1.0000
  Co  Co249     1.0  0.75000  0.67368  0.42368  1.0000
  Co  Co250     1.0  0.25000  0.67368  0.92368  1.0000
  Co  Co251     1.0  0.82632  0.25000  0.07632  1.0000
  Co  Co252     1.0  0.82632  0.75000  0.57632  1.0000
  Co  Co253     1.0  0.32632  0.25000  0.57632  1.0000
  Co  Co254     1.0  0.32632  0.50000  0.17368  1.0000
  Co  Co255     1.0  0.32632  0.00000  0.67368  1.0000
  Co  Co256     1.0  0.82632  0.50000  0.67368  1.0000
  Co  Co257     1.0  0.92368  0.00000  0.57632  1.0000
  Co  Co258     1.0  0.92368  0.50000  0.07632  1.0000
  Co  Co259     1.0  0.42368  0.75000  0.67368  1.0000
  Co  Co260     1.0  0.42368  0.25000  0.17368  1.0000
  Co  Co261     1.0  0.07632  0.82632  0.25000  1.0000
  Co  Co262     1.0  0.07632  0.32632  0.75000  1.0000
  Co  Co263     1.0  0.57632  0.32632  0.25000  1.0000
  Co  Co264     1.0  0.17368  0.32632  0.50000  1.0000
  Co  Co265     1.0  0.17368  0.82632  0.00000  1.0000
  Co  Co266     1.0  0.67368  0.82632  0.50000  1.0000
  Co  Co267     1.0  0.57632  0.92368  0.00000  1.0000
  Co  Co268     1.0  0.57632  0.42368  0.50000  1.0000
  Co  Co269     1.0  0.67368  0.42368  0.75000  1.0000
  Co  Co270     1.0  0.67368  0.92368  0.25000  1.0000
  Co  Co271     1.0  0.82632  0.00000  0.17368  1.0000
  Co  Co272     1.0  0.92368  0.75000  0.17368  1.0000
  Co  Co273     1.0  0.92368  0.25000  0.67368  1.0000
  Co  Co274     1.0  0.32632  0.75000  0.07632  1.0000
  Co  Co275     1.0  0.42368  0.00000  0.07632  1.0000
  Co  Co276     1.0  0.42368  0.50000  0.57632  1.0000
  Co  Co277     1.0  0.00000  0.07632  0.42368  1.0000
  Co  Co278     1.0  0.50000  0.07632  0.92368  1.0000
  Co  Co279     1.0  0.75000  0.57632  0.82632  1.0000
  Co  Co280     1.0  0.75000  0.17368  0.92368  1.0000
  Co  Co281     1.0  0.25000  0.17368  0.42368  1.0000
  Co  Co282     1.0  0.00000  0.67368  0.32632  1.0000
  Co  Co283     1.0  0.57632  0.82632  0.75000  1.0000
  Co  Co284     1.0  0.07632  0.42368  0.00000  1.0000
  Co  Co285     1.0  0.07632  0.92368  0.50000  1.0000
  Co  Co286     1.0  0.67368  0.32632  0.00000  1.0000
  Co  Co287     1.0  0.17368  0.92368  0.75000  1.0000
  Co  Co288     1.0  0.17368  0.42368  0.25000  1.0000
  Co  Co289     1.0  0.75000  0.92368  0.17368  1.0000
  Co  Co290     1.0  0.25000  0.92368  0.67368  1.0000
  Co  Co291     1.0  0.50000  0.82632  0.67368  1.0000
  Co  Co292     1.0  0.00000  0.82632  0.17368  1.0000
  Co  Co293     1.0  0.00000  0.42368  0.07632  1.0000
  Co  Co294     1.0  0.50000  0.42368  0.57632  1.0000
  Co  Co295     1.0  0.25000  0.32632  0.57632  1.0000
  Co  Co296     1.0  0.75000  0.32632  0.07632  1.0000
  Co  Co297     1.0  0.17368  0.75000  0.92368  1.0000
  Co  Co298     1.0  0.17368  0.25000  0.42368  1.0000
  Co  Co299     1.0  0.67368  0.50000  0.82632  1.0000
  Co  Co300     1.0  0.67368  0.00000  0.32632  1.0000
  Co  Co301     1.0  0.07632  0.00000  0.42368  1.0000
  Co  Co302     1.0  0.07632  0.50000  0.92368  1.0000
  Co  Co303     1.0  0.57632  0.25000  0.32632  1.0000
  Co  Co304     1.0  0.57632  0.75000  0.82632  1.0000
  Co  Co305     1.0  0.92368  0.17368  0.75000  1.0000
  Co  Co306     1.0  0.92368  0.67368  0.25000  1.0000
  Co  Co307     1.0  0.82632  0.67368  0.50000  1.0000
  Co  Co308     1.0  0.82632  0.17368  0.00000  1.0000
  Co  Co309     1.0  0.42368  0.07632  0.00000  1.0000
  Co  Co310     1.0  0.42368  0.57632  0.50000  1.0000
  Co  Co311     1.0  0.32632  0.57632  0.25000  1.0000
  Co  Co312     1.0  0.32632  0.07632  0.75000  1.0000
  Co  Co313     1.0  0.17368  0.50000  0.32632  1.0000
  Co  Co314     1.0  0.17368  0.00000  0.82632  1.0000
  Co  Co315     1.0  0.07632  0.25000  0.82632  1.0000
  Co  Co316     1.0  0.07632  0.75000  0.32632  1.0000
  Co  Co317     1.0  0.67368  0.75000  0.42368  1.0000
  Co  Co318     1.0  0.67368  0.25000  0.92368  1.0000
  Co  Co319     1.0  0.57632  0.00000  0.92368  1.0000
  Co  Co320     1.0  0.57632  0.50000  0.42368  1.0000
  Co  Co321     1.0  0.00000  0.92368  0.57632  1.0000
  Co  Co322     1.0  0.50000  0.92368  0.07632  1.0000
  Co  Co323     1.0  0.75000  0.42368  0.67368  1.0000
  Co  Co324     1.0  0.25000  0.42368  0.17368  1.0000
  Co  Co325     1.0  0.25000  0.82632  0.07632  1.0000
  Co  Co326     1.0  0.75000  0.82632  0.57632  1.0000
  Co  Co327     1.0  0.50000  0.32632  0.17368  1.0000
  Co  Co328     1.0  0.00000  0.32632  0.67368  1.0000
  Co  Co329     1.0  0.42368  0.67368  0.75000  1.0000
  Co  Co330     1.0  0.42368  0.17368  0.25000  1.0000
  Co  Co331     1.0  0.92368  0.57632  0.00000  1.0000
  Co  Co332     1.0  0.92368  0.07632  0.50000  1.0000
  Co  Co333     1.0  0.32632  0.17368  0.50000  1.0000
  Co  Co334     1.0  0.32632  0.67368  0.00000  1.0000
  Co  Co335     1.0  0.82632  0.07632  0.25000  1.0000
  Co  Co336     1.0  0.82632  0.57632  0.75000  1.0000
  Ti  Ti769     1.0  0.15949  0.09051  0.05559  1.0000
  Co  Co337     1.0  0.09051  0.15949  0.05559  1.0000
  Ti  Ti770     1.0  0.15949  0.59051  0.55559  1.0000
  Co  Co338     1.0  0.09051  0.65949  0.55559  1.0000
  Ti  Ti771     1.0  0.65949  0.09051  0.55559  1.0000
  Co  Co339     1.0  0.59051  0.15949  0.55559  1.0000
  Ti  Ti772     1.0  0.59051  0.65949  0.05559  1.0000
  Co  Co340     1.0  0.65949  0.59051  0.05559  1.0000
  Ti  Ti773     1.0  0.09051  0.59051  0.69441  1.0000
  Co  Co341     1.0  0.15949  0.65949  0.69441  1.0000
  Ti  Ti774     1.0  0.09051  0.09051  0.19441  1.0000
  Co  Co342     1.0  0.15949  0.15949  0.19441  1.0000
  Ti  Ti775     1.0  0.59051  0.59051  0.19441  1.0000
  Co  Co343     1.0  0.65949  0.65949  0.19441  1.0000
  Ti  Ti776     1.0  0.65949  0.15949  0.69441  1.0000
  Co  Co344     1.0  0.59051  0.09051  0.69441  1.0000
  Ti  Ti777     1.0  0.05559  0.15949  0.09051  1.0000
  Co  Co345     1.0  0.05559  0.09051  0.15949  1.0000
  Ti  Ti778     1.0  0.05559  0.65949  0.59051  1.0000
  Co  Co346     1.0  0.05559  0.59051  0.65949  1.0000
  Ti  Ti779     1.0  0.55559  0.15949  0.59051  1.0000
  Co  Co347     1.0  0.55559  0.09051  0.65949  1.0000
  Ti  Ti780     1.0  0.55559  0.59051  0.15949  1.0000
  Co  Co348     1.0  0.55559  0.65949  0.09051  1.0000
  Ti  Ti781     1.0  0.69441  0.09051  0.59051  1.0000
  Co  Co349     1.0  0.69441  0.15949  0.65949  1.0000
  Ti  Ti782     1.0  0.19441  0.09051  0.09051  1.0000
  Co  Co350     1.0  0.19441  0.15949  0.15949  1.0000
  Ti  Ti783     1.0  0.19441  0.59051  0.59051  1.0000
  Co  Co351     1.0  0.19441  0.65949  0.65949  1.0000
  Ti  Ti784     1.0  0.69441  0.65949  0.15949  1.0000
  Co  Co352     1.0  0.69441  0.59051  0.09051  1.0000
  Ti  Ti785     1.0  0.09051  0.05559  0.15949  1.0000
  Co  Co353     1.0  0.15949  0.05559  0.09051  1.0000
  Ti  Ti786     1.0  0.09051  0.55559  0.65949  1.0000
  Co  Co354     1.0  0.15949  0.55559  0.59051  1.0000
  Ti  Ti787     1.0  0.59051  0.55559  0.15949  1.0000
  Co  Co355     1.0  0.65949  0.55559  0.09051  1.0000
  Ti  Ti788     1.0  0.59051  0.69441  0.09051  1.0000
  Co  Co356     1.0  0.65949  0.69441  0.15949  1.0000
  Ti  Ti789     1.0  0.59051  0.19441  0.59051  1.0000
  Co  Co357     1.0  0.65949  0.19441  0.65949  1.0000
  Ti  Ti790     1.0  0.15949  0.19441  0.15949  1.0000
  Co  Co358     1.0  0.09051  0.19441  0.09051  1.0000
  Ti  Ti791     1.0  0.15949  0.69441  0.65949  1.0000
  Co  Co359     1.0  0.09051  0.69441  0.59051  1.0000
  Ti  Ti792     1.0  0.84051  0.40949  0.44441  1.0000
  Co  Co360     1.0  0.90949  0.34051  0.44441  1.0000
  Ti  Ti793     1.0  0.34051  0.40949  0.94441  1.0000
  Co  Co361     1.0  0.40949  0.34051  0.94441  1.0000
  Ti  Ti794     1.0  0.90949  0.84051  0.94441  1.0000
  Co  Co362     1.0  0.84051  0.90949  0.94441  1.0000
  Ti  Ti795     1.0  0.34051  0.34051  0.80559  1.0000
  Co  Co363     1.0  0.40949  0.40949  0.80559  1.0000
  Ti  Ti796     1.0  0.34051  0.84051  0.30559  1.0000
  Co  Co364     1.0  0.40949  0.90949  0.30559  1.0000
  Ti  Ti797     1.0  0.84051  0.34051  0.30559  1.0000
  Co  Co365     1.0  0.90949  0.40949  0.30559  1.0000
  Ti  Ti798     1.0  0.84051  0.84051  0.80559  1.0000
  Co  Co366     1.0  0.90949  0.90949  0.80559  1.0000
  Ti  Ti799     1.0  0.90949  0.30559  0.40949  1.0000
  Co  Co367     1.0  0.84051  0.30559  0.34051  1.0000
  Ti  Ti800     1.0  0.90949  0.80559  0.90949  1.0000
  Co  Co368     1.0  0.84051  0.80559  0.84051  1.0000
  Ti  Ti801     1.0  0.34051  0.80559  0.34051  1.0000
  Co  Co369     1.0  0.40949  0.80559  0.40949  1.0000
  Ti  Ti802     1.0  0.34051  0.30559  0.84051  1.0000
  Co  Co370     1.0  0.40949  0.30559  0.90949  1.0000
  Ti  Ti803     1.0  0.84051  0.94441  0.90949  1.0000
  Co  Co371     1.0  0.90949  0.94441  0.84051  1.0000
  Ti  Ti804     1.0  0.34051  0.94441  0.40949  1.0000
  Co  Co372     1.0  0.40949  0.94441  0.34051  1.0000
  Ti  Ti805     1.0  0.40949  0.44441  0.84051  1.0000
  Co  Co373     1.0  0.34051  0.44441  0.90949  1.0000
  Ti  Ti806     1.0  0.80559  0.34051  0.34051  1.0000
  Co  Co374     1.0  0.80559  0.40949  0.40949  1.0000
  Ti  Ti807     1.0  0.80559  0.84051  0.84051  1.0000
  Co  Co375     1.0  0.80559  0.90949  0.90949  1.0000
  Ti  Ti808     1.0  0.30559  0.34051  0.84051  1.0000
  Co  Co376     1.0  0.30559  0.40949  0.90949  1.0000
  Ti  Ti809     1.0  0.30559  0.84051  0.34051  1.0000
  Co  Co377     1.0  0.30559  0.90949  0.40949  1.0000
  Ti  Ti810     1.0  0.44441  0.84051  0.40949  1.0000
  Co  Co378     1.0  0.44441  0.90949  0.34051  1.0000
  Ti  Ti811     1.0  0.44441  0.34051  0.90949  1.0000
  Co  Co379     1.0  0.44441  0.40949  0.84051  1.0000
  Ti  Ti812     1.0  0.94441  0.90949  0.84051  1.0000
  Co  Co380     1.0  0.94441  0.84051  0.90949  1.0000
  Ti  Ti813     1.0  0.94441  0.40949  0.34051  1.0000
  Co  Co381     1.0  0.94441  0.34051  0.40949  1.0000
  Ti  Ti814     1.0  0.34051  0.90949  0.44441  1.0000
  Co  Co382     1.0  0.40949  0.84051  0.44441  1.0000
  Ti  Ti815     1.0  0.90949  0.44441  0.34051  1.0000
  Co  Co383     1.0  0.84051  0.44441  0.40949  1.0000
  Ti  Ti816     1.0  0.65949  0.05559  0.59051  1.0000
  Co  Co384     1.0  0.59051  0.05559  0.65949  1.0000
