# DDEC6 charges by PACMAN v1.1 (https://github.com/mtap-research/PACMAN-charge/)
data_ERUNOW_FSR_pacman
_symmetry_space_group_name_H-M   'P 1'
_cell_length_a   31.44530000
_cell_length_b   31.44530000
_cell_length_c   31.44530000
_cell_angle_alpha   147.74900000
_cell_angle_beta   147.74900000
_cell_angle_gamma   46.25640000
_symmetry_Int_Tables_number   1
_chemical_formula_structural   Co8H92C112N8O25
_chemical_formula_sum   'Co16 H184 C224 N16 O50'
_cell_volume   8823.14410317
_cell_formula_units_Z   2
loop_
 _symmetry_equiv_pos_site_id
 _symmetry_equiv_pos_as_xyz
  1  'x, y, z'
loop_
 _atom_site_type_symbol
 _atom_site_label
 _atom_site_symmetry_multiplicity
 _atom_site_fract_x
 _atom_site_fract_y
 _atom_site_fract_z
 _atom_site_occupancy
 _atom_site_charge
Co  Co1  1  0.86653000  0.34673000  0.78808000  1.0 0.8217629367
Co  Co2  1  0.55865000  0.07845000  0.21192000  1.0 0.8217629367
Co  Co3  1  0.09673000  0.80865000  0.98020000  1.0 0.8217629367
Co  Co4  1  0.82845000  0.11653000  0.01980000  1.0 0.8217629367
Co  Co5  1  0.88347000  0.90327000  0.71192000  1.0 0.8217629367
Co  Co6  1  0.19135000  0.17155000  0.28808000  1.0 0.8217629367
Co  Co7  1  0.65327000  0.44135000  0.51980000  1.0 0.8217629367
Co  Co8  1  0.92155000  0.13347000  0.48020000  1.0 0.8217629367
Co  Co9  1  0.72181000  0.36783000  0.59966000  1.0 1.0490914905
Co  Co10  1  0.76817000  0.12215000  0.40034000  1.0 1.0490914905
Co  Co11  1  0.11783000  0.01817000  0.14602000  1.0 1.0490914905
Co  Co12  1  0.87215000  0.97181000  0.85398000  1.0 1.0490914905
Co  Co13  1  0.02819000  0.88217000  0.90034000  1.0 1.0490914905
Co  Co14  1  0.98183000  0.12785000  0.09966000  1.0 1.0490914905
Co  Co15  1  0.63217000  0.23183000  0.35398000  1.0 1.0490914905
Co  Co16  1  0.87785000  0.27819000  0.64602000  1.0 1.0490914905
H  H1  1  0.85480000  0.42180000  0.77560000  1.0 0.3503041068
H  H2  1  0.64620000  0.07920000  0.22440000  1.0 0.3503041068
H  H3  1  0.17180000  0.89620000  0.06700000  1.0 0.3503041068
H  H4  1  0.82920000  0.10480000  0.93300000  1.0 0.3503041068
H  H5  1  0.89520000  0.82820000  0.72440000  1.0 0.3503041068
H  H6  1  0.10380000  0.17080000  0.27560000  1.0 0.3503041068
H  H7  1  0.57820000  0.35380000  0.43300000  1.0 0.3503041068
H  H8  1  0.92080000  0.14520000  0.56700000  1.0 0.3503041068
H  H9  1  0.91500000  0.21270000  0.68970000  1.0 0.2914458388
H  H10  1  0.52300000  0.22530000  0.31030000  1.0 0.2914458388
H  H11  1  0.96270000  0.77300000  0.79770000  1.0 0.2914458388
H  H12  1  0.97530000  0.16500000  0.20230000  1.0 0.2914458388
H  H13  1  0.83500000  0.03730000  0.81030000  1.0 0.2914458388
H  H14  1  0.22700000  0.02470000  0.18970000  1.0 0.2914458388
H  H15  1  0.78730000  0.47700000  0.70230000  1.0 0.2914458388
H  H16  1  0.77470000  0.08500000  0.29770000  1.0 0.2914458388
H  H17  1  0.83560000  0.19530000  0.61950000  1.0 0.3395967842
H  H18  1  0.57580000  0.21610000  0.38050000  1.0 0.3395967842
H  H19  1  0.94530000  0.82580000  0.85970000  1.0 0.3395967842
H  H20  1  0.96610000  0.08560000  0.14030000  1.0 0.3395967842
H  H21  1  0.91440000  0.05470000  0.88050000  1.0 0.3395967842
H  H22  1  0.17420000  0.03390000  0.11950000  1.0 0.3395967842
H  H23  1  0.80470000  0.42420000  0.64030000  1.0 0.3395967842
H  H24  1  0.78390000  0.16440000  0.35970000  1.0 0.3395967842
H  H25  1  0.62070000  0.91680000  0.15210000  1.0 0.0985208662
H  H26  1  0.76470000  0.46860000  0.84790000  1.0 0.0985208662
H  H27  1  0.66680000  0.01470000  0.79610000  1.0 0.0985208662
H  H28  1  0.21860000  0.87070000  0.20390000  1.0 0.0985208662
H  H29  1  0.12930000  0.33320000  0.34790000  1.0 0.0985208662
H  H30  1  0.98530000  0.78140000  0.65210000  1.0 0.0985208662
H  H31  1  0.08320000  0.23530000  0.70390000  1.0 0.0985208662
H  H32  1  0.53140000  0.37930000  0.29610000  1.0 0.0985208662
H  H33  1  0.63700000  0.79380000  0.03340000  1.0 0.1188013329
H  H34  1  0.76040000  0.60360000  0.96660000  1.0 0.1188013329
H  H35  1  0.54380000  0.01040000  0.65680000  1.0 0.1188013329
H  H36  1  0.35360000  0.88700000  0.34320000  1.0 0.1188013329
H  H37  1  0.11300000  0.45620000  0.46660000  1.0 0.1188013329
H  H38  1  0.98960000  0.64640000  0.53340000  1.0 0.1188013329
H  H39  1  0.20620000  0.23960000  0.84320000  1.0 0.1188013329
H  H40  1  0.39640000  0.36300000  0.15680000  1.0 0.1188013329
H  H41  1  0.48970000  0.84450000  0.85760000  1.0 0.1188013329
H  H42  1  0.98690000  0.63210000  0.14240000  1.0 0.1188013329
H  H43  1  0.59450000  0.23690000  0.85480000  1.0 0.1188013329
H  H44  1  0.38210000  0.73970000  0.14520000  1.0 0.1188013329
H  H45  1  0.26030000  0.40550000  0.64240000  1.0 0.1188013329
H  H46  1  0.76310000  0.61790000  0.35760000  1.0 0.1188013329
H  H47  1  0.15550000  0.01310000  0.64520000  1.0 0.1188013329
H  H48  1  0.36790000  0.51030000  0.35480000  1.0 0.1188013329
H  H49  1  0.47900000  0.96640000  0.98140000  1.0 0.0985208662
H  H50  1  0.98500000  0.49760000  0.01860000  1.0 0.0985208662
H  H51  1  0.71640000  0.23500000  0.98740000  1.0 0.0985208662
H  H52  1  0.24760000  0.72900000  0.01260000  1.0 0.0985208662
H  H53  1  0.27100000  0.28360000  0.51860000  1.0 0.0985208662
H  H54  1  0.76500000  0.75240000  0.48140000  1.0 0.0985208662
H  H55  1  0.03360000  0.01500000  0.51260000  1.0 0.0985208662
H  H56  1  0.50240000  0.52100000  0.48740000  1.0 0.0985208662
H  H57  1  0.60230000  0.66270000  0.87080000  1.0 0.1090836774
H  H58  1  0.79190000  0.73150000  0.12920000  1.0 0.1090836774
H  H59  1  0.41270000  0.04190000  0.56040000  1.0 0.1090836774
H  H60  1  0.48150000  0.85230000  0.43960000  1.0 0.1090836774
H  H61  1  0.14770000  0.58730000  0.62920000  1.0 0.1090836774
H  H62  1  0.95810000  0.51850000  0.37080000  1.0 0.1090836774
H  H63  1  0.33730000  0.20810000  0.93960000  1.0 0.1090836774
H  H64  1  0.26850000  0.39770000  0.06040000  1.0 0.1090836774
H  H65  1  0.63610000  0.55020000  0.76790000  1.0 0.1188013329
H  H66  1  0.78230000  0.86820000  0.23210000  1.0 0.1188013329
H  H67  1  0.30020000  0.03230000  0.41410000  1.0 0.1188013329
H  H68  1  0.61820000  0.88610000  0.58590000  1.0 0.1188013329
H  H69  1  0.11390000  0.69980000  0.73210000  1.0 0.1188013329
H  H70  1  0.96770000  0.38180000  0.26790000  1.0 0.1188013329
H  H71  1  0.44980000  0.21770000  0.08590000  1.0 0.1188013329
H  H72  1  0.13180000  0.36390000  0.91410000  1.0 0.1188013329
H  H73  1  0.60910000  0.66180000  0.72830000  1.0 0.1090836774
H  H74  1  0.93350000  0.88080000  0.27170000  1.0 0.1090836774
H  H75  1  0.41180000  0.18350000  0.55270000  1.0 0.1090836774
H  H76  1  0.63080000  0.85910000  0.44730000  1.0 0.1090836774
H  H77  1  0.14090000  0.58820000  0.77170000  1.0 0.1090836774
H  H78  1  0.81650000  0.36920000  0.22830000  1.0 0.1090836774
H  H79  1  0.33820000  0.06650000  0.94730000  1.0 0.1090836774
H  H80  1  0.11920000  0.39090000  0.05270000  1.0 0.1090836774
H  H81  1  0.57020000  0.77200000  0.82420000  1.0 0.1090836774
H  H82  1  0.94780000  0.74600000  0.17580000  1.0 0.1090836774
H  H83  1  0.52200000  0.19780000  0.70180000  1.0 0.1090836774
H  H84  1  0.49600000  0.82020000  0.29820000  1.0 0.1090836774
H  H85  1  0.17980000  0.47800000  0.67580000  1.0 0.1090836774
H  H86  1  0.80220000  0.50400000  0.32420000  1.0 0.1090836774
H  H87  1  0.22800000  0.05220000  0.79820000  1.0 0.1090836774
H  H88  1  0.25400000  0.42980000  0.20180000  1.0 0.1090836774
H  H89  1  0.82390000  0.21630000  0.70780000  1.0 0.0985208662
H  H90  1  0.50850000  0.11610000  0.29220000  1.0 0.0985208662
H  H91  1  0.96630000  0.75850000  0.89240000  1.0 0.0985208662
H  H92  1  0.86610000  0.07390000  0.10760000  1.0 0.0985208662
H  H93  1  0.92610000  0.03370000  0.79220000  1.0 0.0985208662
H  H94  1  0.24150000  0.13390000  0.20780000  1.0 0.0985208662
H  H95  1  0.78370000  0.49150000  0.60760000  1.0 0.0985208662
H  H96  1  0.88390000  0.17610000  0.39240000  1.0 0.0985208662
H  H97  1  0.86100000  0.17240000  0.76880000  1.0 0.0899184793
H  H98  1  0.40360000  0.09220000  0.23120000  1.0 0.0899184793
H  H99  1  0.92240000  0.65360000  0.81140000  1.0 0.0899184793
H  H100  1  0.84220000  0.11100000  0.18860000  1.0 0.0899184793
H  H101  1  0.88900000  0.07760000  0.73120000  1.0 0.0899184793
H  H102  1  0.34640000  0.15780000  0.26880000  1.0 0.0899184793
H  H103  1  0.82760000  0.59640000  0.68860000  1.0 0.0899184793
H  H104  1  0.90780000  0.13900000  0.31140000  1.0 0.0899184793
H  H105  1  0.04440000  0.34670000  0.06890000  1.0 0.0985208662
H  H106  1  0.27780000  0.97550000  0.93110000  1.0 0.0985208662
H  H107  1  0.09670000  0.52780000  0.80230000  1.0 0.0985208662
H  H108  1  0.72550000  0.29440000  0.19770000  1.0 0.0985208662
H  H109  1  0.70560000  0.90330000  0.43110000  1.0 0.0985208662
H  H110  1  0.47220000  0.27450000  0.56890000  1.0 0.0985208662
H  H111  1  0.65330000  0.72220000  0.69770000  1.0 0.0985208662
H  H112  1  0.02450000  0.95560000  0.30230000  1.0 0.0985208662
H  H113  1  0.00140000  0.38340000  0.99760000  1.0 0.1090836774
H  H114  1  0.38580000  0.00380000  0.00240000  1.0 0.1090836774
H  H115  1  0.13340000  0.63580000  0.88200000  1.0 0.1090836774
H  H116  1  0.75380000  0.25140000  0.11800000  1.0 0.1090836774
H  H117  1  0.74860000  0.86660000  0.50240000  1.0 0.1090836774
H  H118  1  0.36420000  0.24620000  0.49760000  1.0 0.1090836774
H  H119  1  0.61660000  0.61420000  0.61800000  1.0 0.1090836774
H  H120  1  0.99620000  0.99860000  0.38200000  1.0 0.1090836774
H  H121  1  0.86530000  0.22330000  0.89400000  1.0 0.1090836774
H  H122  1  0.32930000  0.97130000  0.10600000  1.0 0.1090836774
H  H123  1  0.97330000  0.57930000  0.85800000  1.0 0.1090836774
H  H124  1  0.72130000  0.11530000  0.14200000  1.0 0.1090836774
H  H125  1  0.88470000  0.02670000  0.60600000  1.0 0.1090836774
H  H126  1  0.42070000  0.27870000  0.39400000  1.0 0.1090836774
H  H127  1  0.77670000  0.67070000  0.64200000  1.0 0.1090836774
H  H128  1  0.02870000  0.13470000  0.35800000  1.0 0.1090836774
H  H129  1  0.90580000  0.18550000  0.96350000  1.0 0.1090836774
H  H130  1  0.22200000  0.94230000  0.03650000  1.0 0.1090836774
H  H131  1  0.93550000  0.47200000  0.77970000  1.0 0.1090836774
H  H132  1  0.69230000  0.15580000  0.22030000  1.0 0.1090836774
H  H133  1  0.84420000  0.06450000  0.53650000  1.0 0.1090836774
H  H134  1  0.52800000  0.30770000  0.46350000  1.0 0.1090836774
H  H135  1  0.81450000  0.77800000  0.72030000  1.0 0.1090836774
H  H136  1  0.05770000  0.09420000  0.27970000  1.0 0.1090836774
H  H137  1  0.13610000  0.20940000  0.14130000  1.0 0.1090836774
H  H138  1  0.06810000  0.99480000  0.85870000  1.0 0.1090836774
H  H139  1  0.95940000  0.31810000  0.57330000  1.0 0.1090836774
H  H140  1  0.74480000  0.38610000  0.42670000  1.0 0.1090836774
H  H141  1  0.61390000  0.04060000  0.35870000  1.0 0.1090836774
H  H142  1  0.68190000  0.25520000  0.64130000  1.0 0.1090836774
H  H143  1  0.79060000  0.93190000  0.92670000  1.0 0.1090836774
H  H144  1  0.00520000  0.86390000  0.07330000  1.0 0.1090836774
H  H145  1  0.09680000  0.24180000  0.06720000  1.0 0.1090836774
H  H146  1  0.17460000  0.02960000  0.93280000  1.0 0.1090836774
H  H147  1  0.99180000  0.42460000  0.64500000  1.0 0.1090836774
H  H148  1  0.77960000  0.34680000  0.35500000  1.0 0.1090836774
H  H149  1  0.65320000  0.00820000  0.43280000  1.0 0.1090836774
H  H150  1  0.57540000  0.22040000  0.56720000  1.0 0.1090836774
H  H151  1  0.75820000  0.82540000  0.85500000  1.0 0.1090836774
H  H152  1  0.97040000  0.90320000  0.14500000  1.0 0.1090836774
H  H153  1  0.81790000  0.36030000  0.85180000  1.0 0.1090836774
H  H154  1  0.50850000  0.96610000  0.14820000  1.0 0.1090836774
H  H155  1  0.11030000  0.75850000  0.04240000  1.0 0.1090836774
H  H156  1  0.71610000  0.06790000  0.95760000  1.0 0.1090836774
H  H157  1  0.93210000  0.88970000  0.64820000  1.0 0.1090836774
H  H158  1  0.24150000  0.28390000  0.35180000  1.0 0.1090836774
H  H159  1  0.63970000  0.49150000  0.45760000  1.0 0.1090836774
H  H160  1  0.03390000  0.18210000  0.54240000  1.0 0.1090836774
H  H161  1  0.85610000  0.32660000  0.92330000  1.0 0.0899184793
H  H162  1  0.40330000  0.93280000  0.07670000  1.0 0.0899184793
H  H163  1  0.07660000  0.65330000  0.97050000  1.0 0.0899184793
H  H164  1  0.68280000  0.10610000  0.02950000  1.0 0.0899184793
H  H165  1  0.89390000  0.92340000  0.57670000  1.0 0.0899184793
H  H166  1  0.34670000  0.31720000  0.42330000  1.0 0.0899184793
H  H167  1  0.67340000  0.59670000  0.52950000  1.0 0.0899184793
H  H168  1  0.06720000  0.14390000  0.47050000  1.0 0.0899184793
H  H169  1  0.03130000  0.20700000  0.91710000  1.0 0.0985208662
H  H170  1  0.28990000  0.11420000  0.08290000  1.0 0.0985208662
H  H171  1  0.95700000  0.53990000  0.67570000  1.0 0.0985208662
H  H172  1  0.86420000  0.28130000  0.32430000  1.0 0.0985208662
H  H173  1  0.71870000  0.04300000  0.58290000  1.0 0.0985208662
H  H174  1  0.46010000  0.13580000  0.41710000  1.0 0.0985208662
H  H175  1  0.79300000  0.71010000  0.82430000  1.0 0.0985208662
H  H176  1  0.88580000  0.96870000  0.17570000  1.0 0.0985208662
H  H177  1  0.99180000  0.25350000  0.85870000  1.0 0.1090836774
H  H178  1  0.39480000  0.13310000  0.14130000  1.0 0.1090836774
H  H179  1  0.00350000  0.64480000  0.76170000  1.0 0.1090836774
H  H180  1  0.88310000  0.24180000  0.23830000  1.0 0.1090836774
H  H181  1  0.75820000  0.99650000  0.64130000  1.0 0.1090836774
H  H182  1  0.35520000  0.11690000  0.35870000  1.0 0.1090836774
H  H183  1  0.74650000  0.60520000  0.73830000  1.0 0.1090836774
H  H184  1  0.86690000  0.00820000  0.26170000  1.0 0.1090836774
C  C1  1  0.59545000  0.90315000  0.09290000  1.0 0.0813325034
C  C2  1  0.81025000  0.50255000  0.90710000  1.0 0.0813325034
C  C3  1  0.65315000  0.06025000  0.80770000  1.0 0.0813325034
C  C4  1  0.25255000  0.84545000  0.19230000  1.0 0.0813325034
C  C5  1  0.15455000  0.34685000  0.40710000  1.0 0.0813325034
C  C6  1  0.93975000  0.74745000  0.59290000  1.0 0.0813325034
C  C7  1  0.09685000  0.18975000  0.69230000  1.0 0.0813325034
C  C8  1  0.49745000  0.40455000  0.30770000  1.0 0.0813325034
C  C9  1  0.60553000  0.82927000  0.02194000  1.0 -0.2052454199
C  C10  1  0.80733000  0.58359000  0.97806000  1.0 -0.2052454199
C  C11  1  0.57927000  0.05733000  0.72374000  1.0 -0.2052454199
C  C12  1  0.33359000  0.85553000  0.27626000  1.0 -0.2052454199
C  C13  1  0.14447000  0.42073000  0.47806000  1.0 -0.2052454199
C  C14  1  0.94267000  0.66641000  0.52194000  1.0 -0.2052454199
C  C15  1  0.17073000  0.19267000  0.77626000  1.0 -0.2052454199
C  C16  1  0.41641000  0.39447000  0.22374000  1.0 -0.2052454199
C  C17  1  0.57131000  0.80601000  0.93566000  1.0 0.1090836774
C  C18  1  0.87035000  0.63565000  0.06434000  1.0 0.1090836774
C  C19  1  0.55601000  0.12035000  0.73470000  1.0 0.1090836774
C  C20  1  0.38565000  0.82131000  0.26530000  1.0 0.1090836774
C  C21  1  0.17869000  0.44399000  0.56434000  1.0 0.1090836774
C  C22  1  0.87965000  0.61435000  0.43566000  1.0 0.1090836774
C  C23  1  0.19399000  0.12965000  0.76530000  1.0 0.1090836774
C  C24  1  0.36435000  0.42869000  0.23470000  1.0 0.1090836774
C  C25  1  0.52019000  0.85923000  0.92044000  1.0 -0.1992221898
C  C26  1  0.93879000  0.59975000  0.07956000  1.0 -0.1992221898
C  C27  1  0.60923000  0.18879000  0.83904000  1.0 -0.1992221898
C  C28  1  0.34975000  0.77019000  0.16096000  1.0 -0.1992221898
C  C29  1  0.22981000  0.39077000  0.57956000  1.0 -0.1992221898
C  C30  1  0.81121000  0.65025000  0.42044000  1.0 -0.1992221898
C  C31  1  0.14077000  0.06121000  0.66096000  1.0 -0.1992221898
C  C32  1  0.40025000  0.47981000  0.33904000  1.0 -0.1992221898
C  C33  1  0.51340000  0.93140000  0.99392000  1.0 0.0504471441
C  C34  1  0.93748000  0.51948000  0.00608000  1.0 0.0504471441
C  C35  1  0.68140000  0.18748000  0.91800000  1.0 0.0504471441
C  C36  1  0.26948000  0.76340000  0.08200000  1.0 0.0504471441
C  C37  1  0.23660000  0.31860000  0.50608000  1.0 0.0504471441
C  C38  1  0.81252000  0.73052000  0.49392000  1.0 0.0504471441
C  C39  1  0.06860000  0.06252000  0.58200000  1.0 0.0504471441
C  C40  1  0.48052000  0.48660000  0.41800000  1.0 0.0504471441
C  C41  1  0.58755000  0.73158000  0.86451000  1.0 0.0593432212
C  C42  1  0.86707000  0.72304000  0.13549000  1.0 0.0593432212
C  C43  1  0.48158000  0.11707000  0.64403000  1.0 0.0593432212
C  C44  1  0.47304000  0.83755000  0.35597000  1.0 0.0593432212
C  C45  1  0.16245000  0.51842000  0.63549000  1.0 0.0593432212
C  C46  1  0.88293000  0.52696000  0.36451000  1.0 0.0593432212
C  C47  1  0.26842000  0.13293000  0.85597000  1.0 0.0593432212
C  C48  1  0.27696000  0.41245000  0.14403000  1.0 0.0593432212
C  C49  1  0.60454000  0.66340000  0.84306000  1.0 -0.1671067006
C  C50  1  0.82034000  0.76148000  0.15694000  1.0 -0.1671067006
C  C51  1  0.41340000  0.07034000  0.55886000  1.0 -0.1671067006
C  C52  1  0.51148000  0.85454000  0.44114000  1.0 -0.1671067006
C  C53  1  0.14546000  0.58660000  0.65694000  1.0 -0.1671067006
C  C54  1  0.92966000  0.48852000  0.34306000  1.0 -0.1671067006
C  C55  1  0.33660000  0.17966000  0.94114000  1.0 -0.1671067006
C  C56  1  0.23852000  0.39546000  0.05886000  1.0 -0.1671067006
C  C57  1  0.62454000  0.59641000  0.78167000  1.0 -0.1197304907
C  C58  1  0.81474000  0.84287000  0.21833000  1.0 -0.1197304907
C  C59  1  0.34641000  0.06474000  0.47187000  1.0 -0.1197304907
C  C60  1  0.59287000  0.87454000  0.52813000  1.0 -0.1197304907
C  C61  1  0.12546000  0.65359000  0.71833000  1.0 -0.1197304907
C  C62  1  0.93526000  0.40713000  0.28167000  1.0 -0.1197304907
C  C63  1  0.40359000  0.18526000  0.02813000  1.0 -0.1197304907
C  C64  1  0.15713000  0.37546000  0.97187000  1.0 -0.1197304907
C  C65  1  0.62829000  0.59532000  0.73989000  1.0 -0.0301279011
C  C66  1  0.85543000  0.88840000  0.26011000  1.0 -0.0301279011
C  C67  1  0.34532000  0.10543000  0.46703000  1.0 -0.0301279011
C  C68  1  0.63840000  0.87829000  0.53297000  1.0 -0.0301279011
C  C69  1  0.12171000  0.65468000  0.76011000  1.0 -0.0301279011
C  C70  1  0.89457000  0.36160000  0.23989000  1.0 -0.0301279011
C  C71  1  0.40468000  0.14457000  0.03297000  1.0 -0.0301279011
C  C72  1  0.11160000  0.37171000  0.96703000  1.0 -0.0301279011
C  C73  1  0.60805000  0.66166000  0.75741000  1.0 -0.1197304907
C  C74  1  0.90425000  0.85064000  0.24259000  1.0 -0.1197304907
C  C75  1  0.41166000  0.15425000  0.55361000  1.0 -0.1197304907
C  C76  1  0.60064000  0.85805000  0.44639000  1.0 -0.1197304907
C  C77  1  0.14195000  0.58834000  0.74259000  1.0 -0.1197304907
C  C78  1  0.84575000  0.39936000  0.25741000  1.0 -0.1197304907
C  C79  1  0.33834000  0.09575000  0.94639000  1.0 -0.1197304907
C  C80  1  0.14936000  0.39195000  0.05361000  1.0 -0.1197304907
C  C81  1  0.58638000  0.72785000  0.81627000  1.0 -0.1585076241
C  C82  1  0.91158000  0.77011000  0.18373000  1.0 -0.1585076241
C  C83  1  0.47785000  0.16158000  0.64147000  1.0 -0.1585076241
C  C84  1  0.52011000  0.83638000  0.35853000  1.0 -0.1585076241
C  C85  1  0.16362000  0.52215000  0.68373000  1.0 -0.1585076241
C  C86  1  0.83842000  0.47989000  0.31627000  1.0 -0.1585076241
C  C87  1  0.27215000  0.08842000  0.85853000  1.0 -0.1585076241
C  C88  1  0.22989000  0.41362000  0.14147000  1.0 -0.1585076241
C  C89  1  0.65242000  0.52370000  0.67588000  1.0 0.5625865558
C  C90  1  0.84782000  0.97654000  0.32412000  1.0 0.5625865558
C  C91  1  0.27370000  0.09782000  0.37128000  1.0 0.5625865558
C  C92  1  0.72654000  0.90242000  0.62872000  1.0 0.5625865558
C  C93  1  0.09758000  0.72630000  0.82412000  1.0 0.5625865558
C  C94  1  0.90218000  0.27346000  0.17588000  1.0 0.5625865558
C  C95  1  0.47630000  0.15218000  0.12872000  1.0 0.5625865558
C  C96  1  0.02346000  0.34758000  0.87128000  1.0 0.5625865558
C  C97  1  0.86764000  0.24484000  0.78300000  1.0 0.0037504477
C  C98  1  0.46184000  0.08464000  0.21700000  1.0 0.0037504477
C  C99  1  0.99484000  0.71184000  0.87720000  1.0 0.0037504477
C  C100  1  0.83464000  0.11764000  0.12280000  1.0 0.0037504477
C  C101  1  0.88236000  0.00516000  0.71700000  1.0 0.0037504477
C  C102  1  0.28816000  0.16536000  0.28300000  1.0 0.0037504477
C  C103  1  0.75516000  0.53816000  0.62280000  1.0 0.0037504477
C  C104  1  0.91536000  0.13236000  0.37720000  1.0 0.0037504477
C  C105  1  0.88915000  0.21815000  0.81880000  1.0 -0.1111156447
C  C106  1  0.39935000  0.07035000  0.18120000  1.0 -0.1111156447
C  C107  1  0.96815000  0.64935000  0.82900000  1.0 -0.1111156447
C  C108  1  0.82035000  0.13915000  0.17100000  1.0 -0.1111156447
C  C109  1  0.86085000  0.03185000  0.68120000  1.0 -0.1111156447
C  C110  1  0.35065000  0.17965000  0.31880000  1.0 -0.1111156447
C  C111  1  0.78185000  0.60065000  0.67100000  1.0 -0.1111156447
C  C112  1  0.92965000  0.11085000  0.32900000  1.0 -0.1111156447
C  C113  1  0.95210000  0.25908000  0.92814000  1.0 0.0439042063
C  C114  1  0.33094000  0.02396000  0.07186000  1.0 0.0439042063
C  C115  1  0.00908000  0.58094000  0.80698000  1.0 0.0439042063
C  C116  1  0.77396000  0.20210000  0.19302000  1.0 0.0439042063
C  C117  1  0.79790000  0.99092000  0.57186000  1.0 0.0439042063
C  C118  1  0.41906000  0.22604000  0.42814000  1.0 0.0439042063
C  C119  1  0.74092000  0.66906000  0.69302000  1.0 0.0439042063
C  C120  1  0.97604000  0.04790000  0.30698000  1.0 0.0439042063
C  C121  1  0.99703000  0.32073000  0.99510000  1.0 -0.1197304907
C  C122  1  0.32563000  0.00193000  0.00490000  1.0 -0.1197304907
C  C123  1  0.07073000  0.57563000  0.82370000  1.0 -0.1197304907
C  C124  1  0.75193000  0.24703000  0.17630000  1.0 -0.1197304907
C  C125  1  0.75297000  0.92927000  0.50490000  1.0 -0.1197304907
C  C126  1  0.42437000  0.24807000  0.49510000  1.0 -0.1197304907
C  C127  1  0.67927000  0.67437000  0.67630000  1.0 -0.1197304907
C  C128  1  0.99807000  0.00297000  0.32370000  1.0 -0.1197304907
C  C129  1  0.97107000  0.34197000  0.95190000  1.0 -0.0640340014
C  C130  1  0.39007000  0.01917000  0.04810000  1.0 -0.0640340014
C  C131  1  0.09197000  0.64007000  0.87090000  1.0 -0.0640340014
C  C132  1  0.76917000  0.22107000  0.12910000  1.0 -0.0640340014
C  C133  1  0.77893000  0.90803000  0.54810000  1.0 -0.0640340014
C  C134  1  0.35993000  0.23083000  0.45190000  1.0 -0.0640340014
C  C135  1  0.65803000  0.60993000  0.62910000  1.0 -0.0640340014
C  C136  1  0.98083000  0.02893000  0.37090000  1.0 -0.0640340014
C  C137  1  0.97725000  0.23534000  0.97237000  1.0 0.0593432212
C  C138  1  0.26297000  0.00488000  0.02763000  1.0 0.0593432212
C  C139  1  0.98534000  0.51297000  0.75809000  1.0 0.0593432212
C  C140  1  0.75488000  0.22725000  0.24191000  1.0 0.0593432212
C  C141  1  0.77275000  0.01466000  0.52763000  1.0 0.0593432212
C  C142  1  0.48703000  0.24512000  0.47237000  1.0 0.0593432212
C  C143  1  0.76466000  0.73703000  0.74191000  1.0 0.0593432212
C  C144  1  0.99512000  0.02275000  0.25809000  1.0 0.0593432212
C  C145  1  0.92036000  0.21916000  0.94280000  1.0 -0.1769490647
C  C146  1  0.27636000  0.97756000  0.05720000  1.0 -0.1769490647
C  C147  1  0.96916000  0.52636000  0.79880000  1.0 -0.1769490647
C  C148  1  0.72756000  0.17036000  0.20120000  1.0 -0.1769490647
C  C149  1  0.82964000  0.03084000  0.55720000  1.0 -0.1769490647
C  C150  1  0.47364000  0.27244000  0.44280000  1.0 -0.1769490647
C  C151  1  0.78084000  0.72364000  0.70120000  1.0 -0.1769490647
C  C152  1  0.02244000  0.07964000  0.29880000  1.0 -0.1769490647
C  C153  1  0.94467000  0.19732000  0.98485000  1.0 -0.1278982167
C  C154  1  0.21247000  0.95982000  0.01515000  1.0 -0.1278982167
C  C155  1  0.94732000  0.46247000  0.75265000  1.0 -0.1278982167
C  C156  1  0.70982000  0.19467000  0.24735000  1.0 -0.1278982167
C  C157  1  0.80533000  0.05268000  0.51515000  1.0 -0.1278982167
C  C158  1  0.53753000  0.29018000  0.48485000  1.0 -0.1278982167
C  C159  1  0.80268000  0.78753000  0.74735000  1.0 -0.1278982167
C  C160  1  0.04018000  0.05533000  0.25265000  1.0 -0.1278982167
C  C161  1  0.02488000  0.19232000  0.05774000  1.0 -0.0381503156
C  C162  1  0.13458000  0.96714000  0.94226000  1.0 -0.0381503156
C  C163  1  0.94232000  0.38458000  0.66744000  1.0 -0.0381503156
C  C164  1  0.71714000  0.27488000  0.33256000  1.0 -0.0381503156
C  C165  1  0.72512000  0.05768000  0.44226000  1.0 -0.0381503156
C  C166  1  0.61542000  0.28286000  0.55774000  1.0 -0.0381503156
C  C167  1  0.80768000  0.86542000  0.83256000  1.0 -0.0381503156
C  C168  1  0.03286000  0.97512000  0.16744000  1.0 -0.0381503156
C  C169  1  0.08081000  0.21068000  0.08933000  1.0 -0.1197304907
C  C170  1  0.12135000  0.99148000  0.91067000  1.0 -0.1197304907
C  C171  1  0.96068000  0.37135000  0.62987000  1.0 -0.1197304907
C  C172  1  0.74148000  0.33081000  0.37013000  1.0 -0.1197304907
C  C173  1  0.66919000  0.03932000  0.41067000  1.0 -0.1197304907
C  C174  1  0.62865000  0.25852000  0.58933000  1.0 -0.1197304907
C  C175  1  0.78932000  0.87865000  0.87013000  1.0 -0.1197304907
C  C176  1  0.00852000  0.91919000  0.12987000  1.0 -0.1197304907
C  C177  1  0.05750000  0.23095000  0.04615000  1.0 -0.1769490647
C  C178  1  0.18480000  0.01135000  0.95385000  1.0 -0.1769490647
C  C179  1  0.98095000  0.43480000  0.67345000  1.0 -0.1769490647
C  C180  1  0.76135000  0.30750000  0.32655000  1.0 -0.1769490647
C  C181  1  0.69250000  0.01905000  0.45385000  1.0 -0.1769490647
C  C182  1  0.56520000  0.23865000  0.54615000  1.0 -0.1769490647
C  C183  1  0.76905000  0.81520000  0.82655000  1.0 -0.1769490647
C  C184  1  0.98865000  0.94250000  0.17345000  1.0 -0.1769490647
C  C185  1  0.05041000  0.17057000  0.10492000  1.0 0.5730950558
C  C186  1  0.06565000  0.94549000  0.89508000  1.0 0.5730950558
C  C187  1  0.92057000  0.31565000  0.62016000  1.0 0.5730950558
C  C188  1  0.69549000  0.30041000  0.37984000  1.0 0.5730950558
C  C189  1  0.69959000  0.07943000  0.39508000  1.0 0.5730950558
C  C190  1  0.68435000  0.30451000  0.60492000  1.0 0.5730950558
C  C191  1  0.82943000  0.93435000  0.87984000  1.0 0.5730950558
C  C192  1  0.05451000  0.94959000  0.12016000  1.0 0.5730950558
C  C193  1  0.86250000  0.32960000  0.86710000  1.0 -0.0474325273
C  C194  1  0.46250000  0.99540000  0.13290000  1.0 -0.0474325273
C  C195  1  0.07960000  0.71250000  0.96710000  1.0 -0.0474325273
C  C196  1  0.74540000  0.11250000  0.03290000  1.0 -0.0474325273
C  C197  1  0.88750000  0.92040000  0.63290000  1.0 -0.0474325273
C  C198  1  0.28750000  0.25460000  0.36710000  1.0 -0.0474325273
C  C199  1  0.67040000  0.53750000  0.53290000  1.0 -0.0474325273
C  C200  1  0.00460000  0.13750000  0.46710000  1.0 -0.0474325273
C  C201  1  0.88397000  0.30920000  0.90803000  1.0 -0.1111156447
C  C202  1  0.40117000  0.97594000  0.09197000  1.0 -0.1111156447
C  C203  1  0.05920000  0.65117000  0.92523000  1.0 -0.1111156447
C  C204  1  0.72594000  0.13397000  0.07477000  1.0 -0.1111156447
C  C205  1  0.86603000  0.94080000  0.59197000  1.0 -0.1111156447
C  C206  1  0.34883000  0.27406000  0.40803000  1.0 -0.1111156447
C  C207  1  0.69080000  0.59883000  0.57477000  1.0 -0.1111156447
C  C208  1  0.02406000  0.11603000  0.42523000  1.0 -0.1111156447
C  C209  1  0.98777000  0.23967000  0.90670000  1.0 -0.1027933559
C  C210  1  0.33297000  0.08107000  0.09330000  1.0 -0.1027933559
C  C211  1  0.98967000  0.58297000  0.75190000  1.0 -0.1027933559
C  C212  1  0.83107000  0.23777000  0.24810000  1.0 -0.1027933559
C  C213  1  0.76223000  0.01033000  0.59330000  1.0 -0.1027933559
C  C214  1  0.41703000  0.16893000  0.40670000  1.0 -0.1027933559
C  C215  1  0.76033000  0.66703000  0.74810000  1.0 -0.1027933559
C  C216  1  0.91893000  0.01223000  0.25190000  1.0 -0.1027933559
C  C217  1  0.96184000  0.26694000  0.86890000  1.0 0.0113234469
C  C218  1  0.39804000  0.09294000  0.13110000  1.0 0.0113234469
C  C219  1  0.01694000  0.64804000  0.80510000  1.0 0.0113234469
C  C220  1  0.84294000  0.21184000  0.19490000  1.0 0.0113234469
C  C221  1  0.78816000  0.98306000  0.63110000  1.0 0.0113234469
C  C222  1  0.35196000  0.15706000  0.36890000  1.0 0.0113234469
C  C223  1  0.73306000  0.60196000  0.69490000  1.0 0.0113234469
C  C224  1  0.90706000  0.03816000  0.30510000  1.0 0.0113234469
N  N1  1  0.55280000  0.95626000  0.08368000  1.0 -0.2576492964
N  N2  1  0.87258000  0.46912000  0.91632000  1.0 -0.2576492964
N  N3  1  0.70626000  0.12258000  0.90346000  1.0 -0.2576492964
N  N4  1  0.21912000  0.80280000  0.09654000  1.0 -0.2576492964
N  N5  1  0.19720000  0.29374000  0.41632000  1.0 -0.2576492964
N  N6  1  0.87742000  0.78088000  0.58368000  1.0 -0.2576492964
N  N7  1  0.04374000  0.12742000  0.59654000  1.0 -0.2576492964
N  N8  1  0.53088000  0.44720000  0.40346000  1.0 -0.2576492964
N  N9  1  0.90397000  0.30696000  0.84679000  1.0 -0.0661678667
N  N10  1  0.46017000  0.05718000  0.15321000  1.0 -0.0661678667
N  N11  1  0.05696000  0.71017000  0.90299000  1.0 -0.0661678667
N  N12  1  0.80718000  0.15397000  0.09701000  1.0 -0.0661678667
N  N13  1  0.84603000  0.94304000  0.65321000  1.0 -0.0661678667
N  N14  1  0.28983000  0.19282000  0.34679000  1.0 -0.0661678667
N  N15  1  0.69304000  0.53983000  0.59701000  1.0 -0.0661678667
N  N16  1  0.94282000  0.09603000  0.40299000  1.0 -0.0661678667
O  O1  1  0.63988000  0.52363000  0.62571000  1.0 -0.5964820883
O  O2  1  0.89792000  0.01417000  0.37429000  1.0 -0.5964820883
O  O3  1  0.27363000  0.14792000  0.38375000  1.0 -0.5964820883
O  O4  1  0.76417000  0.88988000  0.61625000  1.0 -0.5964820883
O  O5  1  0.11012000  0.72637000  0.87429000  1.0 -0.5964820883
O  O6  1  0.85208000  0.23583000  0.12571000  1.0 -0.5964820883
O  O7  1  0.47637000  0.10208000  0.11625000  1.0 -0.5964820883
O  O8  1  0.98583000  0.36012000  0.88375000  1.0 -0.5964820883
O  O9  1  0.68345000  0.46998000  0.67771000  1.0 -0.5798490322
O  O10  1  0.79227000  0.00574000  0.32229000  1.0 -0.5798490322
O  O11  1  0.21998000  0.04227000  0.28653000  1.0 -0.5798490322
O  O12  1  0.75574000  0.93345000  0.71347000  1.0 -0.5798490322
O  O13  1  0.06655000  0.78002000  0.82229000  1.0 -0.5798490322
O  O14  1  0.95773000  0.24426000  0.17771000  1.0 -0.5798490322
O  O15  1  0.53002000  0.20773000  0.21347000  1.0 -0.5798490322
O  O16  1  0.99426000  0.31655000  0.78653000  1.0 -0.5798490322
O  O17  1  0.11999000  0.19248000  0.19375000  1.0 -0.5645394451
O  O18  1  0.99873000  0.92624000  0.80625000  1.0 -0.5645394451
O  O19  1  0.94248000  0.24873000  0.57249000  1.0 -0.5645394451
O  O20  1  0.67624000  0.36999000  0.42751000  1.0 -0.5645394451
O  O21  1  0.63001000  0.05752000  0.30625000  1.0 -0.5645394451
O  O22  1  0.75127000  0.32376000  0.69375000  1.0 -0.5645394451
O  O23  1  0.80752000  0.00127000  0.92751000  1.0 -0.5645394451
O  O24  1  0.07376000  0.88001000  0.07249000  1.0 -0.5645394451
O  O25  1  0.99844000  0.13004000  0.04940000  1.0 -0.528850106
O  O26  1  0.08064000  0.94904000  0.95060000  1.0 -0.528850106
O  O27  1  0.88004000  0.33064000  0.63160000  1.0 -0.528850106
O  O28  1  0.69904000  0.24844000  0.36840000  1.0 -0.528850106
O  O29  1  0.75156000  0.11996000  0.45060000  1.0 -0.528850106
O  O30  1  0.66936000  0.30096000  0.54940000  1.0 -0.528850106
O  O31  1  0.86996000  0.91936000  0.86840000  1.0 -0.528850106
O  O32  1  0.05096000  0.00156000  0.13160000  1.0 -0.528850106
O  O33  1  0.83534000  0.37410000  0.72326000  1.0 -0.8676609001
O  O34  1  0.65084000  0.11208000  0.27674000  1.0 -0.8676609001
O  O35  1  0.12410000  0.90084000  0.03876000  1.0 -0.8676609001
O  O36  1  0.86208000  0.08534000  0.96124000  1.0 -0.8676609001
O  O37  1  0.91466000  0.87590000  0.77674000  1.0 -0.8676609001
O  O38  1  0.09916000  0.13792000  0.22326000  1.0 -0.8676609001
O  O39  1  0.62590000  0.34916000  0.46124000  1.0 -0.8676609001
O  O40  1  0.88792000  0.16466000  0.53876000  1.0 -0.8676609001
O  O41  1  0.75000000  0.25000000  0.50000000  1.0 -0.7960506952
O  O42  1  0.00000000  0.00000000  0.00000000  1.0 -0.7960506952
O  O43  1  0.86805000  0.22790000  0.66109000  1.0 -0.6703116572
O  O44  1  0.56681000  0.20696000  0.33891000  1.0 -0.6703116572
O  O45  1  0.97790000  0.81681000  0.85985000  1.0 -0.6703116572
O  O46  1  0.95696000  0.11805000  0.14015000  1.0 -0.6703116572
O  O47  1  0.88195000  0.02210000  0.83891000  1.0 -0.6703116572
O  O48  1  0.18319000  0.04304000  0.16109000  1.0 -0.6703116572
O  O49  1  0.77210000  0.43319000  0.64015000  1.0 -0.6703116572
O  O50  1  0.79304000  0.13195000  0.35985000  1.0 -0.6703116572
