# DDEC6 charges by PACMAN v1.1 (https://github.com/mtap-research/PACMAN-charge/)
data_ESARIB_FSR_pacman
_symmetry_space_group_name_H-M   'P 1'
_cell_length_a   10.48650000
_cell_length_b   15.19160000
_cell_length_c   24.06260000
_cell_angle_alpha   90.00000000
_cell_angle_beta   90.00000000
_cell_angle_gamma   90.00000000
_symmetry_Int_Tables_number   1
_chemical_formula_structural   Zn2H62C49(NO)10
_chemical_formula_sum   'Zn8 H248 C196 N40 O40'
_cell_volume   3833.33372186
_cell_formula_units_Z   4
loop_
 _symmetry_equiv_pos_site_id
 _symmetry_equiv_pos_as_xyz
  1  'x, y, z'
loop_
 _atom_site_type_symbol
 _atom_site_label
 _atom_site_symmetry_multiplicity
 _atom_site_fract_x
 _atom_site_fract_y
 _atom_site_fract_z
 _atom_site_occupancy
 _atom_site_charge
Zn  Zn1  1  0.89521000  0.00000000  0.03987000  1.0 0.6877170654
Zn  Zn2  1  0.39521000  0.50000000  0.96013000  1.0 0.6877170654
Zn  Zn3  1  0.60479000  0.00000000  0.53987000  1.0 0.6877170654
Zn  Zn4  1  0.10479000  0.50000000  0.46013000  1.0 0.6877170654
Zn  Zn5  1  0.82334000  0.00000000  0.45249000  1.0 0.7980408671
Zn  Zn6  1  0.32334000  0.50000000  0.54751000  1.0 0.7980408671
Zn  Zn7  1  0.67666000  0.00000000  0.95249000  1.0 0.7980408671
Zn  Zn8  1  0.17666000  0.50000000  0.04751000  1.0 0.7980408671
H  H1  1  0.53220000  0.75080000  0.02320000  1.0 0.09723491
H  H2  1  0.03220000  0.74920000  0.97680000  1.0 0.09723491
H  H3  1  0.96780000  0.24920000  0.52320000  1.0 0.09723491
H  H4  1  0.46780000  0.25080000  0.47680000  1.0 0.09723491
H  H5  1  0.46780000  0.74920000  0.47680000  1.0 0.09723491
H  H6  1  0.96780000  0.75080000  0.52320000  1.0 0.09723491
H  H7  1  0.03220000  0.25080000  0.97680000  1.0 0.09723491
H  H8  1  0.53220000  0.24920000  0.02320000  1.0 0.09723491
H  H9  1  0.66450000  0.85550000  0.16540000  1.0 0.143294927
H  H10  1  0.16450000  0.64450000  0.83460000  1.0 0.143294927
H  H11  1  0.83550000  0.14450000  0.66540000  1.0 0.143294927
H  H12  1  0.33550000  0.35550000  0.33460000  1.0 0.143294927
H  H13  1  0.33550000  0.64450000  0.33460000  1.0 0.143294927
H  H14  1  0.83550000  0.85550000  0.66540000  1.0 0.143294927
H  H15  1  0.16450000  0.35550000  0.83460000  1.0 0.143294927
H  H16  1  0.66450000  0.14450000  0.16540000  1.0 0.143294927
H  H17  1  0.40260000  0.66010000  0.16980000  1.0 0.145351291
H  H18  1  0.90260000  0.83990000  0.83020000  1.0 0.145351291
H  H19  1  0.09740000  0.33990000  0.66980000  1.0 0.145351291
H  H20  1  0.59740000  0.16010000  0.33020000  1.0 0.145351291
H  H21  1  0.59740000  0.83990000  0.33020000  1.0 0.145351291
H  H22  1  0.09740000  0.66010000  0.66980000  1.0 0.145351291
H  H23  1  0.90260000  0.16010000  0.83020000  1.0 0.145351291
H  H24  1  0.40260000  0.33990000  0.16980000  1.0 0.145351291
H  H25  1  0.43450000  0.96060000  0.13800000  1.0 0.0387347587
H  H26  1  0.93450000  0.53940000  0.86200000  1.0 0.0387347587
H  H27  1  0.06550000  0.03940000  0.63800000  1.0 0.0387347587
H  H28  1  0.56550000  0.46060000  0.36200000  1.0 0.0387347587
H  H29  1  0.56550000  0.53940000  0.36200000  1.0 0.0387347587
H  H30  1  0.06550000  0.96060000  0.63800000  1.0 0.0387347587
H  H31  1  0.93450000  0.46060000  0.86200000  1.0 0.0387347587
H  H32  1  0.43450000  0.03940000  0.13800000  1.0 0.0387347587
H  H33  1  0.38330000  0.05730000  0.13490000  1.0 0.0896159319
H  H34  1  0.88330000  0.44270000  0.86510000  1.0 0.0896159319
H  H35  1  0.11670000  0.94270000  0.63490000  1.0 0.0896159319
H  H36  1  0.61670000  0.55730000  0.36510000  1.0 0.0896159319
H  H37  1  0.61670000  0.44270000  0.36510000  1.0 0.0896159319
H  H38  1  0.11670000  0.05730000  0.63490000  1.0 0.0896159319
H  H39  1  0.88330000  0.55730000  0.86510000  1.0 0.0896159319
H  H40  1  0.38330000  0.94270000  0.13490000  1.0 0.0896159319
H  H41  1  0.36250000  0.06980000  0.29910000  1.0 0.0595230258
H  H42  1  0.86250000  0.43020000  0.70090000  1.0 0.0595230258
H  H43  1  0.13750000  0.93020000  0.79910000  1.0 0.0595230258
H  H44  1  0.63750000  0.56980000  0.20090000  1.0 0.0595230258
H  H45  1  0.63750000  0.43020000  0.20090000  1.0 0.0595230258
H  H46  1  0.13750000  0.06980000  0.79910000  1.0 0.0595230258
H  H47  1  0.86250000  0.56980000  0.70090000  1.0 0.0595230258
H  H48  1  0.36250000  0.93020000  0.29910000  1.0 0.0595230258
H  H49  1  0.43720000  0.98490000  0.31130000  1.0 0.0896159319
H  H50  1  0.93720000  0.51510000  0.68870000  1.0 0.0896159319
H  H51  1  0.06280000  0.01510000  0.81130000  1.0 0.0896159319
H  H52  1  0.56280000  0.48490000  0.18870000  1.0 0.0896159319
H  H53  1  0.56280000  0.51510000  0.18870000  1.0 0.0896159319
H  H54  1  0.06280000  0.98490000  0.81130000  1.0 0.0896159319
H  H55  1  0.93720000  0.48490000  0.68870000  1.0 0.0896159319
H  H56  1  0.43720000  0.01510000  0.31130000  1.0 0.0896159319
H  H57  1  0.36590000  0.06860000  0.21330000  1.0 0.0672827924
H  H58  1  0.86590000  0.43140000  0.78670000  1.0 0.0672827924
H  H59  1  0.13410000  0.93140000  0.71330000  1.0 0.0672827924
H  H60  1  0.63410000  0.56860000  0.28670000  1.0 0.0672827924
H  H61  1  0.63410000  0.43140000  0.28670000  1.0 0.0672827924
H  H62  1  0.13410000  0.06860000  0.71330000  1.0 0.0672827924
H  H63  1  0.86590000  0.56860000  0.78670000  1.0 0.0672827924
H  H64  1  0.36590000  0.93140000  0.21330000  1.0 0.0672827924
H  H65  1  0.46080000  0.99170000  0.21490000  1.0 0.1100773255
H  H66  1  0.96080000  0.50830000  0.78510000  1.0 0.1100773255
H  H67  1  0.03920000  0.00830000  0.71490000  1.0 0.1100773255
H  H68  1  0.53920000  0.49170000  0.28510000  1.0 0.1100773255
H  H69  1  0.53920000  0.50830000  0.28510000  1.0 0.1100773255
H  H70  1  0.03920000  0.99170000  0.71490000  1.0 0.1100773255
H  H71  1  0.96080000  0.49170000  0.78510000  1.0 0.1100773255
H  H72  1  0.46080000  0.00830000  0.21490000  1.0 0.1100773255
H  H73  1  0.36970000  0.98110000  0.38950000  1.0 0.0813582138
H  H74  1  0.86970000  0.51890000  0.61050000  1.0 0.0813582138
H  H75  1  0.13030000  0.01890000  0.88950000  1.0 0.0813582138
H  H76  1  0.63030000  0.48110000  0.11050000  1.0 0.0813582138
H  H77  1  0.63030000  0.51890000  0.11050000  1.0 0.0813582138
H  H78  1  0.13030000  0.98110000  0.88950000  1.0 0.0813582138
H  H79  1  0.86970000  0.48110000  0.61050000  1.0 0.0813582138
H  H80  1  0.36970000  0.01890000  0.38950000  1.0 0.0813582138
H  H81  1  0.30210000  0.07130000  0.37830000  1.0 0.0813582138
H  H82  1  0.80210000  0.42870000  0.62170000  1.0 0.0813582138
H  H83  1  0.19790000  0.92870000  0.87830000  1.0 0.0813582138
H  H84  1  0.69790000  0.57130000  0.12170000  1.0 0.0813582138
H  H85  1  0.69790000  0.42870000  0.12170000  1.0 0.0813582138
H  H86  1  0.19790000  0.07130000  0.87830000  1.0 0.0813582138
H  H87  1  0.80210000  0.57130000  0.62170000  1.0 0.0813582138
H  H88  1  0.30210000  0.92870000  0.37830000  1.0 0.0813582138
H  H89  1  0.22260000  0.98340000  0.25280000  1.0 0.0896159319
H  H90  1  0.72260000  0.51660000  0.74720000  1.0 0.0896159319
H  H91  1  0.27740000  0.01660000  0.75280000  1.0 0.0896159319
H  H92  1  0.77740000  0.48340000  0.24720000  1.0 0.0896159319
H  H93  1  0.77740000  0.51660000  0.24720000  1.0 0.0896159319
H  H94  1  0.27740000  0.98340000  0.75280000  1.0 0.0896159319
H  H95  1  0.72260000  0.48340000  0.74720000  1.0 0.0896159319
H  H96  1  0.22260000  0.01660000  0.25280000  1.0 0.0896159319
H  H97  1  0.32690000  0.91060000  0.25760000  1.0 0.0813582138
H  H98  1  0.82690000  0.58940000  0.74240000  1.0 0.0813582138
H  H99  1  0.17310000  0.08940000  0.75760000  1.0 0.0813582138
H  H100  1  0.67310000  0.41060000  0.24240000  1.0 0.0813582138
H  H101  1  0.67310000  0.58940000  0.24240000  1.0 0.0813582138
H  H102  1  0.17310000  0.91060000  0.75760000  1.0 0.0813582138
H  H103  1  0.82690000  0.41060000  0.74240000  1.0 0.0813582138
H  H104  1  0.32690000  0.08940000  0.25760000  1.0 0.0813582138
H  H105  1  0.15820000  0.83450000  0.35600000  1.0 0.0896159319
H  H106  1  0.65820000  0.66550000  0.64400000  1.0 0.0896159319
H  H107  1  0.34180000  0.16550000  0.85600000  1.0 0.0896159319
H  H108  1  0.84180000  0.33450000  0.14400000  1.0 0.0896159319
H  H109  1  0.84180000  0.66550000  0.14400000  1.0 0.0896159319
H  H110  1  0.34180000  0.83450000  0.85600000  1.0 0.0896159319
H  H111  1  0.65820000  0.33450000  0.64400000  1.0 0.0896159319
H  H112  1  0.15820000  0.16550000  0.35600000  1.0 0.0896159319
H  H113  1  0.93130000  0.85230000  0.38600000  1.0 0.0896159319
H  H114  1  0.43130000  0.64770000  0.61400000  1.0 0.0896159319
H  H115  1  0.56870000  0.14770000  0.88600000  1.0 0.0896159319
H  H116  1  0.06870000  0.35230000  0.11400000  1.0 0.0896159319
H  H117  1  0.06870000  0.64770000  0.11400000  1.0 0.0896159319
H  H118  1  0.56870000  0.85230000  0.88600000  1.0 0.0896159319
H  H119  1  0.43130000  0.35230000  0.61400000  1.0 0.0896159319
H  H120  1  0.93130000  0.14770000  0.38600000  1.0 0.0896159319
H  H121  1  0.22940000  0.83090000  0.14200000  1.0 0.0813582138
H  H122  1  0.72940000  0.66910000  0.85800000  1.0 0.0813582138
H  H123  1  0.27060000  0.16910000  0.64200000  1.0 0.0813582138
H  H124  1  0.77060000  0.33090000  0.35800000  1.0 0.0813582138
H  H125  1  0.77060000  0.66910000  0.35800000  1.0 0.0813582138
H  H126  1  0.27060000  0.83090000  0.64200000  1.0 0.0813582138
H  H127  1  0.72940000  0.33090000  0.85800000  1.0 0.0813582138
H  H128  1  0.22940000  0.16910000  0.14200000  1.0 0.0813582138
H  H129  1  0.00620000  0.84770000  0.10540000  1.0 0.0896159319
H  H130  1  0.50620000  0.65230000  0.89460000  1.0 0.0896159319
H  H131  1  0.49380000  0.15230000  0.60540000  1.0 0.0896159319
H  H132  1  0.99380000  0.34770000  0.39460000  1.0 0.0896159319
H  H133  1  0.99380000  0.65230000  0.39460000  1.0 0.0896159319
H  H134  1  0.49380000  0.84770000  0.60540000  1.0 0.0896159319
H  H135  1  0.50620000  0.34770000  0.89460000  1.0 0.0896159319
H  H136  1  0.00620000  0.15230000  0.10540000  1.0 0.0896159319
H  H137  1  0.18320000  0.17560000  0.10620000  1.0 0.0896159319
H  H138  1  0.68320000  0.32440000  0.89380000  1.0 0.0896159319
H  H139  1  0.31680000  0.82440000  0.60620000  1.0 0.0896159319
H  H140  1  0.81680000  0.67560000  0.39380000  1.0 0.0896159319
H  H141  1  0.81680000  0.32440000  0.39380000  1.0 0.0896159319
H  H142  1  0.31680000  0.17560000  0.60620000  1.0 0.0896159319
H  H143  1  0.68320000  0.67560000  0.89380000  1.0 0.0896159319
H  H144  1  0.18320000  0.82440000  0.10620000  1.0 0.0896159319
H  H145  1  0.32510000  0.14600000  0.03860000  1.0 0.0896159319
H  H146  1  0.82510000  0.35400000  0.96140000  1.0 0.0896159319
H  H147  1  0.17490000  0.85400000  0.53860000  1.0 0.0896159319
H  H148  1  0.67490000  0.64600000  0.46140000  1.0 0.0896159319
H  H149  1  0.67490000  0.35400000  0.46140000  1.0 0.0896159319
H  H150  1  0.17490000  0.14600000  0.53860000  1.0 0.0896159319
H  H151  1  0.82510000  0.64600000  0.96140000  1.0 0.0896159319
H  H152  1  0.32510000  0.85400000  0.03860000  1.0 0.0896159319
H  H153  1  0.20970000  0.15260000  0.99740000  1.0 0.0896159319
H  H154  1  0.70970000  0.34740000  0.00260000  1.0 0.0896159319
H  H155  1  0.29030000  0.84740000  0.49740000  1.0 0.09723491
H  H156  1  0.79030000  0.65260000  0.50260000  1.0 0.09723491
H  H157  1  0.79030000  0.34740000  0.50260000  1.0 0.0896159319
H  H158  1  0.29030000  0.15260000  0.49740000  1.0 0.0896159319
H  H159  1  0.70970000  0.65260000  0.00260000  1.0 0.09723491
H  H160  1  0.20970000  0.84740000  0.99740000  1.0 0.09723491
H  H161  1  0.25260000  0.06060000  0.02020000  1.0 0.0482237394
H  H162  1  0.75260000  0.43940000  0.97980000  1.0 0.0482237394
H  H163  1  0.24740000  0.93940000  0.52020000  1.0 0.0482237394
H  H164  1  0.74740000  0.56060000  0.47980000  1.0 0.0482237394
H  H165  1  0.74740000  0.43940000  0.47980000  1.0 0.0482237394
H  H166  1  0.24740000  0.06060000  0.52020000  1.0 0.0482237394
H  H167  1  0.75260000  0.56060000  0.97980000  1.0 0.0482237394
H  H168  1  0.25260000  0.93940000  0.02020000  1.0 0.0482237394
H  H169  1  0.95900000  0.10330000  0.05860000  1.0 0.1100773255
H  H170  1  0.45900000  0.39670000  0.94140000  1.0 0.1100773255
H  H171  1  0.54100000  0.89670000  0.55860000  1.0 0.1100773255
H  H172  1  0.04100000  0.60330000  0.44140000  1.0 0.1100773255
H  H173  1  0.04100000  0.39670000  0.44140000  1.0 0.1100773255
H  H174  1  0.54100000  0.10330000  0.55860000  1.0 0.1100773255
H  H175  1  0.45900000  0.60330000  0.94140000  1.0 0.1100773255
H  H176  1  0.95900000  0.89670000  0.05860000  1.0 0.1100773255
H  H177  1  0.00630000  0.19040000  0.03030000  1.0 0.0813582138
H  H178  1  0.50630000  0.30960000  0.96970000  1.0 0.0813582138
H  H179  1  0.49370000  0.80960000  0.53030000  1.0 0.0813582138
H  H180  1  0.99370000  0.69040000  0.46970000  1.0 0.0813582138
H  H181  1  0.99370000  0.30960000  0.46970000  1.0 0.0813582138
H  H182  1  0.49370000  0.19040000  0.53030000  1.0 0.0813582138
H  H183  1  0.50630000  0.69040000  0.96970000  1.0 0.0813582138
H  H184  1  0.00630000  0.80960000  0.03030000  1.0 0.0813582138
H  H185  1  0.96940000  0.19020000  0.09350000  1.0 0.0896159319
H  H186  1  0.46940000  0.30980000  0.90650000  1.0 0.0896159319
H  H187  1  0.53060000  0.80980000  0.59350000  1.0 0.0896159319
H  H188  1  0.03060000  0.69020000  0.40650000  1.0 0.0896159319
H  H189  1  0.03060000  0.30980000  0.40650000  1.0 0.0896159319
H  H190  1  0.53060000  0.19020000  0.59350000  1.0 0.0896159319
H  H191  1  0.46940000  0.69020000  0.90650000  1.0 0.0896159319
H  H192  1  0.96940000  0.80980000  0.09350000  1.0 0.0896159319
H  H193  1  0.13630000  0.16440000  0.39890000  1.0 0.0896159319
H  H194  1  0.63630000  0.33560000  0.60110000  1.0 0.0896159319
H  H195  1  0.36370000  0.83560000  0.89890000  1.0 0.0896159319
H  H196  1  0.86370000  0.66440000  0.10110000  1.0 0.0896159319
H  H197  1  0.86370000  0.33560000  0.10110000  1.0 0.0896159319
H  H198  1  0.36370000  0.16440000  0.89890000  1.0 0.0896159319
H  H199  1  0.63630000  0.66440000  0.60110000  1.0 0.0896159319
H  H200  1  0.13630000  0.83560000  0.39890000  1.0 0.0896159319
H  H201  1  0.26190000  0.07460000  0.46120000  1.0 0.0813582138
H  H202  1  0.76190000  0.42540000  0.53880000  1.0 0.0813582138
H  H203  1  0.23810000  0.92540000  0.96120000  1.0 0.0813582138
H  H204  1  0.73810000  0.57460000  0.03880000  1.0 0.0813582138
H  H205  1  0.73810000  0.42540000  0.03880000  1.0 0.0813582138
H  H206  1  0.23810000  0.07460000  0.96120000  1.0 0.0813582138
H  H207  1  0.76190000  0.57460000  0.53880000  1.0 0.0813582138
H  H208  1  0.26190000  0.92540000  0.46120000  1.0 0.0813582138
H  H209  1  0.14560000  0.06620000  0.50180000  1.0 0.0813582138
H  H210  1  0.64560000  0.43380000  0.49820000  1.0 0.0813582138
H  H211  1  0.35440000  0.93380000  0.00180000  1.0 0.0813582138
H  H212  1  0.85440000  0.56620000  0.99820000  1.0 0.0813582138
H  H213  1  0.85440000  0.43380000  0.99820000  1.0 0.0813582138
H  H214  1  0.35440000  0.06620000  0.00180000  1.0 0.0813582138
H  H215  1  0.64560000  0.56620000  0.49820000  1.0 0.0813582138
H  H216  1  0.14560000  0.93380000  0.50180000  1.0 0.0813582138
H  H217  1  0.21230000  0.15760000  0.49330000  1.0 0.0672827924
H  H218  1  0.71230000  0.34240000  0.50670000  1.0 0.0672827924
H  H219  1  0.28770000  0.84240000  0.99330000  1.0 0.0672827924
H  H220  1  0.78770000  0.65760000  0.00670000  1.0 0.0672827924
H  H221  1  0.78770000  0.34240000  0.00670000  1.0 0.0672827924
H  H222  1  0.28770000  0.15760000  0.99330000  1.0 0.0672827924
H  H223  1  0.71230000  0.65760000  0.50670000  1.0 0.0672827924
H  H224  1  0.21230000  0.84240000  0.49330000  1.0 0.0672827924
H  H225  1  0.03230000  0.24110000  0.46530000  1.0 0.0482237394
H  H226  1  0.53230000  0.25890000  0.53470000  1.0 0.0482237394
H  H227  1  0.46770000  0.75890000  0.96530000  1.0 0.0482237394
H  H228  1  0.96770000  0.74110000  0.03470000  1.0 0.0482237394
H  H229  1  0.96770000  0.25890000  0.03470000  1.0 0.0482237394
H  H230  1  0.46770000  0.24110000  0.96530000  1.0 0.0482237394
H  H231  1  0.53230000  0.74110000  0.53470000  1.0 0.0482237394
H  H232  1  0.03230000  0.75890000  0.46530000  1.0 0.0482237394
H  H233  1  0.98020000  0.15640000  0.49480000  1.0 0.1269883069
H  H234  1  0.48020000  0.34360000  0.50520000  1.0 0.1269883069
H  H235  1  0.51980000  0.84360000  0.99480000  1.0 0.1269883069
H  H236  1  0.01980000  0.65640000  0.00520000  1.0 0.1269883069
H  H237  1  0.01980000  0.34360000  0.00520000  1.0 0.1269883069
H  H238  1  0.51980000  0.15640000  0.99480000  1.0 0.1269883069
H  H239  1  0.48020000  0.65640000  0.50520000  1.0 0.1269883069
H  H240  1  0.98020000  0.84360000  0.49480000  1.0 0.1269883069
H  H241  1  0.91690000  0.18950000  0.43970000  1.0 0.0896159319
H  H242  1  0.41690000  0.31050000  0.56030000  1.0 0.0896159319
H  H243  1  0.58310000  0.81050000  0.93970000  1.0 0.0896159319
H  H244  1  0.08310000  0.68950000  0.06030000  1.0 0.0896159319
H  H245  1  0.08310000  0.31050000  0.06030000  1.0 0.0896159319
H  H246  1  0.58310000  0.18950000  0.93970000  1.0 0.0896159319
H  H247  1  0.41690000  0.68950000  0.56030000  1.0 0.0896159319
H  H248  1  0.91690000  0.81050000  0.43970000  1.0 0.0896159319
C  C1  1  0.38510000  0.62100000  0.06300000  1.0 0.4378941061
C  C2  1  0.88510000  0.87900000  0.93700000  1.0 0.4378941061
C  C3  1  0.11490000  0.37900000  0.56300000  1.0 0.4378941061
C  C4  1  0.61490000  0.12100000  0.43700000  1.0 0.4378941061
C  C5  1  0.61490000  0.87900000  0.43700000  1.0 0.4378941061
C  C6  1  0.11490000  0.62100000  0.56300000  1.0 0.4378941061
C  C7  1  0.88510000  0.12100000  0.93700000  1.0 0.4378941061
C  C8  1  0.38510000  0.37900000  0.06300000  1.0 0.4378941061
C  C9  1  0.68140000  0.88200000  0.05680000  1.0 0.4634347263
C  C10  1  0.18140000  0.61800000  0.94320000  1.0 0.4634347263
C  C11  1  0.81860000  0.11800000  0.55680000  1.0 0.4634347263
C  C12  1  0.31860000  0.38200000  0.44320000  1.0 0.4634347263
C  C13  1  0.31860000  0.61800000  0.44320000  1.0 0.4634347263
C  C14  1  0.81860000  0.88200000  0.55680000  1.0 0.4634347263
C  C15  1  0.18140000  0.38200000  0.94320000  1.0 0.4634347263
C  C16  1  0.68140000  0.11800000  0.05680000  1.0 0.4634347263
C  C17  1  0.53210000  0.75290000  0.06190000  1.0 -0.1395001148
C  C18  1  0.03210000  0.74710000  0.93810000  1.0 -0.1395001148
C  C19  1  0.96790000  0.24710000  0.56190000  1.0 -0.1395001148
C  C20  1  0.46790000  0.25290000  0.43810000  1.0 -0.1395001148
C  C21  1  0.46790000  0.74710000  0.43810000  1.0 -0.1395001148
C  C22  1  0.96790000  0.75290000  0.56190000  1.0 -0.1395001148
C  C23  1  0.03210000  0.25290000  0.93810000  1.0 -0.1395001148
C  C24  1  0.53210000  0.24710000  0.06190000  1.0 -0.1395001148
C  C25  1  0.61010000  0.81680000  0.14710000  1.0 -0.193908721
C  C26  1  0.11010000  0.68320000  0.85290000  1.0 -0.193908721
C  C27  1  0.88990000  0.18320000  0.64710000  1.0 -0.193908721
C  C28  1  0.38990000  0.31680000  0.35290000  1.0 -0.193908721
C  C29  1  0.38990000  0.68320000  0.35290000  1.0 -0.193908721
C  C30  1  0.88990000  0.81680000  0.64710000  1.0 -0.193908721
C  C31  1  0.11010000  0.31680000  0.85290000  1.0 -0.193908721
C  C32  1  0.61010000  0.18320000  0.14710000  1.0 -0.193908721
C  C33  1  0.45860000  0.69290000  0.09230000  1.0 -0.0370802899
C  C34  1  0.95860000  0.80710000  0.90770000  1.0 -0.0370802899
C  C35  1  0.04140000  0.30710000  0.59230000  1.0 -0.0370802899
C  C36  1  0.54140000  0.19290000  0.40770000  1.0 -0.0370802899
C  C37  1  0.54140000  0.80710000  0.40770000  1.0 -0.0370802899
C  C38  1  0.04140000  0.69290000  0.59230000  1.0 -0.0370802899
C  C39  1  0.95860000  0.19290000  0.90770000  1.0 -0.0370802899
C  C40  1  0.45860000  0.30710000  0.09230000  1.0 -0.0370802899
C  C41  1  0.60470000  0.81550000  0.08950000  1.0 -0.017120824
C  C42  1  0.10470000  0.68450000  0.91050000  1.0 -0.017120824
C  C43  1  0.89530000  0.18450000  0.58950000  1.0 -0.017120824
C  C44  1  0.39530000  0.31550000  0.41050000  1.0 -0.017120824
C  C45  1  0.39530000  0.68450000  0.41050000  1.0 -0.017120824
C  C46  1  0.89530000  0.81550000  0.58950000  1.0 -0.017120824
C  C47  1  0.10470000  0.31550000  0.91050000  1.0 -0.017120824
C  C48  1  0.60470000  0.18450000  0.08950000  1.0 -0.017120824
C  C49  1  0.45540000  0.69750000  0.14960000  1.0 -0.2063883634
C  C50  1  0.95540000  0.80250000  0.85040000  1.0 -0.2063883634
C  C51  1  0.04460000  0.30250000  0.64960000  1.0 -0.2063883634
C  C52  1  0.54460000  0.19750000  0.35040000  1.0 -0.2063883634
C  C53  1  0.54460000  0.80250000  0.35040000  1.0 -0.2063883634
C  C54  1  0.04460000  0.69750000  0.64960000  1.0 -0.2063883634
C  C55  1  0.95540000  0.19750000  0.85040000  1.0 -0.2063883634
C  C56  1  0.45540000  0.30250000  0.14960000  1.0 -0.2063883634
C  C57  1  0.53260000  0.75920000  0.17720000  1.0 0.0387347587
C  C58  1  0.03260000  0.74080000  0.82280000  1.0 0.0387347587
C  C59  1  0.96740000  0.24080000  0.67720000  1.0 0.0387347587
C  C60  1  0.46740000  0.25920000  0.32280000  1.0 0.0387347587
C  C61  1  0.46740000  0.74080000  0.32280000  1.0 0.0387347587
C  C62  1  0.96740000  0.75920000  0.67720000  1.0 0.0387347587
C  C63  1  0.03260000  0.25920000  0.82280000  1.0 0.0387347587
C  C64  1  0.53260000  0.24080000  0.17720000  1.0 0.0387347587
C  C65  1  0.12100000  0.88590000  0.36920000  1.0 -0.1224651856
C  C66  1  0.62100000  0.61410000  0.63080000  1.0 -0.1224651856
C  C67  1  0.37900000  0.11410000  0.86920000  1.0 -0.1224651856
C  C68  1  0.87900000  0.38590000  0.13080000  1.0 -0.1224651856
C  C69  1  0.87900000  0.61410000  0.13080000  1.0 -0.1224651856
C  C70  1  0.37900000  0.88590000  0.86920000  1.0 -0.1224651856
C  C71  1  0.62100000  0.38590000  0.63080000  1.0 -0.1224651856
C  C72  1  0.12100000  0.11410000  0.36920000  1.0 -0.1224651856
C  C73  1  0.09460000  0.02800000  0.39900000  1.0 0.2005937325
C  C74  1  0.59460000  0.47200000  0.60100000  1.0 0.2005937325
C  C75  1  0.40540000  0.97200000  0.89900000  1.0 0.2005937325
C  C76  1  0.90540000  0.52800000  0.10100000  1.0 0.2005937325
C  C77  1  0.90540000  0.47200000  0.10100000  1.0 0.2005937325
C  C78  1  0.40540000  0.02800000  0.89900000  1.0 0.2005937325
C  C79  1  0.59460000  0.52800000  0.60100000  1.0 0.2005937325
C  C80  1  0.09460000  0.97200000  0.39900000  1.0 0.2005937325
C  C81  1  0.99500000  0.89510000  0.38700000  1.0 -0.0338787309
C  C82  1  0.49500000  0.60490000  0.61300000  1.0 -0.0338787309
C  C83  1  0.50500000  0.10490000  0.88700000  1.0 -0.0338787309
C  C84  1  0.00500000  0.39510000  0.11300000  1.0 -0.0338787309
C  C85  1  0.00500000  0.60490000  0.11300000  1.0 -0.0338787309
C  C86  1  0.50500000  0.89510000  0.88700000  1.0 -0.0338787309
C  C87  1  0.49500000  0.39510000  0.61300000  1.0 -0.0338787309
C  C88  1  0.99500000  0.10490000  0.38700000  1.0 -0.0338787309
C  C89  1  0.36690000  0.99950000  0.15050000  1.0 -0.1004635689
C  C90  1  0.86690000  0.50050000  0.84950000  1.0 -0.1004635689
C  C91  1  0.13310000  0.00050000  0.65050000  1.0 -0.1004635689
C  C92  1  0.63310000  0.49950000  0.34950000  1.0 -0.1004635689
C  C93  1  0.19100000  0.88220000  0.12890000  1.0 -0.1395001148
C  C94  1  0.69100000  0.61780000  0.87110000  1.0 -0.1395001148
C  C95  1  0.30900000  0.11780000  0.62890000  1.0 -0.1395001148
C  C96  1  0.80900000  0.38220000  0.37110000  1.0 -0.1395001148
C  C97  1  0.80900000  0.61780000  0.37110000  1.0 -0.1395001148
C  C98  1  0.30900000  0.88220000  0.62890000  1.0 -0.1395001148
C  C99  1  0.69100000  0.38220000  0.87110000  1.0 -0.1395001148
C  C100  1  0.19100000  0.11780000  0.12890000  1.0 -0.1395001148
C  C101  1  0.06900000  0.89080000  0.10590000  1.0 -0.0082303214
C  C102  1  0.56900000  0.60920000  0.89410000  1.0 -0.0082303214
C  C103  1  0.43100000  0.10920000  0.60590000  1.0 -0.0082303214
C  C104  1  0.93100000  0.39080000  0.39410000  1.0 -0.0082303214
C  C105  1  0.93100000  0.60920000  0.39410000  1.0 -0.0082303214
C  C106  1  0.43100000  0.89080000  0.60590000  1.0 -0.0082303214
C  C107  1  0.56900000  0.39080000  0.89410000  1.0 -0.0082303214
C  C108  1  0.06900000  0.10920000  0.10590000  1.0 -0.0082303214
C  C109  1  0.14930000  0.86760000  0.07980000  1.0 0.0595230258
C  C110  1  0.64930000  0.63240000  0.92020000  1.0 0.0595230258
C  C111  1  0.35070000  0.13240000  0.57980000  1.0 0.0595230258
C  C112  1  0.85070000  0.36760000  0.42020000  1.0 0.0595230258
C  C113  1  0.85070000  0.63240000  0.42020000  1.0 0.0595230258
C  C114  1  0.35070000  0.86760000  0.57980000  1.0 0.0595230258
C  C115  1  0.64930000  0.36760000  0.92020000  1.0 0.0595230258
C  C116  1  0.14930000  0.13240000  0.07980000  1.0 0.0595230258
C  C117  1  0.09140000  0.87460000  0.42480000  1.0 0.0482237394
C  C118  1  0.59140000  0.62540000  0.57520000  1.0 0.0482237394
C  C119  1  0.40860000  0.12540000  0.92480000  1.0 0.0482237394
C  C120  1  0.90860000  0.37460000  0.07520000  1.0 0.0482237394
C  C121  1  0.90860000  0.62540000  0.07520000  1.0 0.0482237394
C  C122  1  0.40860000  0.87460000  0.92480000  1.0 0.0482237394
C  C123  1  0.59140000  0.37460000  0.57520000  1.0 0.0482237394
C  C124  1  0.09140000  0.12540000  0.42480000  1.0 0.0482237394
C  C125  1  0.00700000  0.84350000  0.06400000  1.0 -0.3045866487
C  C126  1  0.50700000  0.65650000  0.93600000  1.0 -0.3045866487
C  C127  1  0.49300000  0.15650000  0.56400000  1.0 -0.3045866487
C  C128  1  0.99300000  0.34350000  0.43600000  1.0 -0.3045866487
C  C129  1  0.99300000  0.65650000  0.43600000  1.0 -0.3045866487
C  C130  1  0.49300000  0.84350000  0.56400000  1.0 -0.3045866487
C  C131  1  0.50700000  0.34350000  0.93600000  1.0 -0.3045866487
C  C132  1  0.00700000  0.15650000  0.06400000  1.0 -0.3045866487
C  C133  1  0.15230000  0.03430000  0.10710000  1.0 0.1829618814
C  C134  1  0.65230000  0.46570000  0.89290000  1.0 0.1829618814
C  C135  1  0.34770000  0.96570000  0.60710000  1.0 0.1829618814
C  C136  1  0.84770000  0.53430000  0.39290000  1.0 0.1829618814
C  C137  1  0.84770000  0.46570000  0.39290000  1.0 0.1829618814
C  C138  1  0.34770000  0.03430000  0.60710000  1.0 0.1829618814
C  C139  1  0.65230000  0.53430000  0.89290000  1.0 0.1829618814
C  C140  1  0.15230000  0.96570000  0.10710000  1.0 0.1829618814
C  C141  1  0.35130000  0.00800000  0.30760000  1.0 -0.1305352298
C  C142  1  0.85130000  0.49200000  0.69240000  1.0 -0.1305352298
C  C143  1  0.14870000  0.99200000  0.80760000  1.0 -0.1305352298
C  C144  1  0.64870000  0.50800000  0.19240000  1.0 -0.1305352298
C  C145  1  0.64870000  0.49200000  0.19240000  1.0 -0.1305352298
C  C146  1  0.14870000  0.00800000  0.80760000  1.0 -0.1305352298
C  C147  1  0.85130000  0.50800000  0.69240000  1.0 -0.1305352298
C  C148  1  0.35130000  0.99200000  0.30760000  1.0 -0.1305352298
C  C149  1  0.37190000  0.00500000  0.20790000  1.0 -0.2421049599
C  C150  1  0.87190000  0.49500000  0.79210000  1.0 -0.2452991751
C  C151  1  0.12810000  0.99500000  0.70790000  1.0 -0.2452991751
C  C152  1  0.62810000  0.50500000  0.29210000  1.0 -0.2421049599
C  C153  1  0.62810000  0.49500000  0.29210000  1.0 -0.2421049599
C  C154  1  0.12810000  0.00500000  0.70790000  1.0 -0.2421049599
C  C155  1  0.87190000  0.50500000  0.79210000  1.0 -0.2452991751
C  C156  1  0.37190000  0.99500000  0.20790000  1.0 -0.2421049599
C  C157  1  0.30710000  0.01000000  0.36630000  1.0 -0.0708011349
C  C158  1  0.80710000  0.49000000  0.63370000  1.0 -0.0708011349
C  C159  1  0.19290000  0.99000000  0.86630000  1.0 -0.0708011349
C  C160  1  0.69290000  0.51000000  0.13370000  1.0 -0.0708011349
C  C161  1  0.69290000  0.49000000  0.13370000  1.0 -0.0708011349
C  C162  1  0.19290000  0.01000000  0.86630000  1.0 -0.0708011349
C  C163  1  0.80710000  0.51000000  0.63370000  1.0 -0.0708011349
C  C164  1  0.30710000  0.99000000  0.36630000  1.0 -0.0708011349
C  C165  1  0.31370000  0.97370000  0.25640000  1.0 -0.0645478142
C  C166  1  0.81370000  0.52630000  0.74360000  1.0 -0.0645478142
C  C167  1  0.18630000  0.02630000  0.75640000  1.0 -0.0645478142
C  C168  1  0.68630000  0.47370000  0.24360000  1.0 -0.0645478142
C  C169  1  0.68630000  0.52630000  0.24360000  1.0 -0.0645478142
C  C170  1  0.18630000  0.97370000  0.75640000  1.0 -0.0645478142
C  C171  1  0.81370000  0.47370000  0.74360000  1.0 -0.0645478142
C  C172  1  0.31370000  0.02630000  0.25640000  1.0 -0.0645478142
C  C173  1  0.99580000  0.81600000  0.45950000  1.0 -0.419780757
C  C174  1  0.49580000  0.68400000  0.54050000  1.0 -0.419780757
C  C175  1  0.50420000  0.18400000  0.95950000  1.0 -0.419780757
C  C176  1  0.00420000  0.31600000  0.04050000  1.0 -0.419780757
C  C177  1  0.00420000  0.68400000  0.04050000  1.0 -0.419780757
C  C178  1  0.50420000  0.81600000  0.95950000  1.0 -0.419780757
C  C179  1  0.49580000  0.31600000  0.54050000  1.0 -0.419780757
C  C180  1  0.99580000  0.18400000  0.45950000  1.0 -0.419780757
C  C181  1  0.18750000  0.89620000  0.47540000  1.0 -0.2421049599
C  C182  1  0.68750000  0.60380000  0.52460000  1.0 -0.2421049599
C  C183  1  0.31250000  0.10380000  0.97540000  1.0 -0.2421049599
C  C184  1  0.81250000  0.39620000  0.02460000  1.0 -0.2421049599
C  C185  1  0.81250000  0.60380000  0.02460000  1.0 -0.2421049599
C  C186  1  0.31250000  0.89620000  0.97540000  1.0 -0.2421049599
C  C187  1  0.68750000  0.39620000  0.52460000  1.0 -0.2421049599
C  C188  1  0.18750000  0.10380000  0.47540000  1.0 -0.2421049599
C  C189  1  0.24330000  0.12200000  0.02910000  1.0 -0.1829354165
C  C190  1  0.74330000  0.37800000  0.97090000  1.0 -0.1829354165
C  C191  1  0.25670000  0.87800000  0.52910000  1.0 -0.1829354165
C  C192  1  0.75670000  0.62200000  0.47090000  1.0 -0.1829354165
C  C193  1  0.75670000  0.37800000  0.47090000  1.0 -0.1829354165
C  C194  1  0.25670000  0.12200000  0.52910000  1.0 -0.1829354165
C  C195  1  0.74330000  0.62200000  0.97090000  1.0 -0.1829354165
C  C196  1  0.24330000  0.87800000  0.02910000  1.0 -0.1829354165
N  N1  1  0.54690000  0.76590000  0.23550000  1.0 -0.0082303214
N  N2  1  0.04690000  0.73410000  0.76450000  1.0 -0.0082303214
N  N3  1  0.95310000  0.23410000  0.73550000  1.0 -0.0082303214
N  N4  1  0.45310000  0.26590000  0.26450000  1.0 -0.0082303214
N  N5  1  0.45310000  0.73410000  0.26450000  1.0 -0.0082303214
N  N6  1  0.95310000  0.76590000  0.73550000  1.0 -0.0082303214
N  N7  1  0.04690000  0.26590000  0.76450000  1.0 -0.0082303214
N  N8  1  0.54690000  0.23410000  0.23550000  1.0 -0.0082303214
N  N9  1  0.18130000  0.96820000  0.37480000  1.0 0.0896159319
N  N10  1  0.68130000  0.53180000  0.62520000  1.0 0.0896159319
N  N11  1  0.31870000  0.03180000  0.87480000  1.0 0.0896159319
N  N12  1  0.81870000  0.46820000  0.12520000  1.0 0.0896159319
N  N13  1  0.81870000  0.53180000  0.12520000  1.0 0.0896159319
N  N14  1  0.31870000  0.96820000  0.87480000  1.0 0.0896159319
N  N15  1  0.68130000  0.46820000  0.62520000  1.0 0.0896159319
N  N16  1  0.18130000  0.03180000  0.37480000  1.0 0.0896159319
N  N17  1  0.98190000  0.98240000  0.40700000  1.0 0.0266302419
N  N18  1  0.48190000  0.51760000  0.59300000  1.0 0.0266302419
N  N19  1  0.51810000  0.01760000  0.90700000  1.0 0.0266302419
N  N20  1  0.01810000  0.48240000  0.09300000  1.0 0.0266302419
N  N21  1  0.01810000  0.51760000  0.09300000  1.0 0.0266302419
N  N22  1  0.51810000  0.98240000  0.90700000  1.0 0.0266302419
N  N23  1  0.48190000  0.48240000  0.59300000  1.0 0.0266302419
N  N24  1  0.98190000  0.01760000  0.40700000  1.0 0.0266302419
N  N25  1  0.24360000  0.96660000  0.12810000  1.0 -0.0370802899
N  N26  1  0.74360000  0.53340000  0.87190000  1.0 -0.0370802899
N  N27  1  0.25640000  0.03340000  0.62810000  1.0 -0.0370802899
N  N28  1  0.75640000  0.46660000  0.37190000  1.0 -0.0370802899
N  N29  1  0.75640000  0.53340000  0.37190000  1.0 -0.0370802899
N  N30  1  0.25640000  0.96660000  0.62810000  1.0 -0.0370802899
N  N31  1  0.74360000  0.46660000  0.87190000  1.0 -0.0370802899
N  N32  1  0.24360000  0.03340000  0.12810000  1.0 -0.0338787309
N  N33  1  0.05910000  0.97530000  0.08410000  1.0 -0.0507644999
N  N34  1  0.55910000  0.52470000  0.91590000  1.0 -0.0507644999
N  N35  1  0.44090000  0.02470000  0.58410000  1.0 -0.0507644999
N  N36  1  0.94090000  0.47530000  0.41590000  1.0 -0.0507644999
N  N37  1  0.94090000  0.52470000  0.41590000  1.0 -0.0507644999
N  N38  1  0.44090000  0.97530000  0.58410000  1.0 -0.0507644999
N  N39  1  0.55910000  0.47530000  0.91590000  1.0 -0.0507644999
N  N40  1  0.05910000  0.02470000  0.08410000  1.0 -0.0507644999
O  O1  1  0.43530000  0.59490000  0.01800000  1.0 -0.5002575962
O  O2  1  0.93530000  0.90510000  0.98200000  1.0 -0.5002575962
O  O3  1  0.06470000  0.40510000  0.51800000  1.0 -0.5002575962
O  O4  1  0.56470000  0.09490000  0.48200000  1.0 -0.5002575962
O  O5  1  0.56470000  0.90510000  0.48200000  1.0 -0.5002575962
O  O6  1  0.06470000  0.59490000  0.51800000  1.0 -0.5002575962
O  O7  1  0.93530000  0.09490000  0.98200000  1.0 -0.5002575962
O  O8  1  0.43530000  0.40510000  0.01800000  1.0 -0.5002575962
O  O9  1  0.28820000  0.59240000  0.08532000  1.0 -0.4777119604
O  O10  1  0.78820000  0.90760000  0.91468000  1.0 -0.4777119604
O  O11  1  0.21180000  0.40760000  0.58532000  1.0 -0.4777119604
O  O12  1  0.71180000  0.09240000  0.41468000  1.0 -0.4777119604
O  O13  1  0.71180000  0.90760000  0.41468000  1.0 -0.4777119604
O  O14  1  0.21180000  0.59240000  0.58532000  1.0 -0.4777119604
O  O15  1  0.78820000  0.09240000  0.91468000  1.0 -0.4777119604
O  O16  1  0.28820000  0.40760000  0.08532000  1.0 -0.4777119604
O  O17  1  0.63430000  0.90500000  0.01164000  1.0 -0.4940709618
O  O18  1  0.13430000  0.59500000  0.98836000  1.0 -0.4940709618
O  O19  1  0.86570000  0.09500000  0.51164000  1.0 -0.4940709618
O  O20  1  0.36570000  0.40500000  0.48836000  1.0 -0.4940709618
O  O21  1  0.36570000  0.59500000  0.48836000  1.0 -0.4940709618
O  O22  1  0.86570000  0.90500000  0.51164000  1.0 -0.4940709618
O  O23  1  0.13430000  0.40500000  0.98836000  1.0 -0.4940709618
O  O24  1  0.63430000  0.09500000  0.01164000  1.0 -0.4940709618
O  O25  1  0.78270000  0.90860000  0.07826000  1.0 -0.4777119604
O  O26  1  0.28270000  0.59140000  0.92174000  1.0 -0.4777119604
O  O27  1  0.71730000  0.09140000  0.57826000  1.0 -0.4777119604
O  O28  1  0.21730000  0.40860000  0.42174000  1.0 -0.4777119604
O  O29  1  0.21730000  0.59140000  0.42174000  1.0 -0.4777119604
O  O30  1  0.71730000  0.90860000  0.57826000  1.0 -0.4777119604
O  O31  1  0.28270000  0.40860000  0.92174000  1.0 -0.4777119604
O  O32  1  0.78270000  0.09140000  0.07826000  1.0 -0.4777119604
O  O33  1  0.67620000  0.76300000  0.25130000  1.0 -0.3491676149
O  O34  1  0.17620000  0.73700000  0.74870000  1.0 -0.3491676149
O  O35  1  0.82380000  0.23700000  0.75130000  1.0 -0.3491676149
O  O36  1  0.32380000  0.26300000  0.24870000  1.0 -0.3491676149
O  O37  1  0.32380000  0.73700000  0.24870000  1.0 -0.3491676149
O  O38  1  0.82380000  0.76300000  0.75130000  1.0 -0.3491676149
O  O39  1  0.17620000  0.26300000  0.74870000  1.0 -0.3491676149
O  O40  1  0.67620000  0.23700000  0.25130000  1.0 -0.3491676149
