# DDEC6 charges by PACMAN v1.1 (https://github.com/mtap-research/PACMAN-charge/)
data_ESEBOV_ASR_pacman
_symmetry_space_group_name_H-M   'P 1'
_cell_length_a   28.33100000
_cell_length_b   28.33100000
_cell_length_c   28.33100000
_cell_angle_alpha   90.00000000
_cell_angle_beta   90.00000000
_cell_angle_gamma   90.00000000
_symmetry_Int_Tables_number   1
_chemical_formula_structural   Zr3H40(C10O3)4
_chemical_formula_sum   'Zr18 H240 C240 O72'
_cell_volume   22739.75138869
_cell_formula_units_Z   6
loop_
 _symmetry_equiv_pos_site_id
 _symmetry_equiv_pos_as_xyz
  1  'x, y, z'
loop_
 _atom_site_type_symbol
 _atom_site_label
 _atom_site_symmetry_multiplicity
 _atom_site_fract_x
 _atom_site_fract_y
 _atom_site_fract_z
 _atom_site_occupancy
 _atom_site_charge
Zr  Zr1  1  0.50000000  0.08700000  0.50000000  1.0 2.3532537527
Zr  Zr2  1  0.50000000  0.91300000  0.50000000  1.0 2.3532537527
Zr  Zr3  1  0.50000000  0.50000000  0.08700000  1.0 2.3532537527
Zr  Zr4  1  0.50000000  0.50000000  0.91300000  1.0 2.3532537527
Zr  Zr5  1  0.08700000  0.50000000  0.50000000  1.0 2.3532537527
Zr  Zr6  1  0.91300000  0.50000000  0.50000000  1.0 2.3532537527
Zr  Zr7  1  0.43748000  0.00000000  0.43748000  1.0 2.4644659665
Zr  Zr8  1  0.56252000  0.00000000  0.43748000  1.0 2.4644659665
Zr  Zr9  1  0.56252000  0.00000000  0.56252000  1.0 2.4644659665
Zr  Zr10  1  0.43748000  0.00000000  0.56252000  1.0 2.4644659665
Zr  Zr11  1  0.43748000  0.43748000  0.00000000  1.0 2.4644659665
Zr  Zr12  1  0.43748000  0.56252000  0.00000000  1.0 2.4650231507
Zr  Zr13  1  0.56252000  0.56252000  0.00000000  1.0 2.4650231507
Zr  Zr14  1  0.56252000  0.43748000  0.00000000  1.0 2.4650231507
Zr  Zr15  1  0.00000000  0.43748000  0.43748000  1.0 2.4644659665
Zr  Zr16  1  0.00000000  0.43748000  0.56252000  1.0 2.4644659665
Zr  Zr17  1  0.00000000  0.56252000  0.56252000  1.0 2.4644659665
Zr  Zr18  1  0.00000000  0.56252000  0.43748000  1.0 2.4644659665
H  H1  1  0.57090000  0.20580000  0.57090000  1.0 0.1097650317
H  H2  1  0.42910000  0.79420000  0.57090000  1.0 0.1097650317
H  H3  1  0.42910000  0.20580000  0.42910000  1.0 0.1097650317
H  H4  1  0.57090000  0.79420000  0.42910000  1.0 0.1097650317
H  H5  1  0.57090000  0.57090000  0.20580000  1.0 0.1097650317
H  H6  1  0.57090000  0.42910000  0.79420000  1.0 0.1097650317
H  H7  1  0.42910000  0.42910000  0.20580000  1.0 0.1097650317
H  H8  1  0.42910000  0.57090000  0.79420000  1.0 0.1097650317
H  H9  1  0.20580000  0.57090000  0.57090000  1.0 0.1097650317
H  H10  1  0.79420000  0.57090000  0.42910000  1.0 0.1097650317
H  H11  1  0.20580000  0.42910000  0.42910000  1.0 0.1097650317
H  H12  1  0.79420000  0.42910000  0.57090000  1.0 0.1097650317
H  H13  1  0.20580000  0.57090000  0.42910000  1.0 0.1097650317
H  H14  1  0.79420000  0.42910000  0.42910000  1.0 0.1097650317
H  H15  1  0.20580000  0.42910000  0.57090000  1.0 0.1097650317
H  H16  1  0.79420000  0.57090000  0.57090000  1.0 0.1097650317
H  H17  1  0.57090000  0.57090000  0.79420000  1.0 0.1097650317
H  H18  1  0.42910000  0.57090000  0.20580000  1.0 0.1097650317
H  H19  1  0.42910000  0.42910000  0.79420000  1.0 0.1097650317
H  H20  1  0.57090000  0.42910000  0.20580000  1.0 0.1097650317
H  H21  1  0.57090000  0.20580000  0.42910000  1.0 0.1097650317
H  H22  1  0.57090000  0.79420000  0.57090000  1.0 0.1097650317
H  H23  1  0.42910000  0.20580000  0.57090000  1.0 0.1097650317
H  H24  1  0.42910000  0.79420000  0.42910000  1.0 0.1097650317
H  H25  1  0.60950000  0.26610000  0.60950000  1.0 0.1416180184
H  H26  1  0.39050000  0.73390000  0.60950000  1.0 0.1416180184
H  H27  1  0.39050000  0.26610000  0.39050000  1.0 0.1416180184
H  H28  1  0.60950000  0.73390000  0.39050000  1.0 0.1416180184
H  H29  1  0.60950000  0.60950000  0.26610000  1.0 0.1416180184
H  H30  1  0.60950000  0.39050000  0.73390000  1.0 0.1416180184
H  H31  1  0.39050000  0.39050000  0.26610000  1.0 0.1416180184
H  H32  1  0.39050000  0.60950000  0.73390000  1.0 0.1416180184
H  H33  1  0.26610000  0.60950000  0.60950000  1.0 0.1416180184
H  H34  1  0.73390000  0.60950000  0.39050000  1.0 0.1416180184
H  H35  1  0.26610000  0.39050000  0.39050000  1.0 0.1416180184
H  H36  1  0.73390000  0.39050000  0.60950000  1.0 0.1416180184
H  H37  1  0.26610000  0.60950000  0.39050000  1.0 0.1416180184
H  H38  1  0.73390000  0.39050000  0.39050000  1.0 0.1416180184
H  H39  1  0.26610000  0.39050000  0.60950000  1.0 0.1416180184
H  H40  1  0.73390000  0.60950000  0.60950000  1.0 0.1416180184
H  H41  1  0.60950000  0.60950000  0.73390000  1.0 0.1416180184
H  H42  1  0.39050000  0.60950000  0.26610000  1.0 0.1416180184
H  H43  1  0.39050000  0.39050000  0.73390000  1.0 0.1416180184
H  H44  1  0.60950000  0.39050000  0.26610000  1.0 0.1416180184
H  H45  1  0.60950000  0.26610000  0.39050000  1.0 0.1416180184
H  H46  1  0.60950000  0.73390000  0.60950000  1.0 0.1416180184
H  H47  1  0.39050000  0.26610000  0.60950000  1.0 0.1416180184
H  H48  1  0.39050000  0.73390000  0.39050000  1.0 0.1416180184
H  H49  1  0.68250000  0.17390000  0.68250000  1.0 0.1458626396
H  H50  1  0.31750000  0.82610000  0.68250000  1.0 0.1416180184
H  H51  1  0.31750000  0.17390000  0.31750000  1.0 0.1416180184
H  H52  1  0.68250000  0.82610000  0.31750000  1.0 0.1416180184
H  H53  1  0.68250000  0.68250000  0.17390000  1.0 0.1458626396
H  H54  1  0.68250000  0.31750000  0.82610000  1.0 0.1416180184
H  H55  1  0.31750000  0.31750000  0.17390000  1.0 0.1416180184
H  H56  1  0.31750000  0.68250000  0.82610000  1.0 0.1416180184
H  H57  1  0.17390000  0.68250000  0.68250000  1.0 0.1458626396
H  H58  1  0.82610000  0.68250000  0.31750000  1.0 0.1416180184
H  H59  1  0.17390000  0.31750000  0.31750000  1.0 0.1416180184
H  H60  1  0.82610000  0.31750000  0.68250000  1.0 0.1416180184
H  H61  1  0.17390000  0.68250000  0.31750000  1.0 0.1416180184
H  H62  1  0.82610000  0.31750000  0.31750000  1.0 0.1416180184
H  H63  1  0.17390000  0.31750000  0.68250000  1.0 0.1416180184
H  H64  1  0.82610000  0.68250000  0.68250000  1.0 0.1416180184
H  H65  1  0.68250000  0.68250000  0.82610000  1.0 0.1416180184
H  H66  1  0.31750000  0.68250000  0.17390000  1.0 0.1416180184
H  H67  1  0.31750000  0.31750000  0.82610000  1.0 0.1416180184
H  H68  1  0.68250000  0.31750000  0.17390000  1.0 0.1416180184
H  H69  1  0.68250000  0.17390000  0.31750000  1.0 0.1416180184
H  H70  1  0.68250000  0.82610000  0.68250000  1.0 0.1416180184
H  H71  1  0.31750000  0.17390000  0.68250000  1.0 0.1416180184
H  H72  1  0.31750000  0.82610000  0.31750000  1.0 0.1416180184
H  H73  1  0.64560000  0.11380000  0.64560000  1.0 0.1097650317
H  H74  1  0.35440000  0.88620000  0.64560000  1.0 0.1097650317
H  H75  1  0.35440000  0.11380000  0.35440000  1.0 0.1097650317
H  H76  1  0.64560000  0.88620000  0.35440000  1.0 0.1097650317
H  H77  1  0.64560000  0.64560000  0.11380000  1.0 0.1097650317
H  H78  1  0.64560000  0.35440000  0.88620000  1.0 0.1097650317
H  H79  1  0.35440000  0.35440000  0.11380000  1.0 0.1097650317
H  H80  1  0.35440000  0.64560000  0.88620000  1.0 0.1097650317
H  H81  1  0.11380000  0.64560000  0.64560000  1.0 0.1097650317
H  H82  1  0.88620000  0.64560000  0.35440000  1.0 0.1097650317
H  H83  1  0.11380000  0.35440000  0.35440000  1.0 0.1097650317
H  H84  1  0.88620000  0.35440000  0.64560000  1.0 0.1097650317
H  H85  1  0.11380000  0.64560000  0.35440000  1.0 0.1097650317
H  H86  1  0.88620000  0.35440000  0.35440000  1.0 0.1097650317
H  H87  1  0.11380000  0.35440000  0.64560000  1.0 0.1097650317
H  H88  1  0.88620000  0.64560000  0.64560000  1.0 0.1097650317
H  H89  1  0.64560000  0.64560000  0.88620000  1.0 0.1097650317
H  H90  1  0.35440000  0.64560000  0.11380000  1.0 0.1097650317
H  H91  1  0.35440000  0.35440000  0.88620000  1.0 0.1097650317
H  H92  1  0.64560000  0.35440000  0.11380000  1.0 0.1097650317
H  H93  1  0.64560000  0.11380000  0.35440000  1.0 0.1097650317
H  H94  1  0.64560000  0.88620000  0.64560000  1.0 0.1097650317
H  H95  1  0.35440000  0.11380000  0.64560000  1.0 0.1097650317
H  H96  1  0.35440000  0.88620000  0.35440000  1.0 0.1097650317
H  H97  1  0.58490000  0.25970000  0.71290000  1.0 0.0140126761
H  H98  1  0.41510000  0.74030000  0.71290000  1.0 0.0190011315
H  H99  1  0.41510000  0.25970000  0.28710000  1.0 0.0140126761
H  H100  1  0.58490000  0.74030000  0.28710000  1.0 0.0190011315
H  H101  1  0.71290000  0.58490000  0.25970000  1.0 0.0140126761
H  H102  1  0.71290000  0.41510000  0.74030000  1.0 0.0190011315
H  H103  1  0.28710000  0.41510000  0.25970000  1.0 0.0140126761
H  H104  1  0.28710000  0.58490000  0.74030000  1.0 0.0190011315
H  H105  1  0.25970000  0.71290000  0.58490000  1.0 0.0140126761
H  H106  1  0.74030000  0.71290000  0.41510000  1.0 0.0190011315
H  H107  1  0.25970000  0.28710000  0.41510000  1.0 0.0140126761
H  H108  1  0.74030000  0.28710000  0.58490000  1.0 0.0190011315
H  H109  1  0.25970000  0.58490000  0.28710000  1.0 0.0140126761
H  H110  1  0.74030000  0.41510000  0.28710000  1.0 0.0190011315
H  H111  1  0.25970000  0.41510000  0.71290000  1.0 0.0140126761
H  H112  1  0.74030000  0.58490000  0.71290000  1.0 0.0190011315
H  H113  1  0.58490000  0.71290000  0.74030000  1.0 0.0190011315
H  H114  1  0.41510000  0.71290000  0.25970000  1.0 0.0140126761
H  H115  1  0.41510000  0.28710000  0.74030000  1.0 0.0190011315
H  H116  1  0.58490000  0.28710000  0.25970000  1.0 0.0140126761
H  H117  1  0.71290000  0.25970000  0.41510000  1.0 0.0140126761
H  H118  1  0.71290000  0.74030000  0.58490000  1.0 0.0190011315
H  H119  1  0.28710000  0.25970000  0.58490000  1.0 0.0140126761
H  H120  1  0.28710000  0.74030000  0.41510000  1.0 0.0190011315
H  H121  1  0.41510000  0.74030000  0.28710000  1.0 0.0190011315
H  H122  1  0.58490000  0.25970000  0.28710000  1.0 0.0140126761
H  H123  1  0.58490000  0.74030000  0.71290000  1.0 0.0190011315
H  H124  1  0.41510000  0.25970000  0.71290000  1.0 0.0140126761
H  H125  1  0.28710000  0.41510000  0.74030000  1.0 0.0190011315
H  H126  1  0.28710000  0.58490000  0.25970000  1.0 0.0140126761
H  H127  1  0.71290000  0.58490000  0.74030000  1.0 0.0190011315
H  H128  1  0.71290000  0.41510000  0.25970000  1.0 0.0140126761
H  H129  1  0.74030000  0.28710000  0.41510000  1.0 0.0190011315
H  H130  1  0.25970000  0.28710000  0.58490000  1.0 0.0140126761
H  H131  1  0.74030000  0.71290000  0.58490000  1.0 0.0190011315
H  H132  1  0.25970000  0.71290000  0.41510000  1.0 0.0140126761
H  H133  1  0.74030000  0.41510000  0.71290000  1.0 0.0190011315
H  H134  1  0.25970000  0.58490000  0.71290000  1.0 0.0140126761
H  H135  1  0.74030000  0.58490000  0.28710000  1.0 0.0190011315
H  H136  1  0.25970000  0.41510000  0.28710000  1.0 0.0140126761
H  H137  1  0.41510000  0.28710000  0.25970000  1.0 0.0140126761
H  H138  1  0.58490000  0.28710000  0.74030000  1.0 0.0190011315
H  H139  1  0.58490000  0.71290000  0.25970000  1.0 0.0140126761
H  H140  1  0.41510000  0.71290000  0.74030000  1.0 0.0190011315
H  H141  1  0.28710000  0.74030000  0.58490000  1.0 0.0190011315
H  H142  1  0.28710000  0.25970000  0.41510000  1.0 0.0140126761
H  H143  1  0.71290000  0.74030000  0.41510000  1.0 0.0190011315
H  H144  1  0.71290000  0.25970000  0.58490000  1.0 0.0140126761
H  H145  1  0.59740000  0.28350000  0.76130000  1.0 0.0190011315
H  H146  1  0.40260000  0.71650000  0.76130000  1.0 0.0190011315
H  H147  1  0.40260000  0.28350000  0.23870000  1.0 0.0190011315
H  H148  1  0.59740000  0.71650000  0.23870000  1.0 0.0190011315
H  H149  1  0.76130000  0.59740000  0.28350000  1.0 0.0190011315
H  H150  1  0.76130000  0.40260000  0.71650000  1.0 0.0190011315
H  H151  1  0.23870000  0.40260000  0.28350000  1.0 0.0190011315
H  H152  1  0.23870000  0.59740000  0.71650000  1.0 0.0190011315
H  H153  1  0.28350000  0.76130000  0.59740000  1.0 0.0190011315
H  H154  1  0.71650000  0.76130000  0.40260000  1.0 0.0190011315
H  H155  1  0.28350000  0.23870000  0.40260000  1.0 0.0190011315
H  H156  1  0.71650000  0.23870000  0.59740000  1.0 0.0190011315
H  H157  1  0.28350000  0.59740000  0.23870000  1.0 0.0190011315
H  H158  1  0.71650000  0.40260000  0.23870000  1.0 0.0190011315
H  H159  1  0.28350000  0.40260000  0.76130000  1.0 0.0190011315
H  H160  1  0.71650000  0.59740000  0.76130000  1.0 0.0190011315
H  H161  1  0.59740000  0.76130000  0.71650000  1.0 0.0190011315
H  H162  1  0.40260000  0.76130000  0.28350000  1.0 0.0190011315
H  H163  1  0.40260000  0.23870000  0.71650000  1.0 0.0190011315
H  H164  1  0.59740000  0.23870000  0.28350000  1.0 0.0190011315
H  H165  1  0.76130000  0.28350000  0.40260000  1.0 0.0190011315
H  H166  1  0.76130000  0.71650000  0.59740000  1.0 0.0190011315
H  H167  1  0.23870000  0.28350000  0.59740000  1.0 0.0190011315
H  H168  1  0.23870000  0.71650000  0.40260000  1.0 0.0190011315
H  H169  1  0.40260000  0.71650000  0.23870000  1.0 0.0190011315
H  H170  1  0.59740000  0.28350000  0.23870000  1.0 0.0190011315
H  H171  1  0.59740000  0.71650000  0.76130000  1.0 0.0190011315
H  H172  1  0.40260000  0.28350000  0.76130000  1.0 0.0190011315
H  H173  1  0.23870000  0.40260000  0.71650000  1.0 0.0190011315
H  H174  1  0.23870000  0.59740000  0.28350000  1.0 0.0190011315
H  H175  1  0.76130000  0.59740000  0.71650000  1.0 0.0190011315
H  H176  1  0.76130000  0.40260000  0.28350000  1.0 0.0190011315
H  H177  1  0.71650000  0.23870000  0.40260000  1.0 0.0190011315
H  H178  1  0.28350000  0.23870000  0.59740000  1.0 0.0190011315
H  H179  1  0.71650000  0.76130000  0.59740000  1.0 0.0190011315
H  H180  1  0.28350000  0.76130000  0.40260000  1.0 0.0190011315
H  H181  1  0.71650000  0.40260000  0.76130000  1.0 0.0190011315
H  H182  1  0.28350000  0.59740000  0.76130000  1.0 0.0190011315
H  H183  1  0.71650000  0.59740000  0.23870000  1.0 0.0190011315
H  H184  1  0.28350000  0.40260000  0.23870000  1.0 0.0190011315
H  H185  1  0.40260000  0.23870000  0.28350000  1.0 0.0190011315
H  H186  1  0.59740000  0.23870000  0.71650000  1.0 0.0190011315
H  H187  1  0.59740000  0.76130000  0.28350000  1.0 0.0190011315
H  H188  1  0.40260000  0.76130000  0.71650000  1.0 0.0190011315
H  H189  1  0.23870000  0.71650000  0.59740000  1.0 0.0190011315
H  H190  1  0.23870000  0.28350000  0.40260000  1.0 0.0190011315
H  H191  1  0.76130000  0.71650000  0.40260000  1.0 0.0190011315
H  H192  1  0.76130000  0.28350000  0.59740000  1.0 0.0190011315
H  H193  1  0.61690000  0.23310000  0.74940000  1.0 -0.0077079471
H  H194  1  0.38310000  0.76690000  0.74940000  1.0 -0.0077079471
H  H195  1  0.38310000  0.23310000  0.25060000  1.0 -0.0077079471
H  H196  1  0.61690000  0.76690000  0.25060000  1.0 -0.0077079471
H  H197  1  0.74940000  0.61690000  0.23310000  1.0 -0.0077079471
H  H198  1  0.74940000  0.38310000  0.76690000  1.0 -0.0077079471
H  H199  1  0.25060000  0.38310000  0.23310000  1.0 -0.0077079471
H  H200  1  0.25060000  0.61690000  0.76690000  1.0 -0.0077079471
H  H201  1  0.23310000  0.74940000  0.61690000  1.0 -0.0077079471
H  H202  1  0.76690000  0.74940000  0.38310000  1.0 -0.0077079471
H  H203  1  0.23310000  0.25060000  0.38310000  1.0 -0.0077079471
H  H204  1  0.76690000  0.25060000  0.61690000  1.0 -0.0077079471
H  H205  1  0.23310000  0.61690000  0.25060000  1.0 -0.0077079471
H  H206  1  0.76690000  0.38310000  0.25060000  1.0 -0.0077079471
H  H207  1  0.23310000  0.38310000  0.74940000  1.0 -0.0077079471
H  H208  1  0.76690000  0.61690000  0.74940000  1.0 -0.0077079471
H  H209  1  0.61690000  0.74940000  0.76690000  1.0 -0.0077079471
H  H210  1  0.38310000  0.74940000  0.23310000  1.0 -0.0077079471
H  H211  1  0.38310000  0.25060000  0.76690000  1.0 -0.0077079471
H  H212  1  0.61690000  0.25060000  0.23310000  1.0 -0.0077079471
H  H213  1  0.74940000  0.23310000  0.38310000  1.0 -0.0077079471
H  H214  1  0.74940000  0.76690000  0.61690000  1.0 -0.0077079471
H  H215  1  0.25060000  0.23310000  0.61690000  1.0 -0.0077079471
H  H216  1  0.25060000  0.76690000  0.38310000  1.0 -0.0077079471
H  H217  1  0.38310000  0.76690000  0.25060000  1.0 -0.0077079471
H  H218  1  0.61690000  0.23310000  0.25060000  1.0 -0.0077079471
H  H219  1  0.61690000  0.76690000  0.74940000  1.0 -0.0077079471
H  H220  1  0.38310000  0.23310000  0.74940000  1.0 -0.0077079471
H  H221  1  0.25060000  0.38310000  0.76690000  1.0 -0.0077079471
H  H222  1  0.25060000  0.61690000  0.23310000  1.0 -0.0077079471
H  H223  1  0.74940000  0.61690000  0.76690000  1.0 -0.0077079471
H  H224  1  0.74940000  0.38310000  0.23310000  1.0 -0.0077079471
H  H225  1  0.76690000  0.25060000  0.38310000  1.0 -0.0077079471
H  H226  1  0.23310000  0.25060000  0.61690000  1.0 -0.0077079471
H  H227  1  0.76690000  0.74940000  0.61690000  1.0 -0.0077079471
H  H228  1  0.23310000  0.74940000  0.38310000  1.0 -0.0077079471
H  H229  1  0.76690000  0.38310000  0.74940000  1.0 -0.0077079471
H  H230  1  0.23310000  0.61690000  0.74940000  1.0 -0.0077079471
H  H231  1  0.76690000  0.61690000  0.25060000  1.0 -0.0077079471
H  H232  1  0.23310000  0.38310000  0.25060000  1.0 -0.0077079471
H  H233  1  0.38310000  0.25060000  0.23310000  1.0 -0.0077079471
H  H234  1  0.61690000  0.25060000  0.76690000  1.0 -0.0077079471
H  H235  1  0.61690000  0.74940000  0.23310000  1.0 -0.0077079471
H  H236  1  0.38310000  0.74940000  0.76690000  1.0 -0.0077079471
H  H237  1  0.25060000  0.76690000  0.61690000  1.0 -0.0077079471
H  H238  1  0.25060000  0.23310000  0.38310000  1.0 -0.0077079471
H  H239  1  0.74940000  0.76690000  0.38310000  1.0 -0.0077079471
H  H240  1  0.74940000  0.23310000  0.61690000  1.0 -0.0077079471
C  C1  1  0.57650000  0.11500000  0.57650000  1.0 0.6255210993
C  C2  1  0.42350000  0.88500000  0.57650000  1.0 0.6255210993
C  C3  1  0.42350000  0.11500000  0.42350000  1.0 0.6255210993
C  C4  1  0.57650000  0.88500000  0.42350000  1.0 0.6255210993
C  C5  1  0.57650000  0.57650000  0.11500000  1.0 0.6255210993
C  C6  1  0.57650000  0.42350000  0.88500000  1.0 0.6255210993
C  C7  1  0.42350000  0.42350000  0.11500000  1.0 0.6255210993
C  C8  1  0.42350000  0.57650000  0.88500000  1.0 0.6255210993
C  C9  1  0.11500000  0.57650000  0.57650000  1.0 0.6255210993
C  C10  1  0.88500000  0.57650000  0.42350000  1.0 0.6255210993
C  C11  1  0.11500000  0.42350000  0.42350000  1.0 0.6255210993
C  C12  1  0.88500000  0.42350000  0.57650000  1.0 0.6255210993
C  C13  1  0.11500000  0.57650000  0.42350000  1.0 0.6255210993
C  C14  1  0.88500000  0.42350000  0.42350000  1.0 0.6255210993
C  C15  1  0.11500000  0.42350000  0.57650000  1.0 0.6255210993
C  C16  1  0.88500000  0.57650000  0.57650000  1.0 0.6255210993
C  C17  1  0.57650000  0.57650000  0.88500000  1.0 0.6255210993
C  C18  1  0.42350000  0.57650000  0.11500000  1.0 0.6255210993
C  C19  1  0.42350000  0.42350000  0.88500000  1.0 0.6255210993
C  C20  1  0.57650000  0.42350000  0.11500000  1.0 0.6255210993
C  C21  1  0.57650000  0.11500000  0.42350000  1.0 0.6255210993
C  C22  1  0.57650000  0.88500000  0.57650000  1.0 0.6255210993
C  C23  1  0.42350000  0.11500000  0.57650000  1.0 0.6255210993
C  C24  1  0.42350000  0.88500000  0.42350000  1.0 0.6255210993
C  C25  1  0.60330000  0.15120000  0.60330000  1.0 -0.0386673565
C  C26  1  0.39670000  0.84880000  0.60330000  1.0 -0.0386673565
C  C27  1  0.39670000  0.15120000  0.39670000  1.0 -0.0386673565
C  C28  1  0.60330000  0.84880000  0.39670000  1.0 -0.0386673565
C  C29  1  0.60330000  0.60330000  0.15120000  1.0 -0.0386673565
C  C30  1  0.60330000  0.39670000  0.84880000  1.0 -0.0386673565
C  C31  1  0.39670000  0.39670000  0.15120000  1.0 -0.0386673565
C  C32  1  0.39670000  0.60330000  0.84880000  1.0 -0.0386673565
C  C33  1  0.15120000  0.60330000  0.60330000  1.0 -0.0386673565
C  C34  1  0.84880000  0.60330000  0.39670000  1.0 -0.0386673565
C  C35  1  0.15120000  0.39670000  0.39670000  1.0 -0.0386673565
C  C36  1  0.84880000  0.39670000  0.60330000  1.0 -0.0386673565
C  C37  1  0.15120000  0.60330000  0.39670000  1.0 -0.0386673565
C  C38  1  0.84880000  0.39670000  0.39670000  1.0 -0.0386673565
C  C39  1  0.15120000  0.39670000  0.60330000  1.0 -0.0386673565
C  C40  1  0.84880000  0.60330000  0.60330000  1.0 -0.0386673565
C  C41  1  0.60330000  0.60330000  0.84880000  1.0 -0.0386673565
C  C42  1  0.39670000  0.60330000  0.15120000  1.0 -0.0386673565
C  C43  1  0.39670000  0.39670000  0.84880000  1.0 -0.0386673565
C  C44  1  0.60330000  0.39670000  0.15120000  1.0 -0.0386673565
C  C45  1  0.60330000  0.15120000  0.39670000  1.0 -0.0386673565
C  C46  1  0.60330000  0.84880000  0.60330000  1.0 -0.0386673565
C  C47  1  0.39670000  0.15120000  0.60330000  1.0 -0.0386673565
C  C48  1  0.39670000  0.84880000  0.39670000  1.0 -0.0386673565
C  C49  1  0.59350000  0.19840000  0.59350000  1.0 -0.0386673565
C  C50  1  0.40650000  0.80160000  0.59350000  1.0 -0.0386673565
C  C51  1  0.40650000  0.19840000  0.40650000  1.0 -0.0342436951
C  C52  1  0.59350000  0.80160000  0.40650000  1.0 -0.0386673565
C  C53  1  0.59350000  0.59350000  0.19840000  1.0 -0.0342436951
C  C54  1  0.59350000  0.40650000  0.80160000  1.0 -0.0386673565
C  C55  1  0.40650000  0.40650000  0.19840000  1.0 -0.0342436951
C  C56  1  0.40650000  0.59350000  0.80160000  1.0 -0.0386673565
C  C57  1  0.19840000  0.59350000  0.59350000  1.0 -0.0386673565
C  C58  1  0.80160000  0.59350000  0.40650000  1.0 -0.0386673565
C  C59  1  0.19840000  0.40650000  0.40650000  1.0 -0.0342436951
C  C60  1  0.80160000  0.40650000  0.59350000  1.0 -0.0386673565
C  C61  1  0.19840000  0.59350000  0.40650000  1.0 -0.0386673565
C  C62  1  0.80160000  0.40650000  0.40650000  1.0 -0.0342436951
C  C63  1  0.19840000  0.40650000  0.59350000  1.0 -0.0386673565
C  C64  1  0.80160000  0.59350000  0.59350000  1.0 -0.0386673565
C  C65  1  0.59350000  0.59350000  0.80160000  1.0 -0.0386673565
C  C66  1  0.40650000  0.59350000  0.19840000  1.0 -0.0342436951
C  C67  1  0.40650000  0.40650000  0.80160000  1.0 -0.0386673565
C  C68  1  0.59350000  0.40650000  0.19840000  1.0 -0.0342436951
C  C69  1  0.59350000  0.19840000  0.40650000  1.0 -0.0386673565
C  C70  1  0.59350000  0.80160000  0.59350000  1.0 -0.0386673565
C  C71  1  0.40650000  0.19840000  0.59350000  1.0 -0.0386673565
C  C72  1  0.40650000  0.80160000  0.40650000  1.0 -0.0342436951
C  C73  1  0.61710000  0.23510000  0.61710000  1.0 -0.1312714311
C  C74  1  0.38290000  0.76490000  0.61710000  1.0 -0.1312714311
C  C75  1  0.38290000  0.23510000  0.38290000  1.0 -0.1312714311
C  C76  1  0.61710000  0.76490000  0.38290000  1.0 -0.1312714311
C  C77  1  0.61710000  0.61710000  0.23510000  1.0 -0.1312714311
C  C78  1  0.61710000  0.38290000  0.76490000  1.0 -0.1312714311
C  C79  1  0.38290000  0.38290000  0.23510000  1.0 -0.1312714311
C  C80  1  0.38290000  0.61710000  0.76490000  1.0 -0.1312714311
C  C81  1  0.23510000  0.61710000  0.61710000  1.0 -0.1312714311
C  C82  1  0.76490000  0.61710000  0.38290000  1.0 -0.1312714311
C  C83  1  0.23510000  0.38290000  0.38290000  1.0 -0.1312714311
C  C84  1  0.76490000  0.38290000  0.61710000  1.0 -0.1312714311
C  C85  1  0.23510000  0.61710000  0.38290000  1.0 -0.1312714311
C  C86  1  0.76490000  0.38290000  0.38290000  1.0 -0.1312714311
C  C87  1  0.23510000  0.38290000  0.61710000  1.0 -0.1312714311
C  C88  1  0.76490000  0.61710000  0.61710000  1.0 -0.1312714311
C  C89  1  0.61710000  0.61710000  0.76490000  1.0 -0.1312714311
C  C90  1  0.38290000  0.61710000  0.23510000  1.0 -0.1312714311
C  C91  1  0.38290000  0.38290000  0.76490000  1.0 -0.1312714311
C  C92  1  0.61710000  0.38290000  0.23510000  1.0 -0.1312714311
C  C93  1  0.61710000  0.23510000  0.38290000  1.0 -0.1312714311
C  C94  1  0.61710000  0.76490000  0.61710000  1.0 -0.1312714311
C  C95  1  0.38290000  0.23510000  0.61710000  1.0 -0.1312714311
C  C96  1  0.38290000  0.76490000  0.38290000  1.0 -0.1312714311
C  C97  1  0.65080000  0.22740000  0.65080000  1.0 0.0371066382
C  C98  1  0.34920000  0.77260000  0.65080000  1.0 0.0371066382
C  C99  1  0.34920000  0.22740000  0.34920000  1.0 0.0371066382
C  C100  1  0.65080000  0.77260000  0.34920000  1.0 0.0371066382
C  C101  1  0.65080000  0.65080000  0.22740000  1.0 0.0371066382
C  C102  1  0.65080000  0.34920000  0.77260000  1.0 0.0371066382
C  C103  1  0.34920000  0.34920000  0.22740000  1.0 0.0371066382
C  C104  1  0.34920000  0.65080000  0.77260000  1.0 0.0371066382
C  C105  1  0.22740000  0.65080000  0.65080000  1.0 0.0371066382
C  C106  1  0.77260000  0.65080000  0.34920000  1.0 0.0371066382
C  C107  1  0.22740000  0.34920000  0.34920000  1.0 0.0371066382
C  C108  1  0.77260000  0.34920000  0.65080000  1.0 0.0371066382
C  C109  1  0.22740000  0.65080000  0.34920000  1.0 0.0371066382
C  C110  1  0.77260000  0.34920000  0.34920000  1.0 0.0371066382
C  C111  1  0.22740000  0.34920000  0.65080000  1.0 0.0371066382
C  C112  1  0.77260000  0.65080000  0.65080000  1.0 0.0371066382
C  C113  1  0.65080000  0.65080000  0.77260000  1.0 0.0371066382
C  C114  1  0.34920000  0.65080000  0.22740000  1.0 0.0371066382
C  C115  1  0.34920000  0.34920000  0.77260000  1.0 0.0371066382
C  C116  1  0.65080000  0.34920000  0.22740000  1.0 0.0371066382
C  C117  1  0.65080000  0.22740000  0.34920000  1.0 0.0371066382
C  C118  1  0.65080000  0.77260000  0.65080000  1.0 0.0371066382
C  C119  1  0.34920000  0.22740000  0.65080000  1.0 0.0371066382
C  C120  1  0.34920000  0.77260000  0.34920000  1.0 0.0371066382
C  C121  1  0.65990000  0.18120000  0.65990000  1.0 -0.1364384976
C  C122  1  0.34010000  0.81880000  0.65990000  1.0 -0.1364384976
C  C123  1  0.34010000  0.18120000  0.34010000  1.0 -0.1364384976
C  C124  1  0.65990000  0.81880000  0.34010000  1.0 -0.1364384976
C  C125  1  0.65990000  0.65990000  0.18120000  1.0 -0.1364384976
C  C126  1  0.65990000  0.34010000  0.81880000  1.0 -0.1364384976
C  C127  1  0.34010000  0.34010000  0.18120000  1.0 -0.1364384976
C  C128  1  0.34010000  0.65990000  0.81880000  1.0 -0.1364384976
C  C129  1  0.18120000  0.65990000  0.65990000  1.0 -0.1364384976
C  C130  1  0.81880000  0.65990000  0.34010000  1.0 -0.1364384976
C  C131  1  0.18120000  0.34010000  0.34010000  1.0 -0.1364384976
C  C132  1  0.81880000  0.34010000  0.65990000  1.0 -0.1364384976
C  C133  1  0.18120000  0.65990000  0.34010000  1.0 -0.1364384976
C  C134  1  0.81880000  0.34010000  0.34010000  1.0 -0.1364384976
C  C135  1  0.18120000  0.34010000  0.65990000  1.0 -0.1364384976
C  C136  1  0.81880000  0.65990000  0.65990000  1.0 -0.1364384976
C  C137  1  0.65990000  0.65990000  0.81880000  1.0 -0.1364384976
C  C138  1  0.34010000  0.65990000  0.18120000  1.0 -0.1364384976
C  C139  1  0.34010000  0.34010000  0.81880000  1.0 -0.1364384976
C  C140  1  0.65990000  0.34010000  0.18120000  1.0 -0.1364384976
C  C141  1  0.65990000  0.18120000  0.34010000  1.0 -0.1364384976
C  C142  1  0.65990000  0.81880000  0.65990000  1.0 -0.1364384976
C  C143  1  0.34010000  0.18120000  0.65990000  1.0 -0.1364384976
C  C144  1  0.34010000  0.81880000  0.34010000  1.0 -0.1364384976
C  C145  1  0.63740000  0.14450000  0.63740000  1.0 -0.0734807734
C  C146  1  0.36260000  0.85550000  0.63740000  1.0 -0.0734807734
C  C147  1  0.36260000  0.14450000  0.36260000  1.0 -0.0734807734
C  C148  1  0.63740000  0.85550000  0.36260000  1.0 -0.0734807734
C  C149  1  0.63740000  0.63740000  0.14450000  1.0 -0.0734807734
C  C150  1  0.63740000  0.36260000  0.85550000  1.0 -0.0756646413
C  C151  1  0.36260000  0.36260000  0.14450000  1.0 -0.0734807734
C  C152  1  0.36260000  0.63740000  0.85550000  1.0 -0.0756646413
C  C153  1  0.14450000  0.63740000  0.63740000  1.0 -0.0734807734
C  C154  1  0.85550000  0.63740000  0.36260000  1.0 -0.0734807734
C  C155  1  0.14450000  0.36260000  0.36260000  1.0 -0.0734807734
C  C156  1  0.85550000  0.36260000  0.63740000  1.0 -0.0734807734
C  C157  1  0.14450000  0.63740000  0.36260000  1.0 -0.0734807734
C  C158  1  0.85550000  0.36260000  0.36260000  1.0 -0.0734807734
C  C159  1  0.14450000  0.36260000  0.63740000  1.0 -0.0734807734
C  C160  1  0.85550000  0.63740000  0.63740000  1.0 -0.0734807734
C  C161  1  0.63740000  0.63740000  0.85550000  1.0 -0.0734807734
C  C162  1  0.36260000  0.63740000  0.14450000  1.0 -0.0734807734
C  C163  1  0.36260000  0.36260000  0.85550000  1.0 -0.0756646413
C  C164  1  0.63740000  0.36260000  0.14450000  1.0 -0.0734807734
C  C165  1  0.63740000  0.14450000  0.36260000  1.0 -0.0734807734
C  C166  1  0.63740000  0.85550000  0.63740000  1.0 -0.0734807734
C  C167  1  0.36260000  0.14450000  0.63740000  1.0 -0.0734807734
C  C168  1  0.36260000  0.85550000  0.36260000  1.0 -0.0734807734
C  C169  1  0.67340000  0.26670000  0.67340000  1.0 -0.0514407115
C  C170  1  0.32660000  0.73330000  0.67340000  1.0 -0.0514407115
C  C171  1  0.32660000  0.26670000  0.32660000  1.0 -0.0514407115
C  C172  1  0.67340000  0.73330000  0.32660000  1.0 -0.0514407115
C  C173  1  0.67340000  0.67340000  0.26670000  1.0 -0.0514407115
C  C174  1  0.67340000  0.32660000  0.73330000  1.0 -0.0514407115
C  C175  1  0.32660000  0.32660000  0.26670000  1.0 -0.0514407115
C  C176  1  0.32660000  0.67340000  0.73330000  1.0 -0.0514407115
C  C177  1  0.26670000  0.67340000  0.67340000  1.0 -0.0514407115
C  C178  1  0.73330000  0.67340000  0.32660000  1.0 -0.0514407115
C  C179  1  0.26670000  0.32660000  0.32660000  1.0 -0.0514407115
C  C180  1  0.73330000  0.32660000  0.67340000  1.0 -0.0514407115
C  C181  1  0.26670000  0.67340000  0.32660000  1.0 -0.0514407115
C  C182  1  0.73330000  0.32660000  0.32660000  1.0 -0.0514407115
C  C183  1  0.26670000  0.32660000  0.67340000  1.0 -0.0514407115
C  C184  1  0.73330000  0.67340000  0.67340000  1.0 -0.0514407115
C  C185  1  0.67340000  0.67340000  0.73330000  1.0 -0.0514407115
C  C186  1  0.32660000  0.67340000  0.26670000  1.0 -0.0514407115
C  C187  1  0.32660000  0.32660000  0.73330000  1.0 -0.0514407115
C  C188  1  0.67340000  0.32660000  0.26670000  1.0 -0.0514407115
C  C189  1  0.67340000  0.26670000  0.32660000  1.0 -0.0514407115
C  C190  1  0.67340000  0.73330000  0.67340000  1.0 -0.0514407115
C  C191  1  0.32660000  0.26670000  0.67340000  1.0 -0.0514407115
C  C192  1  0.32660000  0.73330000  0.32660000  1.0 -0.0514407115
C  C193  1  0.65340000  0.28600000  0.71400000  1.0 0.0190011315
C  C194  1  0.34660000  0.71400000  0.71400000  1.0 0.0190011315
C  C195  1  0.34660000  0.28600000  0.28600000  1.0 0.0190011315
C  C196  1  0.65340000  0.71400000  0.28600000  1.0 0.0190011315
C  C197  1  0.71400000  0.65340000  0.28600000  1.0 0.0190011315
C  C198  1  0.71400000  0.34660000  0.71400000  1.0 0.0190011315
C  C199  1  0.28600000  0.34660000  0.28600000  1.0 0.0190011315
C  C200  1  0.28600000  0.65340000  0.71400000  1.0 0.0190011315
C  C201  1  0.28600000  0.71400000  0.65340000  1.0 0.0190011315
C  C202  1  0.71400000  0.71400000  0.34660000  1.0 0.0190011315
C  C203  1  0.28600000  0.28600000  0.34660000  1.0 0.0190011315
C  C204  1  0.71400000  0.28600000  0.65340000  1.0 0.0190011315
C  C205  1  0.28600000  0.65340000  0.28600000  1.0 0.0190011315
C  C206  1  0.71400000  0.34660000  0.28600000  1.0 0.0190011315
C  C207  1  0.28600000  0.34660000  0.71400000  1.0 0.0190011315
C  C208  1  0.71400000  0.65340000  0.71400000  1.0 0.0190011315
C  C209  1  0.65340000  0.71400000  0.71400000  1.0 0.0190011315
C  C210  1  0.34660000  0.71400000  0.28600000  1.0 0.0190011315
C  C211  1  0.34660000  0.28600000  0.71400000  1.0 0.0190011315
C  C212  1  0.65340000  0.28600000  0.28600000  1.0 0.0190011315
C  C213  1  0.71400000  0.28600000  0.34660000  1.0 0.0190011315
C  C214  1  0.71400000  0.71400000  0.65340000  1.0 0.0190011315
C  C215  1  0.28600000  0.28600000  0.65340000  1.0 0.0190011315
C  C216  1  0.28600000  0.71400000  0.34660000  1.0 0.0190011315
C  C217  1  0.60890000  0.26340000  0.73660000  1.0 -0.1845707285
C  C218  1  0.39110000  0.73660000  0.73660000  1.0 -0.1862324101
C  C219  1  0.39110000  0.26340000  0.26340000  1.0 -0.1845707285
C  C220  1  0.60890000  0.73660000  0.26340000  1.0 -0.1845707285
C  C221  1  0.73660000  0.60890000  0.26340000  1.0 -0.1845707285
C  C222  1  0.73660000  0.39110000  0.73660000  1.0 -0.1862324101
C  C223  1  0.26340000  0.39110000  0.26340000  1.0 -0.1845707285
C  C224  1  0.26340000  0.60890000  0.73660000  1.0 -0.1845707285
C  C225  1  0.26340000  0.73660000  0.60890000  1.0 -0.1845707285
C  C226  1  0.73660000  0.73660000  0.39110000  1.0 -0.1862324101
C  C227  1  0.26340000  0.26340000  0.39110000  1.0 -0.1845707285
C  C228  1  0.73660000  0.26340000  0.60890000  1.0 -0.1845707285
C  C229  1  0.26340000  0.60890000  0.26340000  1.0 -0.1862324101
C  C230  1  0.73660000  0.39110000  0.26340000  1.0 -0.1845707285
C  C231  1  0.26340000  0.39110000  0.73660000  1.0 -0.1845707285
C  C232  1  0.73660000  0.60890000  0.73660000  1.0 -0.1862324101
C  C233  1  0.60890000  0.73660000  0.73660000  1.0 -0.1862324101
C  C234  1  0.39110000  0.73660000  0.26340000  1.0 -0.1845707285
C  C235  1  0.39110000  0.26340000  0.73660000  1.0 -0.1845707285
C  C236  1  0.60890000  0.26340000  0.26340000  1.0 -0.1845707285
C  C237  1  0.73660000  0.26340000  0.39110000  1.0 -0.1845707285
C  C238  1  0.73660000  0.73660000  0.60890000  1.0 -0.1862324101
C  C239  1  0.26340000  0.26340000  0.60890000  1.0 -0.1845707285
C  C240  1  0.26340000  0.73660000  0.39110000  1.0 -0.1845707285
O  O1  1  0.54624000  0.12670000  0.54624000  1.0 -0.5703672983
O  O2  1  0.45376000  0.87330000  0.54624000  1.0 -0.5703672983
O  O3  1  0.45376000  0.12670000  0.45376000  1.0 -0.5703672983
O  O4  1  0.54624000  0.87330000  0.45376000  1.0 -0.5703672983
O  O5  1  0.54624000  0.54624000  0.12670000  1.0 -0.5703672983
O  O6  1  0.54624000  0.45376000  0.87330000  1.0 -0.5703672983
O  O7  1  0.45376000  0.45376000  0.12670000  1.0 -0.5703672983
O  O8  1  0.45376000  0.54624000  0.87330000  1.0 -0.5703672983
O  O9  1  0.12670000  0.54624000  0.54624000  1.0 -0.5703672983
O  O10  1  0.87330000  0.54624000  0.45376000  1.0 -0.5703672983
O  O11  1  0.12670000  0.45376000  0.45376000  1.0 -0.5703672983
O  O12  1  0.87330000  0.45376000  0.54624000  1.0 -0.5703672983
O  O13  1  0.12670000  0.54624000  0.45376000  1.0 -0.5703672983
O  O14  1  0.87330000  0.45376000  0.45376000  1.0 -0.5703672983
O  O15  1  0.12670000  0.45376000  0.54624000  1.0 -0.5703672983
O  O16  1  0.87330000  0.54624000  0.54624000  1.0 -0.5703672983
O  O17  1  0.54624000  0.54624000  0.87330000  1.0 -0.5703672983
O  O18  1  0.45376000  0.54624000  0.12670000  1.0 -0.5703672983
O  O19  1  0.45376000  0.45376000  0.87330000  1.0 -0.5703672983
O  O20  1  0.54624000  0.45376000  0.12670000  1.0 -0.5703672983
O  O21  1  0.54624000  0.12670000  0.45376000  1.0 -0.5703672983
O  O22  1  0.54624000  0.87330000  0.54624000  1.0 -0.5703672983
O  O23  1  0.45376000  0.12670000  0.54624000  1.0 -0.5703672983
O  O24  1  0.45376000  0.87330000  0.45376000  1.0 -0.5703672983
O  O25  1  0.58738000  0.07120000  0.58738000  1.0 -0.6416777664
O  O26  1  0.41262000  0.92880000  0.58738000  1.0 -0.6416777664
O  O27  1  0.41262000  0.07120000  0.41262000  1.0 -0.6416777664
O  O28  1  0.58738000  0.92880000  0.41262000  1.0 -0.6416777664
O  O29  1  0.58738000  0.58738000  0.07120000  1.0 -0.6416777664
O  O30  1  0.58738000  0.41262000  0.92880000  1.0 -0.6416777664
O  O31  1  0.41262000  0.41262000  0.07120000  1.0 -0.6416777664
O  O32  1  0.41262000  0.58738000  0.92880000  1.0 -0.6416777664
O  O33  1  0.07120000  0.58738000  0.58738000  1.0 -0.6416777664
O  O34  1  0.92880000  0.58738000  0.41262000  1.0 -0.6416777664
O  O35  1  0.07120000  0.41262000  0.41262000  1.0 -0.6416777664
O  O36  1  0.92880000  0.41262000  0.58738000  1.0 -0.6416777664
O  O37  1  0.07120000  0.58738000  0.41262000  1.0 -0.6416777664
O  O38  1  0.92880000  0.41262000  0.41262000  1.0 -0.6416777664
O  O39  1  0.07120000  0.41262000  0.58738000  1.0 -0.6416777664
O  O40  1  0.92880000  0.58738000  0.58738000  1.0 -0.6416777664
O  O41  1  0.58738000  0.58738000  0.92880000  1.0 -0.6416777664
O  O42  1  0.41262000  0.58738000  0.07120000  1.0 -0.6416777664
O  O43  1  0.41262000  0.41262000  0.92880000  1.0 -0.6416777664
O  O44  1  0.58738000  0.41262000  0.07120000  1.0 -0.6416777664
O  O45  1  0.58738000  0.07120000  0.41262000  1.0 -0.6416777664
O  O46  1  0.58738000  0.92880000  0.58738000  1.0 -0.6416777664
O  O47  1  0.41262000  0.07120000  0.58738000  1.0 -0.6416777664
O  O48  1  0.41262000  0.92880000  0.41262000  1.0 -0.6416777664
O  O49  1  0.43710000  0.04329000  0.50000000  1.0 -1.1972264939
O  O50  1  0.56290000  0.95671000  0.50000000  1.0 -1.1933270785
O  O51  1  0.56290000  0.04329000  0.50000000  1.0 -1.1972264939
O  O52  1  0.43710000  0.95671000  0.50000000  1.0 -1.1933270785
O  O53  1  0.50000000  0.43710000  0.04329000  1.0 -1.1972264939
O  O54  1  0.50000000  0.56290000  0.95671000  1.0 -1.1933270785
O  O55  1  0.50000000  0.56290000  0.04329000  1.0 -1.1972264939
O  O56  1  0.50000000  0.43710000  0.95671000  1.0 -1.1933270785
O  O57  1  0.04329000  0.50000000  0.43710000  1.0 -1.1972264939
O  O58  1  0.95671000  0.50000000  0.56290000  1.0 -1.1933270785
O  O59  1  0.04329000  0.50000000  0.56290000  1.0 -1.1972264939
O  O60  1  0.95671000  0.50000000  0.43710000  1.0 -1.1933270785
O  O61  1  0.04329000  0.43710000  0.50000000  1.0 -1.1972264939
O  O62  1  0.95671000  0.56290000  0.50000000  1.0 -1.1933270785
O  O63  1  0.04329000  0.56290000  0.50000000  1.0 -1.1972264939
O  O64  1  0.95671000  0.43710000  0.50000000  1.0 -1.1933270785
O  O65  1  0.43710000  0.50000000  0.95671000  1.0 -1.1933270785
O  O66  1  0.56290000  0.50000000  0.04329000  1.0 -1.1972264939
O  O67  1  0.56290000  0.50000000  0.95671000  1.0 -1.1933270785
O  O68  1  0.43710000  0.50000000  0.04329000  1.0 -1.1972264939
O  O69  1  0.50000000  0.04329000  0.56290000  1.0 -1.1972264939
O  O70  1  0.50000000  0.95671000  0.43710000  1.0 -1.1933270785
O  O71  1  0.50000000  0.04329000  0.43710000  1.0 -1.1972264939
O  O72  1  0.50000000  0.95671000  0.56290000  1.0 -1.1933270785
