# DDEC6 charges by PACMAN v1.1 (https://github.com/mtap-research/PACMAN-charge/)
data_ESIFET_ASR_pacman
_symmetry_space_group_name_H-M   'P 1'
_cell_length_a   12.58360000
_cell_length_b   12.58360000
_cell_length_c   12.58360000
_cell_angle_alpha   96.78250000
_cell_angle_beta   96.78250000
_cell_angle_gamma   96.78250000
_symmetry_Int_Tables_number   1
_chemical_formula_structural   CdH6C6(N2O)2
_chemical_formula_sum   'Cd6 H36 C36 N24 O12'
_cell_volume   1947.08569653
_cell_formula_units_Z   6
loop_
 _symmetry_equiv_pos_site_id
 _symmetry_equiv_pos_as_xyz
  1  'x, y, z'
loop_
 _atom_site_type_symbol
 _atom_site_label
 _atom_site_symmetry_multiplicity
 _atom_site_fract_x
 _atom_site_fract_y
 _atom_site_fract_z
 _atom_site_occupancy
 _atom_site_charge
Cd  Cd1  1  0.76031000  0.04775000  0.32276000  1.0 0.8441081879
Cd  Cd2  1  0.04775000  0.32276000  0.76031000  1.0 0.8441081879
Cd  Cd3  1  0.32276000  0.76031000  0.04775000  1.0 0.8441081879
Cd  Cd4  1  0.23969000  0.95225000  0.67724000  1.0 0.8462670383
Cd  Cd5  1  0.95225000  0.67724000  0.23969000  1.0 0.8462670383
Cd  Cd6  1  0.67724000  0.23969000  0.95225000  1.0 0.8441081879
H  H1  1  0.90600000  0.88900000  0.28500000  1.0 0.3009776808
H  H2  1  0.88900000  0.28500000  0.90600000  1.0 0.3009776808
H  H3  1  0.28500000  0.90600000  0.88900000  1.0 0.3009776808
H  H4  1  0.09400000  0.11100000  0.71500000  1.0 0.3009776808
H  H5  1  0.11100000  0.71500000  0.09400000  1.0 0.3009776808
H  H6  1  0.71500000  0.09400000  0.11100000  1.0 0.3009776808
H  H7  1  0.40700000  0.01400000  0.14000000  1.0 0.1498209523
H  H8  1  0.01400000  0.14000000  0.40700000  1.0 0.1498209523
H  H9  1  0.14000000  0.40700000  0.01400000  1.0 0.1498209523
H  H10  1  0.59300000  0.98600000  0.86000000  1.0 0.1498209523
H  H11  1  0.98600000  0.86000000  0.59300000  1.0 0.1498209523
H  H12  1  0.86000000  0.59300000  0.98600000  1.0 0.1498209523
H  H13  1  0.48300000  0.08000000  0.22000000  1.0 0.161238977
H  H14  1  0.08000000  0.22000000  0.48300000  1.0 0.161238977
H  H15  1  0.22000000  0.48300000  0.08000000  1.0 0.161238977
H  H16  1  0.51700000  0.92000000  0.78000000  1.0 0.161238977
H  H17  1  0.92000000  0.78000000  0.51700000  1.0 0.161238977
H  H18  1  0.78000000  0.51700000  0.92000000  1.0 0.161238977
H  H19  1  0.47900000  0.10300000  0.09300000  1.0 0.1224721608
H  H20  1  0.10300000  0.09300000  0.47900000  1.0 0.1224721608
H  H21  1  0.09300000  0.47900000  0.10300000  1.0 0.1224721608
H  H22  1  0.52100000  0.89700000  0.90700000  1.0 0.1224721608
H  H23  1  0.89700000  0.90700000  0.52100000  1.0 0.1224721608
H  H24  1  0.90700000  0.52100000  0.89700000  1.0 0.1224721608
H  H25  1  0.66800000  0.61500000  0.13700000  1.0 0.3009776808
H  H26  1  0.61500000  0.13700000  0.66800000  1.0 0.3009776808
H  H27  1  0.13700000  0.66800000  0.61500000  1.0 0.3009776808
H  H28  1  0.33200000  0.38500000  0.86300000  1.0 0.3009776808
H  H29  1  0.38500000  0.86300000  0.33200000  1.0 0.3009776808
H  H30  1  0.86300000  0.33200000  0.38500000  1.0 0.3009776808
H  H31  1  0.60200000  0.53900000  0.06000000  1.0 0.2907081879
H  H32  1  0.53900000  0.06000000  0.60200000  1.0 0.2907081879
H  H33  1  0.06000000  0.60200000  0.53900000  1.0 0.2907081879
H  H34  1  0.39800000  0.46100000  0.94000000  1.0 0.2907081879
H  H35  1  0.46100000  0.94000000  0.39800000  1.0 0.2907081879
H  H36  1  0.94000000  0.39800000  0.46100000  1.0 0.2907081879
C  C1  1  0.66264000  0.84464000  0.16844000  1.0 -0.0116702757
C  C2  1  0.84464000  0.16844000  0.66264000  1.0 -0.0116702757
C  C3  1  0.16844000  0.66264000  0.84464000  1.0 -0.0116702757
C  C4  1  0.33736000  0.15536000  0.83156000  1.0 -0.0116702757
C  C5  1  0.15536000  0.83156000  0.33736000  1.0 -0.0116702757
C  C6  1  0.83156000  0.33736000  0.15536000  1.0 -0.0116702757
C  C7  1  0.53049000  0.94219000  0.15399000  1.0 0.3903099435
C  C8  1  0.94219000  0.15399000  0.53049000  1.0 0.3903099435
C  C9  1  0.15399000  0.53049000  0.94219000  1.0 0.3903099435
C  C10  1  0.46951000  0.05781000  0.84601000  1.0 0.3903099435
C  C11  1  0.05781000  0.84601000  0.46951000  1.0 0.3903099435
C  C12  1  0.84601000  0.46951000  0.05781000  1.0 0.3903099435
C  C13  1  0.77430000  0.82570000  0.20400000  1.0 0.5114249922
C  C14  1  0.82570000  0.20400000  0.77430000  1.0 0.5114249922
C  C15  1  0.20400000  0.77430000  0.82570000  1.0 0.5114249922
C  C16  1  0.22570000  0.17430000  0.79600000  1.0 0.5114249922
C  C17  1  0.17430000  0.79600000  0.22570000  1.0 0.5114249922
C  C18  1  0.79600000  0.22570000  0.17430000  1.0 0.5114249922
C  C19  1  0.57001000  0.78071000  0.11401000  1.0 -0.0116702757
C  C20  1  0.78071000  0.11401000  0.57001000  1.0 -0.0116702757
C  C21  1  0.11401000  0.57001000  0.78071000  1.0 -0.0116702757
C  C22  1  0.42999000  0.21929000  0.88599000  1.0 -0.0116702757
C  C23  1  0.21929000  0.88599000  0.42999000  1.0 -0.0116702757
C  C24  1  0.88599000  0.42999000  0.21929000  1.0 -0.0116702757
C  C25  1  0.47090000  0.03720000  0.15730000  1.0 -0.4636968138
C  C26  1  0.03720000  0.15730000  0.47090000  1.0 -0.4636968138
C  C27  1  0.15730000  0.47090000  0.03720000  1.0 -0.4636968138
C  C28  1  0.52910000  0.96280000  0.84270000  1.0 -0.4636968138
C  C29  1  0.96280000  0.84270000  0.52910000  1.0 -0.4636968138
C  C30  1  0.84270000  0.52910000  0.96280000  1.0 -0.4636968138
C  C31  1  0.54291000  0.66391000  0.06771000  1.0 0.4861279366
C  C32  1  0.66391000  0.06771000  0.54291000  1.0 0.4845404364
C  C33  1  0.06771000  0.54291000  0.66391000  1.0 0.4845404364
C  C34  1  0.45709000  0.33609000  0.93229000  1.0 0.4861279366
C  C35  1  0.33609000  0.93229000  0.45709000  1.0 0.4861279366
C  C36  1  0.93229000  0.45709000  0.33609000  1.0 0.4845404364
N  N1  1  0.63437000  0.94727000  0.19347000  1.0 -0.4157093975
N  N2  1  0.94727000  0.19347000  0.63437000  1.0 -0.4157093975
N  N3  1  0.19347000  0.63437000  0.94727000  1.0 -0.4157093975
N  N4  1  0.36563000  0.05273000  0.80653000  1.0 -0.4157093975
N  N5  1  0.05273000  0.80653000  0.36563000  1.0 -0.4157093975
N  N6  1  0.80653000  0.36563000  0.05273000  1.0 -0.4157093975
N  N7  1  0.83624000  0.90524000  0.26364000  1.0 -0.675243533
N  N8  1  0.90524000  0.26364000  0.83624000  1.0 -0.6732589069
N  N9  1  0.26364000  0.83624000  0.90524000  1.0 -0.675243533
N  N10  1  0.16376000  0.09476000  0.73636000  1.0 -0.675243533
N  N11  1  0.09476000  0.73636000  0.16376000  1.0 -0.675243533
N  N12  1  0.73636000  0.16376000  0.09476000  1.0 -0.6732589069
N  N13  1  0.48805000  0.84345000  0.10485000  1.0 -0.4068192952
N  N14  1  0.84345000  0.10485000  0.48805000  1.0 -0.4068192952
N  N15  1  0.10485000  0.48805000  0.84345000  1.0 -0.4068192952
N  N16  1  0.51195000  0.15655000  0.89515000  1.0 -0.4068192952
N  N17  1  0.15655000  0.89515000  0.51195000  1.0 -0.4068192952
N  N18  1  0.89515000  0.51195000  0.15655000  1.0 -0.4068192952
N  N19  1  0.61810000  0.60130000  0.07220000  1.0 -0.4966400427
N  N20  1  0.60130000  0.07220000  0.61810000  1.0 -0.4966400427
N  N21  1  0.07220000  0.61810000  0.60130000  1.0 -0.4966400427
N  N22  1  0.38190000  0.39870000  0.92780000  1.0 -0.4966400427
N  N23  1  0.39870000  0.92780000  0.38190000  1.0 -0.4966400427
N  N24  1  0.92780000  0.38190000  0.39870000  1.0 -0.4966400427
O  O1  1  0.80145000  0.73225000  0.17235000  1.0 -0.5489629072
O  O2  1  0.73225000  0.17235000  0.80145000  1.0 -0.5489629072
O  O3  1  0.17235000  0.80145000  0.73225000  1.0 -0.5489629072
O  O4  1  0.19855000  0.26775000  0.82765000  1.0 -0.5489629072
O  O5  1  0.26775000  0.82765000  0.19855000  1.0 -0.5489629072
O  O6  1  0.82765000  0.19855000  0.26775000  1.0 -0.5489629072
O  O7  1  0.44700000  0.63050000  0.02630000  1.0 -0.5283415678
O  O8  1  0.63050000  0.02630000  0.44700000  1.0 -0.5283415678
O  O9  1  0.02630000  0.44700000  0.63050000  1.0 -0.5283415678
O  O10  1  0.55300000  0.36950000  0.97370000  1.0 -0.5283415678
O  O11  1  0.36950000  0.97370000  0.55300000  1.0 -0.5283415678
O  O12  1  0.97370000  0.55300000  0.36950000  1.0 -0.5283415678
