# DDEC6 charges by PACMAN v1.1 (https://github.com/mtap-research/PACMAN-charge/)
data_ESIWAF_ASR_pacman
_symmetry_space_group_name_H-M   'P 1'
_cell_length_a   9.15400000
_cell_length_b   9.23900000
_cell_length_c   9.34500000
_cell_angle_alpha   78.23100000
_cell_angle_beta   87.48500000
_cell_angle_gamma   87.17900000
_symmetry_Int_Tables_number   1
_chemical_formula_structural   Al3P3O12F
_chemical_formula_sum   'Al6 P6 O24 F2'
_cell_volume   772.32691008
_cell_formula_units_Z   2
loop_
 _symmetry_equiv_pos_site_id
 _symmetry_equiv_pos_as_xyz
  1  'x, y, z'
loop_
 _atom_site_type_symbol
 _atom_site_label
 _atom_site_symmetry_multiplicity
 _atom_site_fract_x
 _atom_site_fract_y
 _atom_site_fract_z
 _atom_site_occupancy
 _atom_site_charge
Al  Al1  1  0.63070000  0.89680000  0.33970000  1.0 1.7379431928
Al  Al2  1  0.36930000  0.10320000  0.66030000  1.0 1.7379431928
Al  Al3  1  0.83710000  0.86730000  0.92680000  1.0 1.7379431928
Al  Al4  1  0.16290000  0.13270000  0.07320000  1.0 1.7379431928
Al  Al5  1  0.43850000  0.63160000  0.90800000  1.0 1.7269690539
Al  Al6  1  0.56150000  0.36840000  0.09200000  1.0 1.7269690539
P  P1  1  0.61700000  0.86030000  0.67860000  1.0 1.5171534921
P  P2  1  0.38300000  0.13970000  0.32140000  1.0 1.5171534921
P  P3  1  0.81260000  0.11110000  0.10540000  1.0 1.5370454694
P  P4  1  0.18740000  0.88890000  0.89460000  1.0 1.5370454694
P  P5  1  0.64870000  0.66940000  0.13810000  1.0 1.5171534921
P  P6  1  0.35130000  0.33060000  0.86190000  1.0 1.5171534921
O  O1  1  0.53600000  0.73480000  0.02610000  1.0 -0.7521877532
O  O2  1  0.46400000  0.26520000  0.97390000  1.0 -0.7521877532
O  O3  1  0.78750000  0.03510000  0.97770000  1.0 -0.8013964588
O  O4  1  0.21250000  0.96490000  0.02230000  1.0 -0.8013964588
O  O5  1  0.64840000  0.50220000  0.18700000  1.0 -0.6800373887
O  O6  1  0.35160000  0.49780000  0.81300000  1.0 -0.6800373887
O  O7  1  0.73100000  0.25800000  0.08710000  1.0 -0.7238024567
O  O8  1  0.26900000  0.74200000  0.91290000  1.0 -0.7238024567
O  O9  1  0.76800000  0.00940000  0.24970000  1.0 -0.817506293
O  O10  1  0.23200000  0.99060000  0.75030000  1.0 -0.817506293
O  O11  1  0.51450000  0.73560000  0.73390000  1.0 -0.7563081925
O  O12  1  0.48550000  0.26440000  0.26610000  1.0 -0.7563081925
O  O13  1  0.97680000  0.13530000  0.11200000  1.0 -0.7850949262
O  O14  1  0.02320000  0.86470000  0.88800000  1.0 -0.7850949262
O  O15  1  0.80150000  0.71860000  0.07090000  1.0 -0.8061187957
O  O16  1  0.19850000  0.28140000  0.92910000  1.0 -0.8013964588
O  O17  1  0.75260000  0.85090000  0.77080000  1.0 -0.7563081925
O  O18  1  0.24740000  0.14910000  0.22920000  1.0 -0.7563081925
O  O19  1  0.67400000  0.85100000  0.52340000  1.0 -0.7787321304
O  O20  1  0.32600000  0.14900000  0.47660000  1.0 -0.7787321304
O  O21  1  0.62500000  0.73530000  0.27700000  1.0 -0.7521877532
O  O22  1  0.37500000  0.26470000  0.72300000  1.0 -0.7521877532
O  O23  1  0.53920000  0.01040000  0.67520000  1.0 -0.8061187957
O  O24  1  0.46080000  0.98960000  0.32480000  1.0 -0.8061187957
F  F1  1  0.60530000  0.50230000  0.91950000  1.0 -0.560769925
F  F2  1  0.39470000  0.49770000  0.08050000  1.0 -0.560769925
