# DDEC6 charges by PACMAN v1.1 (https://github.com/mtap-research/PACMAN-charge/)
data_ESOROV_FSR_pacman
_symmetry_space_group_name_H-M   'P 1'
_cell_length_a   15.39800000
_cell_length_b   15.39800000
_cell_length_c   25.45600000
_cell_angle_alpha   90.00000000
_cell_angle_beta   90.00000000
_cell_angle_gamma   120.00000000
_symmetry_Int_Tables_number   1
_chemical_formula_structural   Cd2H37C42N3O11
_chemical_formula_sum   'Cd12 H222 C252 N18 O66'
_cell_volume   5226.96298444
_cell_formula_units_Z   6
loop_
 _symmetry_equiv_pos_site_id
 _symmetry_equiv_pos_as_xyz
  1  'x, y, z'
loop_
 _atom_site_type_symbol
 _atom_site_label
 _atom_site_symmetry_multiplicity
 _atom_site_fract_x
 _atom_site_fract_y
 _atom_site_fract_z
 _atom_site_occupancy
 _atom_site_charge
Cd  Cd1  1  0.34980000  0.77856000  0.19415000  1.0 0.8038298946
Cd  Cd2  1  0.22144000  0.57124000  0.86082000  1.0 0.8038298946
Cd  Cd3  1  0.42876000  0.65020000  0.52748000  1.0 0.8038298946
Cd  Cd4  1  0.77856000  0.34980000  0.80585000  1.0 0.8038298946
Cd  Cd5  1  0.65020000  0.42876000  0.47252000  1.0 0.8038298946
Cd  Cd6  1  0.57124000  0.22144000  0.13918000  1.0 0.8038298946
Cd  Cd7  1  0.49186000  0.99375000  0.66359000  1.0 0.9335903288
Cd  Cd8  1  0.00625000  0.49811000  0.33026000  1.0 0.9335903288
Cd  Cd9  1  0.50189000  0.50814000  0.99692000  1.0 0.9335903288
Cd  Cd10  1  0.99375000  0.49186000  0.33641000  1.0 0.9335903288
Cd  Cd11  1  0.50814000  0.50189000  0.00308000  1.0 0.9335903288
Cd  Cd12  1  0.49811000  0.00625000  0.66974000  1.0 0.9335903288
H  H1  1  0.61880000  0.05370000  0.77360000  1.0 0.1057555351
H  H2  1  0.94630000  0.56510000  0.44027000  1.0 0.1057555351
H  H3  1  0.43490000  0.38120000  0.10693000  1.0 0.1057555351
H  H4  1  0.05370000  0.61880000  0.22640000  1.0 0.1057555351
H  H5  1  0.38120000  0.43490000  0.89307000  1.0 0.1057555351
H  H6  1  0.56510000  0.94630000  0.55973000  1.0 0.1057555351
H  H7  1  0.24630000  0.00610000  0.06790000  1.0 0.1389399422
H  H8  1  0.99390000  0.24020000  0.73457000  1.0 0.1389399422
H  H9  1  0.75980000  0.75370000  0.40123000  1.0 0.1389399422
H  H10  1  0.00610000  0.24630000  0.93210000  1.0 0.1389399422
H  H11  1  0.75370000  0.75980000  0.59877000  1.0 0.1389399422
H  H12  1  0.24020000  0.99390000  0.26543000  1.0 0.1389399422
H  H13  1  0.98950000  0.00720000  0.09440000  1.0 0.1661219409
H  H14  1  0.99280000  0.98230000  0.76107000  1.0 0.1661219409
H  H15  1  0.01770000  0.01050000  0.42773000  1.0 0.1661219409
H  H16  1  0.00720000  0.98950000  0.90560000  1.0 0.1661219409
H  H17  1  0.01050000  0.01770000  0.57227000  1.0 0.1661219409
H  H18  1  0.98230000  0.99280000  0.23893000  1.0 0.1661219409
H  H19  1  0.08450000  0.25400000  0.23710000  1.0 0.1187984325
H  H20  1  0.74600000  0.83050000  0.90377000  1.0 0.1187984325
H  H21  1  0.16950000  0.91550000  0.57043000  1.0 0.1187984325
H  H22  1  0.25400000  0.08450000  0.76290000  1.0 0.1187984325
H  H23  1  0.91550000  0.16950000  0.42957000  1.0 0.1187984325
H  H24  1  0.83050000  0.74600000  0.09623000  1.0 0.1187984325
H  H25  1  0.17160000  0.42380000  0.25140000  1.0 0.0906269055
H  H26  1  0.57620000  0.74780000  0.91807000  1.0 0.0906269055
H  H27  1  0.25220000  0.82840000  0.58473000  1.0 0.0906269055
H  H28  1  0.42380000  0.17160000  0.74860000  1.0 0.0906269055
H  H29  1  0.82840000  0.25220000  0.41527000  1.0 0.0906269055
H  H30  1  0.74780000  0.57620000  0.08193000  1.0 0.0906269055
H  H31  1  0.10470000  0.79080000  0.08060000  1.0 0.1389399422
H  H32  1  0.20920000  0.31390000  0.74727000  1.0 0.1389399422
H  H33  1  0.68610000  0.89530000  0.41393000  1.0 0.1389399422
H  H34  1  0.79080000  0.10470000  0.91940000  1.0 0.1389399422
H  H35  1  0.89530000  0.68610000  0.58607000  1.0 0.1389399422
H  H36  1  0.31390000  0.20920000  0.25273000  1.0 0.1389399422
H  H37  1  0.59930000  0.04180000  0.86360000  1.0 0.1319037323
H  H38  1  0.95820000  0.55750000  0.53027000  1.0 0.1319037323
H  H39  1  0.44250000  0.40070000  0.19693000  1.0 0.1319037323
H  H40  1  0.04180000  0.59930000  0.13640000  1.0 0.1319037323
H  H41  1  0.40070000  0.44250000  0.80307000  1.0 0.1319037323
H  H42  1  0.55750000  0.95820000  0.46973000  1.0 0.1319037323
H  H43  1  0.15570000  0.83870000  0.90440000  1.0 0.1187984325
H  H44  1  0.16130000  0.31700000  0.57107000  1.0 0.1187984325
H  H45  1  0.68300000  0.84430000  0.23773000  1.0 0.1187984325
H  H46  1  0.83870000  0.15570000  0.09560000  1.0 0.1187984325
H  H47  1  0.84430000  0.68300000  0.76227000  1.0 0.1187984325
H  H48  1  0.31700000  0.16130000  0.42893000  1.0 0.1187984325
H  H49  1  0.24270000  0.21440000  0.16320000  1.0 0.1389399422
H  H50  1  0.78560000  0.02830000  0.82987000  1.0 0.1389399422
H  H51  1  0.97170000  0.75730000  0.49653000  1.0 0.1389399422
H  H52  1  0.21440000  0.24270000  0.83680000  1.0 0.1389399422
H  H53  1  0.75730000  0.97170000  0.50347000  1.0 0.1389399422
H  H54  1  0.02830000  0.78560000  0.17013000  1.0 0.1389399422
H  H55  1  0.31270000  0.85090000  0.84100000  1.0 0.1319037323
H  H56  1  0.14910000  0.46180000  0.50767000  1.0 0.1319037323
H  H57  1  0.53820000  0.68730000  0.17433000  1.0 0.1319037323
H  H58  1  0.85090000  0.31270000  0.15900000  1.0 0.1319037323
H  H59  1  0.68730000  0.53820000  0.82567000  1.0 0.1319037323
H  H60  1  0.46180000  0.14910000  0.49233000  1.0 0.1319037323
H  H61  1  0.15160000  0.69110000  0.03190000  1.0 0.1187984325
H  H62  1  0.30890000  0.46050000  0.69857000  1.0 0.1187984325
H  H63  1  0.53950000  0.84840000  0.36523000  1.0 0.1187984325
H  H64  1  0.69110000  0.15160000  0.96810000  1.0 0.1187984325
H  H65  1  0.84840000  0.53950000  0.63477000  1.0 0.1187984325
H  H66  1  0.46050000  0.30890000  0.30143000  1.0 0.1187984325
H  H67  1  0.09670000  0.28430000  0.08690000  1.0 0.0906269055
H  H68  1  0.71570000  0.81240000  0.75357000  1.0 0.0906269055
H  H69  1  0.18760000  0.90330000  0.42023000  1.0 0.0906269055
H  H70  1  0.28430000  0.09670000  0.91310000  1.0 0.0906269055
H  H71  1  0.90330000  0.18760000  0.57977000  1.0 0.0906269055
H  H72  1  0.81240000  0.71570000  0.24643000  1.0 0.0906269055
H  H73  1  0.17620000  0.45950000  0.09980000  1.0 0.0906269055
H  H74  1  0.54050000  0.71670000  0.76647000  1.0 0.0906269055
H  H75  1  0.28330000  0.82380000  0.43313000  1.0 0.0906269055
H  H76  1  0.45950000  0.17620000  0.90020000  1.0 0.0906269055
H  H77  1  0.82380000  0.28330000  0.56687000  1.0 0.0906269055
H  H78  1  0.71670000  0.54050000  0.23353000  1.0 0.0906269055
H  H79  1  0.33390000  0.04790000  0.67470000  1.0 0.3017014375
H  H80  1  0.95210000  0.28600000  0.34137000  1.0 0.3017014375
H  H81  1  0.71400000  0.66610000  0.00803000  1.0 0.3017014375
H  H82  1  0.04790000  0.33390000  0.32530000  1.0 0.3017014375
H  H83  1  0.66610000  0.71400000  0.99197000  1.0 0.3017014375
H  H84  1  0.28600000  0.95210000  0.65863000  1.0 0.3017014375
H  H85  1  0.27430000  0.92870000  0.66990000  1.0 0.3199196816
H  H86  1  0.07130000  0.34560000  0.33657000  1.0 0.3199196816
H  H87  1  0.65440000  0.72570000  0.00323000  1.0 0.3199196816
H  H88  1  0.92870000  0.27430000  0.33010000  1.0 0.3199196816
H  H89  1  0.72570000  0.65440000  0.99677000  1.0 0.3199196816
H  H90  1  0.34560000  0.07130000  0.66343000  1.0 0.3199196816
H  H91  1  0.39190000  0.81140000  0.62220000  1.0 0.3291121981
H  H92  1  0.18860000  0.58050000  0.28887000  1.0 0.3291121981
H  H93  1  0.41950000  0.60810000  0.95553000  1.0 0.3291121981
H  H94  1  0.81140000  0.39190000  0.37780000  1.0 0.3291121981
H  H95  1  0.60810000  0.41950000  0.04447000  1.0 0.3291121981
H  H96  1  0.58050000  0.18860000  0.71113000  1.0 0.3291121981
H  H97  1  0.41030000  0.79940000  0.67490000  1.0 0.3017014375
H  H98  1  0.20060000  0.61090000  0.34157000  1.0 0.3017014375
H  H99  1  0.38910000  0.58970000  0.00823000  1.0 0.3017014375
H  H100  1  0.79940000  0.41030000  0.32510000  1.0 0.3017014375
H  H101  1  0.58970000  0.38910000  0.99177000  1.0 0.3017014375
H  H102  1  0.61090000  0.20060000  0.65843000  1.0 0.3017014375
H  H103  1  0.10240000  0.93070000  0.95220000  1.0 0.1319037323
H  H104  1  0.06930000  0.17170000  0.61887000  1.0 0.1319037323
H  H105  1  0.82830000  0.89760000  0.28553000  1.0 0.1319037323
H  H106  1  0.93070000  0.10240000  0.04780000  1.0 0.1319037323
H  H107  1  0.89760000  0.82830000  0.71447000  1.0 0.1319037323
H  H108  1  0.17170000  0.06930000  0.38113000  1.0 0.1319037323
H  H109  1  0.33350000  0.87640000  0.75190000  1.0 0.0692335384
H  H110  1  0.12360000  0.45710000  0.41857000  1.0 0.0692335384
H  H111  1  0.54290000  0.66650000  0.08523000  1.0 0.0692335384
H  H112  1  0.87640000  0.33350000  0.24810000  1.0 0.0692335384
H  H113  1  0.66650000  0.54290000  0.91477000  1.0 0.0692335384
H  H114  1  0.45710000  0.12360000  0.58143000  1.0 0.0692335384
H  H115  1  0.48100000  0.03240000  0.92900000  1.0 0.099283968
H  H116  1  0.96760000  0.44860000  0.59567000  1.0 0.099283968
H  H117  1  0.55140000  0.51900000  0.26233000  1.0 0.099283968
H  H118  1  0.03240000  0.48100000  0.07100000  1.0 0.099283968
H  H119  1  0.51900000  0.55140000  0.73767000  1.0 0.099283968
H  H120  1  0.44860000  0.96760000  0.40433000  1.0 0.099283968
H  H121  1  0.36980000  0.94050000  0.92870000  1.0 0.0804672434
H  H122  1  0.05950000  0.42930000  0.59537000  1.0 0.0804672434
H  H123  1  0.57070000  0.63020000  0.26203000  1.0 0.0804672434
H  H124  1  0.94050000  0.36980000  0.07130000  1.0 0.0804672434
H  H125  1  0.63020000  0.57070000  0.73797000  1.0 0.0804672434
H  H126  1  0.42930000  0.05950000  0.40463000  1.0 0.0804672434
H  H127  1  0.54120000  0.92180000  0.93740000  1.0 0.1057555351
H  H128  1  0.07820000  0.61940000  0.60407000  1.0 0.1057555351
H  H129  1  0.38060000  0.45880000  0.27073000  1.0 0.1057555351
H  H130  1  0.92180000  0.54120000  0.06260000  1.0 0.1057555351
H  H131  1  0.45880000  0.38060000  0.72927000  1.0 0.1057555351
H  H132  1  0.61940000  0.07820000  0.39593000  1.0 0.1057555351
H  H133  1  0.43060000  0.83100000  0.93760000  1.0 0.0804672434
H  H134  1  0.16900000  0.59960000  0.60427000  1.0 0.0804672434
H  H135  1  0.40040000  0.56940000  0.27093000  1.0 0.0804672434
H  H136  1  0.83100000  0.43060000  0.06240000  1.0 0.0804672434
H  H137  1  0.56940000  0.40040000  0.72907000  1.0 0.0804672434
H  H138  1  0.59960000  0.16900000  0.39573000  1.0 0.0804672434
H  H139  1  0.44640000  0.02680000  0.03370000  1.0 0.099283968
H  H140  1  0.97320000  0.41960000  0.70037000  1.0 0.099283968
H  H141  1  0.58040000  0.55360000  0.36703000  1.0 0.099283968
H  H142  1  0.02680000  0.44640000  0.96630000  1.0 0.099283968
H  H143  1  0.55360000  0.58040000  0.63297000  1.0 0.099283968
H  H144  1  0.41960000  0.97320000  0.29963000  1.0 0.099283968
H  H145  1  0.39150000  0.96530000  0.11770000  1.0 0.0804672434
H  H146  1  0.03470000  0.42620000  0.78437000  1.0 0.0804672434
H  H147  1  0.57380000  0.60850000  0.45103000  1.0 0.0804672434
H  H148  1  0.96530000  0.39150000  0.88230000  1.0 0.0804672434
H  H149  1  0.60850000  0.57380000  0.54897000  1.0 0.0804672434
H  H150  1  0.42620000  0.03470000  0.21563000  1.0 0.0804672434
H  H151  1  0.42080000  0.72580000  0.08540000  1.0 0.0906269055
H  H152  1  0.27420000  0.69500000  0.75207000  1.0 0.0906269055
H  H153  1  0.30500000  0.57920000  0.41873000  1.0 0.0906269055
H  H154  1  0.72580000  0.42080000  0.91460000  1.0 0.0906269055
H  H155  1  0.57920000  0.30500000  0.58127000  1.0 0.0906269055
H  H156  1  0.69500000  0.27420000  0.24793000  1.0 0.0906269055
H  H157  1  0.47570000  0.78720000  0.00140000  1.0 0.0804672434
H  H158  1  0.21280000  0.68850000  0.66807000  1.0 0.0804672434
H  H159  1  0.31150000  0.52430000  0.33473000  1.0 0.0804672434
H  H160  1  0.78720000  0.47570000  0.99860000  1.0 0.0804672434
H  H161  1  0.52430000  0.31150000  0.66527000  1.0 0.0804672434
H  H162  1  0.68850000  0.21280000  0.33193000  1.0 0.0804672434
H  H163  1  0.36380000  0.90560000  0.92930000  1.0 0.0906269055
H  H164  1  0.09440000  0.45820000  0.59597000  1.0 0.0906269055
H  H165  1  0.54180000  0.63620000  0.26263000  1.0 0.0906269055
H  H166  1  0.90560000  0.36380000  0.07070000  1.0 0.0906269055
H  H167  1  0.63620000  0.54180000  0.73737000  1.0 0.0906269055
H  H168  1  0.45820000  0.09440000  0.40403000  1.0 0.0906269055
H  H169  1  0.40280000  0.82980000  0.92080000  1.0 0.0804672434
H  H170  1  0.17020000  0.57300000  0.58747000  1.0 0.0804672434
H  H171  1  0.42700000  0.59720000  0.25413000  1.0 0.0804672434
H  H172  1  0.82980000  0.40280000  0.07920000  1.0 0.0804672434
H  H173  1  0.59720000  0.42700000  0.74587000  1.0 0.0804672434
H  H174  1  0.57300000  0.17020000  0.41253000  1.0 0.0804672434
H  H175  1  0.51970000  0.02660000  0.95460000  1.0 0.099283968
H  H176  1  0.97340000  0.49310000  0.62127000  1.0 0.099283968
H  H177  1  0.50690000  0.48030000  0.28793000  1.0 0.099283968
H  H178  1  0.02660000  0.51970000  0.04540000  1.0 0.099283968
H  H179  1  0.48030000  0.50690000  0.71207000  1.0 0.099283968
H  H180  1  0.49310000  0.97340000  0.37873000  1.0 0.099283968
H  H181  1  0.56150000  0.95320000  0.94420000  1.0 0.0906269055
H  H182  1  0.04680000  0.60830000  0.61087000  1.0 0.0906269055
H  H183  1  0.39170000  0.43850000  0.27753000  1.0 0.0906269055
H  H184  1  0.95320000  0.56150000  0.05580000  1.0 0.0906269055
H  H185  1  0.43850000  0.39170000  0.72247000  1.0 0.0906269055
H  H186  1  0.60830000  0.04680000  0.38913000  1.0 0.0906269055
H  H187  1  0.17650000  0.30300000  0.08950000  1.0 0.0906269055
H  H188  1  0.69700000  0.87350000  0.75617000  1.0 0.0906269055
H  H189  1  0.12650000  0.82350000  0.42283000  1.0 0.0906269055
H  H190  1  0.30300000  0.17650000  0.91050000  1.0 0.0906269055
H  H191  1  0.82350000  0.12650000  0.57717000  1.0 0.0906269055
H  H192  1  0.87350000  0.69700000  0.24383000  1.0 0.0906269055
H  H193  1  0.24760000  0.47730000  0.10370000  1.0 0.0804672434
H  H194  1  0.52270000  0.77030000  0.77037000  1.0 0.0804672434
H  H195  1  0.22970000  0.75240000  0.43703000  1.0 0.0804672434
H  H196  1  0.47730000  0.24760000  0.89630000  1.0 0.0804672434
H  H197  1  0.75240000  0.22970000  0.56297000  1.0 0.0804672434
H  H198  1  0.77030000  0.52270000  0.22963000  1.0 0.0804672434
H  H199  1  0.35910000  0.95130000  0.01500000  1.0 0.0906269055
H  H200  1  0.04870000  0.40780000  0.68167000  1.0 0.0906269055
H  H201  1  0.59220000  0.64090000  0.34833000  1.0 0.0906269055
H  H202  1  0.95130000  0.35910000  0.98500000  1.0 0.0906269055
H  H203  1  0.64090000  0.59220000  0.65167000  1.0 0.0906269055
H  H204  1  0.40780000  0.04870000  0.31833000  1.0 0.0906269055
H  H205  1  0.32520000  0.91650000  0.10380000  1.0 0.0692335384
H  H206  1  0.08350000  0.40870000  0.77047000  1.0 0.0692335384
H  H207  1  0.59130000  0.67480000  0.43713000  1.0 0.0692335384
H  H208  1  0.91650000  0.32520000  0.89620000  1.0 0.0692335384
H  H209  1  0.67480000  0.59130000  0.56287000  1.0 0.0692335384
H  H210  1  0.40870000  0.08350000  0.22953000  1.0 0.0692335384
H  H211  1  0.52310000  0.81890000  0.11000000  1.0 0.099283968
H  H212  1  0.18110000  0.70420000  0.77667000  1.0 0.099283968
H  H213  1  0.29580000  0.47690000  0.44333000  1.0 0.099283968
H  H214  1  0.81890000  0.52310000  0.89000000  1.0 0.099283968
H  H215  1  0.47690000  0.29580000  0.55667000  1.0 0.099283968
H  H216  1  0.70420000  0.18110000  0.22333000  1.0 0.099283968
H  H217  1  0.55700000  0.85370000  0.02130000  1.0 0.0692335384
H  H218  1  0.14630000  0.70330000  0.68797000  1.0 0.0692335384
H  H219  1  0.29670000  0.44300000  0.35463000  1.0 0.0692335384
H  H220  1  0.85370000  0.55700000  0.97870000  1.0 0.0692335384
H  H221  1  0.44300000  0.29670000  0.64537000  1.0 0.0692335384
H  H222  1  0.70330000  0.14630000  0.31203000  1.0 0.0692335384
C  C1  1  0.55500000  0.01330000  0.78740000  1.0 0.0154962198
C  C2  1  0.98670000  0.54170000  0.45407000  1.0 0.0154962198
C  C3  1  0.45830000  0.44500000  0.12073000  1.0 0.0154962198
C  C4  1  0.01330000  0.55500000  0.21260000  1.0 0.0103081318
C  C5  1  0.44500000  0.45830000  0.87927000  1.0 0.0154962198
C  C6  1  0.54170000  0.98670000  0.54593000  1.0 0.0154962198
C  C7  1  0.11130000  0.11950000  0.13040000  1.0 0.2564905247
C  C8  1  0.88050000  0.99180000  0.79707000  1.0 0.2564905247
C  C9  1  0.00820000  0.88870000  0.46373000  1.0 0.2564905247
C  C10  1  0.11950000  0.11130000  0.86960000  1.0 0.2564905247
C  C11  1  0.88870000  0.00820000  0.53627000  1.0 0.2564905247
C  C12  1  0.99180000  0.88050000  0.20293000  1.0 0.2564905247
C  C13  1  0.26050000  0.11410000  0.11990000  1.0 0.0449162422
C  C14  1  0.88590000  0.14640000  0.78657000  1.0 0.0449162422
C  C15  1  0.85360000  0.73950000  0.45323000  1.0 0.0449162422
C  C16  1  0.11410000  0.26050000  0.88010000  1.0 0.0455520934
C  C17  1  0.73950000  0.85360000  0.54677000  1.0 0.0449162422
C  C18  1  0.14640000  0.88590000  0.21343000  1.0 0.0449162422
C  C19  1  0.21140000  0.03270000  0.08490000  1.0 -0.2690243561
C  C20  1  0.96730000  0.17870000  0.75157000  1.0 -0.2690243561
C  C21  1  0.82130000  0.78860000  0.41823000  1.0 -0.2690243561
C  C22  1  0.03270000  0.21140000  0.91510000  1.0 -0.2690243561
C  C23  1  0.78860000  0.82130000  0.58177000  1.0 -0.2690243561
C  C24  1  0.17870000  0.96730000  0.24843000  1.0 -0.2690243561
C  C25  1  0.11270000  0.99480000  0.07670000  1.0 0.271292012
C  C26  1  0.00520000  0.11790000  0.74337000  1.0 0.271292012
C  C27  1  0.88210000  0.88730000  0.41003000  1.0 0.271292012
C  C28  1  0.99480000  0.11270000  0.92330000  1.0 0.271292012
C  C29  1  0.88730000  0.88210000  0.58997000  1.0 0.271292012
C  C30  1  0.11790000  0.00520000  0.25663000  1.0 0.271292012
C  C31  1  0.05820000  0.03550000  0.09970000  1.0 -0.3095614154
C  C32  1  0.96450000  0.02270000  0.76637000  1.0 -0.3095614154
C  C33  1  0.97730000  0.94180000  0.43303000  1.0 -0.3095614154
C  C34  1  0.03550000  0.05820000  0.90030000  1.0 -0.3095614154
C  C35  1  0.94180000  0.97730000  0.56697000  1.0 -0.3095614154
C  C36  1  0.02270000  0.96450000  0.23363000  1.0 -0.3095614154
C  C37  1  0.10180000  0.25990000  0.15990000  1.0 0.1521934232
C  C38  1  0.74010000  0.84190000  0.82657000  1.0 0.1521934232
C  C39  1  0.15810000  0.89820000  0.49323000  1.0 0.1521934232
C  C40  1  0.25990000  0.10180000  0.84010000  1.0 0.1521934232
C  C41  1  0.89820000  0.15810000  0.50677000  1.0 0.1521934232
C  C42  1  0.84190000  0.74010000  0.17343000  1.0 0.1521934232
C  C43  1  0.11170000  0.29750000  0.20880000  1.0 -0.2603948618
C  C44  1  0.70250000  0.81420000  0.87547000  1.0 -0.2603948618
C  C45  1  0.18580000  0.88830000  0.54213000  1.0 -0.2603948618
C  C46  1  0.29750000  0.11170000  0.79120000  1.0 -0.2603948618
C  C47  1  0.88830000  0.18580000  0.45787000  1.0 -0.2603948618
C  C48  1  0.81420000  0.70250000  0.12453000  1.0 -0.2603948618
C  C49  1  0.37150000  0.15840000  0.12960000  1.0 0.5169984759
C  C50  1  0.84160000  0.21310000  0.79627000  1.0 0.5169984759
C  C51  1  0.78690000  0.62850000  0.46293000  1.0 0.5169984759
C  C52  1  0.15840000  0.37150000  0.87040000  1.0 0.5169984759
C  C53  1  0.62850000  0.78690000  0.53707000  1.0 0.5169984759
C  C54  1  0.21310000  0.84160000  0.20373000  1.0 0.5169984759
C  C55  1  0.16110000  0.39880000  0.21730000  1.0 -0.2293991915
C  C56  1  0.60120000  0.76230000  0.88397000  1.0 -0.2293991915
C  C57  1  0.23770000  0.83890000  0.55063000  1.0 -0.2293991915
C  C58  1  0.39880000  0.16110000  0.78270000  1.0 -0.2293991915
C  C59  1  0.83890000  0.23770000  0.44937000  1.0 -0.2293991915
C  C60  1  0.76230000  0.60120000  0.11603000  1.0 -0.2293991915
C  C61  1  0.17430000  0.68250000  0.93080000  1.0 0.4661415419
C  C62  1  0.31750000  0.49180000  0.59747000  1.0 0.4661415419
C  C63  1  0.50820000  0.82570000  0.26413000  1.0 0.4649520478
C  C64  1  0.68250000  0.17430000  0.06920000  1.0 0.4661415419
C  C65  1  0.82570000  0.50820000  0.73587000  1.0 0.4661415419
C  C66  1  0.49180000  0.31750000  0.40253000  1.0 0.4661415419
C  C67  1  0.15340000  0.75070000  0.96160000  1.0 -0.0701990725
C  C68  1  0.24930000  0.40270000  0.62827000  1.0 -0.0701990725
C  C69  1  0.59730000  0.84660000  0.29493000  1.0 -0.0701990725
C  C70  1  0.75070000  0.15340000  0.03840000  1.0 -0.0701990725
C  C71  1  0.84660000  0.59730000  0.70507000  1.0 -0.0701990725
C  C72  1  0.40270000  0.24930000  0.37173000  1.0 -0.0701990725
C  C73  1  0.11090000  0.79800000  0.04430000  1.0 -0.2603948618
C  C74  1  0.20200000  0.31290000  0.71097000  1.0 -0.2603948618
C  C75  1  0.68710000  0.88910000  0.37763000  1.0 -0.2603948618
C  C76  1  0.79800000  0.11090000  0.95570000  1.0 -0.2603948618
C  C77  1  0.88910000  0.68710000  0.62237000  1.0 -0.2603948618
C  C78  1  0.31290000  0.20200000  0.28903000  1.0 -0.2603948618
C  C79  1  0.54470000  0.00420000  0.84170000  1.0 -0.2973061143
C  C80  1  0.99580000  0.54050000  0.50837000  1.0 -0.2973061143
C  C81  1  0.45950000  0.45530000  0.17503000  1.0 -0.2973061143
C  C82  1  0.00420000  0.54470000  0.15830000  1.0 -0.2973061143
C  C83  1  0.45530000  0.45950000  0.82497000  1.0 -0.2973061143
C  C84  1  0.54050000  0.99580000  0.49163000  1.0 -0.2973061143
C  C85  1  0.09220000  0.86170000  0.02130000  1.0 0.2295387448
C  C86  1  0.13830000  0.23050000  0.68797000  1.0 0.2295387448
C  C87  1  0.76950000  0.90780000  0.35463000  1.0 0.2295387448
C  C88  1  0.86170000  0.09220000  0.97870000  1.0 0.2295387448
C  C89  1  0.90780000  0.76950000  0.64537000  1.0 0.2295387448
C  C90  1  0.23050000  0.13830000  0.31203000  1.0 0.2295387448
C  C91  1  0.14190000  0.82490000  0.94000000  1.0 -0.1180862798
C  C92  1  0.17510000  0.31700000  0.60667000  1.0 -0.1180862798
C  C93  1  0.68300000  0.85810000  0.27333000  1.0 -0.1180862798
C  C94  1  0.82490000  0.14190000  0.06000000  1.0 -0.1180862798
C  C95  1  0.85810000  0.68300000  0.72667000  1.0 -0.1180862798
C  C96  1  0.31700000  0.17510000  0.39333000  1.0 -0.1180862798
C  C97  1  0.45270000  0.93880000  0.86240000  1.0 0.0906269055
C  C98  1  0.06120000  0.51390000  0.52907000  1.0 0.099283968
C  C99  1  0.48610000  0.54730000  0.19573000  1.0 0.099283968
C  C100  1  0.93880000  0.45270000  0.13760000  1.0 0.099283968
C  C101  1  0.54730000  0.48610000  0.80427000  1.0 0.099283968
C  C102  1  0.51390000  0.06120000  0.47093000  1.0 0.099283968
C  C103  1  0.20970000  0.15860000  0.14140000  1.0 -0.2293991915
C  C104  1  0.84140000  0.05110000  0.80807000  1.0 -0.2293991915
C  C105  1  0.94890000  0.79030000  0.47473000  1.0 -0.2293991915
C  C106  1  0.15860000  0.20970000  0.85860000  1.0 -0.2293991915
C  C107  1  0.79030000  0.94890000  0.52527000  1.0 -0.2293991915
C  C108  1  0.05110000  0.84140000  0.19193000  1.0 -0.2293991915
C  C109  1  0.37660000  0.89390000  0.82800000  1.0 -0.2832674621
C  C110  1  0.10610000  0.48270000  0.49467000  1.0 -0.2832674621
C  C111  1  0.51730000  0.62340000  0.16133000  1.0 -0.2832674621
C  C112  1  0.89390000  0.37660000  0.17200000  1.0 -0.2832674621
C  C113  1  0.62340000  0.51730000  0.83867000  1.0 -0.2832674621
C  C114  1  0.48270000  0.10610000  0.50533000  1.0 -0.2832674621
C  C115  1  0.14070000  0.73830000  0.01490000  1.0 -0.2146702646
C  C116  1  0.26170000  0.40240000  0.68157000  1.0 -0.2146702646
C  C117  1  0.59760000  0.85930000  0.34823000  1.0 -0.2146702646
C  C118  1  0.73830000  0.14070000  0.98510000  1.0 -0.2146702646
C  C119  1  0.85930000  0.59760000  0.65177000  1.0 -0.2146702646
C  C120  1  0.40240000  0.26170000  0.31843000  1.0 -0.2146702646
C  C121  1  0.19440000  0.46250000  0.17610000  1.0 -0.0209171851
C  C122  1  0.53750000  0.73190000  0.84277000  1.0 -0.0209171851
C  C123  1  0.26810000  0.80560000  0.50943000  1.0 -0.0209171851
C  C124  1  0.46250000  0.19440000  0.82390000  1.0 -0.0209171851
C  C125  1  0.80560000  0.26810000  0.49057000  1.0 -0.0209171851
C  C126  1  0.73190000  0.53750000  0.15723000  1.0 -0.0209171851
C  C127  1  0.11620000  0.31220000  0.12020000  1.0 -0.0393355511
C  C128  1  0.68780000  0.80400000  0.78687000  1.0 -0.0393355511
C  C129  1  0.19600000  0.88380000  0.45353000  1.0 -0.0393355511
C  C130  1  0.31220000  0.11620000  0.87980000  1.0 -0.0393355511
C  C131  1  0.88380000  0.19600000  0.54647000  1.0 -0.0393355511
C  C132  1  0.80400000  0.68780000  0.21313000  1.0 -0.0393355511
C  C133  1  0.25060000  0.57590000  0.18260000  1.0 0.4135308599
C  C134  1  0.42410000  0.67470000  0.84927000  1.0 0.4135308599
C  C135  1  0.32530000  0.74940000  0.51593000  1.0 0.4135308599
C  C136  1  0.57590000  0.25060000  0.81740000  1.0 0.4135308599
C  C137  1  0.74940000  0.32530000  0.48407000  1.0 0.4156598112
C  C138  1  0.67470000  0.42410000  0.15073000  1.0 0.4156598112
C  C139  1  0.16470000  0.41840000  0.12880000  1.0 -0.0289393038
C  C140  1  0.58160000  0.74630000  0.79547000  1.0 -0.0289393038
C  C141  1  0.25370000  0.83530000  0.46213000  1.0 -0.0289393038
C  C142  1  0.41840000  0.16470000  0.87120000  1.0 -0.0289393038
C  C143  1  0.83530000  0.25370000  0.53787000  1.0 -0.0289393038
C  C144  1  0.74630000  0.58160000  0.20453000  1.0 -0.0289393038
C  C145  1  0.11070000  0.88120000  0.96840000  1.0 -0.1995317677
C  C146  1  0.11880000  0.22950000  0.63507000  1.0 -0.1995317677
C  C147  1  0.77050000  0.88930000  0.30173000  1.0 -0.1995317677
C  C148  1  0.88120000  0.11070000  0.03160000  1.0 -0.1995317677
C  C149  1  0.88930000  0.77050000  0.69827000  1.0 -0.1995317677
C  C150  1  0.22950000  0.11880000  0.36493000  1.0 -0.1995317677
C  C151  1  0.38850000  0.90820000  0.77420000  1.0 -0.0809305554
C  C152  1  0.09180000  0.48030000  0.44087000  1.0 -0.0809305554
C  C153  1  0.51970000  0.61150000  0.10753000  1.0 -0.0809305554
C  C154  1  0.90820000  0.38850000  0.22580000  1.0 -0.0809305554
C  C155  1  0.61150000  0.51970000  0.89247000  1.0 -0.0809305554
C  C156  1  0.48030000  0.09180000  0.55913000  1.0 -0.0809305554
C  C157  1  0.43920000  0.96180000  0.92060000  1.0 -0.1116465791
C  C158  1  0.03820000  0.47740000  0.58727000  1.0 -0.1116465791
C  C159  1  0.52260000  0.56080000  0.25393000  1.0 -0.1116465791
C  C160  1  0.96180000  0.43920000  0.07940000  1.0 -0.1116465791
C  C161  1  0.56080000  0.52260000  0.74607000  1.0 -0.1116465791
C  C162  1  0.47740000  0.03820000  0.41273000  1.0 -0.1116465791
C  C163  1  0.47270000  0.90080000  0.94740000  1.0 -0.0393355511
C  C164  1  0.09920000  0.57190000  0.61407000  1.0 -0.0393355511
C  C165  1  0.42810000  0.52730000  0.28073000  1.0 -0.0393355511
C  C166  1  0.90080000  0.47270000  0.05260000  1.0 -0.0393355511
C  C167  1  0.52730000  0.42810000  0.71927000  1.0 -0.0393355511
C  C168  1  0.57190000  0.09920000  0.38593000  1.0 -0.0393355511
C  C169  1  0.46650000  0.91310000  0.00920000  1.0 -0.0047332869
C  C170  1  0.08690000  0.55340000  0.67587000  1.0 -0.0047332869
C  C171  1  0.44660000  0.53350000  0.34253000  1.0 -0.0047332869
C  C172  1  0.91310000  0.46650000  0.99080000  1.0 -0.0047332869
C  C173  1  0.53350000  0.44660000  0.65747000  1.0 -0.0047332869
C  C174  1  0.55340000  0.08690000  0.32413000  1.0 -0.0047332869
C  C175  1  0.44130000  0.96640000  0.04410000  1.0 -0.0393355511
C  C176  1  0.03360000  0.47490000  0.71077000  1.0 -0.0393355511
C  C177  1  0.52510000  0.55870000  0.37743000  1.0 -0.0393355511
C  C178  1  0.96640000  0.44130000  0.95590000  1.0 -0.0393355511
C  C179  1  0.55870000  0.52510000  0.62257000  1.0 -0.0393355511
C  C180  1  0.47490000  0.03360000  0.28923000  1.0 -0.0393355511
C  C181  1  0.40840000  0.92960000  0.09440000  1.0 0.0906269055
C  C182  1  0.07040000  0.47880000  0.76107000  1.0 0.0906269055
C  C183  1  0.52120000  0.59160000  0.42773000  1.0 0.0906269055
C  C184  1  0.92960000  0.40840000  0.90560000  1.0 0.0906269055
C  C185  1  0.59160000  0.52120000  0.57227000  1.0 0.0906269055
C  C186  1  0.47880000  0.07040000  0.23893000  1.0 0.0906269055
C  C187  1  0.42590000  0.78610000  0.07500000  1.0 0.0612121428
C  C188  1  0.21390000  0.63980000  0.74167000  1.0 0.0612121428
C  C189  1  0.36020000  0.57410000  0.40833000  1.0 0.0612121428
C  C190  1  0.78610000  0.42590000  0.92500000  1.0 0.0612121428
C  C191  1  0.57410000  0.36020000  0.59167000  1.0 0.0612121428
C  C192  1  0.63980000  0.21390000  0.25833000  1.0 0.0612121428
C  C193  1  0.45880000  0.82290000  0.02470000  1.0 -0.099561874
C  C194  1  0.17710000  0.63590000  0.69137000  1.0 -0.099561874
C  C195  1  0.36410000  0.54120000  0.35803000  1.0 -0.099561874
C  C196  1  0.82290000  0.45880000  0.97530000  1.0 -0.099561874
C  C197  1  0.54120000  0.36410000  0.64197000  1.0 -0.099561874
C  C198  1  0.63590000  0.17710000  0.30863000  1.0 -0.099561874
C  C199  1  0.42150000  0.90000000  0.91910000  1.0 -0.0809305554
C  C200  1  0.10000000  0.52150000  0.58577000  1.0 -0.0809305554
C  C201  1  0.47850000  0.57850000  0.25243000  1.0 -0.0809305554
C  C202  1  0.90000000  0.42150000  0.08090000  1.0 -0.0809305554
C  C203  1  0.57850000  0.47850000  0.74757000  1.0 -0.0809305554
C  C204  1  0.52150000  0.10000000  0.41423000  1.0 -0.0809305554
C  C205  1  0.50260000  0.95690000  0.95410000  1.0 -0.0701990725
C  C206  1  0.04310000  0.54570000  0.62077000  1.0 -0.0701990725
C  C207  1  0.45430000  0.49740000  0.28743000  1.0 -0.0701990725
C  C208  1  0.95690000  0.50260000  0.04590000  1.0 -0.0701990725
C  C209  1  0.49740000  0.45430000  0.71257000  1.0 -0.0701990725
C  C210  1  0.54570000  0.04310000  0.37923000  1.0 -0.0701990725
C  C211  1  0.16470000  0.32710000  0.12060000  1.0 -0.0209171851
C  C212  1  0.67290000  0.83760000  0.78727000  1.0 -0.0209171851
C  C213  1  0.16240000  0.83530000  0.45393000  1.0 -0.0209171851
C  C214  1  0.32710000  0.16470000  0.87940000  1.0 -0.0209171851
C  C215  1  0.83530000  0.16240000  0.54607000  1.0 -0.0209171851
C  C216  1  0.83760000  0.67290000  0.21273000  1.0 -0.0209171851
C  C217  1  0.20910000  0.43130000  0.12950000  1.0 -0.0289393038
C  C218  1  0.56870000  0.77780000  0.79617000  1.0 -0.0289393038
C  C219  1  0.22220000  0.79090000  0.46283000  1.0 -0.0289393038
C  C220  1  0.43130000  0.20910000  0.87050000  1.0 -0.0289393038
C  C221  1  0.79090000  0.22220000  0.53717000  1.0 -0.0289393038
C  C222  1  0.77780000  0.56870000  0.20383000  1.0 -0.0289393038
C  C223  1  0.46140000  0.90600000  0.00940000  1.0 0.0103081318
C  C224  1  0.09400000  0.55540000  0.67607000  1.0 0.0103081318
C  C225  1  0.44460000  0.53860000  0.34273000  1.0 0.0103081318
C  C226  1  0.90600000  0.46140000  0.99060000  1.0 0.0103081318
C  C227  1  0.53860000  0.44460000  0.65727000  1.0 0.0103081318
C  C228  1  0.55540000  0.09400000  0.32393000  1.0 0.0103081318
C  C229  1  0.39200000  0.92480000  0.03410000  1.0 -0.0487469305
C  C230  1  0.07520000  0.46720000  0.70077000  1.0 -0.0487469305
C  C231  1  0.53280000  0.60800000  0.36743000  1.0 -0.0487469305
C  C232  1  0.92480000  0.39200000  0.96590000  1.0 -0.0487469305
C  C233  1  0.60800000  0.53280000  0.63257000  1.0 -0.0487469305
C  C234  1  0.46720000  0.07520000  0.29923000  1.0 -0.0487469305
C  C235  1  0.37170000  0.90390000  0.08720000  1.0 0.0692335384
C  C236  1  0.09610000  0.46780000  0.75387000  1.0 0.0692335384
C  C237  1  0.53220000  0.62830000  0.42053000  1.0 0.0692335384
C  C238  1  0.90390000  0.37170000  0.91280000  1.0 0.0692335384
C  C239  1  0.62830000  0.53220000  0.57947000  1.0 0.0692335384
C  C240  1  0.46780000  0.09610000  0.24613000  1.0 0.0692335384
C  C241  1  0.49020000  0.84540000  0.09100000  1.0 0.0612121428
C  C242  1  0.15460000  0.64480000  0.75767000  1.0 0.0612121428
C  C243  1  0.35520000  0.50980000  0.42433000  1.0 0.0612121428
C  C244  1  0.84540000  0.49020000  0.90900000  1.0 0.0612121428
C  C245  1  0.50980000  0.35520000  0.57567000  1.0 0.0612121428
C  C246  1  0.64480000  0.15460000  0.24233000  1.0 0.0612121428
C  C247  1  0.51050000  0.86630000  0.03780000  1.0 -0.0625221842
C  C248  1  0.13370000  0.64420000  0.70447000  1.0 -0.0625221842
C  C249  1  0.35580000  0.48950000  0.37113000  1.0 -0.0625221842
C  C250  1  0.86630000  0.51050000  0.96220000  1.0 -0.0625221842
C  C251  1  0.48950000  0.35580000  0.62887000  1.0 -0.0625221842
C  C252  1  0.64420000  0.13370000  0.29553000  1.0 -0.0625221842
N  N1  1  0.48050000  0.96850000  0.75480000  1.0 -0.3711549778
N  N2  1  0.03150000  0.51200000  0.42147000  1.0 -0.3711549778
N  N3  1  0.48800000  0.51950000  0.08813000  1.0 -0.3711549778
N  N4  1  0.96850000  0.48050000  0.24520000  1.0 -0.3711549778
N  N5  1  0.51950000  0.48800000  0.91187000  1.0 -0.3711549778
N  N6  1  0.51200000  0.03150000  0.57853000  1.0 -0.3711549778
N  N7  1  0.40070000  0.83950000  0.10990000  1.0 -0.2212414322
N  N8  1  0.16050000  0.56120000  0.77657000  1.0 -0.2212414322
N  N9  1  0.43880000  0.59930000  0.44323000  1.0 -0.2212414322
N  N10  1  0.83950000  0.40070000  0.89010000  1.0 -0.2212414322
N  N11  1  0.59930000  0.43880000  0.55677000  1.0 -0.2212414322
N  N12  1  0.56120000  0.16050000  0.22343000  1.0 -0.2212414322
N  N13  1  0.42080000  0.86420000  0.11570000  1.0 -0.2212414322
N  N14  1  0.13580000  0.55660000  0.78237000  1.0 -0.2293991915
N  N15  1  0.44340000  0.57920000  0.44903000  1.0 -0.2293991915
N  N16  1  0.86420000  0.42080000  0.88430000  1.0 -0.2293991915
N  N17  1  0.57920000  0.44340000  0.55097000  1.0 -0.2293991915
N  N18  1  0.55660000  0.13580000  0.21763000  1.0 -0.2293991915
O  O1  1  0.16780000  0.68350000  0.88080000  1.0 -0.4902543092
O  O2  1  0.31650000  0.48430000  0.54747000  1.0 -0.4902543092
O  O3  1  0.51570000  0.83220000  0.21413000  1.0 -0.4902543092
O  O4  1  0.68350000  0.16780000  0.11920000  1.0 -0.4902543092
O  O5  1  0.83220000  0.51570000  0.78587000  1.0 -0.4902543092
O  O6  1  0.48430000  0.31650000  0.45253000  1.0 -0.4902543092
O  O7  1  0.40990000  0.22470000  0.16320000  1.0 -0.4902543092
O  O8  1  0.77530000  0.18520000  0.82987000  1.0 -0.4902543092
O  O9  1  0.81480000  0.59010000  0.49653000  1.0 -0.4902543092
O  O10  1  0.22470000  0.40990000  0.83680000  1.0 -0.4902543092
O  O11  1  0.59010000  0.81480000  0.50347000  1.0 -0.4902543092
O  O12  1  0.18520000  0.77530000  0.17013000  1.0 -0.4902543092
O  O13  1  0.41800000  0.12610000  0.10510000  1.0 -0.4976710567
O  O14  1  0.87390000  0.29190000  0.77177000  1.0 -0.4976710567
O  O15  1  0.70810000  0.58200000  0.43843000  1.0 -0.4976710567
O  O16  1  0.12610000  0.41800000  0.89490000  1.0 -0.4976710567
O  O17  1  0.58200000  0.70810000  0.56157000  1.0 -0.4976710567
O  O18  1  0.29190000  0.87390000  0.22823000  1.0 -0.4976710567
O  O19  1  0.05420000  0.15510000  0.15390000  1.0 -0.2603948618
O  O20  1  0.84490000  0.89910000  0.82057000  1.0 -0.2603948618
O  O21  1  0.10090000  0.94580000  0.48723000  1.0 -0.2603948618
O  O22  1  0.15510000  0.05420000  0.84610000  1.0 -0.2603948618
O  O23  1  0.94580000  0.10090000  0.51277000  1.0 -0.2603948618
O  O24  1  0.89910000  0.84490000  0.17943000  1.0 -0.2603948618
O  O25  1  0.25560000  0.61160000  0.22720000  1.0 -0.469027538
O  O26  1  0.38840000  0.64400000  0.89387000  1.0 -0.469027538
O  O27  1  0.35600000  0.74440000  0.56053000  1.0 -0.469027538
O  O28  1  0.61160000  0.25560000  0.77280000  1.0 -0.469027538
O  O29  1  0.74440000  0.35600000  0.43947000  1.0 -0.469027538
O  O30  1  0.64400000  0.38840000  0.10613000  1.0 -0.469027538
O  O31  1  0.20120000  0.62930000  0.95120000  1.0 -0.4600263624
O  O32  1  0.37070000  0.57190000  0.61787000  1.0 -0.4600263624
O  O33  1  0.42810000  0.79880000  0.28453000  1.0 -0.4600263624
O  O34  1  0.62930000  0.20120000  0.04880000  1.0 -0.4600263624
O  O35  1  0.79880000  0.42810000  0.71547000  1.0 -0.4600263624
O  O36  1  0.57190000  0.37070000  0.38213000  1.0 -0.4600263624
O  O37  1  0.05120000  0.90960000  0.04660000  1.0 -0.2212414322
O  O38  1  0.09040000  0.14160000  0.71327000  1.0 -0.2212414322
O  O39  1  0.85840000  0.94880000  0.37993000  1.0 -0.2212414322
O  O40  1  0.90960000  0.05120000  0.95340000  1.0 -0.2212414322
O  O41  1  0.94880000  0.85840000  0.62007000  1.0 -0.2212414322
O  O42  1  0.14160000  0.09040000  0.28673000  1.0 -0.2212414322
O  O43  1  0.28910000  0.63130000  0.14440000  1.0 -0.4394916235
O  O44  1  0.36870000  0.65780000  0.81107000  1.0 -0.4394916235
O  O45  1  0.34220000  0.71090000  0.47773000  1.0 -0.4394916235
O  O46  1  0.63130000  0.28910000  0.85560000  1.0 -0.4394916235
O  O47  1  0.71090000  0.34220000  0.52227000  1.0 -0.4394916235
O  O48  1  0.65780000  0.36870000  0.18893000  1.0 -0.4394916235
O  O49  1  0.34220000  0.98800000  0.66230000  1.0 -0.4394916235
O  O50  1  0.01200000  0.35420000  0.32897000  1.0 -0.4394916235
O  O51  1  0.64580000  0.65780000  0.99563000  1.0 -0.4394916235
O  O52  1  0.98800000  0.34220000  0.33770000  1.0 -0.4394916235
O  O53  1  0.65780000  0.64580000  0.00437000  1.0 -0.4394916235
O  O54  1  0.35420000  0.01200000  0.67103000  1.0 -0.4394916235
O  O55  1  0.39710000  0.83380000  0.65330000  1.0 -0.7303152719
O  O56  1  0.16620000  0.56330000  0.31997000  1.0 -0.7303152719
O  O57  1  0.43670000  0.60290000  0.98663000  1.0 -0.7303152719
O  O58  1  0.83380000  0.39710000  0.34670000  1.0 -0.7303152719
O  O59  1  0.60290000  0.43670000  0.01337000  1.0 -0.7303152719
O  O60  1  0.56330000  0.16620000  0.68003000  1.0 -0.7303152719
O  O61  1  0.62590000  0.96180000  0.66600000  1.0 -0.2690243561
O  O62  1  0.03820000  0.66410000  0.33267000  1.0 -0.2690243561
O  O63  1  0.33590000  0.37410000  0.99933000  1.0 -0.2690243561
O  O64  1  0.96180000  0.62590000  0.33400000  1.0 -0.2690243561
O  O65  1  0.37410000  0.33590000  0.00067000  1.0 -0.2690243561
O  O66  1  0.66410000  0.03820000  0.66733000  1.0 -0.2690243561
