# DDEC6 charges by PACMAN v1.1 (https://github.com/mtap-research/PACMAN-charge/)
data_ETEPID_ion_pacman
_symmetry_space_group_name_H-M   'P 1'
_cell_length_a   22.04170000
_cell_length_b   22.04170000
_cell_length_c   22.04170000
_cell_angle_alpha   101.15600000
_cell_angle_beta   101.15600000
_cell_angle_gamma   127.80900000
_symmetry_Int_Tables_number   1
_chemical_formula_structural   Rb2H96C96N56(ClO12)3
_chemical_formula_sum   'Rb4 H192 C192 N112 Cl6 O72'
_cell_volume   7598.06267624
_cell_formula_units_Z   2
loop_
 _symmetry_equiv_pos_site_id
 _symmetry_equiv_pos_as_xyz
  1  'x, y, z'
loop_
 _atom_site_type_symbol
 _atom_site_label
 _atom_site_symmetry_multiplicity
 _atom_site_fract_x
 _atom_site_fract_y
 _atom_site_fract_z
 _atom_site_occupancy
 _atom_site_charge
Rb  Rb1  1  0.82553000  0.92222000  0.97327000  1.0 0.8397686392
Rb  Rb2  1  0.94895000  0.85226000  0.02673000  1.0 0.8397686392
Rb  Rb3  1  0.10226000  0.57553000  0.40331000  1.0 0.8397686392
Rb  Rb4  1  0.17222000  0.69895000  0.59669000  1.0 0.8397686392
H  H1  1  0.84680000  0.96600000  0.26120000  1.0 0.1115709394
H  H2  1  0.70480000  0.58560000  0.73880000  1.0 0.1115709394
H  H3  1  0.83560000  0.59680000  0.38080000  1.0 0.1115709394
H  H4  1  0.21600000  0.45480000  0.61920000  1.0 0.1115709394
H  H5  1  0.74740000  0.82650000  0.21170000  1.0 0.1011879234
H  H6  1  0.61480000  0.53570000  0.78830000  1.0 0.1011879234
H  H7  1  0.78570000  0.49740000  0.42090000  1.0 0.1011879234
H  H8  1  0.07650000  0.36480000  0.57910000  1.0 0.1011879234
H  H9  1  0.69090000  0.72650000  0.09820000  1.0 0.1192134856
H  H10  1  0.62830000  0.59270000  0.90180000  1.0 0.1192134856
H  H11  1  0.84270000  0.44090000  0.46440000  1.0 0.1192134856
H  H12  1  0.97650000  0.37830000  0.53560000  1.0 0.1192134856
H  H13  1  0.74880000  0.75400000  0.05740000  1.0 0.1192134856
H  H14  1  0.69660000  0.69140000  0.94260000  1.0 0.1192134856
H  H15  1  0.94140000  0.49880000  0.49480000  1.0 0.1192134856
H  H16  1  0.00400000  0.44660000  0.50520000  1.0 0.1192134856
H  H17  1  0.71640000  0.71600000  0.24820000  1.0 0.1115709394
H  H18  1  0.46780000  0.46820000  0.75180000  1.0 0.1115709394
H  H19  1  0.71820000  0.46640000  0.50040000  1.0 0.1115709394
H  H20  1  0.96600000  0.21780000  0.49960000  1.0 0.1115709394
H  H21  1  0.79020000  0.73800000  0.30640000  1.0 0.1115709394
H  H22  1  0.43160000  0.48380000  0.69360000  1.0 0.1115709394
H  H23  1  0.73380000  0.54020000  0.55220000  1.0 0.1115709394
H  H24  1  0.98800000  0.18160000  0.44780000  1.0 0.1115709394
H  H25  1  0.66070000  0.61670000  0.13620000  1.0 0.1011879234
H  H26  1  0.48050000  0.52450000  0.86380000  1.0 0.1011879234
H  H27  1  0.77450000  0.41070000  0.54400000  1.0 0.1011879234
H  H28  1  0.86670000  0.23050000  0.45600000  1.0 0.1011879234
H  H29  1  0.65660000  0.51070000  0.09530000  1.0 0.1011879234
H  H30  1  0.41540000  0.56130000  0.90470000  1.0 0.1011879234
H  H31  1  0.81130000  0.40660000  0.64590000  1.0 0.1011879234
H  H32  1  0.76070000  0.16540000  0.35410000  1.0 0.1011879234
H  H33  1  0.70540000  0.47480000  0.01100000  1.0 0.1115709394
H  H34  1  0.46380000  0.69440000  0.98900000  1.0 0.1115709394
H  H35  1  0.94440000  0.45540000  0.73060000  1.0 0.1115709394
H  H36  1  0.72480000  0.21380000  0.26940000  1.0 0.1115709394
H  H37  1  0.77030000  0.54820000  0.99170000  1.0 0.1192134856
H  H38  1  0.55650000  0.77860000  0.00830000  1.0 0.1192134856
H  H39  1  0.02860000  0.52030000  0.72210000  1.0 0.1192134856
H  H40  1  0.79820000  0.30650000  0.27790000  1.0 0.1192134856
H  H41  1  0.70290000  0.45090000  0.15320000  1.0 0.1011879234
H  H42  1  0.29770000  0.54970000  0.84680000  1.0 0.1011879234
H  H43  1  0.79970000  0.45290000  0.75200000  1.0 0.1011879234
H  H44  1  0.70090000  0.04770000  0.24800000  1.0 0.1011879234
H  H45  1  0.76630000  0.50790000  0.23000000  1.0 0.1192134856
H  H46  1  0.27790000  0.53630000  0.77000000  1.0 0.1192134856
H  H47  1  0.78630000  0.51630000  0.75840000  1.0 0.1192134856
H  H48  1  0.75790000  0.02790000  0.24160000  1.0 0.1192134856
H  H49  1  0.75810000  0.42150000  0.07100000  1.0 0.0921415941
H  H50  1  0.35050000  0.68710000  0.92900000  1.0 0.0921415941
H  H51  1  0.93710000  0.50810000  0.83660000  1.0 0.0921415941
H  H52  1  0.67150000  0.10050000  0.16340000  1.0 0.0921415941
H  H53  1  0.87410000  0.43780000  0.08690000  1.0 0.0921415941
H  H54  1  0.35090000  0.78720000  0.91310000  1.0 0.0921415941
H  H55  1  0.03720000  0.62410000  0.93630000  1.0 0.0921415941
H  H56  1  0.68780000  0.10090000  0.06370000  1.0 0.0921415941
H  H57  1  0.98920000  0.51080000  0.05200000  1.0 0.1192134856
H  H58  1  0.45880000  0.93720000  0.94800000  1.0 0.1192134856
H  H59  1  0.18720000  0.73920000  0.97840000  1.0 0.1192134856
H  H60  1  0.76080000  0.20880000  0.02160000  1.0 0.1192134856
H  H61  1  0.00180000  0.57850000  0.02650000  1.0 0.1115709394
H  H62  1  0.55200000  0.97530000  0.97350000  1.0 0.1115709394
H  H63  1  0.22530000  0.75180000  0.92330000  1.0 0.1115709394
H  H64  1  0.82850000  0.30200000  0.07670000  1.0 0.1115709394
H  H65  1  0.00060000  0.53070000  0.26070000  1.0 0.1115709394
H  H66  1  0.27000000  0.73990000  0.73930000  1.0 0.1115709394
H  H67  1  0.98990000  0.75060000  0.96990000  1.0 0.1115709394
H  H68  1  0.78070000  0.02000000  0.03010000  1.0 0.1115709394
H  H69  1  0.99030000  0.48430000  0.18980000  1.0 0.1192134856
H  H70  1  0.29450000  0.80050000  0.81020000  1.0 0.1192134856
H  H71  1  0.05050000  0.74030000  0.00600000  1.0 0.1192134856
H  H72  1  0.73430000  0.04450000  0.99400000  1.0 0.1192134856
H  H73  1  0.10540000  0.56220000  0.15780000  1.0 0.1115709394
H  H74  1  0.40440000  0.94760000  0.84220000  1.0 0.1115709394
H  H75  1  0.19760000  0.85540000  0.04320000  1.0 0.1115709394
H  H76  1  0.81220000  0.15440000  0.95680000  1.0 0.1115709394
H  H77  1  0.24140000  0.68190000  0.21970000  1.0 0.1011879234
H  H78  1  0.46220000  0.02170000  0.78030000  1.0 0.1011879234
H  H79  1  0.27170000  0.99140000  0.05950000  1.0 0.1011879234
H  H80  1  0.93190000  0.21220000  0.94050000  1.0 0.1011879234
H  H81  1  0.33720000  0.79680000  0.18780000  1.0 0.1115709394
H  H82  1  0.60900000  0.14940000  0.81220000  1.0 0.1115709394
H  H83  1  0.39940000  0.08720000  0.04040000  1.0 0.1115709394
H  H84  1  0.04680000  0.35900000  0.95960000  1.0 0.1115709394
H  H85  1  0.29680000  0.81000000  0.13000000  1.0 0.1192134856
H  H86  1  0.68000000  0.16680000  0.87000000  1.0 0.1192134856
H  H87  1  0.41680000  0.04680000  0.98680000  1.0 0.1192134856
H  H88  1  0.06000000  0.43000000  0.01320000  1.0 0.1192134856
H  H89  1  0.32640000  0.79570000  0.33810000  1.0 0.1115709394
H  H90  1  0.45760000  0.98830000  0.66190000  1.0 0.1115709394
H  H91  1  0.23830000  0.07640000  0.03070000  1.0 0.1115709394
H  H92  1  0.04570000  0.20760000  0.96930000  1.0 0.1115709394
H  H93  1  0.27640000  0.80440000  0.37620000  1.0 0.1192134856
H  H94  1  0.42820000  0.90020000  0.62380000  1.0 0.1192134856
H  H95  1  0.15020000  0.02640000  0.97200000  1.0 0.1192134856
H  H96  1  0.05440000  0.17820000  0.02800000  1.0 0.1192134856
H  H97  1  0.41940000  0.91710000  0.30790000  1.0 0.1011879234
H  H98  1  0.60920000  0.11150000  0.69210000  1.0 0.1011879234
H  H99  1  0.36150000  0.16940000  0.00230000  1.0 0.1011879234
H  H100  1  0.16710000  0.35920000  0.99770000  1.0 0.1011879234
H  H101  1  0.48070000  0.05040000  0.34130000  1.0 0.1011879234
H  H102  1  0.70910000  0.13940000  0.65870000  1.0 0.1011879234
H  H103  1  0.38940000  0.23070000  0.93030000  1.0 0.1011879234
H  H104  1  0.30040000  0.45910000  0.06970000  1.0 0.1011879234
H  H105  1  0.40670000  0.09180000  0.21350000  1.0 0.1192134856
H  H106  1  0.87830000  0.19320000  0.78650000  1.0 0.1192134856
H  H107  1  0.44320000  0.15670000  0.81490000  1.0 0.1192134856
H  H108  1  0.34180000  0.62830000  0.18510000  1.0 0.1192134856
H  H109  1  0.47730000  0.13790000  0.28640000  1.0 0.1115709394
H  H110  1  0.85150000  0.19090000  0.71360000  1.0 0.1115709394
H  H111  1  0.44090000  0.22730000  0.83940000  1.0 0.1115709394
H  H112  1  0.38790000  0.60150000  0.16060000  1.0 0.1115709394
H  H113  1  0.47700000  0.13540000  0.44560000  1.0 0.1011879234
H  H114  1  0.68980000  0.03140000  0.55440000  1.0 0.1011879234
H  H115  1  0.28140000  0.22700000  0.84160000  1.0 0.1011879234
H  H116  1  0.38540000  0.43980000  0.15840000  1.0 0.1011879234
H  H117  1  0.39860000  0.07910000  0.46350000  1.0 0.1192134856
H  H118  1  0.61560000  0.93510000  0.53650000  1.0 0.1192134856
H  H119  1  0.18510000  0.14860000  0.81950000  1.0 0.1192134856
H  H120  1  0.32910000  0.36560000  0.18050000  1.0 0.1192134856
H  H121  1  0.46960000  0.22210000  0.38010000  1.0 0.1011879234
H  H122  1  0.84200000  0.08950000  0.61990000  1.0 0.1011879234
H  H123  1  0.33950000  0.21960000  0.74750000  1.0 0.1011879234
H  H124  1  0.47210000  0.59200000  0.25250000  1.0 0.1011879234
H  H125  1  0.41010000  0.27420000  0.37450000  1.0 0.1011879234
H  H126  1  0.89970000  0.03560000  0.62550000  1.0 0.1011879234
H  H127  1  0.28560000  0.16010000  0.63590000  1.0 0.1011879234
H  H128  1  0.52420000  0.64970000  0.36410000  1.0 0.1011879234
H  H129  1  0.24410000  0.17280000  0.21790000  1.0 0.1285492371
H  H130  1  0.95490000  0.02620000  0.78210000  1.0 0.1285492371
H  H131  1  0.27620000  0.99410000  0.57130000  1.0 0.1285492371
H  H132  1  0.42280000  0.70490000  0.42870000  1.0 0.1285492371
H  H133  1  0.29880000  0.24980000  0.28820000  1.0 0.1192134856
H  H134  1  0.96160000  0.01060000  0.71180000  1.0 0.1192134856
H  H135  1  0.26060000  0.04880000  0.54900000  1.0 0.1192134856
H  H136  1  0.49980000  0.71160000  0.45100000  1.0 0.1192134856
H  H137  1  0.30150000  0.22040000  0.48250000  1.0 0.1192134856
H  H138  1  0.73790000  0.81900000  0.51750000  1.0 0.1192134856
H  H139  1  0.06900000  0.05150000  0.58110000  1.0 0.1192134856
H  H140  1  0.47040000  0.48790000  0.41890000  1.0 0.1192134856
H  H141  1  0.33333333  0.28000000  0.44330000  1.0 0.1192134856
H  H142  1  0.83670000  0.89000000  0.55670000  1.0 0.1192134856
H  H143  1  0.14000000  0.08330000  0.55330000  1.0 0.1192134856
H  H144  1  0.53000000  0.58670000  0.44670000  1.0 0.1192134856
H  H145  1  0.21700000  0.25230000  0.35530000  1.0 0.1115709394
H  H146  1  0.89700000  0.86170000  0.64470000  1.0 0.1115709394
H  H147  1  0.11170000  0.96700000  0.46470000  1.0 0.1115709394
H  H148  1  0.50230000  0.64700000  0.53530000  1.0 0.1115709394
H  H149  1  0.08280000  0.18000000  0.33580000  1.0 0.1115709394
H  H150  1  0.84420000  0.74700000  0.66420000  1.0 0.1115709394
H  H151  1  0.99700000  0.83280000  0.40280000  1.0 0.1115709394
H  H152  1  0.43000000  0.59420000  0.59720000  1.0 0.1115709394
H  H153  1  0.95300000  0.08210000  0.22550000  1.0 0.1285492371
H  H154  1  0.85660000  0.72750000  0.77450000  1.0 0.1285492371
H  H155  1  0.97750000  0.70300000  0.37090000  1.0 0.1285492371
H  H156  1  0.33210000  0.60660000  0.62910000  1.0 0.1285492371
H  H157  1  0.96500000  0.04940000  0.16260000  1.0 0.1285492371
H  H158  1  0.88680000  0.80240000  0.83740000  1.0 0.1285492371
H  H159  1  0.05240000  0.71500000  0.41560000  1.0 0.1285492371
H  H160  1  0.29940000  0.63680000  0.58440000  1.0 0.1285492371
H  H161  1  0.97510000  0.07390000  0.37140000  1.0 0.1115709394
H  H162  1  0.70250000  0.60370000  0.62860000  1.0 0.1115709394
H  H163  1  0.85370000  0.72510000  0.40120000  1.0 0.1115709394
H  H164  1  0.32390000  0.45250000  0.59880000  1.0 0.1115709394
H  H165  1  0.00320000  0.03760000  0.41260000  1.0 0.1192134856
H  H166  1  0.62500000  0.59060000  0.58740000  1.0 0.1192134856
H  H167  1  0.84060000  0.75320000  0.46560000  1.0 0.1192134856
H  H168  1  0.28760000  0.37500000  0.53440000  1.0 0.1192134856
H  H169  1  0.56700000  0.87880000  0.82220000  1.0 0.1192134856
H  H170  1  0.05660000  0.74480000  0.17780000  1.0 0.1192134856
H  H171  1  0.99480000  0.31700000  0.18820000  1.0 0.1192134856
H  H172  1  0.12880000  0.80660000  0.81180000  1.0 0.1192134856
H  H173  1  0.52470000  0.84820000  0.70810000  1.0 0.1285492371
H  H174  1  0.14010000  0.81660000  0.29190000  1.0 0.1285492371
H  H175  1  0.06660000  0.27470000  0.17650000  1.0 0.1285492371
H  H176  1  0.09820000  0.89010000  0.82350000  1.0 0.1285492371
H  H177  1  0.62550000  0.75590000  0.68300000  1.0 0.1285492371
H  H178  1  0.07290000  0.94250000  0.31700000  1.0 0.1285492371
H  H179  1  0.19250000  0.37550000  0.36960000  1.0 0.1285492371
H  H180  1  0.00590000  0.82290000  0.63040000  1.0 0.1285492371
H  H181  1  0.67090000  0.78280000  0.79770000  1.0 0.1285492371
H  H182  1  0.98510000  0.87320000  0.20230000  1.0 0.1285492371
H  H183  1  0.12320000  0.42090000  0.38810000  1.0 0.1285492371
H  H184  1  0.03280000  0.73510000  0.61190000  1.0 0.1285492371
H  H185  1  0.63100000  0.85710000  0.91510000  1.0 0.3529272958
H  H186  1  0.94200000  0.71590000  0.08490000  1.0 0.3529272958
H  H187  1  0.96590000  0.38100000  0.27390000  1.0 0.3529272958
H  H188  1  0.10710000  0.69200000  0.72610000  1.0 0.3529272958
H  H189  1  0.51280000  0.78760000  0.60440000  1.0 0.3529272958
H  H190  1  0.18320000  0.90840000  0.39560000  1.0 0.3529272958
H  H191  1  0.15840000  0.26280000  0.22520000  1.0 0.3529272958
H  H192  1  0.03760000  0.93320000  0.77480000  1.0 0.3529272958
C  C1  1  0.86579000  0.89638000  0.14497000  1.0 0.5577530771
C  C2  1  0.75141000  0.72082000  0.85503000  1.0 0.5577530771
C  C3  1  0.97082000  0.61579000  0.46941000  1.0 0.5577530771
C  C4  1  0.14638000  0.50141000  0.53059000  1.0 0.5577530771
C  C5  1  0.87091000  0.94133000  0.25104000  1.0 0.1011879234
C  C6  1  0.69029000  0.61987000  0.74896000  1.0 0.1011879234
C  C7  1  0.86987000  0.62091000  0.42958000  1.0 0.1011879234
C  C8  1  0.19133000  0.44029000  0.57042000  1.0 0.1011879234
C  C9  1  0.80363000  0.84708000  0.21811000  1.0 0.1011879234
C  C10  1  0.62897000  0.58552000  0.78189000  1.0 0.1011879234
C  C11  1  0.83552000  0.55363000  0.45655000  1.0 0.1011879234
C  C12  1  0.09708000  0.37897000  0.54345000  1.0 0.1011879234
C  C13  1  0.90010000  0.88801000  0.32251000  1.0 0.5305141269
C  C14  1  0.56550000  0.57759000  0.67749000  1.0 0.5305141269
C  C15  1  0.82759000  0.65010000  0.51209000  1.0 0.5305141269
C  C16  1  0.13801000  0.31550000  0.48791000  1.0 0.5305141269
C  C17  1  0.74532000  0.74704000  0.09956000  1.0 0.0400351713
C  C18  1  0.64748000  0.64576000  0.90044000  1.0 0.0400351713
C  C19  1  0.89576000  0.49532000  0.49828000  1.0 0.0400351713
C  C20  1  0.99704000  0.39748000  0.50172000  1.0 0.0400351713
C  C21  1  0.77320000  0.73705000  0.26145000  1.0 0.0400351713
C  C22  1  0.47560000  0.51175000  0.73855000  1.0 0.0400351713
C  C23  1  0.76175000  0.52320000  0.53615000  1.0 0.0400351713
C  C24  1  0.98705000  0.22560000  0.46385000  1.0 0.0400351713
C  C25  1  0.76810000  0.65156000  0.05966000  1.0 0.5394236952
C  C26  1  0.59190000  0.70844000  0.94034000  1.0 0.5394236952
C  C27  1  0.95844000  0.51810000  0.61654000  1.0 0.5394236952
C  C28  1  0.90156000  0.34190000  0.38346000  1.0 0.5394236952
C  C29  1  0.71758000  0.63860000  0.14338000  1.0 0.1011879234
C  C30  1  0.49522000  0.57420000  0.85662000  1.0 0.1011879234
C  C31  1  0.82420000  0.46758000  0.57898000  1.0 0.1011879234
C  C32  1  0.88860000  0.24522000  0.42102000  1.0 0.1011879234
C  C33  1  0.71491000  0.56580000  0.11811000  1.0 0.1011879234
C  C34  1  0.44769000  0.59680000  0.88189000  1.0 0.1011879234
C  C35  1  0.84680000  0.46491000  0.64911000  1.0 0.1011879234
C  C36  1  0.81580000  0.19769000  0.35089000  1.0 0.1011879234
C  C37  1  0.79199000  0.63950000  0.23489000  1.0 0.5305141269
C  C38  1  0.40461000  0.55710000  0.76511000  1.0 0.5305141269
C  C39  1  0.80710000  0.54199000  0.65249000  1.0 0.5305141269
C  C40  1  0.88950000  0.15461000  0.34751000  1.0 0.5305141269
C  C41  1  0.75964000  0.53260000  0.02964000  1.0 0.0193475462
C  C42  1  0.50296000  0.73000000  0.97036000  1.0 0.0193475462
C  C43  1  0.98000000  0.50964000  0.72704000  1.0 0.0193475462
C  C44  1  0.78260000  0.25296000  0.27296000  1.0 0.0193475462
C  C45  1  0.75851000  0.50530000  0.18401000  1.0 0.0304868962
C  C46  1  0.32129000  0.57450000  0.81599000  1.0 0.0304868962
C  C47  1  0.82450000  0.50851000  0.75321000  1.0 0.0304868962
C  C48  1  0.75530000  0.07129000  0.24679000  1.0 0.0304868962
C  C49  1  0.89501000  0.57251000  0.05352000  1.0 0.5203176647
C  C50  1  0.51899000  0.84149000  0.94648000  1.0 0.5203176647
C  C51  1  0.09149000  0.64501000  0.82250000  1.0 0.5203176647
C  C52  1  0.82251000  0.26899000  0.17750000  1.0 0.5203176647
C  C53  1  0.81110000  0.48031000  0.09881000  1.0 0.0921415941
C  C54  1  0.38150000  0.71229000  0.90119000  1.0 0.0921415941
C  C55  1  0.96229000  0.56110000  0.83079000  1.0 0.0921415941
C  C56  1  0.73031000  0.13150000  0.16921000  1.0 0.0921415941
C  C57  1  0.89011000  0.49186000  0.10957000  1.0 0.1115709394
C  C58  1  0.38229000  0.78054000  0.89043000  1.0 0.1115709394
C  C59  1  0.03054000  0.64011000  0.89825000  1.0 0.1115709394
C  C60  1  0.74186000  0.13229000  0.10175000  1.0 0.1115709394
C  C61  1  0.88808000  0.53219000  0.21487000  1.0 0.5305141269
C  C62  1  0.31732000  0.67321000  0.78513000  1.0 0.5305141269
C  C63  1  0.92321000  0.63808000  0.85589000  1.0 0.5305141269
C  C64  1  0.78219000  0.06732000  0.14411000  1.0 0.5305141269
C  C65  1  0.00120000  0.56330000  0.06550000  1.0 0.0400351713
C  C66  1  0.49780000  0.93570000  0.93450000  1.0 0.0400351713
C  C67  1  0.18570000  0.75120000  0.93790000  1.0 0.0400351713
C  C68  1  0.81330000  0.24780000  0.06210000  1.0 0.0400351713
C  C69  1  0.99931000  0.53230000  0.21641000  1.0 0.0304868962
C  C70  1  0.31589000  0.78290000  0.78359000  1.0 0.0304868962
C  C71  1  0.03290000  0.74931000  0.96701000  1.0 0.0304868962
C  C72  1  0.78230000  0.06589000  0.03299000  1.0 0.0304868962
C  C73  1  0.14630000  0.69910000  0.11480000  1.0 0.5305141269
C  C74  1  0.58430000  0.03150000  0.88520000  1.0 0.5305141269
C  C75  1  0.28150000  0.89630000  0.94720000  1.0 0.5305141269
C  C76  1  0.94910000  0.33430000  0.05280000  1.0 0.5305141269
C  C77  1  0.11170000  0.61150000  0.17500000  1.0 0.1192134856
C  C78  1  0.43650000  0.93670000  0.82500000  1.0 0.1192134856
C  C79  1  0.18670000  0.86170000  0.00020000  1.0 0.1192134856
C  C80  1  0.86150000  0.18650000  0.99980000  1.0 0.1192134856
C  C81  1  0.20370000  0.69270000  0.21220000  1.0 0.0839942038
C  C82  1  0.48050000  0.99150000  0.78780000  1.0 0.0839942038
C  C83  1  0.24150000  0.95370000  0.01100000  1.0 0.0839942038
C  C84  1  0.94270000  0.23050000  0.98900000  1.0 0.0839942038
C  C85  1  0.13670000  0.67800000  0.28490000  1.0 0.5203176647
C  C86  1  0.39310000  0.85180000  0.71510000  1.0 0.5203176647
C  C87  1  0.10180000  0.88670000  0.95870000  1.0 0.5203176647
C  C88  1  0.92800000  0.14310000  0.04130000  1.0 0.5203176647
C  C89  1  0.29990000  0.80660000  0.17410000  1.0 0.0193475462
C  C90  1  0.63250000  0.12580000  0.82590000  1.0 0.0193475462
C  C91  1  0.37580000  0.04990000  0.99330000  1.0 0.0193475462
C  C92  1  0.05660000  0.38250000  0.00670000  1.0 0.0193475462
C  C93  1  0.28692000  0.80360000  0.33492000  1.0 0.0110487758
C  C94  1  0.46868000  0.95200000  0.66508000  1.0 0.0110487758
C  C95  1  0.20200000  0.03692000  0.98332000  1.0 0.0110487758
C  C96  1  0.05360000  0.21868000  0.01668000  1.0 0.0110487758
C  C97  1  0.34020000  0.95000000  0.20760000  1.0 0.4948923498
C  C98  1  0.74240000  0.13260000  0.79240000  1.0 0.4948923498
C  C99  1  0.38260000  0.09020000  0.89020000  1.0 0.4984068006
C  C100  1  0.20000000  0.49240000  0.10980000  1.0 0.4948923498
C  C101  1  0.37620000  0.92060000  0.29740000  1.0 0.0537480212
C  C102  1  0.62320000  0.07880000  0.70260000  1.0 0.0537480212
C  C103  1  0.32880000  0.12620000  0.95560000  1.0 0.0537480212
C  C104  1  0.17060000  0.37320000  0.04440000  1.0 0.0537480212
C  C105  1  0.41860000  0.01130000  0.32190000  1.0 0.0839942038
C  C106  1  0.68940000  0.09670000  0.67810000  1.0 0.0839942038
C  C107  1  0.34670000  0.16860000  0.90730000  1.0 0.0839942038
C  C108  1  0.26130000  0.43940000  0.09270000  1.0 0.0839942038
C  C109  1  0.33018000  0.93710000  0.37488000  1.0 0.5089234024
C  C110  1  0.56222000  0.95530000  0.62512000  1.0 0.5089234024
C  C111  1  0.20530000  0.08018000  0.89308000  1.0 0.5089234024
C  C112  1  0.18710000  0.31222000  0.10692000  1.0 0.5089234024
C  C113  1  0.41650000  0.09580000  0.25990000  1.0 0.0110487758
C  C114  1  0.83590000  0.15660000  0.74010000  1.0 0.0110487758
C  C115  1  0.40660000  0.16650000  0.82070000  1.0 0.0110487758
C  C116  1  0.34580000  0.58590000  0.17930000  1.0 0.0110487758
C  C117  1  0.41550000  0.09340000  0.42690000  1.0 0.0193475462
C  C118  1  0.66650000  0.98860000  0.57310000  1.0 0.0110487758
C  C119  1  0.23860000  0.16550000  0.82210000  1.0 0.0193475462
C  C120  1  0.34340000  0.41650000  0.17790000  1.0 0.0110487758
C  C121  1  0.31670000  0.12020000  0.24750000  1.0 0.4984068006
C  C122  1  0.87270000  0.06920000  0.75250000  1.0 0.4984068006
C  C123  1  0.31920000  0.06670000  0.69650000  1.0 0.4984068006
C  C124  1  0.37020000  0.62270000  0.30350000  1.0 0.4984068006
C  C125  1  0.40780000  0.17580000  0.36060000  1.0 0.0697180911
C  C126  1  0.81520000  0.04720000  0.63940000  1.0 0.0697180911
C  C127  1  0.29720000  0.15780000  0.73200000  1.0 0.0697180911
C  C128  1  0.42580000  0.56520000  0.26800000  1.0 0.0697180911
C  C129  1  0.36920000  0.21300000  0.36240000  1.0 0.1011879234
C  C130  1  0.85060000  0.00680000  0.63760000  1.0 0.1011879234
C  C131  1  0.25680000  0.11920000  0.65620000  1.0 0.1011879234
C  C132  1  0.46300000  0.60060000  0.34380000  1.0 0.1011879234
C  C133  1  0.34960000  0.14640000  0.43820000  1.0 0.5203176647
C  C134  1  0.70820000  0.91140000  0.56180000  1.0 0.5089234024
C  C135  1  0.16140000  0.09960000  0.70320000  1.0 0.5203176647
C  C136  1  0.39640000  0.45820000  0.29680000  1.0 0.5089234024
C  C137  1  0.26000000  0.18850000  0.26670000  1.0 0.0304868962
C  C138  1  0.92180000  0.99330000  0.73330000  1.0 0.0304868962
C  C139  1  0.24330000  0.01000000  0.57150000  1.0 0.0304868962
C  C140  1  0.43850000  0.67180000  0.42850000  1.0 0.0304868962
C  C141  1  0.29830000  0.22140000  0.43770000  1.0 0.0400351713
C  C142  1  0.78370000  0.86060000  0.56230000  1.0 0.0400351713
C  C143  1  0.11060000  0.04830000  0.57690000  1.0 0.0400351713
C  C144  1  0.47140000  0.53370000  0.42310000  1.0 0.0400351713
C  C145  1  0.10590000  0.10240000  0.22870000  1.0 0.5089234024
C  C146  1  0.87370000  0.87720000  0.77130000  1.0 0.5089234024
C  C147  1  0.12720000  0.85590000  0.50350000  1.0 0.5089234024
C  C148  1  0.35240000  0.62370000  0.49650000  1.0 0.5089234024
C  C149  1  0.18430000  0.19170000  0.34220000  1.0 0.0921415941
C  C150  1  0.84950000  0.84210000  0.65780000  1.0 0.0921415941
C  C151  1  0.09210000  0.93430000  0.49260000  1.0 0.0921415941
C  C152  1  0.44170000  0.59950000  0.50740000  1.0 0.0921415941
C  C153  1  0.09360000  0.14290000  0.32330000  1.0 0.0921415941
C  C154  1  0.81960000  0.77030000  0.67670000  1.0 0.0921415941
C  C155  1  0.02030000  0.84360000  0.45070000  1.0 0.0839942038
C  C156  1  0.39290000  0.56960000  0.54930000  1.0 0.0839942038
C  C157  1  0.14820000  0.12340000  0.41080000  1.0 0.5394236952
C  C158  1  0.71260000  0.73740000  0.58920000  1.0 0.5394236952
C  C159  1  0.98740000  0.89820000  0.52480000  1.0 0.5394236952
C  C160  1  0.37340000  0.46260000  0.47520000  1.0 0.5394236952
C  C161  1  0.96727000  0.05030000  0.20757000  1.0 0.0304868962
C  C162  1  0.84273000  0.75970000  0.79243000  1.0 0.0304868962
C  C163  1  0.00970000  0.71727000  0.41697000  1.0 0.0304868962
C  C164  1  0.30030000  0.59273000  0.58303000  1.0 0.0304868962
C  C165  1  0.99440000  0.04390000  0.36970000  1.0 0.0400351713
C  C166  1  0.67420000  0.62470000  0.63030000  1.0 0.0400351713
C  C167  1  0.87470000  0.74440000  0.45050000  1.0 0.0400351713
C  C168  1  0.29390000  0.42420000  0.54950000  1.0 0.0304868962
C  C169  1  0.62770000  0.83670000  0.82240000  1.0 0.2821442991
C  C170  1  0.01430000  0.80530000  0.17760000  1.0 0.2821442991
C  C171  1  0.05530000  0.37770000  0.29100000  1.0 0.2821442991
C  C172  1  0.08670000  0.76430000  0.70900000  1.0 0.2821442991
C  C173  1  0.58110000  0.85470000  0.79520000  1.0 -0.1788859556
C  C174  1  0.05950000  0.78590000  0.20480000  1.0 -0.1788859556
C  C175  1  0.03590000  0.33110000  0.22640000  1.0 -0.1788859556
C  C176  1  0.10470000  0.80950000  0.77360000  1.0 -0.1788859556
C  C177  1  0.55610000  0.83580000  0.72650000  1.0 -0.2106091217
C  C178  1  0.10930000  0.82960000  0.27350000  1.0 -0.2106091217
C  C179  1  0.07960000  0.30610000  0.22030000  1.0 -0.2106091217
C  C180  1  0.08580000  0.85930000  0.77970000  1.0 -0.2106091217
C  C181  1  0.57240000  0.80210000  0.68530000  1.0 0.2351328678
C  C182  1  0.11680000  0.88710000  0.31470000  1.0 0.2351328678
C  C183  1  0.13710000  0.32240000  0.27030000  1.0 0.2351328678
C  C184  1  0.05210000  0.86680000  0.72970000  1.0 0.2351328678
C  C185  1  0.61430000  0.78200000  0.71170000  1.0 -0.1788859556
C  C186  1  0.07030000  0.90260000  0.28830000  1.0 -0.1788859556
C  C187  1  0.15260000  0.36430000  0.33230000  1.0 -0.1788859556
C  C188  1  0.03200000  0.82030000  0.66770000  1.0 -0.1788859556
C  C189  1  0.64220000  0.79840000  0.78080000  1.0 -0.1929946594
C  C190  1  0.01760000  0.86140000  0.21920000  1.0 -0.1929946594
C  C191  1  0.11140000  0.39220000  0.34380000  1.0 -0.1929946594
C  C192  1  0.04840000  0.76760000  0.65620000  1.0 -0.1929946594
N  N1  1  0.90475000  0.96398000  0.20153000  1.0 -0.2106091217
N  N2  1  0.76245000  0.70322000  0.79847000  1.0 -0.2106091217
N  N3  1  0.95322000  0.65475000  0.44077000  1.0 -0.2106091217
N  N4  1  0.21398000  0.51245000  0.55923000  1.0 -0.2106091217
N  N5  1  0.80948000  0.82559000  0.15427000  1.0 -0.2303768722
N  N6  1  0.67132000  0.65521000  0.84573000  1.0 -0.2303768722
N  N7  1  0.90521000  0.55948000  0.48389000  1.0 -0.2303768722
N  N8  1  0.07559000  0.42132000  0.51611000  1.0 -0.2303768722
N  N9  1  0.93041000  0.96119000  0.31420000  1.0 -0.2509082273
N  N10  1  0.64699000  0.61621000  0.68580000  1.0 -0.2509082273
N  N11  1  0.86621000  0.68041000  0.46922000  1.0 -0.2509082273
N  N12  1  0.21119000  0.39699000  0.53078000  1.0 -0.2509082273
N  N13  1  0.83023000  0.82238000  0.26521000  1.0 -0.2303768722
N  N14  1  0.55717000  0.56502000  0.73479000  1.0 -0.2303768722
N  N15  1  0.81502000  0.58023000  0.50785000  1.0 -0.2303768722
N  N16  1  0.07238000  0.30717000  0.49215000  1.0 -0.2303768722
N  N17  1  0.75000000  0.68421000  0.10361000  1.0 -0.2397673884
N  N18  1  0.58060000  0.64639000  0.89639000  1.0 -0.2397673884
N  N19  1  0.89639000  0.50000000  0.56579000  1.0 -0.2397673884
N  N20  1  0.93421000  0.33060000  0.43421000  1.0 -0.2397673884
N  N21  1  0.75502000  0.58710000  0.07152000  1.0 -0.2397673884
N  N22  1  0.51558000  0.68350000  0.92848000  1.0 -0.2397673884
N  N23  1  0.93350000  0.50502000  0.66792000  1.0 -0.2397673884
N  N24  1  0.83710000  0.26558000  0.33208000  1.0 -0.2397673884
N  N25  1  0.77173000  0.68224000  0.21577000  1.0 -0.2191098934
N  N26  1  0.46647000  0.55596000  0.78423000  1.0 -0.2191098934
N  N27  1  0.80596000  0.52173000  0.58949000  1.0 -0.2191098934
N  N28  1  0.93224000  0.21647000  0.41051000  1.0 -0.2191098934
N  N29  1  0.76105000  0.57238000  0.17923000  1.0 -0.2397673884
N  N30  1  0.39315000  0.58182000  0.82077000  1.0 -0.2397673884
N  N31  1  0.83182000  0.51105000  0.68867000  1.0 -0.2397673884
N  N32  1  0.82238000  0.14315000  0.31133000  1.0 -0.2397673884
N  N33  1  0.82488000  0.53618000  0.06606000  1.0 -0.2191098934
N  N34  1  0.47012000  0.75882000  0.93394000  1.0 -0.2191098934
N  N35  1  0.00882000  0.57488000  0.78870000  1.0 -0.2191098934
N  N36  1  0.78618000  0.22012000  0.21130000  1.0 -0.2191098934
N  N37  1  0.93554000  0.54885000  0.08099000  1.0 -0.2191098934
N  N38  1  0.46786000  0.85455000  0.91901000  1.0 -0.2191098934
N  N39  1  0.10455000  0.68554000  0.88669000  1.0 -0.2191098934
N  N40  1  0.79885000  0.21786000  0.11331000  1.0 -0.2191098934
N  N41  1  0.81970000  0.50984000  0.16814000  1.0 -0.2106091217
N  N42  1  0.34170000  0.65156000  0.83186000  1.0 -0.2106091217
N  N43  1  0.90156000  0.56970000  0.80986000  1.0 -0.2106091217
N  N44  1  0.75984000  0.09170000  0.19014000  1.0 -0.2106091217
N  N45  1  0.93006000  0.52353000  0.18359000  1.0 -0.2106091217
N  N46  1  0.33994000  0.74647000  0.81641000  1.0 -0.2106091217
N  N47  1  0.99647000  0.68006000  0.90653000  1.0 -0.2106091217
N  N48  1  0.77353000  0.08994000  0.09347000  1.0 -0.2106091217
N  N49  1  0.08388000  0.62814000  0.11982000  1.0 -0.2397673884
N  N50  1  0.50832000  0.96406000  0.88018000  1.0 -0.2397673884
N  N51  1  0.21406000  0.83388000  0.95574000  1.0 -0.2397673884
N  N52  1  0.87814000  0.25832000  0.04426000  1.0 -0.2397673884
N  N53  1  0.21710000  0.73730000  0.16800000  1.0 -0.2191098934
N  N54  1  0.56930000  0.04910000  0.83200000  1.0 -0.2191098934
N  N55  1  0.29910000  0.96710000  0.97980000  1.0 -0.2191098934
N  N56  1  0.98730000  0.31930000  0.02020000  1.0 -0.2191098934
N  N57  1  0.07904000  0.60820000  0.22544000  1.0 -0.2303768722
N  N58  1  0.38276000  0.85360000  0.77456000  1.0 -0.2303768722
N  N59  1  0.10360000  0.82904000  0.97084000  1.0 -0.2303768722
N  N60  1  0.85820000  0.13276000  0.02916000  1.0 -0.2303768722
N  N61  1  0.20761000  0.73320000  0.27601000  1.0 -0.2397673884
N  N62  1  0.45719000  0.93160000  0.72399000  1.0 -0.2397673884
N  N63  1  0.18160000  0.95761000  0.97441000  1.0 -0.2397673884
N  N64  1  0.98320000  0.20719000  0.02559000  1.0 -0.2397673884
N  N65  1  0.33540000  0.88880000  0.22560000  1.0 -0.2694590241
N  N66  1  0.66320000  0.10980000  0.77440000  1.0 -0.2694590241
N  N67  1  0.35980000  0.08540000  0.94660000  1.0 -0.2694590241
N  N68  1  0.13880000  0.41320000  0.05340000  1.0 -0.2694590241
N  N69  1  0.38400000  0.01470000  0.25990000  1.0 -0.1642044313
N  N70  1  0.75480000  0.12410000  0.74010000  1.0 -0.1642044313
N  N71  1  0.37410000  0.13400000  0.86930000  1.0 -0.1642044313
N  N72  1  0.26470000  0.50480000  0.13070000  1.0 -0.1642044313
N  N73  1  0.32331000  0.88120000  0.33051000  1.0 -0.1729903143
N  N74  1  0.55069000  0.99280000  0.66949000  1.0 -0.1729903143
N  N75  1  0.24280000  0.07331000  0.94211000  1.0 -0.1729903143
N  N76  1  0.13120000  0.30069000  0.05789000  1.0 -0.1729903143
N  N77  1  0.38470000  0.01570000  0.37280000  1.0 -0.2509082273
N  N78  1  0.64290000  0.01190000  0.62720000  1.0 -0.2509082273
N  N79  1  0.26190000  0.13470000  0.86900000  1.0 -0.2509082273
N  N80  1  0.26570000  0.39290000  0.13100000  1.0 -0.2509082273
N  N81  1  0.37900000  0.12420000  0.28740000  1.0 -0.2560905904
N  N82  1  0.83680000  0.09160000  0.71260000  1.0 -0.2560905904
N  N83  1  0.34160000  0.12900000  0.75480000  1.0 -0.2560905904
N  N84  1  0.37420000  0.58680000  0.24520000  1.0 -0.2560905904
N  N85  1  0.30780000  0.16310000  0.29010000  1.0 -0.1788859556
N  N86  1  0.87300000  0.01770000  0.70990000  1.0 -0.1788859556
N  N87  1  0.26770000  0.05780000  0.64470000  1.0 -0.1788859556
N  N88  1  0.41310000  0.62300000  0.35530000  1.0 -0.1788859556
N  N89  1  0.38520000  0.12940000  0.40380000  1.0 -0.1929946594
N  N90  1  0.72560000  0.98140000  0.59620000  1.0 -0.1929946594
N  N91  1  0.23140000  0.13520000  0.75580000  1.0 -0.1929946594
N  N92  1  0.37940000  0.47560000  0.24420000  1.0 -0.1929946594
N  N93  1  0.33120000  0.18980000  0.41300000  1.0 -0.2106091217
N  N94  1  0.77680000  0.91820000  0.58700000  1.0 -0.2106091217
N  N95  1  0.16820000  0.08120000  0.64140000  1.0 -0.2106091217
N  N96  1  0.43980000  0.52680000  0.35860000  1.0 -0.2106091217
N  N97  1  0.18461000  0.15400000  0.27921000  1.0 -0.2397673884
N  N98  1  0.87479000  0.90540000  0.72079000  1.0 -0.2397673884
N  N99  1  0.15540000  0.93461000  0.53061000  1.0 -0.2397673884
N  N100  1  0.40400000  0.62479000  0.46939000  1.0 -0.2397673884
N  N101  1  0.05053000  0.09190000  0.25043000  1.0 -0.1729903143
N  N102  1  0.84147000  0.80010000  0.74957000  1.0 -0.1729903143
N  N103  1  0.05010000  0.80053000  0.45863000  1.0 -0.1729903143
N  N104  1  0.34190000  0.59147000  0.54137000  1.0 -0.1729903143
N  N105  1  0.21160000  0.17550000  0.39490000  1.0 -0.2012745642
N  N106  1  0.78060000  0.81670000  0.60510000  1.0 -0.2012745642
N  N107  1  0.06670000  0.96160000  0.53610000  1.0 -0.2012745642
N  N108  1  0.42550000  0.53060000  0.46390000  1.0 -0.2012745642
N  N109  1  0.07377000  0.09290000  0.36167000  1.0 -0.2753762097
N  N110  1  0.73123000  0.71210000  0.63833000  1.0 -0.2753762097
N  N111  1  0.96210000  0.82377000  0.48087000  1.0 -0.2753762097
N  N112  1  0.34290000  0.48123000  0.51913000  1.0 -0.2694590241
Cl  Cl1  1  0.01530000  0.35570000  0.69820000  1.0 -0.5698297113
Cl  Cl2  1  0.65750000  0.31710000  0.30180000  1.0 -0.5698297113
Cl  Cl3  1  0.60570000  0.40750000  0.84040000  1.0 -0.5698297113
Cl  Cl4  1  0.56710000  0.76530000  0.15960000  1.0 -0.5698297113
Cl  Cl5  1  0.79360000  0.29360000  0.50000000  1.0 -0.5600431353
Cl  Cl6  1  0.54360000  0.54360000  0.00000000  1.0 -0.5600431353
O  O1  1  0.84560000  0.02180000  0.89720000  1.0 -0.0893948894
O  O2  1  0.12460000  0.94840000  0.10280000  1.0 -0.0893948894
O  O3  1  0.19840000  0.59560000  0.32380000  1.0 -0.0893948894
O  O4  1  0.27180000  0.87460000  0.67620000  1.0 -0.0893948894
O  O5  1  0.98480000  0.96420000  0.96080000  1.0 -0.0600815915
O  O6  1  0.00340000  0.02400000  0.03920000  1.0 -0.0600815915
O  O7  1  0.27400000  0.73480000  0.52060000  1.0 -0.0600815915
O  O8  1  0.21420000  0.75340000  0.47940000  1.0 -0.0600815915
O  O9  1  0.87648000  0.89745000  0.09193000  1.0 -0.613784501
O  O10  1  0.80552000  0.78455000  0.90807000  1.0 -0.613784501
O  O11  1  0.03455000  0.62648000  0.47903000  1.0 -0.613784501
O  O12  1  0.14745000  0.55552000  0.52097000  1.0 -0.613784501
O  O13  1  0.79236000  0.67716000  0.01666000  1.0 -0.5435463206
O  O14  1  0.66050000  0.77570000  0.98334000  1.0 -0.5435463206
O  O15  1  0.02570000  0.54236000  0.61520000  1.0 -0.5435463206
O  O16  1  0.92716000  0.41050000  0.38480000  1.0 -0.5435463206
O  O17  1  0.92055000  0.62083000  0.02498000  1.0 -0.5209250377
O  O18  1  0.59585000  0.89557000  0.97502000  1.0 -0.5209250377
O  O19  1  0.14557000  0.67055000  0.79972000  1.0 -0.5209250377
O  O20  1  0.87083000  0.34585000  0.20028000  1.0 -0.5209250377
O  O21  1  0.14339000  0.72420000  0.07159000  1.0 -0.5209250377
O  O22  1  0.65261000  0.07180000  0.92841000  1.0 -0.5209250377
O  O23  1  0.32180000  0.89339000  0.91919000  1.0 -0.5209250377
O  O24  1  0.97420000  0.40261000  0.08081000  1.0 -0.5209250377
O  O25  1  0.31703000  0.94180000  0.14723000  1.0 -0.5325644106
O  O26  1  0.79457000  0.16980000  0.85277000  1.0 -0.5325644106
O  O27  1  0.41980000  0.06703000  0.87523000  1.0 -0.5325644106
O  O28  1  0.19180000  0.54457000  0.12477000  1.0 -0.5325644106
O  O29  1  0.28590000  0.09240000  0.18950000  1.0 -0.4228213072
O  O30  1  0.90290000  0.09640000  0.81050000  1.0 -0.4228213072
O  O31  1  0.34640000  0.03590000  0.69350000  1.0 -0.4228213072
O  O32  1  0.34240000  0.65290000  0.30650000  1.0 -0.4228213072
O  O33  1  0.09202000  0.06680000  0.16942000  1.0 -0.4995947123
O  O34  1  0.89738000  0.92260000  0.83058000  1.0 -0.4995947123
O  O35  1  0.17260000  0.84202000  0.52522000  1.0 -0.4995947123
O  O36  1  0.31680000  0.64738000  0.47478000  1.0 -0.4995947123
O  O37  1  0.92974000  0.88452000  0.37246000  1.0 -0.4995947123
O  O38  1  0.51206000  0.55728000  0.62754000  1.0 -0.4995947123
O  O39  1  0.80728000  0.67974000  0.54522000  1.0 -0.4995947123
O  O40  1  0.13452000  0.26206000  0.45478000  1.0 -0.4995947123
O  O41  1  0.83141000  0.65682000  0.29423000  1.0 -0.5515633539
O  O42  1  0.36259000  0.53718000  0.70577000  1.0 -0.5515633539
O  O43  1  0.78718000  0.58141000  0.67459000  1.0 -0.5515633539
O  O44  1  0.90682000  0.11259000  0.32541000  1.0 -0.5515633539
O  O45  1  0.90681000  0.55506000  0.27667000  1.0 -0.5209250377
O  O46  1  0.27839000  0.63014000  0.72333000  1.0 -0.5209250377
O  O47  1  0.88014000  0.65681000  0.85175000  1.0 -0.5209250377
O  O48  1  0.80506000  0.02839000  0.14825000  1.0 -0.5325644106
O  O49  1  0.12327000  0.68678000  0.33605000  1.0 -0.5435463206
O  O50  1  0.35073000  0.78722000  0.66395000  1.0 -0.5435463206
O  O51  1  0.03722000  0.87327000  0.93649000  1.0 -0.5435463206
O  O52  1  0.93678000  0.10073000  0.06351000  1.0 -0.5435463206
O  O53  1  0.29464000  0.92850000  0.41714000  1.0 -0.5515633539
O  O54  1  0.51136000  0.87750000  0.58286000  1.0 -0.5515633539
O  O55  1  0.12750000  0.04464000  0.86614000  1.0 -0.5515633539
O  O56  1  0.17850000  0.26136000  0.13386000  1.0 -0.5515633539
O  O57  1  0.33108000  0.12560000  0.48388000  1.0 -0.5112839282
O  O58  1  0.64172000  0.84720000  0.51612000  1.0 -0.5112839282
O  O59  1  0.09720000  0.08108000  0.70548000  1.0 -0.5112839282
O  O60  1  0.37560000  0.39172000  0.29452000  1.0 -0.5112839282
O  O61  1  0.15219000  0.10119000  0.45538000  1.0 -0.4863239244
O  O62  1  0.64581000  0.69681000  0.54462000  1.0 -0.4863239244
O  O63  1  0.94681000  0.90219000  0.55100000  1.0 -0.4863239244
O  O64  1  0.35119000  0.39581000  0.44900000  1.0 -0.4863239244
O  O65  1  0.66363000  0.86096000  0.89139000  1.0 -0.5112839282
O  O66  1  0.96957000  0.77224000  0.10861000  1.0 -0.5112839282
O  O67  1  0.02224000  0.41363000  0.30267000  1.0 -0.5112839282
O  O68  1  0.11096000  0.71957000  0.69733000  1.0 -0.5112839282
O  O69  1  0.54390000  0.77880000  0.61610000  1.0 -0.4641035587
O  O70  1  0.16270000  0.92780000  0.38390000  1.0 -0.4641035587
O  O71  1  0.17780000  0.29390000  0.26510000  1.0 -0.4641035587
O  O72  1  0.02880000  0.91270000  0.73490000  1.0 -0.4641035587
