# DDEC6 charges by PACMAN v1.1 (https://github.com/mtap-research/PACMAN-charge/)
data_ETEQUQ_ASR_pacman
_symmetry_space_group_name_H-M   'P 1'
_cell_length_a   11.96770000
_cell_length_b   12.20120000
_cell_length_c   14.73860000
_cell_angle_alpha   67.61300000
_cell_angle_beta   74.52700000
_cell_angle_gamma   63.72400000
_symmetry_Int_Tables_number   1
_chemical_formula_structural   Mn3Mo12(P4O25)2
_chemical_formula_sum   'Mn3 Mo12 P8 O50'
_cell_volume   1771.76312063
_cell_formula_units_Z   1
loop_
 _symmetry_equiv_pos_site_id
 _symmetry_equiv_pos_as_xyz
  1  'x, y, z'
loop_
 _atom_site_type_symbol
 _atom_site_label
 _atom_site_symmetry_multiplicity
 _atom_site_fract_x
 _atom_site_fract_y
 _atom_site_fract_z
 _atom_site_occupancy
 _atom_site_charge
Mn  Mn1  1  0.50000000  0.00000000  0.50000000  1.0 1.3402811411
Mn  Mn2  1  0.26165000  0.83702000  0.00873000  1.0 1.2944220427
Mn  Mn3  1  0.73835000  0.16298000  0.99127000  1.0 1.2981876257
Mo  Mo1  1  0.27920000  0.29688000  0.32419000  1.0 1.9511344357
Mo  Mo2  1  0.72080000  0.70312000  0.67581000  1.0 1.9511344357
Mo  Mo3  1  0.74730000  0.80512000  0.33591000  1.0 1.9511344357
Mo  Mo4  1  0.25270000  0.19488000  0.66409000  1.0 1.9511344357
Mo  Mo5  1  0.52953000  0.81078000  0.33217000  1.0 1.9844166163
Mo  Mo6  1  0.47047000  0.18922000  0.66783000  1.0 1.9912497524
Mo  Mo7  1  0.57448000  0.29207000  0.32656000  1.0 1.9962967757
Mo  Mo8  1  0.42552000  0.70793000  0.67344000  1.0 1.9912497524
Mo  Mo9  1  0.77406000  0.08370000  0.32996000  1.0 1.9511344357
Mo  Mo10  1  0.22594000  0.91630000  0.67004000  1.0 1.9511344357
Mo  Mo11  1  0.26363000  0.09394000  0.32171000  1.0 1.9572941783
Mo  Mo12  1  0.73637000  0.90606000  0.67829000  1.0 1.9572941783
P  P1  1  0.55176000  0.10838000  0.21232000  1.0 1.5213477734
P  P2  1  0.44824000  0.89162000  0.78768000  1.0 1.5213477734
P  P3  1  0.38521000  0.51308000  0.15815000  1.0 1.4461627725
P  P4  1  0.61479000  0.48692000  0.84185000  1.0 1.4461627725
P  P5  1  0.30616000  0.90377000  0.19454000  1.0 1.4338632945
P  P6  1  0.69384000  0.09623000  0.80546000  1.0 1.4361434105
P  P7  1  0.93402000  0.92838000  0.16496000  1.0 1.4620772127
P  P8  1  0.06598000  0.07162000  0.83504000  1.0 1.4620772127
O  O1  1  0.61400000  0.11580000  0.41760000  1.0 -0.8695392089
O  O2  1  0.38600000  0.88420000  0.58240000  1.0 -0.8695392089
O  O3  1  0.58680000  0.85860000  0.42030000  1.0 -0.8758144852
O  O4  1  0.41320000  0.14140000  0.57970000  1.0 -0.8758144852
O  O5  1  0.33860000  0.11890000  0.41310000  1.0 -0.8695392089
O  O6  1  0.66140000  0.88110000  0.58690000  1.0 -0.8695392089
O  O7  1  0.81400000  0.88550000  0.40530000  1.0 -0.9480439153
O  O8  1  0.18600000  0.11450000  0.59470000  1.0 -0.9480439153
O  O9  1  0.38670000  0.33230000  0.39560000  1.0 -0.9480439153
O  O10  1  0.61330000  0.66770000  0.60440000  1.0 -0.9480439153
O  O11  1  0.67540000  0.02180000  0.26110000  1.0 -0.8695392089
O  O12  1  0.32460000  0.97820000  0.73890000  1.0 -0.8695392089
O  O13  1  0.24800000  0.25630000  0.22080000  1.0 -0.7899622397
O  O14  1  0.75200000  0.74370000  0.77920000  1.0 -0.7899622397
O  O15  1  0.34760000  0.89630000  0.39640000  1.0 -0.9255356666
O  O16  1  0.65240000  0.10370000  0.60360000  1.0 -0.9243824956
O  O17  1  0.48370000  0.22460000  0.25470000  1.0 -0.8561120805
O  O18  1  0.51630000  0.77540000  0.74530000  1.0 -0.8561120805
O  O19  1  0.67550000  0.80150000  0.23420000  1.0 -0.7835600254
O  O20  1  0.32450000  0.19850000  0.76580000  1.0 -0.7835600254
O  O21  1  0.71690000  0.24750000  0.22850000  1.0 -0.7967399236
O  O22  1  0.28310000  0.75250000  0.77150000  1.0 -0.7899622397
O  O23  1  0.46850000  0.02860000  0.25060000  1.0 -0.8408027764
O  O24  1  0.53150000  0.97140000  0.74940000  1.0 -0.8408027764
O  O25  1  0.08070000  0.86630000  0.13740000  1.0 -0.671521413
O  O26  1  0.91930000  0.13370000  0.86260000  1.0 -0.671521413
O  O27  1  0.87180000  0.99200000  0.07260000  1.0 -0.7599303003
O  O28  1  0.12820000  0.00800000  0.92740000  1.0 -0.7599303003
O  O29  1  0.57660000  0.15500000  0.10130000  1.0 -0.6984635618
O  O30  1  0.42340000  0.84500000  0.89870000  1.0 -0.6984635618
O  O31  1  0.89830000  0.81390000  0.23370000  1.0 -0.7271663325
O  O32  1  0.10170000  0.18610000  0.76630000  1.0 -0.7271663325
O  O33  1  0.25290000  0.03570000  0.21240000  1.0 -0.7271663325
O  O34  1  0.74710000  0.96430000  0.78760000  1.0 -0.7271663325
O  O35  1  0.91310000  0.01810000  0.22400000  1.0 -0.7394519822
O  O36  1  0.08690000  0.98190000  0.77600000  1.0 -0.7394519822
O  O37  1  0.30940000  0.92570000  0.08560000  1.0 -0.6984635618
O  O38  1  0.69060000  0.07430000  0.91440000  1.0 -0.6984635618
O  O39  1  0.49440000  0.46050000  0.21880000  1.0 -0.7394519822
O  O40  1  0.50560000  0.53950000  0.78120000  1.0 -0.7394519822
O  O41  1  0.44170000  0.82820000  0.22280000  1.0 -0.7271663325
O  O42  1  0.55830000  0.17180000  0.77720000  1.0 -0.7271663325
O  O43  1  0.27950000  0.46960000  0.22160000  1.0 -0.7394519822
O  O44  1  0.72050000  0.53040000  0.77840000  1.0 -0.7394519822
O  O45  1  0.43350000  0.44640000  0.07390000  1.0 -0.6289195892
O  O46  1  0.56650000  0.55360000  0.92610000  1.0 -0.6289195892
O  O47  1  0.22280000  0.82860000  0.25840000  1.0 -0.6770495351
O  O48  1  0.77720000  0.17140000  0.74160000  1.0 -0.6770495351
O  O49  1  0.34730000  0.65360000  0.11250000  1.0 -0.7198703166
O  O50  1  0.65270000  0.34640000  0.88750000  1.0 -0.7198703166
