# DDEC6 charges by PACMAN v1.1 (https://github.com/mtap-research/PACMAN-charge/)
data_EVEGOB_ASR_pacman
_symmetry_space_group_name_H-M   'P 1'
_cell_length_a   15.67020000
_cell_length_b   15.67020000
_cell_length_c   15.67020000
_cell_angle_alpha   90.00000000
_cell_angle_beta   90.00000000
_cell_angle_gamma   90.00000000
_symmetry_Int_Tables_number   1
_chemical_formula_structural   CuC8(N2O)2
_chemical_formula_sum   'Cu12 C96 N48 O24'
_cell_volume   3847.89859422
_cell_formula_units_Z   12
loop_
 _symmetry_equiv_pos_site_id
 _symmetry_equiv_pos_as_xyz
  1  'x, y, z'
loop_
 _atom_site_type_symbol
 _atom_site_label
 _atom_site_symmetry_multiplicity
 _atom_site_fract_x
 _atom_site_fract_y
 _atom_site_fract_z
 _atom_site_occupancy
 _atom_site_charge
Cu  Cu1  1  0.25000000  0.50000000  0.00000000  1.0 0.7482340313
Cu  Cu2  1  0.00000000  0.25000000  0.50000000  1.0 0.7482340313
Cu  Cu3  1  0.50000000  0.00000000  0.25000000  1.0 0.7482340313
Cu  Cu4  1  0.00000000  0.75000000  0.50000000  1.0 0.7482340313
Cu  Cu5  1  0.75000000  0.50000000  0.00000000  1.0 0.7482340313
Cu  Cu6  1  0.50000000  0.00000000  0.75000000  1.0 0.7482340313
Cu  Cu7  1  0.75000000  0.00000000  0.50000000  1.0 0.7482340313
Cu  Cu8  1  0.25000000  0.00000000  0.50000000  1.0 0.7482340313
Cu  Cu9  1  0.50000000  0.75000000  0.00000000  1.0 0.7482340313
Cu  Cu10  1  0.50000000  0.25000000  0.00000000  1.0 0.7482340313
Cu  Cu11  1  0.00000000  0.50000000  0.75000000  1.0 0.7482340313
Cu  Cu12  1  0.00000000  0.50000000  0.25000000  1.0 0.7482340313
C  C1  1  0.12390000  0.52830000  0.87610000  1.0 0.6075184198
C  C2  1  0.87610000  0.12390000  0.52830000  1.0 0.6075184198
C  C3  1  0.52830000  0.87610000  0.12390000  1.0 0.6075184198
C  C4  1  0.02830000  0.62390000  0.62390000  1.0 0.6075184198
C  C5  1  0.02830000  0.37610000  0.37610000  1.0 0.6075184198
C  C6  1  0.97170000  0.62390000  0.37610000  1.0 0.6075184198
C  C7  1  0.62390000  0.37610000  0.97170000  1.0 0.6075184198
C  C8  1  0.37610000  0.37610000  0.02830000  1.0 0.6075184198
C  C9  1  0.62390000  0.62390000  0.02830000  1.0 0.6075184198
C  C10  1  0.37610000  0.02830000  0.37610000  1.0 0.6075184198
C  C11  1  0.37610000  0.97170000  0.62390000  1.0 0.6075184198
C  C12  1  0.62390000  0.02830000  0.62390000  1.0 0.6075184198
C  C13  1  0.62390000  0.97170000  0.37610000  1.0 0.6075184198
C  C14  1  0.37610000  0.62390000  0.97170000  1.0 0.6075184198
C  C15  1  0.97170000  0.37610000  0.62390000  1.0 0.6075184198
C  C16  1  0.52830000  0.12390000  0.87610000  1.0 0.6075184198
C  C17  1  0.12390000  0.87610000  0.52830000  1.0 0.6075184198
C  C18  1  0.87610000  0.52830000  0.12390000  1.0 0.6075184198
C  C19  1  0.47170000  0.87610000  0.87610000  1.0 0.6075184198
C  C20  1  0.47170000  0.12390000  0.12390000  1.0 0.6075184198
C  C21  1  0.12390000  0.12390000  0.47170000  1.0 0.6075184198
C  C22  1  0.87610000  0.87610000  0.47170000  1.0 0.6075184198
C  C23  1  0.12390000  0.47170000  0.12390000  1.0 0.6075184198
C  C24  1  0.87610000  0.47170000  0.87610000  1.0 0.6075184198
C  C25  1  0.07700000  0.69710000  0.92300000  1.0 -0.234259419
C  C26  1  0.92300000  0.07700000  0.69710000  1.0 -0.234259419
C  C27  1  0.69710000  0.92300000  0.07700000  1.0 -0.234259419
C  C28  1  0.19710000  0.57700000  0.57700000  1.0 -0.234259419
C  C29  1  0.19710000  0.42300000  0.42300000  1.0 -0.234259419
C  C30  1  0.80290000  0.57700000  0.42300000  1.0 -0.234259419
C  C31  1  0.57700000  0.42300000  0.80290000  1.0 -0.234259419
C  C32  1  0.42300000  0.42300000  0.19710000  1.0 -0.234259419
C  C33  1  0.57700000  0.57700000  0.19710000  1.0 -0.234259419
C  C34  1  0.42300000  0.19710000  0.42300000  1.0 -0.234259419
C  C35  1  0.42300000  0.80290000  0.57700000  1.0 -0.234259419
C  C36  1  0.57700000  0.19710000  0.57700000  1.0 -0.234259419
C  C37  1  0.57700000  0.80290000  0.42300000  1.0 -0.234259419
C  C38  1  0.42300000  0.57700000  0.80290000  1.0 -0.234259419
C  C39  1  0.80290000  0.42300000  0.57700000  1.0 -0.234259419
C  C40  1  0.69710000  0.07700000  0.92300000  1.0 -0.234259419
C  C41  1  0.07700000  0.92300000  0.69710000  1.0 -0.234259419
C  C42  1  0.92300000  0.69710000  0.07700000  1.0 -0.234259419
C  C43  1  0.30290000  0.92300000  0.92300000  1.0 -0.234259419
C  C44  1  0.30290000  0.07700000  0.07700000  1.0 -0.234259419
C  C45  1  0.07700000  0.07700000  0.30290000  1.0 -0.234259419
C  C46  1  0.92300000  0.92300000  0.30290000  1.0 -0.234259419
C  C47  1  0.07700000  0.30290000  0.07700000  1.0 -0.234259419
C  C48  1  0.92300000  0.30290000  0.92300000  1.0 -0.234259419
C  C49  1  0.14150000  0.65200000  0.96760000  1.0 0.3141916894
C  C50  1  0.96760000  0.14150000  0.65200000  1.0 0.3141916894
C  C51  1  0.65200000  0.96760000  0.14150000  1.0 0.3154844718
C  C52  1  0.15200000  0.64150000  0.53240000  1.0 0.3141916894
C  C53  1  0.15200000  0.35850000  0.46760000  1.0 0.3141916894
C  C54  1  0.84800000  0.64150000  0.46760000  1.0 0.3141916894
C  C55  1  0.64150000  0.46760000  0.84800000  1.0 0.3141916894
C  C56  1  0.35850000  0.46760000  0.15200000  1.0 0.3141916894
C  C57  1  0.64150000  0.53240000  0.15200000  1.0 0.3141916894
C  C58  1  0.46760000  0.15200000  0.35850000  1.0 0.3141916894
C  C59  1  0.46760000  0.84800000  0.64150000  1.0 0.3141916894
C  C60  1  0.53240000  0.15200000  0.64150000  1.0 0.3141916894
C  C61  1  0.64150000  0.15200000  0.53240000  1.0 0.3141916894
C  C62  1  0.64150000  0.84800000  0.46760000  1.0 0.3141916894
C  C63  1  0.35850000  0.15200000  0.46760000  1.0 0.3141916894
C  C64  1  0.53240000  0.64150000  0.15200000  1.0 0.3141916894
C  C65  1  0.46760000  0.64150000  0.84800000  1.0 0.3141916894
C  C66  1  0.46760000  0.35850000  0.15200000  1.0 0.3141916894
C  C67  1  0.15200000  0.53240000  0.64150000  1.0 0.3141916894
C  C68  1  0.84800000  0.46760000  0.64150000  1.0 0.3141916894
C  C69  1  0.15200000  0.46760000  0.35850000  1.0 0.3141916894
C  C70  1  0.65200000  0.14150000  0.96760000  1.0 0.3141916894
C  C71  1  0.14150000  0.96760000  0.65200000  1.0 0.3141916894
C  C72  1  0.96760000  0.65200000  0.14150000  1.0 0.3141916894
C  C73  1  0.35850000  0.84800000  0.53240000  1.0 0.3141916894
C  C74  1  0.53240000  0.35850000  0.84800000  1.0 0.3141916894
C  C75  1  0.84800000  0.53240000  0.35850000  1.0 0.3141916894
C  C76  1  0.34800000  0.85850000  0.96760000  1.0 0.3141916894
C  C77  1  0.34800000  0.14150000  0.03240000  1.0 0.3141916894
C  C78  1  0.65200000  0.85850000  0.03240000  1.0 0.3154844718
C  C79  1  0.85850000  0.03240000  0.65200000  1.0 0.3141916894
C  C80  1  0.14150000  0.03240000  0.34800000  1.0 0.3141916894
C  C81  1  0.85850000  0.96760000  0.34800000  1.0 0.3141916894
C  C82  1  0.03240000  0.34800000  0.14150000  1.0 0.3141916894
C  C83  1  0.03240000  0.65200000  0.85850000  1.0 0.3141916894
C  C84  1  0.96760000  0.34800000  0.85850000  1.0 0.3141916894
C  C85  1  0.85850000  0.34800000  0.96760000  1.0 0.3141916894
C  C86  1  0.85850000  0.65200000  0.03240000  1.0 0.3154844718
C  C87  1  0.14150000  0.34800000  0.03240000  1.0 0.3141916894
C  C88  1  0.96760000  0.85850000  0.34800000  1.0 0.3141916894
C  C89  1  0.03240000  0.85850000  0.65200000  1.0 0.3141916894
C  C90  1  0.03240000  0.14150000  0.34800000  1.0 0.3141916894
C  C91  1  0.34800000  0.96760000  0.85850000  1.0 0.3141916894
C  C92  1  0.65200000  0.03240000  0.85850000  1.0 0.3141916894
C  C93  1  0.34800000  0.03240000  0.14150000  1.0 0.3141916894
C  C94  1  0.84800000  0.35850000  0.53240000  1.0 0.3141916894
C  C95  1  0.35850000  0.53240000  0.84800000  1.0 0.3141916894
C  C96  1  0.53240000  0.84800000  0.35850000  1.0 0.3141916894
N  N1  1  0.16220000  0.57100000  0.94450000  1.0 -0.4385459695
N  N2  1  0.94450000  0.16220000  0.57100000  1.0 -0.4385459695
N  N3  1  0.57100000  0.94450000  0.16220000  1.0 -0.4385459695
N  N4  1  0.07100000  0.66220000  0.55550000  1.0 -0.4385459695
N  N5  1  0.07100000  0.33780000  0.44450000  1.0 -0.4385459695
N  N6  1  0.92900000  0.66220000  0.44450000  1.0 -0.4385459695
N  N7  1  0.66220000  0.44450000  0.92900000  1.0 -0.4385459695
N  N8  1  0.33780000  0.44450000  0.07100000  1.0 -0.4385459695
N  N9  1  0.66220000  0.55550000  0.07100000  1.0 -0.4385459695
N  N10  1  0.44450000  0.07100000  0.33780000  1.0 -0.4385459695
N  N11  1  0.44450000  0.92900000  0.66220000  1.0 -0.4385459695
N  N12  1  0.55550000  0.07100000  0.66220000  1.0 -0.4385459695
N  N13  1  0.66220000  0.07100000  0.55550000  1.0 -0.4385459695
N  N14  1  0.66220000  0.92900000  0.44450000  1.0 -0.4385459695
N  N15  1  0.33780000  0.07100000  0.44450000  1.0 -0.4385459695
N  N16  1  0.55550000  0.66220000  0.07100000  1.0 -0.4385459695
N  N17  1  0.44450000  0.66220000  0.92900000  1.0 -0.4385459695
N  N18  1  0.44450000  0.33780000  0.07100000  1.0 -0.4385459695
N  N19  1  0.07100000  0.55550000  0.66220000  1.0 -0.4385459695
N  N20  1  0.92900000  0.44450000  0.66220000  1.0 -0.4385459695
N  N21  1  0.07100000  0.44450000  0.33780000  1.0 -0.4385459695
N  N22  1  0.57100000  0.16220000  0.94450000  1.0 -0.4385459695
N  N23  1  0.16220000  0.94450000  0.57100000  1.0 -0.4385459695
N  N24  1  0.94450000  0.57100000  0.16220000  1.0 -0.4385459695
N  N25  1  0.33780000  0.92900000  0.55550000  1.0 -0.4385459695
N  N26  1  0.55550000  0.33780000  0.92900000  1.0 -0.4385459695
N  N27  1  0.92900000  0.55550000  0.33780000  1.0 -0.4385459695
N  N28  1  0.42900000  0.83780000  0.94450000  1.0 -0.4385459695
N  N29  1  0.42900000  0.16220000  0.05550000  1.0 -0.4385459695
N  N30  1  0.57100000  0.83780000  0.05550000  1.0 -0.4385459695
N  N31  1  0.83780000  0.05550000  0.57100000  1.0 -0.4385459695
N  N32  1  0.16220000  0.05550000  0.42900000  1.0 -0.4385459695
N  N33  1  0.83780000  0.94450000  0.42900000  1.0 -0.4385459695
N  N34  1  0.05550000  0.42900000  0.16220000  1.0 -0.4385459695
N  N35  1  0.05550000  0.57100000  0.83780000  1.0 -0.4385459695
N  N36  1  0.94450000  0.42900000  0.83780000  1.0 -0.4385459695
N  N37  1  0.83780000  0.42900000  0.94450000  1.0 -0.4385459695
N  N38  1  0.83780000  0.57100000  0.05550000  1.0 -0.4385459695
N  N39  1  0.16220000  0.42900000  0.05550000  1.0 -0.4385459695
N  N40  1  0.94450000  0.83780000  0.42900000  1.0 -0.4385459695
N  N41  1  0.05550000  0.83780000  0.57100000  1.0 -0.4385459695
N  N42  1  0.05550000  0.16220000  0.42900000  1.0 -0.4385459695
N  N43  1  0.42900000  0.94450000  0.83780000  1.0 -0.4385459695
N  N44  1  0.57100000  0.05550000  0.83780000  1.0 -0.4385459695
N  N45  1  0.42900000  0.05550000  0.16220000  1.0 -0.4385459695
N  N46  1  0.92900000  0.33780000  0.55550000  1.0 -0.4385459695
N  N47  1  0.33780000  0.55550000  0.92900000  1.0 -0.4385459695
N  N48  1  0.55550000  0.92900000  0.33780000  1.0 -0.4385459695
O  O1  1  0.14520000  0.45790000  0.85480000  1.0 -0.4988290542
O  O2  1  0.85480000  0.14520000  0.45790000  1.0 -0.4988290542
O  O3  1  0.45790000  0.85480000  0.14520000  1.0 -0.4988290542
O  O4  1  0.95790000  0.64520000  0.64520000  1.0 -0.4988290542
O  O5  1  0.95790000  0.35480000  0.35480000  1.0 -0.4988290542
O  O6  1  0.04210000  0.64520000  0.35480000  1.0 -0.4988290542
O  O7  1  0.64520000  0.35480000  0.04210000  1.0 -0.4988290542
O  O8  1  0.35480000  0.35480000  0.95790000  1.0 -0.4988290542
O  O9  1  0.64520000  0.64520000  0.95790000  1.0 -0.4988290542
O  O10  1  0.35480000  0.95790000  0.35480000  1.0 -0.4988290542
O  O11  1  0.35480000  0.04210000  0.64520000  1.0 -0.4988290542
O  O12  1  0.64520000  0.95790000  0.64520000  1.0 -0.4988290542
O  O13  1  0.64520000  0.04210000  0.35480000  1.0 -0.4988290542
O  O14  1  0.35480000  0.64520000  0.04210000  1.0 -0.4988290542
O  O15  1  0.04210000  0.35480000  0.64520000  1.0 -0.4988290542
O  O16  1  0.45790000  0.14520000  0.85480000  1.0 -0.4988290542
O  O17  1  0.14520000  0.85480000  0.45790000  1.0 -0.4988290542
O  O18  1  0.85480000  0.45790000  0.14520000  1.0 -0.4988290542
O  O19  1  0.54210000  0.85480000  0.85480000  1.0 -0.4988290542
O  O20  1  0.54210000  0.14520000  0.14520000  1.0 -0.4988290542
O  O21  1  0.14520000  0.14520000  0.54210000  1.0 -0.4988290542
O  O22  1  0.85480000  0.85480000  0.54210000  1.0 -0.4988290542
O  O23  1  0.14520000  0.54210000  0.14520000  1.0 -0.4988290542
O  O24  1  0.85480000  0.54210000  0.85480000  1.0 -0.4988290542
