# DDEC6 charges by PACMAN v1.1 (https://github.com/mtap-research/PACMAN-charge/)
data_EVOTIT_ASR_pacman
_symmetry_space_group_name_H-M   'P 1'
_cell_length_a   31.27680000
_cell_length_b   31.27680000
_cell_length_c   31.27680000
_cell_angle_alpha   116.48350000
_cell_angle_beta   116.48350000
_cell_angle_gamma   116.48350000
_symmetry_Int_Tables_number   1
_chemical_formula_structural   Zn12H228C225(N6O47)2
_chemical_formula_sum   'Zn24 H456 C450 N24 O188'
_cell_volume   14546.88354048
_cell_formula_units_Z   2
loop_
 _symmetry_equiv_pos_site_id
 _symmetry_equiv_pos_as_xyz
  1  'x, y, z'
loop_
 _atom_site_type_symbol
 _atom_site_label
 _atom_site_symmetry_multiplicity
 _atom_site_fract_x
 _atom_site_fract_y
 _atom_site_fract_z
 _atom_site_occupancy
 _atom_site_charge
Zn  Zn1  1  0.49284000  0.16650000  0.49133000  1.0 0.7614980381
Zn  Zn2  1  0.26281000  0.91234000  0.20272000  1.0 0.7669545901
Zn  Zn3  1  0.49133000  0.49284000  0.16650000  1.0 0.7614980381
Zn  Zn4  1  0.20272000  0.26281000  0.91234000  1.0 0.7669545901
Zn  Zn5  1  0.16650000  0.49133000  0.49284000  1.0 0.7418261808
Zn  Zn6  1  0.91234000  0.20272000  0.26281000  1.0 0.7418261808
Zn  Zn7  1  0.33350000  0.00716000  0.00867000  1.0 0.7614980381
Zn  Zn8  1  0.58766000  0.23719000  0.29728000  1.0 0.7614980381
Zn  Zn9  1  0.00716000  0.00867000  0.33350000  1.0 0.7614980381
Zn  Zn10  1  0.23719000  0.29728000  0.58766000  1.0 0.7614980381
Zn  Zn11  1  0.00867000  0.33350000  0.00716000  1.0 0.7205441635
Zn  Zn12  1  0.29728000  0.58766000  0.23719000  1.0 0.7669545901
Zn  Zn13  1  0.50716000  0.83350000  0.50867000  1.0 0.7614980381
Zn  Zn14  1  0.73719000  0.08766000  0.79728000  1.0 0.7482035201
Zn  Zn15  1  0.50867000  0.50716000  0.83350000  1.0 0.7614980381
Zn  Zn16  1  0.79728000  0.73719000  0.08766000  1.0 0.7482035201
Zn  Zn17  1  0.83350000  0.50867000  0.50716000  1.0 0.7614980381
Zn  Zn18  1  0.08766000  0.79728000  0.73719000  1.0 0.7614980381
Zn  Zn19  1  0.66650000  0.99284000  0.99133000  1.0 0.7614980381
Zn  Zn20  1  0.41234000  0.76281000  0.70272000  1.0 0.7669545901
Zn  Zn21  1  0.99284000  0.99133000  0.66650000  1.0 0.7344920676
Zn  Zn22  1  0.76281000  0.70272000  0.41234000  1.0 0.7041657012
Zn  Zn23  1  0.99133000  0.66650000  0.99284000  1.0 0.7614980381
Zn  Zn24  1  0.70272000  0.41234000  0.76281000  1.0 0.7614980381
H  H1  1  0.17300000  0.74970000  0.09400000  1.0 0.0800422187
H  H2  1  0.17400000  0.67640000  0.09670000  1.0 0.0894675317
H  H3  1  0.36820000  0.94710000  0.32870000  1.0 0.0994788307
H  H4  1  0.37230000  0.87990000  0.33900000  1.0 0.1108992078
H  H5  1  0.59860000  0.32630000  0.46190000  1.0 0.1209505479
H  H6  1  0.68850000  0.28690000  0.58390000  1.0 0.1272696047
H  H7  1  0.45320000  0.18050000  0.33760000  1.0 0.1272696047
H  H8  1  0.41290000  0.91540000  0.48130000  1.0 0.1209505479
H  H9  1  0.36210000  0.16750000  0.53710000  1.0 0.1418137984
H  H10  1  0.46190000  0.21000000  0.56910000  1.0 0.0894675317
H  H11  1  0.22060000  0.02450000  0.31280000  1.0 0.1418137984
H  H12  1  0.32310000  0.06150000  0.34670000  1.0 0.0994788307
H  H13  1  0.44292000  0.67198000  0.42298000  1.0 0.1108992078
H  H14  1  0.47261000  0.74603000  0.50501000  1.0 0.0800422187
H  H15  1  0.51127000  0.71246000  0.55329000  1.0 0.0994788307
H  H16  1  0.57026000  0.78280000  0.56468000  1.0 0.0501852471
H  H17  1  0.52969000  0.67728000  0.43837000  1.0 0.0606738955
H  H18  1  0.60833000  0.73002000  0.53828000  1.0 0.0708026447
H  H19  1  0.58372000  0.77226000  0.52921000  1.0 0.0501852471
H  H20  1  0.34778000  0.79713000  0.48647000  1.0 0.0708026447
H  H21  1  0.42554000  0.85125000  0.58746000  1.0 0.0708026447
H  H22  1  0.36703000  0.86048000  0.60376000  1.0 0.0606738955
H  H23  1  0.40280000  0.90683000  0.58621000  1.0 0.0211229225
H  H24  1  0.31236000  0.88489000  0.56948000  1.0 0.0501852471
H  H25  1  0.23436000  0.81428000  0.46106000  1.0 0.0606738955
H  H26  1  0.34293000  0.89614000  0.53213000  1.0 -0.0097930043
H  H27  1  0.52262000  0.39165000  0.95691000  1.0 0.0800422187
H  H28  1  0.59694000  0.49887000  0.05142000  1.0 0.0708026447
H  H29  1  0.54558000  0.37215000  0.01369000  1.0 0.0708026447
H  H30  1  0.59943000  0.46635000  0.10526000  1.0 0.0800422187
H  H31  1  0.70991000  0.57063000  0.17697000  1.0 0.0401834838
H  H32  1  0.64169000  0.53121000  0.08383000  1.0 0.0606738955
H  H33  1  0.73026000  0.56312000  0.12821000  1.0 0.0606738955
H  H34  1  0.09400000  0.17300000  0.74970000  1.0 0.0894675317
H  H35  1  0.09670000  0.17400000  0.67640000  1.0 0.0894675317
H  H36  1  0.32870000  0.36820000  0.94710000  1.0 0.0894675317
H  H37  1  0.33900000  0.37230000  0.87990000  1.0 0.1108992078
H  H38  1  0.46190000  0.59860000  0.32630000  1.0 0.1209505479
H  H39  1  0.58390000  0.68850000  0.28690000  1.0 0.1272696047
H  H40  1  0.33760000  0.45320000  0.18050000  1.0 0.1272696047
H  H41  1  0.48130000  0.41290000  0.91540000  1.0 0.1209505479
H  H42  1  0.53710000  0.36210000  0.16750000  1.0 0.1418137984
H  H43  1  0.56910000  0.46190000  0.21000000  1.0 0.0994788307
H  H44  1  0.31280000  0.22060000  0.02450000  1.0 0.1418137984
H  H45  1  0.34670000  0.32310000  0.06150000  1.0 0.0994788307
H  H46  1  0.42298000  0.44292000  0.67198000  1.0 0.1108992078
H  H47  1  0.50501000  0.47261000  0.74603000  1.0 0.0708026447
H  H48  1  0.55329000  0.51127000  0.71246000  1.0 0.0894675317
H  H49  1  0.56468000  0.57026000  0.78280000  1.0 0.0501852471
H  H50  1  0.43837000  0.52969000  0.67728000  1.0 0.0606738955
H  H51  1  0.53828000  0.60833000  0.73002000  1.0 0.0708026447
H  H52  1  0.52921000  0.58372000  0.77226000  1.0 0.0501852471
H  H53  1  0.48647000  0.34778000  0.79713000  1.0 0.0708026447
H  H54  1  0.58746000  0.42554000  0.85125000  1.0 0.0708026447
H  H55  1  0.60376000  0.36703000  0.86048000  1.0 0.0606738955
H  H56  1  0.58621000  0.40280000  0.90683000  1.0 0.0211229225
H  H57  1  0.56948000  0.31236000  0.88489000  1.0 0.0501852471
H  H58  1  0.46106000  0.23436000  0.81428000  1.0 0.0606738955
H  H59  1  0.53213000  0.34293000  0.89614000  1.0 -0.0097930043
H  H60  1  0.95691000  0.52262000  0.39165000  1.0 0.0708026447
H  H61  1  0.05142000  0.59694000  0.49887000  1.0 0.0708026447
H  H62  1  0.01369000  0.54558000  0.37215000  1.0 0.0708026447
H  H63  1  0.10526000  0.59943000  0.46635000  1.0 0.0708026447
H  H64  1  0.17697000  0.70991000  0.57063000  1.0 0.0401834838
H  H65  1  0.08383000  0.64169000  0.53121000  1.0 0.0606738955
H  H66  1  0.12821000  0.73026000  0.56312000  1.0 0.0606738955
H  H67  1  0.74970000  0.09400000  0.17300000  1.0 0.0894675317
H  H68  1  0.67640000  0.09670000  0.17400000  1.0 0.0894675317
H  H69  1  0.94710000  0.32870000  0.36820000  1.0 0.0800422187
H  H70  1  0.87990000  0.33900000  0.37230000  1.0 0.1108992078
H  H71  1  0.32630000  0.46190000  0.59860000  1.0 0.1108992078
H  H72  1  0.28690000  0.58390000  0.68850000  1.0 0.1272696047
H  H73  1  0.18050000  0.33760000  0.45320000  1.0 0.1272696047
H  H74  1  0.91540000  0.48130000  0.41290000  1.0 0.1209505479
H  H75  1  0.16750000  0.53710000  0.36210000  1.0 0.1418137984
H  H76  1  0.21000000  0.56910000  0.46190000  1.0 0.0894675317
H  H77  1  0.02450000  0.31280000  0.22060000  1.0 0.1418137984
H  H78  1  0.06150000  0.34670000  0.32310000  1.0 0.0994788307
H  H79  1  0.67198000  0.42298000  0.44292000  1.0 0.0800422187
H  H80  1  0.74603000  0.50501000  0.47261000  1.0 0.0708026447
H  H81  1  0.71246000  0.55329000  0.51127000  1.0 0.0606738955
H  H82  1  0.78280000  0.56468000  0.57026000  1.0 0.0501852471
H  H83  1  0.67728000  0.43837000  0.52969000  1.0 0.0606738955
H  H84  1  0.73002000  0.53828000  0.60833000  1.0 0.0708026447
H  H85  1  0.77226000  0.52921000  0.58372000  1.0 0.0501852471
H  H86  1  0.79713000  0.48647000  0.34778000  1.0 0.0708026447
H  H87  1  0.85125000  0.58746000  0.42554000  1.0 0.0708026447
H  H88  1  0.86048000  0.60376000  0.36703000  1.0 0.0606738955
H  H89  1  0.90683000  0.58621000  0.40280000  1.0 0.0211229225
H  H90  1  0.88489000  0.56948000  0.31236000  1.0 0.0606738955
H  H91  1  0.81428000  0.46106000  0.23436000  1.0 0.0606738955
H  H92  1  0.89614000  0.53213000  0.34293000  1.0 -0.0097930043
H  H93  1  0.39165000  0.95691000  0.52262000  1.0 0.0708026447
H  H94  1  0.49887000  0.05142000  0.59694000  1.0 0.0708026447
H  H95  1  0.37215000  0.01369000  0.54558000  1.0 0.0708026447
H  H96  1  0.46635000  0.10526000  0.59943000  1.0 0.0708026447
H  H97  1  0.57063000  0.17697000  0.70991000  1.0 0.0401834838
H  H98  1  0.53121000  0.08383000  0.64169000  1.0 0.0606738955
H  H99  1  0.56312000  0.12821000  0.73026000  1.0 0.0606738955
H  H100  1  0.75030000  0.32700000  0.40600000  1.0 0.0894675317
H  H101  1  0.82360000  0.32600000  0.40330000  1.0 0.0800422187
H  H102  1  0.55290000  0.13180000  0.17130000  1.0 0.0894675317
H  H103  1  0.62010000  0.12770000  0.16100000  1.0 0.1108992078
H  H104  1  0.17370000  0.90140000  0.03810000  1.0 0.0994788307
H  H105  1  0.21310000  0.81150000  0.91610000  1.0 0.1209505479
H  H106  1  0.58460000  0.08710000  0.01870000  1.0 0.1209505479
H  H107  1  0.33250000  0.13790000  0.96290000  1.0 0.1418137984
H  H108  1  0.29000000  0.03810000  0.93090000  1.0 0.0994788307
H  H109  1  0.47550000  0.27940000  0.18720000  1.0 0.1418137984
H  H110  1  0.43850000  0.17690000  0.15330000  1.0 0.0994788307
H  H111  1  0.51007000  0.09093000  0.24720000  1.0 0.0800422187
H  H112  1  0.82802000  0.05708000  0.07702000  1.0 0.0708026447
H  H113  1  0.75397000  0.02739000  0.99499000  1.0 0.0708026447
H  H114  1  0.78754000  0.98873000  0.94671000  1.0 0.0708026447
H  H115  1  0.71720000  0.92974000  0.93532000  1.0 0.0401834838
H  H116  1  0.82272000  0.97031000  0.06163000  1.0 0.0606738955
H  H117  1  0.76998000  0.89167000  0.96172000  1.0 0.0708026447
H  H118  1  0.72774000  0.91628000  0.97079000  1.0 0.0501852471
H  H119  1  0.70287000  0.15222000  0.01353000  1.0 0.0708026447
H  H120  1  0.64875000  0.07446000  0.91254000  1.0 0.0708026447
H  H121  1  0.63952000  0.13297000  0.89624000  1.0 0.0606738955
H  H122  1  0.59317000  0.09720000  0.91379000  1.0 0.0211229225
H  H123  1  0.61511000  0.18764000  0.93052000  1.0 0.0606738955
H  H124  1  0.68572000  0.26564000  0.03894000  1.0 0.0708026447
H  H125  1  0.60386000  0.15707000  0.96787000  1.0 -0.0097930043
H  H126  1  0.10835000  0.97738000  0.54309000  1.0 0.0800422187
H  H127  1  0.00113000  0.90306000  0.44858000  1.0 0.0708026447
H  H128  1  0.12785000  0.95442000  0.48631000  1.0 0.0708026447
H  H129  1  0.03365000  0.90057000  0.39474000  1.0 0.0800422187
H  H130  1  0.92937000  0.79009000  0.32303000  1.0 0.0401834838
H  H131  1  0.93688000  0.76974000  0.37179000  1.0 0.0894675317
H  H132  1  0.32700000  0.40600000  0.75030000  1.0 0.0894675317
H  H133  1  0.32600000  0.40330000  0.82360000  1.0 0.0894675317
H  H134  1  0.13180000  0.17130000  0.55290000  1.0 0.0994788307
H  H135  1  0.12770000  0.16100000  0.62010000  1.0 0.1108992078
H  H136  1  0.90140000  0.03810000  0.17370000  1.0 0.0994788307
H  H137  1  0.81150000  0.91610000  0.21310000  1.0 0.1209505479
H  H138  1  0.08710000  0.01870000  0.58460000  1.0 0.0800422187
H  H139  1  0.13790000  0.96290000  0.33250000  1.0 0.1418137984
H  H140  1  0.03810000  0.93090000  0.29000000  1.0 0.0994788307
H  H141  1  0.27940000  0.18720000  0.47550000  1.0 0.1418137984
H  H142  1  0.17690000  0.15330000  0.43850000  1.0 0.0994788307
H  H143  1  0.09093000  0.24720000  0.51007000  1.0 0.0894675317
H  H144  1  0.05708000  0.07702000  0.82802000  1.0 0.0800422187
H  H145  1  0.02739000  0.99499000  0.75397000  1.0 0.0800422187
H  H146  1  0.98873000  0.94671000  0.78754000  1.0 0.0894675317
H  H147  1  0.92974000  0.93532000  0.71720000  1.0 0.0401834838
H  H148  1  0.97031000  0.06163000  0.82272000  1.0 0.0501852471
H  H149  1  0.89167000  0.96172000  0.76998000  1.0 0.0606738955
H  H150  1  0.91628000  0.97079000  0.72774000  1.0 0.0501852471
H  H151  1  0.15222000  0.01353000  0.70287000  1.0 0.0708026447
H  H152  1  0.07446000  0.91254000  0.64875000  1.0 0.0708026447
H  H153  1  0.13297000  0.89624000  0.63952000  1.0 0.0800422187
H  H154  1  0.09720000  0.91379000  0.59317000  1.0 0.0299795178
H  H155  1  0.18764000  0.93052000  0.61511000  1.0 0.0708026447
H  H156  1  0.26564000  0.03894000  0.68572000  1.0 0.0800422187
H  H157  1  0.15707000  0.96787000  0.60386000  1.0 0.0211229225
H  H158  1  0.97738000  0.54309000  0.10835000  1.0 0.0708026447
H  H159  1  0.90306000  0.44858000  0.00113000  1.0 0.0800422187
H  H160  1  0.95442000  0.48631000  0.12785000  1.0 0.0800422187
H  H161  1  0.90057000  0.39474000  0.03365000  1.0 0.0800422187
H  H162  1  0.79009000  0.32303000  0.92937000  1.0 0.0401834838
H  H163  1  0.76974000  0.37179000  0.93688000  1.0 0.0800422187
H  H164  1  0.40600000  0.75030000  0.32700000  1.0 0.0894675317
H  H165  1  0.40330000  0.82360000  0.32600000  1.0 0.0894675317
H  H166  1  0.17130000  0.55290000  0.13180000  1.0 0.0994788307
H  H167  1  0.16100000  0.62010000  0.12770000  1.0 0.1108992078
H  H168  1  0.03810000  0.17370000  0.90140000  1.0 0.0994788307
H  H169  1  0.91610000  0.21310000  0.81150000  1.0 0.1209505479
H  H170  1  0.01870000  0.58460000  0.08710000  1.0 0.1209505479
H  H171  1  0.96290000  0.33250000  0.13790000  1.0 0.1501058754
H  H172  1  0.93090000  0.29000000  0.03810000  1.0 0.0994788307
H  H173  1  0.18720000  0.47550000  0.27940000  1.0 0.1418137984
H  H174  1  0.15330000  0.43850000  0.17690000  1.0 0.0994788307
H  H175  1  0.24720000  0.51007000  0.09093000  1.0 0.0994788307
H  H176  1  0.07702000  0.82802000  0.05708000  1.0 0.0800422187
H  H177  1  0.99499000  0.75397000  0.02739000  1.0 0.0708026447
H  H178  1  0.94671000  0.78754000  0.98873000  1.0 0.0606738955
H  H179  1  0.93532000  0.71720000  0.92974000  1.0 0.0501852471
H  H180  1  0.06163000  0.82272000  0.97031000  1.0 0.0708026447
H  H181  1  0.96172000  0.76998000  0.89167000  1.0 0.0708026447
H  H182  1  0.97079000  0.72774000  0.91628000  1.0 0.0501852471
H  H183  1  0.01353000  0.70287000  0.15222000  1.0 0.0708026447
H  H184  1  0.91254000  0.64875000  0.07446000  1.0 0.0708026447
H  H185  1  0.89624000  0.63952000  0.13297000  1.0 0.0606738955
H  H186  1  0.91379000  0.59317000  0.09720000  1.0 0.0211229225
H  H187  1  0.93052000  0.61511000  0.18764000  1.0 0.0606738955
H  H188  1  0.03894000  0.68572000  0.26564000  1.0 0.0606738955
H  H189  1  0.96787000  0.60386000  0.15707000  1.0 -0.0097930043
H  H190  1  0.54309000  0.10835000  0.97738000  1.0 0.0708026447
H  H191  1  0.44858000  0.00113000  0.90306000  1.0 0.0800422187
H  H192  1  0.48631000  0.12785000  0.95442000  1.0 0.0800422187
H  H193  1  0.39474000  0.03365000  0.90057000  1.0 0.0800422187
H  H194  1  0.32303000  0.92937000  0.79009000  1.0 0.0401834838
H  H195  1  0.37179000  0.93688000  0.76974000  1.0 0.0800422187
H  H196  1  0.82700000  0.25030000  0.90600000  1.0 0.0894675317
H  H197  1  0.82600000  0.32360000  0.90330000  1.0 0.0894675317
H  H198  1  0.63180000  0.05290000  0.67130000  1.0 0.0994788307
H  H199  1  0.62770000  0.12010000  0.66100000  1.0 0.1108992078
H  H200  1  0.40140000  0.67370000  0.53810000  1.0 0.1209505479
H  H201  1  0.31150000  0.71310000  0.41610000  1.0 0.1272696047
H  H202  1  0.54680000  0.81950000  0.66240000  1.0 0.1272696047
H  H203  1  0.58710000  0.08460000  0.51870000  1.0 0.1209505479
H  H204  1  0.63790000  0.83250000  0.46290000  1.0 0.1418137984
H  H205  1  0.53810000  0.79000000  0.43090000  1.0 0.0894675317
H  H206  1  0.77940000  0.97550000  0.68720000  1.0 0.1418137984
H  H207  1  0.67690000  0.93850000  0.65330000  1.0 0.0994788307
H  H208  1  0.59093000  0.01007000  0.74720000  1.0 0.0894675317
H  H209  1  0.55708000  0.32802000  0.57702000  1.0 0.1108992078
H  H210  1  0.52739000  0.25397000  0.49499000  1.0 0.0800422187
H  H211  1  0.48873000  0.28754000  0.44671000  1.0 0.0894675317
H  H212  1  0.42974000  0.21720000  0.43532000  1.0 0.0501852471
H  H213  1  0.47031000  0.32272000  0.56163000  1.0 0.0606738955
H  H214  1  0.39167000  0.26998000  0.46172000  1.0 0.0708026447
H  H215  1  0.41628000  0.22774000  0.47079000  1.0 0.0501852471
H  H216  1  0.65222000  0.20287000  0.51353000  1.0 0.0708026447
H  H217  1  0.57446000  0.14875000  0.41254000  1.0 0.0606738955
H  H218  1  0.63297000  0.13952000  0.39624000  1.0 0.0606738955
H  H219  1  0.59720000  0.09317000  0.41379000  1.0 0.0299795178
H  H220  1  0.68764000  0.11511000  0.43052000  1.0 0.0708026447
H  H221  1  0.76564000  0.18572000  0.53894000  1.0 0.0708026447
H  H222  1  0.65707000  0.10386000  0.46787000  1.0 0.0098527133
H  H223  1  0.47738000  0.60835000  0.04309000  1.0 0.0708026447
H  H224  1  0.40306000  0.50113000  0.94858000  1.0 0.0708026447
H  H225  1  0.45442000  0.62785000  0.98631000  1.0 0.0606738955
H  H226  1  0.40057000  0.53365000  0.89474000  1.0 0.0708026447
H  H227  1  0.29009000  0.42937000  0.82303000  1.0 0.0501852471
H  H228  1  0.35831000  0.46879000  0.91617000  1.0 0.0606738955
H  H229  1  0.26974000  0.43688000  0.87179000  1.0 0.0501852471
H  H230  1  0.90600000  0.82700000  0.25030000  1.0 0.0894675317
H  H231  1  0.90330000  0.82600000  0.32360000  1.0 0.0994788307
H  H232  1  0.67130000  0.63180000  0.05290000  1.0 0.0994788307
H  H233  1  0.66100000  0.62770000  0.12010000  1.0 0.1108992078
H  H234  1  0.53810000  0.40140000  0.67370000  1.0 0.1209505479
H  H235  1  0.41610000  0.31150000  0.71310000  1.0 0.1272696047
H  H236  1  0.66240000  0.54680000  0.81950000  1.0 0.1272696047
H  H237  1  0.51870000  0.58710000  0.08460000  1.0 0.1108992078
H  H238  1  0.46290000  0.63790000  0.83250000  1.0 0.1418137984
H  H239  1  0.43090000  0.53810000  0.79000000  1.0 0.0894675317
H  H240  1  0.68720000  0.77940000  0.97550000  1.0 0.1418137984
H  H241  1  0.65330000  0.67690000  0.93850000  1.0 0.0994788307
H  H242  1  0.74720000  0.59093000  0.01007000  1.0 0.0708026447
H  H243  1  0.57702000  0.55708000  0.32802000  1.0 0.0800422187
H  H244  1  0.49499000  0.52739000  0.25397000  1.0 0.0708026447
H  H245  1  0.44671000  0.48873000  0.28754000  1.0 0.0894675317
H  H246  1  0.43532000  0.42974000  0.21720000  1.0 0.0501852471
H  H247  1  0.56163000  0.47031000  0.32272000  1.0 0.0606738955
H  H248  1  0.46172000  0.39167000  0.26998000  1.0 0.0606738955
H  H249  1  0.47079000  0.41628000  0.22774000  1.0 0.0501852471
H  H250  1  0.51353000  0.65222000  0.20287000  1.0 0.0708026447
H  H251  1  0.41254000  0.57446000  0.14875000  1.0 0.0606738955
H  H252  1  0.39624000  0.63297000  0.13952000  1.0 0.0994788307
H  H253  1  0.41379000  0.59720000  0.09317000  1.0 0.1272696047
H  H254  1  0.43052000  0.68764000  0.11511000  1.0 0.0708026447
H  H255  1  0.53894000  0.76564000  0.18572000  1.0 0.0800422187
H  H256  1  0.46787000  0.65707000  0.10386000  1.0 0.0501852471
H  H257  1  0.04309000  0.47738000  0.60835000  1.0 0.0708026447
H  H258  1  0.94858000  0.40306000  0.50113000  1.0 0.0708026447
H  H259  1  0.98631000  0.45442000  0.62785000  1.0 0.0708026447
H  H260  1  0.89474000  0.40057000  0.53365000  1.0 0.0800422187
H  H261  1  0.82303000  0.29009000  0.42937000  1.0 0.0401834838
H  H262  1  0.91617000  0.35831000  0.46879000  1.0 0.0606738955
H  H263  1  0.87179000  0.26974000  0.43688000  1.0 0.0606738955
H  H264  1  0.25030000  0.90600000  0.82700000  1.0 0.0894675317
H  H265  1  0.32360000  0.90330000  0.82600000  1.0 0.0894675317
H  H266  1  0.05290000  0.67130000  0.63180000  1.0 0.0994788307
H  H267  1  0.12010000  0.66100000  0.62770000  1.0 0.1108992078
H  H268  1  0.67370000  0.53810000  0.40140000  1.0 0.0994788307
H  H269  1  0.71310000  0.41610000  0.31150000  1.0 0.1209505479
H  H270  1  0.08460000  0.51870000  0.58710000  1.0 0.1209505479
H  H271  1  0.83250000  0.46290000  0.63790000  1.0 0.1418137984
H  H272  1  0.79000000  0.43090000  0.53810000  1.0 0.0994788307
H  H273  1  0.97550000  0.68720000  0.77940000  1.0 0.1418137984
H  H274  1  0.93850000  0.65330000  0.67690000  1.0 0.0994788307
H  H275  1  0.01007000  0.74720000  0.59093000  1.0 0.0994788307
H  H276  1  0.32802000  0.57702000  0.55708000  1.0 0.0994788307
H  H277  1  0.25397000  0.49499000  0.52739000  1.0 0.0800422187
H  H278  1  0.28754000  0.44671000  0.48873000  1.0 0.0800422187
H  H279  1  0.21720000  0.43532000  0.42974000  1.0 0.0501852471
H  H280  1  0.32272000  0.56163000  0.47031000  1.0 0.0606738955
H  H281  1  0.26998000  0.46172000  0.39167000  1.0 0.0606738955
H  H282  1  0.22774000  0.47079000  0.41628000  1.0 0.0501852471
H  H283  1  0.20287000  0.51353000  0.65222000  1.0 0.0800422187
H  H284  1  0.14875000  0.41254000  0.57446000  1.0 0.0994788307
H  H285  1  0.13952000  0.39624000  0.63297000  1.0 0.0708026447
H  H286  1  0.09317000  0.41379000  0.59720000  1.0 0.0800422187
H  H287  1  0.11511000  0.43052000  0.68764000  1.0 0.0606738955
H  H288  1  0.18572000  0.53894000  0.76564000  1.0 0.0708026447
H  H289  1  0.10386000  0.46787000  0.65707000  1.0 0.0027793996
H  H290  1  0.60835000  0.04309000  0.47738000  1.0 0.0708026447
H  H291  1  0.50113000  0.94858000  0.40306000  1.0 0.0708026447
H  H292  1  0.62785000  0.98631000  0.45442000  1.0 0.0708026447
H  H293  1  0.53365000  0.89474000  0.40057000  1.0 0.0800422187
H  H294  1  0.42937000  0.82303000  0.29009000  1.0 0.0401834838
H  H295  1  0.46879000  0.91617000  0.35831000  1.0 0.0606738955
H  H296  1  0.43688000  0.87179000  0.26974000  1.0 0.0606738955
H  H297  1  0.24970000  0.67300000  0.59400000  1.0 0.0894675317
H  H298  1  0.17640000  0.67400000  0.59670000  1.0 0.0894675317
H  H299  1  0.44710000  0.86820000  0.82870000  1.0 0.0994788307
H  H300  1  0.37990000  0.87230000  0.83900000  1.0 0.1108992078
H  H301  1  0.82630000  0.09860000  0.96190000  1.0 0.1108992078
H  H302  1  0.78690000  0.18850000  0.08390000  1.0 0.1209505479
H  H303  1  0.41540000  0.91290000  0.98130000  1.0 0.1209505479
H  H304  1  0.66750000  0.86210000  0.03710000  1.0 0.1418137984
H  H305  1  0.71000000  0.96190000  0.06910000  1.0 0.0994788307
H  H306  1  0.52450000  0.72060000  0.81280000  1.0 0.1418137984
H  H307  1  0.56150000  0.82310000  0.84670000  1.0 0.0994788307
H  H308  1  0.48993000  0.90907000  0.75280000  1.0 0.0800422187
H  H309  1  0.17198000  0.94292000  0.92298000  1.0 0.0800422187
H  H310  1  0.24603000  0.97261000  0.00501000  1.0 0.0800422187
H  H311  1  0.21246000  0.01127000  0.05329000  1.0 0.0994788307
H  H312  1  0.28280000  0.07026000  0.06468000  1.0 0.0501852471
H  H313  1  0.17728000  0.02969000  0.93837000  1.0 0.0606738955
H  H314  1  0.23002000  0.10833000  0.03828000  1.0 0.0401834838
H  H315  1  0.27226000  0.08372000  0.02921000  1.0 0.0606738955
H  H316  1  0.29713000  0.84778000  0.98647000  1.0 0.0708026447
H  H317  1  0.35125000  0.92554000  0.08746000  1.0 0.0708026447
H  H318  1  0.36048000  0.86703000  0.10376000  1.0 0.0501852471
H  H319  1  0.40683000  0.90280000  0.08621000  1.0 0.0299795178
H  H320  1  0.38489000  0.81236000  0.06948000  1.0 0.0606738955
H  H321  1  0.31428000  0.73436000  0.96106000  1.0 0.0606738955
H  H322  1  0.39614000  0.84293000  0.03213000  1.0 0.0027793996
H  H323  1  0.89165000  0.02262000  0.45691000  1.0 0.0708026447
H  H324  1  0.99887000  0.09694000  0.55142000  1.0 0.0800422187
H  H325  1  0.87215000  0.04558000  0.51369000  1.0 0.0800422187
H  H326  1  0.96635000  0.09943000  0.60526000  1.0 0.0894675317
H  H327  1  0.07063000  0.20991000  0.67697000  1.0 0.0401834838
H  H328  1  0.06312000  0.23026000  0.62821000  1.0 0.0800422187
H  H329  1  0.67300000  0.59400000  0.24970000  1.0 0.0894675317
H  H330  1  0.67400000  0.59670000  0.17640000  1.0 0.0894675317
H  H331  1  0.86820000  0.82870000  0.44710000  1.0 0.0894675317
H  H332  1  0.87230000  0.83900000  0.37990000  1.0 0.1209505479
H  H333  1  0.09860000  0.96190000  0.82630000  1.0 0.1209505479
H  H334  1  0.18850000  0.08390000  0.78690000  1.0 0.1272696047
H  H335  1  0.95320000  0.83760000  0.68050000  1.0 0.0894675317
H  H336  1  0.91290000  0.98130000  0.41540000  1.0 0.1209505479
H  H337  1  0.86210000  0.03710000  0.66750000  1.0 0.1501058754
H  H338  1  0.96190000  0.06910000  0.71000000  1.0 0.0994788307
H  H339  1  0.72060000  0.81280000  0.52450000  1.0 0.1418137984
H  H340  1  0.82310000  0.84670000  0.56150000  1.0 0.0994788307
H  H341  1  0.94292000  0.92298000  0.17198000  1.0 0.0708026447
H  H342  1  0.97261000  0.00501000  0.24603000  1.0 0.0708026447
H  H343  1  0.01127000  0.05329000  0.21246000  1.0 0.1272696047
H  H344  1  0.07026000  0.06468000  0.28280000  1.0 0.0401834838
H  H345  1  0.02969000  0.93837000  0.17728000  1.0 0.0401834838
H  H346  1  0.10833000  0.03828000  0.23002000  1.0 0.0708026447
H  H347  1  0.08372000  0.02921000  0.27226000  1.0 0.0501852471
H  H348  1  0.84778000  0.98647000  0.29713000  1.0 0.0708026447
H  H349  1  0.92554000  0.08746000  0.35125000  1.0 0.0708026447
H  H350  1  0.86703000  0.10376000  0.36048000  1.0 0.0501852471
H  H351  1  0.90280000  0.08621000  0.40683000  1.0 0.0211229225
H  H352  1  0.81236000  0.06948000  0.38489000  1.0 0.0606738955
H  H353  1  0.73436000  0.96106000  0.31428000  1.0 0.0606738955
H  H354  1  0.84293000  0.03213000  0.39614000  1.0 -0.0097930043
H  H355  1  0.02262000  0.45691000  0.89165000  1.0 0.0708026447
H  H356  1  0.09694000  0.55142000  0.99887000  1.0 0.0800422187
H  H357  1  0.04558000  0.51369000  0.87215000  1.0 0.0800422187
H  H358  1  0.09943000  0.60526000  0.96635000  1.0 0.0800422187
H  H359  1  0.20991000  0.67697000  0.07063000  1.0 0.0401834838
H  H360  1  0.23026000  0.62821000  0.06312000  1.0 0.0800422187
H  H361  1  0.59400000  0.24970000  0.67300000  1.0 0.0894675317
H  H362  1  0.59670000  0.17640000  0.67400000  1.0 0.0894675317
H  H363  1  0.82870000  0.44710000  0.86820000  1.0 0.0994788307
H  H364  1  0.83900000  0.37990000  0.87230000  1.0 0.1108992078
H  H365  1  0.96190000  0.82630000  0.09860000  1.0 0.0800422187
H  H366  1  0.08390000  0.78690000  0.18850000  1.0 0.1209505479
H  H367  1  0.98130000  0.41540000  0.91290000  1.0 0.1209505479
H  H368  1  0.03710000  0.66750000  0.86210000  1.0 0.1418137984
H  H369  1  0.06910000  0.71000000  0.96190000  1.0 0.0994788307
H  H370  1  0.81280000  0.52450000  0.72060000  1.0 0.1418137984
H  H371  1  0.84670000  0.56150000  0.82310000  1.0 0.0994788307
H  H372  1  0.75280000  0.48993000  0.90907000  1.0 0.0708026447
H  H373  1  0.92298000  0.17198000  0.94292000  1.0 0.0606738955
H  H374  1  0.00501000  0.24603000  0.97261000  1.0 0.0894675317
H  H375  1  0.05329000  0.21246000  0.01127000  1.0 0.1108992078
H  H376  1  0.06468000  0.28280000  0.07026000  1.0 0.0401834838
H  H377  1  0.93837000  0.17728000  0.02969000  1.0 0.0708026447
H  H378  1  0.03828000  0.23002000  0.10833000  1.0 0.0800422187
H  H379  1  0.02921000  0.27226000  0.08372000  1.0 0.0606738955
H  H380  1  0.98647000  0.29713000  0.84778000  1.0 0.0708026447
H  H381  1  0.08746000  0.35125000  0.92554000  1.0 0.0708026447
H  H382  1  0.10376000  0.36048000  0.86703000  1.0 0.0606738955
H  H383  1  0.08621000  0.40683000  0.90280000  1.0 0.0299795178
H  H384  1  0.06948000  0.38489000  0.81236000  1.0 0.0606738955
H  H385  1  0.96106000  0.31428000  0.73436000  1.0 0.0606738955
H  H386  1  0.03213000  0.39614000  0.84293000  1.0 -0.0097930043
H  H387  1  0.45691000  0.89165000  0.02262000  1.0 0.0708026447
H  H388  1  0.55142000  0.99887000  0.09694000  1.0 0.0800422187
H  H389  1  0.51369000  0.87215000  0.04558000  1.0 0.0800422187
H  H390  1  0.60526000  0.96635000  0.09943000  1.0 0.0800422187
H  H391  1  0.67697000  0.07063000  0.20991000  1.0 0.0401834838
H  H392  1  0.62821000  0.06312000  0.23026000  1.0 0.0800422187
H  H393  1  0.93040000  0.83250000  0.54874000  1.0 0.0800422187
H  H394  1  0.84878000  0.75183000  0.43785000  1.0 0.0708026447
H  H395  1  0.92625000  0.79222000  0.44437000  1.0 0.0501852471
H  H396  1  0.72645000  0.62283000  0.49042000  1.0 0.0501852471
H  H397  1  0.82625000  0.73333000  0.58251000  1.0 0.0708026447
H  H398  1  0.84400000  0.68786000  0.62914000  1.0 0.0800422187
H  H399  1  0.73461000  0.61385000  0.55032000  1.0 0.0401834838
H  H400  1  0.85278000  0.76693000  0.61706000  1.0 0.0708026447
H  H401  1  0.91947000  0.80811000  0.71167000  1.0 0.0606738955
H  H402  1  0.86695000  0.82439000  0.69128000  1.0 0.0606738955
H  H403  1  0.78716000  0.69823000  0.93588000  1.0 0.0606738955
H  H404  1  0.88222000  0.76157000  0.95894000  1.0 0.0501852471
H  H405  1  0.75313000  0.99471000  0.83956000  1.0 0.0708026447
H  H406  1  0.12710000  0.29586000  0.07602000  1.0 0.0708026447
H  H407  1  0.13544000  0.35681000  0.07277000  1.0 0.0994788307
H  H408  1  0.12097000  0.18429000  0.33490000  1.0 0.0606738955
H  H409  1  0.10365000  0.23298000  0.33110000  1.0 0.0501852471
H  H410  1  0.12369000  0.23898000  0.31275000  1.0 0.0501852471
H  H411  1  0.04382000  0.18020000  0.20947000  1.0 0.0708026447
H  H412  1  0.13052000  0.20902000  0.25221000  1.0 0.0800422187
H  H413  1  0.32866000  0.11654000  0.21521000  1.0 0.0708026447
H  H414  1  0.35964000  0.12381000  0.17729000  1.0 0.0401834838
H  H415  1  0.24312000  0.01377000  0.05814000  1.0 0.0708026447
H  H416  1  0.26552000  0.09629000  0.07896000  1.0 0.0708026447
H  H417  1  0.34703000  0.15413000  0.18134000  1.0 0.0606738955
H  H418  1  0.28733000  0.16233000  0.15718000  1.0 0.0894675317
H  H419  1  0.22208000  0.43309000  0.95117000  1.0 0.0501852471
H  H420  1  0.27206000  0.42121000  0.93064000  1.0 0.0401834838
H  H421  1  0.35770000  0.50101000  0.96464000  1.0 0.0501852471
H  H422  1  0.95767000  0.28475000  0.38726000  1.0 0.0708026447
H  H423  1  0.98893000  0.33174000  0.47865000  1.0 0.0211229225
H  H424  1  0.40101000  0.92652000  0.19202000  1.0 0.0606738955
H  H425  1  0.46246000  0.98029000  0.29302000  1.0 0.0401834838
H  H426  1  0.01073000  0.90847000  0.10978000  1.0 0.0299795178
H  H427  1  0.86059000  0.74433000  0.03261000  1.0 0.1108992078
H  H428  1  0.95499000  0.80950000  0.05702000  1.0 0.0606738955
H  H429  1  0.93695000  0.85946000  0.01120000  1.0 0.0606738955
H  H430  1  0.95789000  0.92439000  0.08907000  1.0 0.1653235447
H  H431  1  0.31363000  0.51279000  0.06143000  1.0 0.0708026447
H  H432  1  0.35330000  0.47326000  0.02929000  1.0 0.0501852471
H  H433  1  0.43246000  0.55051000  0.06335000  1.0 0.0401834838
H  H434  1  0.75935000  0.04620000  0.94581000  1.0 0.0800422187
H  H435  1  0.71982000  0.04281000  0.87713000  1.0 0.0994788307
H  H436  1  0.81691000  0.03998000  0.93683000  1.0 0.0299795178
H  H437  1  0.83277000  0.07003000  0.87347000  1.0 0.0708026447
H  H438  1  0.90562000  0.11879000  0.97205000  1.0 0.0994788307
H  H439  1  0.91134000  0.17886000  0.96868000  1.0 0.0606738955
H  H440  1  0.55173000  0.06122000  0.33084000  1.0 0.0401834838
H  H441  1  0.50902000  0.08759000  0.31507000  1.0 0.0606738955
H  H442  1  0.55320000  0.12609000  0.31327000  1.0 0.0501852471
H  H443  1  0.55120000  0.08238000  0.24682000  1.0 0.0501852471
H  H444  1  0.01037000  0.84992000  0.54590000  1.0 0.0299795178
H  H445  1  0.00237000  0.89322000  0.49334000  1.0 0.0299795178
H  H446  1  0.07746000  0.94337000  0.59239000  1.0 0.0299795178
H  H447  1  0.04783000  0.98153000  0.58158000  1.0 0.0894675317
H  H448  1  0.05921000  0.34226000  0.44541000  1.0 0.0606738955
H  H449  1  0.09159000  0.41123000  0.53619000  1.0 0.0211229225
H  H450  1  0.07050000  0.29666000  0.47080000  1.0 0.1560357552
H  H451  1  0.12641000  0.34192000  0.56750000  1.0 0.0708026447
H  H452  1  0.98246000  0.12009000  0.21001000  1.0 0.0606738955
H  H453  1  0.20574000  0.98402000  0.08431000  1.0 0.0606738955
H  H454  1  0.05511000  0.24432000  0.93927000  1.0 0.0994788307
H  H455  1  0.08275000  0.17766000  0.98137000  1.0 0.0894675317
H  H456  1  0.11029000  0.23842000  0.97453000  1.0 0.1108992078
C  C1  1  0.65174000  0.33966000  0.62940000  1.0 0.547591188
C  C2  1  0.21387000  0.77620000  0.14453000  1.0 0.0708026447
C  C3  1  0.27622000  0.77218000  0.22030000  1.0 0.0994788307
C  C4  1  0.42304000  0.08687000  0.34589000  1.0 0.5600993794
C  C5  1  0.42133000  0.08350000  0.29607000  1.0 -0.1585396934
C  C6  1  0.65063000  0.32654000  0.57703000  1.0 -0.1117147162
C  C7  1  0.28267000  0.09881000  0.42332000  1.0 0.0894675317
C  C8  1  0.21433000  0.73195000  0.14542000  1.0 -0.2406093196
C  C9  1  0.32693000  0.89092000  0.28095000  1.0 0.0708026447
C  C10  1  0.33081000  0.85138000  0.28721000  1.0 -0.2308564997
C  C11  1  0.49520000  0.08790000  0.50130000  1.0 0.4513660214
C  C12  1  0.63760000  0.29080000  0.46770000  1.0 -0.0698770348
C  C13  1  0.61860000  0.31900000  0.48700000  1.0 -0.2581945348
C  C14  1  0.62740000  0.33810000  0.54190000  1.0 0.1209505479
C  C15  1  0.67170000  0.29710000  0.56110000  1.0 -0.2406093196
C  C16  1  0.62530000  0.27370000  0.40350000  1.0 0.4201086384
C  C17  1  0.66560000  0.28410000  0.50850000  1.0 0.0708026447
C  C18  1  0.42520000  0.12950000  0.29510000  1.0 -0.3780773837
C  C19  1  0.41260000  0.03350000  0.24770000  1.0 0.0211229225
C  C20  1  0.50560000  0.04840000  0.50370000  1.0 -0.1117147162
C  C21  1  0.45940000  0.00580000  0.49770000  1.0 0.0800422187
C  C22  1  0.44960000  0.94970000  0.49010000  1.0 -0.2308564997
C  C23  1  0.35390000  0.14810000  0.49690000  1.0 -0.2213763926
C  C24  1  0.41130000  0.16970000  0.51450000  1.0 0.0501852471
C  C25  1  0.27130000  0.06430000  0.36720000  1.0 -0.2106057343
C  C26  1  0.33230000  0.08590000  0.38750000  1.0 0.0098527133
C  C27  1  0.45829000  0.69471000  0.47427000  1.0 0.0501852471
C  C28  1  0.51283000  0.71729000  0.51984000  1.0 0.0401834838
C  C29  1  0.55800000  0.71445000  0.49817000  1.0 -0.0386828622
C  C30  1  0.36169000  0.81274000  0.53511000  1.0 0.0606738955
C  C31  1  0.35620000  0.84760000  0.55739000  1.0 0.0501852471
C  C32  1  0.29572000  0.85114000  0.51670000  1.0 -0.0312775346
C  C33  1  0.55223000  0.43605000  0.01716000  1.0 0.0401834838
C  C34  1  0.58523000  0.43659000  0.05399000  1.0 0.0606738955
C  C35  1  0.68113000  0.53377000  0.11697000  1.0 -0.0698770348
C  C36  1  0.62940000  0.65174000  0.33966000  1.0 0.540644933
C  C37  1  0.14453000  0.21387000  0.77620000  1.0 0.0708026447
C  C38  1  0.22030000  0.27622000  0.77218000  1.0 0.0994788307
C  C39  1  0.34589000  0.42304000  0.08687000  1.0 0.5600993794
C  C40  1  0.29607000  0.42133000  0.08350000  1.0 -0.1383674344
C  C41  1  0.57703000  0.65063000  0.32654000  1.0 -0.1117147162
C  C42  1  0.42332000  0.28267000  0.09881000  1.0 0.0894675317
C  C43  1  0.14542000  0.21433000  0.73195000  1.0 -0.2406093196
C  C44  1  0.28095000  0.32693000  0.89092000  1.0 0.0606738955
C  C45  1  0.28721000  0.33081000  0.85138000  1.0 -0.2308564997
C  C46  1  0.50130000  0.49520000  0.08790000  1.0 0.4513660214
C  C47  1  0.46770000  0.63760000  0.29080000  1.0 -0.0698770348
C  C48  1  0.48700000  0.61860000  0.31900000  1.0 -0.2581945348
C  C49  1  0.54190000  0.62740000  0.33810000  1.0 0.1272696047
C  C50  1  0.56110000  0.67170000  0.29710000  1.0 -0.2491076982
C  C51  1  0.40350000  0.62530000  0.27370000  1.0 0.438214187
C  C52  1  0.50850000  0.66560000  0.28410000  1.0 0.0894675317
C  C53  1  0.29510000  0.42520000  0.12950000  1.0 -0.3295449722
C  C54  1  0.24770000  0.41260000  0.03350000  1.0 0.0501852471
C  C55  1  0.50370000  0.50560000  0.04840000  1.0 -0.119003627
C  C56  1  0.49770000  0.45940000  0.00580000  1.0 0.0894675317
C  C57  1  0.49010000  0.44960000  0.94970000  1.0 -0.2308564997
C  C58  1  0.49690000  0.35390000  0.14810000  1.0 -0.2213763926
C  C59  1  0.51450000  0.41130000  0.16970000  1.0 0.0501852471
C  C60  1  0.36720000  0.27130000  0.06430000  1.0 -0.2106057343
C  C61  1  0.38750000  0.33230000  0.08590000  1.0 0.0098527133
C  C62  1  0.47427000  0.45829000  0.69471000  1.0 0.0501852471
C  C63  1  0.51984000  0.51283000  0.71729000  1.0 0.0401834838
C  C64  1  0.49817000  0.55800000  0.71445000  1.0 -0.0386828622
C  C65  1  0.53511000  0.36169000  0.81274000  1.0 0.0501852471
C  C66  1  0.55739000  0.35620000  0.84760000  1.0 0.0501852471
C  C67  1  0.51670000  0.29572000  0.85114000  1.0 -0.0312775346
C  C68  1  0.01716000  0.55223000  0.43605000  1.0 0.0401834838
C  C69  1  0.05399000  0.58523000  0.43659000  1.0 0.0606738955
C  C70  1  0.11697000  0.68113000  0.53377000  1.0 -0.0698770348
C  C71  1  0.33966000  0.62940000  0.65174000  1.0 0.540644933
C  C72  1  0.77620000  0.14453000  0.21387000  1.0 0.0708026447
C  C73  1  0.77218000  0.22030000  0.27622000  1.0 0.0994788307
C  C74  1  0.08687000  0.34589000  0.42304000  1.0 0.3360342723
C  C75  1  0.08350000  0.29607000  0.42133000  1.0 -0.1694160807
C  C76  1  0.32654000  0.57703000  0.65063000  1.0 -0.1117147162
C  C77  1  0.09881000  0.42332000  0.28267000  1.0 0.0894675317
C  C78  1  0.73195000  0.14542000  0.21433000  1.0 -0.2308564997
C  C79  1  0.89092000  0.28095000  0.32693000  1.0 0.0501852471
C  C80  1  0.85138000  0.28721000  0.33081000  1.0 -0.2213763926
C  C81  1  0.08790000  0.50130000  0.49520000  1.0 0.4513660214
C  C82  1  0.29080000  0.46770000  0.63760000  1.0 -0.0698770348
C  C83  1  0.31900000  0.48700000  0.61860000  1.0 -0.2581945348
C  C84  1  0.33810000  0.54190000  0.62740000  1.0 0.1209505479
C  C85  1  0.29710000  0.56110000  0.67170000  1.0 -0.2491076982
C  C86  1  0.27370000  0.40350000  0.62530000  1.0 0.4201086384
C  C87  1  0.28410000  0.50850000  0.66560000  1.0 0.0401834838
C  C88  1  0.12950000  0.29510000  0.42520000  1.0 -0.3922849256
C  C89  1  0.03350000  0.24770000  0.41260000  1.0 -0.0312775346
C  C90  1  0.04840000  0.50370000  0.50560000  1.0 -0.119003627
C  C91  1  0.00580000  0.49770000  0.45940000  1.0 0.0800422187
C  C92  1  0.94970000  0.49010000  0.44960000  1.0 -0.2308564997
C  C93  1  0.14810000  0.49690000  0.35390000  1.0 -0.2213763926
C  C94  1  0.16970000  0.51450000  0.41130000  1.0 0.0501852471
C  C95  1  0.06430000  0.36720000  0.27130000  1.0 -0.2106057343
C  C96  1  0.08590000  0.38750000  0.33230000  1.0 0.0027793996
C  C97  1  0.69471000  0.47427000  0.45829000  1.0 0.0501852471
C  C98  1  0.71729000  0.51984000  0.51283000  1.0 0.0501852471
C  C99  1  0.71445000  0.49817000  0.55800000  1.0 -0.0386828622
C  C100  1  0.81274000  0.53511000  0.36169000  1.0 0.0606738955
C  C101  1  0.84760000  0.55739000  0.35620000  1.0 0.0606738955
C  C102  1  0.85114000  0.51670000  0.29572000  1.0 -0.0312775346
C  C103  1  0.43605000  0.01716000  0.55223000  1.0 0.0401834838
C  C104  1  0.43659000  0.05399000  0.58523000  1.0 0.0606738955
C  C105  1  0.53377000  0.11697000  0.68113000  1.0 -0.0698770348
C  C106  1  0.16034000  0.84826000  0.87060000  1.0 0.547591188
C  C107  1  0.72380000  0.28613000  0.35547000  1.0 0.0708026447
C  C108  1  0.72782000  0.22378000  0.27970000  1.0 0.0994788307
C  C109  1  0.41313000  0.07696000  0.15411000  1.0 0.438214187
C  C110  1  0.41650000  0.07867000  0.20393000  1.0 -0.2581945348
C  C111  1  0.17346000  0.84937000  0.92297000  1.0 -0.1117147162
C  C112  1  0.40119000  0.21733000  0.07668000  1.0 0.0894675317
C  C113  1  0.76805000  0.28567000  0.35458000  1.0 -0.2406093196
C  C114  1  0.60908000  0.17307000  0.21905000  1.0 0.0606738955
C  C115  1  0.64862000  0.16919000  0.21279000  1.0 -0.2213763926
C  C116  1  0.41210000  0.00480000  0.99870000  1.0 0.4573867884
C  C117  1  0.20920000  0.86240000  0.03230000  1.0 -0.0795620666
C  C118  1  0.18100000  0.88140000  0.01300000  1.0 -0.2903960206
C  C119  1  0.16190000  0.87260000  0.95810000  1.0 0.0894675317
C  C120  1  0.20290000  0.82830000  0.93890000  1.0 -0.2213763926
C  C121  1  0.22630000  0.87470000  0.09650000  1.0 0.4201086384
C  C122  1  0.21590000  0.83440000  0.99150000  1.0 0.0800422187
C  C123  1  0.37050000  0.07480000  0.20490000  1.0 0.2473850441
C  C124  1  0.46650000  0.08740000  0.25230000  1.0 -0.2406093196
C  C125  1  0.45160000  0.99440000  0.99630000  1.0 -0.1117147162
C  C126  1  0.49420000  0.04060000  0.00230000  1.0 0.0894675317
C  C127  1  0.55030000  0.05040000  0.00990000  1.0 -0.2308564997
C  C128  1  0.35190000  0.14610000  0.00310000  1.0 -0.2213763926
C  C129  1  0.33030000  0.08870000  0.98550000  1.0 0.0401834838
C  C130  1  0.43570000  0.22870000  0.13280000  1.0 -0.2106057343
C  C131  1  0.41410000  0.16770000  0.11250000  1.0 -0.0312775346
C  C132  1  0.80529000  0.04171000  0.02573000  1.0 0.0299795178
C  C133  1  0.78271000  0.98717000  0.98016000  1.0 0.0606738955
C  C134  1  0.78555000  0.94200000  0.00183000  1.0 -0.0386828622
C  C135  1  0.68726000  0.13831000  0.96489000  1.0 0.0606738955
C  C136  1  0.65240000  0.14380000  0.94261000  1.0 0.0606738955
C  C137  1  0.64886000  0.20428000  0.98330000  1.0 -0.0312775346
C  C138  1  0.06395000  0.94777000  0.48284000  1.0 0.0299795178
C  C139  1  0.06341000  0.91477000  0.44601000  1.0 0.0708026447
C  C140  1  0.96623000  0.81887000  0.38303000  1.0 -0.0583537921
C  C141  1  0.84826000  0.87060000  0.16034000  1.0 0.540644933
C  C142  1  0.28613000  0.35547000  0.72380000  1.0 0.0800422187
C  C143  1  0.22378000  0.27970000  0.72782000  1.0 0.0994788307
C  C144  1  0.07696000  0.15411000  0.41313000  1.0 0.5600993794
C  C145  1  0.07867000  0.20393000  0.41650000  1.0 -0.2034658823
C  C146  1  0.84937000  0.92297000  0.17346000  1.0 -0.1117147162
C  C147  1  0.21733000  0.07668000  0.40119000  1.0 0.0894675317
C  C148  1  0.28567000  0.35458000  0.76805000  1.0 -0.2491076982
C  C149  1  0.17307000  0.21905000  0.60908000  1.0 0.0708026447
C  C150  1  0.16919000  0.21279000  0.64862000  1.0 -0.2213763926
C  C151  1  0.00480000  0.99870000  0.41210000  1.0 0.4513660214
C  C152  1  0.86240000  0.03230000  0.20920000  1.0 -0.0698770348
C  C153  1  0.88140000  0.01300000  0.18100000  1.0 -0.2780862886
C  C154  1  0.87260000  0.95810000  0.16190000  1.0 0.1209505479
C  C155  1  0.82830000  0.93890000  0.20290000  1.0 -0.2406093196
C  C156  1  0.87470000  0.09650000  0.22630000  1.0 0.4201086384
C  C157  1  0.83440000  0.99150000  0.21590000  1.0 0.0994788307
C  C158  1  0.07480000  0.20490000  0.37050000  1.0 0.2473850441
C  C159  1  0.08740000  0.25230000  0.46650000  1.0 -0.3115260143
C  C160  1  0.99440000  0.99630000  0.45160000  1.0 -0.119003627
C  C161  1  0.04060000  0.00230000  0.49420000  1.0 0.0894675317
C  C162  1  0.05040000  0.00990000  0.55030000  1.0 -0.2491076982
C  C163  1  0.14610000  0.00310000  0.35190000  1.0 -0.2213763926
C  C164  1  0.08870000  0.98550000  0.33030000  1.0 0.0401834838
C  C165  1  0.22870000  0.13280000  0.43570000  1.0 -0.2106057343
C  C166  1  0.16770000  0.11250000  0.41410000  1.0 0.0027793996
C  C167  1  0.04171000  0.02573000  0.80529000  1.0 0.0401834838
C  C168  1  0.98717000  0.98016000  0.78271000  1.0 0.0501852471
C  C169  1  0.94200000  0.00183000  0.78555000  1.0 -0.0483324127
C  C170  1  0.13831000  0.96489000  0.68726000  1.0 0.0501852471
C  C171  1  0.14380000  0.94261000  0.65240000  1.0 0.0606738955
C  C172  1  0.20428000  0.98330000  0.64886000  1.0 -0.0483324127
C  C173  1  0.94777000  0.48284000  0.06395000  1.0 0.0401834838
C  C174  1  0.91477000  0.44601000  0.06341000  1.0 0.0606738955
C  C175  1  0.81887000  0.38303000  0.96623000  1.0 -0.0386828622
C  C176  1  0.87060000  0.16034000  0.84826000  1.0 0.4724709731
C  C177  1  0.35547000  0.72380000  0.28613000  1.0 0.0800422187
C  C178  1  0.27970000  0.72782000  0.22378000  1.0 0.0994788307
C  C179  1  0.15411000  0.41313000  0.07696000  1.0 0.3460857313
C  C180  1  0.20393000  0.41650000  0.07867000  1.0 -0.2308564997
C  C181  1  0.92297000  0.17346000  0.84937000  1.0 -0.1585396934
C  C182  1  0.07668000  0.40119000  0.21733000  1.0 0.0894675317
C  C183  1  0.35458000  0.76805000  0.28567000  1.0 -0.2406093196
C  C184  1  0.21905000  0.60908000  0.17307000  1.0 0.0708026447
C  C185  1  0.21279000  0.64862000  0.16919000  1.0 -0.2308564997
C  C186  1  0.99870000  0.41210000  0.00480000  1.0 0.4573867884
C  C187  1  0.03230000  0.20920000  0.86240000  1.0 -0.1798553872
C  C188  1  0.01300000  0.18100000  0.88140000  1.0 -0.1694160807
C  C189  1  0.95810000  0.16190000  0.87260000  1.0 0.0606738955
C  C190  1  0.93890000  0.20290000  0.82830000  1.0 -0.2659966507
C  C191  1  0.09650000  0.22630000  0.87470000  1.0 0.3600616496
C  C192  1  0.99150000  0.21590000  0.83440000  1.0 0.0211229225
C  C193  1  0.20490000  0.37050000  0.07480000  1.0 0.2070849728
C  C194  1  0.25230000  0.46650000  0.08740000  1.0 -0.3590202402
C  C195  1  0.99630000  0.45160000  0.99440000  1.0 -0.1117147162
C  C196  1  0.00230000  0.49420000  0.04060000  1.0 0.0894675317
C  C197  1  0.00990000  0.55030000  0.05040000  1.0 -0.2308564997
C  C198  1  0.00310000  0.35190000  0.14610000  1.0 -0.2213763926
C  C199  1  0.98550000  0.33030000  0.08870000  1.0 0.0299795178
C  C200  1  0.13280000  0.43570000  0.22870000  1.0 -0.2034658823
C  C201  1  0.11250000  0.41410000  0.16770000  1.0 -0.0097930043
C  C202  1  0.02573000  0.80529000  0.04171000  1.0 0.0401834838
C  C203  1  0.98016000  0.78271000  0.98717000  1.0 0.0501852471
C  C204  1  0.00183000  0.78555000  0.94200000  1.0 -0.0483324127
C  C205  1  0.96489000  0.68726000  0.13831000  1.0 0.0501852471
C  C206  1  0.94261000  0.65240000  0.14380000  1.0 0.0606738955
C  C207  1  0.98330000  0.64886000  0.20428000  1.0 -0.0312775346
C  C208  1  0.48284000  0.06395000  0.94777000  1.0 0.0401834838
C  C209  1  0.44601000  0.06341000  0.91477000  1.0 0.0606738955
C  C210  1  0.38303000  0.96623000  0.81887000  1.0 -0.0386828622
C  C211  1  0.34826000  0.66034000  0.37060000  1.0 0.547591188
C  C212  1  0.78613000  0.22380000  0.85547000  1.0 0.0800422187
C  C213  1  0.72378000  0.22782000  0.77970000  1.0 0.0994788307
C  C214  1  0.57696000  0.91313000  0.65411000  1.0 0.5600993794
C  C215  1  0.57867000  0.91650000  0.70393000  1.0 -0.0583537921
C  C216  1  0.34937000  0.67346000  0.42297000  1.0 -0.1117147162
C  C217  1  0.71733000  0.90119000  0.57668000  1.0 0.0894675317
C  C218  1  0.78567000  0.26805000  0.85458000  1.0 -0.2406093196
C  C219  1  0.67307000  0.10908000  0.71905000  1.0 0.0800422187
C  C220  1  0.66919000  0.14862000  0.71279000  1.0 -0.2308564997
C  C221  1  0.50480000  0.91210000  0.49870000  1.0 0.4513660214
C  C222  1  0.36240000  0.70920000  0.53230000  1.0 -0.0698770348
C  C223  1  0.38140000  0.68100000  0.51300000  1.0 -0.2659966507
C  C224  1  0.37260000  0.66190000  0.45810000  1.0 0.1272696047
C  C225  1  0.32830000  0.70290000  0.43890000  1.0 -0.2491076982
C  C226  1  0.37470000  0.72630000  0.59650000  1.0 0.4513660214
C  C227  1  0.33440000  0.71590000  0.49150000  1.0 0.0894675317
C  C228  1  0.57480000  0.87050000  0.70490000  1.0 -0.3517095331
C  C229  1  0.58740000  0.96650000  0.75230000  1.0 -0.3295449722
C  C230  1  0.49440000  0.95160000  0.49630000  1.0 -0.1117147162
C  C231  1  0.54060000  0.99420000  0.50230000  1.0 0.0800422187
C  C232  1  0.55040000  0.05030000  0.50990000  1.0 -0.2406093196
C  C233  1  0.64610000  0.85190000  0.50310000  1.0 -0.2213763926
C  C234  1  0.58870000  0.83030000  0.48550000  1.0 0.0501852471
C  C235  1  0.72870000  0.93570000  0.63280000  1.0 -0.2106057343
C  C236  1  0.66770000  0.91410000  0.61250000  1.0 0.0098527133
C  C237  1  0.54171000  0.30529000  0.52573000  1.0 0.0501852471
C  C238  1  0.48717000  0.28271000  0.48016000  1.0 0.0401834838
C  C239  1  0.44200000  0.28555000  0.50183000  1.0 -0.0386828622
C  C240  1  0.63831000  0.18726000  0.46489000  1.0 0.0501852471
C  C241  1  0.64380000  0.15240000  0.44261000  1.0 0.0501852471
C  C242  1  0.70428000  0.14886000  0.48330000  1.0 -0.0386828622
C  C243  1  0.44777000  0.56395000  0.98284000  1.0 0.0211229225
C  C244  1  0.41477000  0.56341000  0.94601000  1.0 0.0606738955
C  C245  1  0.31887000  0.46623000  0.88303000  1.0 -0.0698770348
C  C246  1  0.37060000  0.34826000  0.66034000  1.0 0.547591188
C  C247  1  0.85547000  0.78613000  0.22380000  1.0 0.0708026447
C  C248  1  0.77970000  0.72378000  0.22782000  1.0 0.0994788307
C  C249  1  0.65411000  0.57696000  0.91313000  1.0 0.5600993794
C  C250  1  0.70393000  0.57867000  0.91650000  1.0 -0.0583537921
C  C251  1  0.42297000  0.34937000  0.67346000  1.0 -0.1117147162
C  C252  1  0.57668000  0.71733000  0.90119000  1.0 0.0894675317
C  C253  1  0.85458000  0.78567000  0.26805000  1.0 -0.2406093196
C  C254  1  0.71905000  0.67307000  0.10908000  1.0 0.0708026447
C  C255  1  0.71279000  0.66919000  0.14862000  1.0 -0.2308564997
C  C256  1  0.49870000  0.50480000  0.91210000  1.0 0.4513660214
C  C257  1  0.53230000  0.36240000  0.70920000  1.0 -0.0698770348
C  C258  1  0.51300000  0.38140000  0.68100000  1.0 -0.2659966507
C  C259  1  0.45810000  0.37260000  0.66190000  1.0 0.1209505479
C  C260  1  0.43890000  0.32830000  0.70290000  1.0 -0.2491076982
C  C261  1  0.59650000  0.37470000  0.72630000  1.0 0.4513660214
C  C262  1  0.49150000  0.33440000  0.71590000  1.0 0.0894675317
C  C263  1  0.70490000  0.57480000  0.87050000  1.0 -0.3680933872
C  C264  1  0.75230000  0.58740000  0.96650000  1.0 -0.2903960206
C  C265  1  0.49630000  0.49440000  0.95160000  1.0 -0.119003627
C  C266  1  0.50230000  0.54060000  0.99420000  1.0 0.0800422187
C  C267  1  0.50990000  0.55040000  0.05030000  1.0 -0.2491076982
C  C268  1  0.50310000  0.64610000  0.85190000  1.0 -0.2213763926
C  C269  1  0.48550000  0.58870000  0.83030000  1.0 0.0501852471
C  C270  1  0.63280000  0.72870000  0.93570000  1.0 -0.2106057343
C  C271  1  0.61250000  0.66770000  0.91410000  1.0 0.0027793996
C  C272  1  0.52573000  0.54171000  0.30529000  1.0 0.0501852471
C  C273  1  0.48016000  0.48717000  0.28271000  1.0 0.0501852471
C  C274  1  0.50183000  0.44200000  0.28555000  1.0 -0.0386828622
C  C275  1  0.46489000  0.63831000  0.18726000  1.0 0.0606738955
C  C276  1  0.44261000  0.64380000  0.15240000  1.0 0.0299795178
C  C277  1  0.48330000  0.70428000  0.14886000  1.0 -0.0698770348
C  C278  1  0.98284000  0.44777000  0.56395000  1.0 0.0299795178
C  C279  1  0.94601000  0.41477000  0.56341000  1.0 0.0606738955
C  C280  1  0.88303000  0.31887000  0.46623000  1.0 -0.0698770348
C  C281  1  0.66034000  0.37060000  0.34826000  1.0 0.547591188
C  C282  1  0.22380000  0.85547000  0.78613000  1.0 0.0800422187
C  C283  1  0.22782000  0.77970000  0.72378000  1.0 0.0994788307
C  C284  1  0.91313000  0.65411000  0.57696000  1.0 0.5683069568
C  C285  1  0.91650000  0.70393000  0.57867000  1.0 -0.1947443891
C  C286  1  0.67346000  0.42297000  0.34937000  1.0 -0.119003627
C  C287  1  0.90119000  0.57668000  0.71733000  1.0 0.0894675317
C  C288  1  0.26805000  0.85458000  0.78567000  1.0 -0.2406093196
C  C289  1  0.10908000  0.71905000  0.67307000  1.0 0.0708026447
C  C290  1  0.14862000  0.71279000  0.66919000  1.0 -0.2308564997
C  C291  1  0.91210000  0.49870000  0.50480000  1.0 0.4513660214
C  C292  1  0.70920000  0.53230000  0.36240000  1.0 -0.0698770348
C  C293  1  0.68100000  0.51300000  0.38140000  1.0 -0.2780862886
C  C294  1  0.66190000  0.45810000  0.37260000  1.0 0.1209505479
C  C295  1  0.70290000  0.43890000  0.32830000  1.0 -0.2406093196
C  C296  1  0.72630000  0.59650000  0.37470000  1.0 0.4108784836
C  C297  1  0.71590000  0.49150000  0.33440000  1.0 0.0994788307
C  C298  1  0.87050000  0.70490000  0.57480000  1.0 0.2590087992
C  C299  1  0.96650000  0.75230000  0.58740000  1.0 -0.3388413621
C  C300  1  0.95160000  0.49630000  0.49440000  1.0 -0.1117147162
C  C301  1  0.99420000  0.50230000  0.54060000  1.0 0.0800422187
C  C302  1  0.05030000  0.50990000  0.55040000  1.0 -0.2491076982
C  C303  1  0.85190000  0.50310000  0.64610000  1.0 -0.2213763926
C  C304  1  0.83030000  0.48550000  0.58870000  1.0 0.0501852471
C  C305  1  0.93570000  0.63280000  0.72870000  1.0 -0.2106057343
C  C306  1  0.91410000  0.61250000  0.66770000  1.0 0.0027793996
C  C307  1  0.30529000  0.52573000  0.54171000  1.0 0.0501852471
C  C308  1  0.28271000  0.48016000  0.48717000  1.0 0.0401834838
C  C309  1  0.28555000  0.50183000  0.44200000  1.0 -0.0386828622
C  C310  1  0.18726000  0.46489000  0.63831000  1.0 0.0299795178
C  C311  1  0.15240000  0.44261000  0.64380000  1.0 0.0501852471
C  C312  1  0.14886000  0.48330000  0.70428000  1.0 -0.0483324127
C  C313  1  0.56395000  0.98284000  0.44777000  1.0 0.0299795178
C  C314  1  0.56341000  0.94601000  0.41477000  1.0 0.0606738955
C  C315  1  0.46623000  0.88303000  0.31887000  1.0 -0.0698770348
C  C316  1  0.83966000  0.15174000  0.12940000  1.0 0.547591188
C  C317  1  0.27620000  0.71387000  0.64453000  1.0 0.0800422187
C  C318  1  0.27218000  0.77622000  0.72030000  1.0 0.0994788307
C  C319  1  0.58687000  0.92304000  0.84589000  1.0 0.5683069568
C  C320  1  0.58350000  0.92133000  0.79607000  1.0 -0.2106057343
C  C321  1  0.82654000  0.15063000  0.07703000  1.0 -0.119003627
C  C322  1  0.59881000  0.78267000  0.92332000  1.0 0.0894675317
C  C323  1  0.23195000  0.71433000  0.64542000  1.0 -0.2406093196
C  C324  1  0.39092000  0.82693000  0.78095000  1.0 0.0708026447
C  C325  1  0.35138000  0.83081000  0.78721000  1.0 -0.2308564997
C  C326  1  0.58790000  0.99520000  0.00130000  1.0 0.4573867884
C  C327  1  0.79080000  0.13760000  0.96770000  1.0 -0.2406093196
C  C328  1  0.81900000  0.11860000  0.98700000  1.0 -0.0795620666
C  C329  1  0.83810000  0.12740000  0.04190000  1.0 -0.0386828622
C  C330  1  0.79710000  0.17170000  0.06110000  1.0 -0.2581945348
C  C331  1  0.77370000  0.12530000  0.90350000  1.0 0.2340901684
C  C332  1  0.78410000  0.16560000  0.00850000  1.0 0.0401834838
C  C333  1  0.62950000  0.92520000  0.79510000  1.0 0.2590087992
C  C334  1  0.53350000  0.91260000  0.74770000  1.0 -0.2213763926
C  C335  1  0.54840000  0.00560000  0.00370000  1.0 -0.1117147162
C  C336  1  0.50580000  0.95940000  0.99770000  1.0 0.0894675317
C  C337  1  0.44970000  0.94960000  0.99010000  1.0 -0.2406093196
C  C338  1  0.64810000  0.85390000  0.99690000  1.0 -0.2213763926
C  C339  1  0.66970000  0.91130000  0.01450000  1.0 0.0501852471
C  C340  1  0.56430000  0.77130000  0.86720000  1.0 -0.2106057343
C  C341  1  0.58590000  0.83230000  0.88750000  1.0 0.0098527133
C  C342  1  0.19471000  0.95829000  0.97427000  1.0 0.0401834838
C  C343  1  0.21729000  0.01283000  0.01984000  1.0 -0.0312775346
C  C344  1  0.21445000  0.05800000  0.99817000  1.0 -0.0386828622
C  C345  1  0.31274000  0.86169000  0.03511000  1.0 0.0501852471
C  C346  1  0.34760000  0.85620000  0.05739000  1.0 0.0501852471
C  C347  1  0.35114000  0.79572000  0.01670000  1.0 -0.0312775346
C  C348  1  0.93605000  0.05223000  0.51716000  1.0 0.0401834838
C  C349  1  0.93659000  0.08523000  0.55399000  1.0 0.0606738955
C  C350  1  0.03377000  0.18113000  0.61697000  1.0 -0.0386828622
C  C351  1  0.15174000  0.12940000  0.83966000  1.0 0.540644933
C  C352  1  0.71387000  0.64453000  0.27620000  1.0 0.0708026447
C  C353  1  0.77622000  0.72030000  0.27218000  1.0 0.0994788307
C  C354  1  0.92304000  0.84589000  0.58687000  1.0 0.3051865738
C  C355  1  0.92133000  0.79607000  0.58350000  1.0 -0.1798553872
C  C356  1  0.15063000  0.07703000  0.82654000  1.0 -0.119003627
C  C357  1  0.78267000  0.92332000  0.59881000  1.0 0.0894675317
C  C358  1  0.71433000  0.64542000  0.23195000  1.0 -0.2406093196
C  C359  1  0.82693000  0.78095000  0.39092000  1.0 0.0211229225
C  C360  1  0.83081000  0.78721000  0.35138000  1.0 -0.2213763926
C  C361  1  0.99520000  0.00130000  0.58790000  1.0 0.4290770632
C  C362  1  0.13760000  0.96770000  0.79080000  1.0 -0.0698770348
C  C363  1  0.11860000  0.98700000  0.81900000  1.0 -0.2406093196
C  C364  1  0.12740000  0.04190000  0.83810000  1.0 0.1272696047
C  C365  1  0.17170000  0.06110000  0.79710000  1.0 -0.2406093196
C  C366  1  0.12530000  0.90350000  0.77370000  1.0 0.4290770632
C  C367  1  0.16560000  0.00850000  0.78410000  1.0 0.0994788307
C  C368  1  0.92520000  0.79510000  0.62950000  1.0 -0.3295449722
C  C369  1  0.91260000  0.74770000  0.53350000  1.0 0.0211229225
C  C370  1  0.00560000  0.00370000  0.54840000  1.0 -0.1299721632
C  C371  1  0.95940000  0.99770000  0.50580000  1.0 0.0800422187
C  C372  1  0.94960000  0.99010000  0.44970000  1.0 -0.2308564997
C  C373  1  0.85390000  0.99690000  0.64810000  1.0 -0.2106057343
C  C374  1  0.91130000  0.01450000  0.66970000  1.0 0.0501852471
C  C375  1  0.77130000  0.86720000  0.56430000  1.0 -0.2106057343
C  C376  1  0.83230000  0.88750000  0.58590000  1.0 -0.0097930043
C  C377  1  0.95829000  0.97427000  0.19471000  1.0 0.0401834838
C  C378  1  0.01283000  0.01984000  0.21729000  1.0 0.0401834838
C  C379  1  0.05800000  0.99817000  0.21445000  1.0 -0.0483324127
C  C380  1  0.86169000  0.03511000  0.31274000  1.0 0.0501852471
C  C381  1  0.85620000  0.05739000  0.34760000  1.0 0.0501852471
C  C382  1  0.79572000  0.01670000  0.35114000  1.0 -0.0312775346
C  C383  1  0.05223000  0.51716000  0.93605000  1.0 0.0401834838
C  C384  1  0.08523000  0.55399000  0.93659000  1.0 0.0606738955
C  C385  1  0.18113000  0.61697000  0.03377000  1.0 -0.0386828622
C  C386  1  0.12940000  0.83966000  0.15174000  1.0 0.547591188
C  C387  1  0.64453000  0.27620000  0.71387000  1.0 0.0800422187
C  C388  1  0.72030000  0.27218000  0.77622000  1.0 0.0994788307
C  C389  1  0.84589000  0.58687000  0.92304000  1.0 0.5754873198
C  C390  1  0.79607000  0.58350000  0.92133000  1.0 -0.2034658823
C  C391  1  0.07703000  0.82654000  0.15063000  1.0 -0.119003627
C  C392  1  0.92332000  0.59881000  0.78267000  1.0 0.0894675317
C  C393  1  0.64542000  0.23195000  0.71433000  1.0 -0.2406093196
C  C394  1  0.78095000  0.39092000  0.82693000  1.0 0.0708026447
C  C395  1  0.78721000  0.35138000  0.83081000  1.0 -0.2213763926
C  C396  1  0.00130000  0.58790000  0.99520000  1.0 0.4573867884
C  C397  1  0.96770000  0.79080000  0.13760000  1.0 -0.1117147162
C  C398  1  0.98700000  0.81900000  0.11860000  1.0 -0.3199774582
C  C399  1  0.04190000  0.83810000  0.12740000  1.0 0.0708026447
C  C400  1  0.06110000  0.79710000  0.17170000  1.0 -0.2406093196
C  C401  1  0.90350000  0.77370000  0.12530000  1.0 0.4201086384
C  C402  1  0.00850000  0.78410000  0.16560000  1.0 0.0800422187
C  C403  1  0.79510000  0.62950000  0.92520000  1.0 0.2590087992
C  C404  1  0.74770000  0.53350000  0.91260000  1.0 -0.2034658823
C  C405  1  0.00370000  0.54840000  0.00560000  1.0 -0.1117147162
C  C406  1  0.99770000  0.50580000  0.95940000  1.0 0.0894675317
C  C407  1  0.99010000  0.44970000  0.94960000  1.0 -0.2308564997
C  C408  1  0.99690000  0.64810000  0.85390000  1.0 -0.2213763926
C  C409  1  0.01450000  0.66970000  0.91130000  1.0 0.0501852471
C  C410  1  0.86720000  0.56430000  0.77130000  1.0 -0.2106057343
C  C411  1  0.88750000  0.58590000  0.83230000  1.0 0.0027793996
C  C412  1  0.97427000  0.19471000  0.95829000  1.0 0.0098527133
C  C413  1  0.01984000  0.21729000  0.01283000  1.0 0.0211229225
C  C414  1  0.99817000  0.21445000  0.05800000  1.0 -0.1117147162
C  C415  1  0.03511000  0.31274000  0.86169000  1.0 0.0501852471
C  C416  1  0.05739000  0.34760000  0.85620000  1.0 0.0501852471
C  C417  1  0.01670000  0.35114000  0.79572000  1.0 -0.0312775346
C  C418  1  0.51716000  0.93605000  0.05223000  1.0 0.0401834838
C  C419  1  0.55399000  0.93659000  0.08523000  1.0 0.0606738955
C  C420  1  0.61697000  0.03377000  0.18113000  1.0 -0.0483324127
C  C421  1  0.91105000  0.79140000  0.49531000  1.0 0.0211229225
C  C422  1  0.95602000  0.82949000  0.50487000  1.0 0.0708026447
C  C423  1  0.79202000  0.67323000  0.55266000  1.0 0.0401834838
C  C424  1  0.79513000  0.67466000  0.59108000  1.0 0.0501852471
C  C425  1  0.86192000  0.78040000  0.66285000  1.0 -0.0795620666
C  C426  1  0.84536000  0.72563000  0.98241000  1.0 0.0299795178
C  C427  1  0.12052000  0.30505000  0.04330000  1.0 -0.0386828622
C  C428  1  0.07389000  0.17567000  0.30597000  1.0 0.0401834838
C  C429  1  0.02489000  0.12339000  0.23803000  1.0 0.0708026447
C  C430  1  0.08769000  0.18992000  0.24953000  1.0 -0.0583537921
C  C431  1  0.31477000  0.08077000  0.16496000  1.0 0.0401834838
C  C432  1  0.25115000  0.03685000  0.10501000  1.0 -0.024131076
C  C433  1  0.28492000  0.12006000  0.13239000  1.0 -0.1383674344
C  C434  1  0.27529000  0.45600000  0.99965000  1.0 0.0401834838
C  C435  1  0.31328000  0.47031000  0.99633000  1.0 0.0606738955
C  C436  1  0.44218000  0.98374000  0.25553000  1.0 0.0401834838
C  C437  1  0.89630000  0.78067000  0.00873000  1.0 0.0501852471
C  C438  1  0.95172000  0.87921000  0.06149000  1.0 -0.0483324127
C  C439  1  0.39405000  0.54776000  0.02835000  1.0 -0.1004566516
C  C440  1  0.73534000  0.01988000  0.88980000  1.0 0.0501852471
C  C441  1  0.78318000  0.03910000  0.90008000  1.0 -0.0097930043
C  C442  1  0.86898000  0.11728000  0.93706000  1.0 -0.2106057343
C  C443  1  0.49709000  0.03806000  0.28435000  1.0 0.0501852471
C  C444  1  0.51327000  0.06981000  0.25008000  1.0 -0.0097930043
C  C445  1  0.02568000  0.92536000  0.55019000  1.0 -0.0698770348
C  C446  1  0.01064000  0.30586000  0.43316000  1.0 -0.0097930043
C  C447  1  0.03633000  0.34507000  0.49155000  1.0 0.0501852471
C  C448  1  0.09994000  0.34397000  0.53027000  1.0 -0.1299721632
C  C449  1  0.05601000  0.24766000  0.97753000  1.0 0.0299795178
C  C450  1  0.05870000  0.18425000  0.94856000  1.0 -0.1383674344
N  N1  1  0.26813000  0.85361000  0.21116000  1.0 -0.2406093196
N  N2  1  0.40518000  0.14098000  0.46384000  1.0 -0.2780862886
N  N3  1  0.21116000  0.26813000  0.85361000  1.0 -0.2491076982
N  N4  1  0.46384000  0.40518000  0.14098000  1.0 -0.2780862886
N  N5  1  0.85361000  0.21116000  0.26813000  1.0 -0.2491076982
N  N6  1  0.14098000  0.46384000  0.40518000  1.0 -0.2780862886
N  N7  1  0.64639000  0.23187000  0.28884000  1.0 -0.2491076982
N  N8  1  0.35902000  0.09482000  0.03616000  1.0 -0.2780862886
N  N9  1  0.23187000  0.28884000  0.64639000  1.0 -0.2406093196
N  N10  1  0.09482000  0.03616000  0.35902000  1.0 -0.2780862886
N  N11  1  0.28884000  0.64639000  0.23187000  1.0 -0.2406093196
N  N12  1  0.03616000  0.35902000  0.09482000  1.0 -0.29834054
N  N13  1  0.73187000  0.14639000  0.78884000  1.0 -0.2406093196
N  N14  1  0.59482000  0.85902000  0.53616000  1.0 -0.2780862886
N  N15  1  0.78884000  0.73187000  0.14639000  1.0 -0.2308564997
N  N16  1  0.53616000  0.59482000  0.85902000  1.0 -0.2780862886
N  N17  1  0.14639000  0.78884000  0.73187000  1.0 -0.2308564997
N  N18  1  0.85902000  0.53616000  0.59482000  1.0 -0.2780862886
N  N19  1  0.35361000  0.76813000  0.71116000  1.0 -0.2406093196
N  N20  1  0.64098000  0.90518000  0.96384000  1.0 -0.2780862886
N  N21  1  0.76813000  0.71116000  0.35361000  1.0 -0.2491076982
N  N22  1  0.90518000  0.96384000  0.64098000  1.0 -0.2780862886
N  N23  1  0.71116000  0.35361000  0.76813000  1.0 -0.2406093196
N  N24  1  0.96384000  0.64098000  0.90518000  1.0 -0.2780862886
O  O1  1  0.68160000  0.24350000  0.49020000  1.0 -0.1117147162
O  O2  1  0.41760000  0.00660000  0.50540000  1.0 -0.1117147162
O  O3  1  0.36976000  0.02322000  0.31612000  1.0 -0.5512469518
O  O4  1  0.71468000  0.40857000  0.70335000  1.0 -0.5009705058
O  O5  1  0.59250000  0.28211000  0.60099000  1.0 -0.581090764
O  O6  1  0.47967000  0.15628000  0.41845000  1.0 -0.5300309716
O  O7  1  0.47368000  0.10662000  0.51190000  1.0 -0.3388413621
O  O8  1  0.59568000  0.27535000  0.37417000  1.0 -0.3295449722
O  O9  1  0.64520000  0.25570000  0.39380000  1.0 -0.3590202402
O  O10  1  0.40907000  0.98993000  0.25280000  1.0 -0.1299721632
O  O11  1  0.52247000  0.11700000  0.49293000  1.0 -0.3680933872
O  O12  1  0.59380000  0.35510000  0.55010000  1.0 -0.119003627
O  O13  1  0.51149000  0.67918000  0.48711000  1.0 -0.0698770348
O  O14  1  0.29328000  0.81034000  0.50447000  1.0 -0.0583537921
O  O15  1  0.64367000  0.47180000  0.07985000  1.0 -0.0887495054
O  O16  1  0.49020000  0.68160000  0.24350000  1.0 -0.1004566516
O  O17  1  0.50540000  0.41760000  0.00660000  1.0 -0.1117147162
O  O18  1  0.31612000  0.36976000  0.02322000  1.0 -0.5608979273
O  O19  1  0.70335000  0.71468000  0.40857000  1.0 -0.4947146434
O  O20  1  0.60099000  0.59250000  0.28211000  1.0 -0.570702052
O  O21  1  0.41845000  0.47967000  0.15628000  1.0 -0.5224150974
O  O22  1  0.51190000  0.47368000  0.10662000  1.0 -0.3199774582
O  O23  1  0.37417000  0.59568000  0.27535000  1.0 -0.29834054
O  O24  1  0.39380000  0.64520000  0.25570000  1.0 -0.3199774582
O  O25  1  0.25280000  0.40907000  0.98993000  1.0 -0.119003627
O  O26  1  0.49293000  0.52247000  0.11700000  1.0 -0.3590202402
O  O27  1  0.55010000  0.59380000  0.35510000  1.0 -0.119003627
O  O28  1  0.48711000  0.51149000  0.67918000  1.0 -0.0698770348
O  O29  1  0.50447000  0.29328000  0.81034000  1.0 -0.0583537921
O  O30  1  0.07985000  0.64367000  0.47180000  1.0 -0.0887495054
O  O31  1  0.24350000  0.49020000  0.68160000  1.0 -0.1117147162
O  O32  1  0.00660000  0.50540000  0.41760000  1.0 -0.1117147162
O  O33  1  0.02322000  0.31612000  0.36976000  1.0 -0.5224150974
O  O34  1  0.40857000  0.70335000  0.71468000  1.0 -0.5009705058
O  O35  1  0.28211000  0.60099000  0.59250000  1.0 -0.581090764
O  O36  1  0.15628000  0.41845000  0.47967000  1.0 -0.5070466507
O  O37  1  0.10662000  0.51190000  0.47368000  1.0 -0.3199774582
O  O38  1  0.27535000  0.37417000  0.59568000  1.0 -0.3295449722
O  O39  1  0.25570000  0.39380000  0.64520000  1.0 -0.3295449722
O  O40  1  0.98993000  0.25280000  0.40907000  1.0 -0.1004566516
O  O41  1  0.11700000  0.49293000  0.52247000  1.0 -0.3780773837
O  O42  1  0.35510000  0.55010000  0.59380000  1.0 -0.119003627
O  O43  1  0.67918000  0.48711000  0.51149000  1.0 -0.0795620666
O  O44  1  0.81034000  0.50447000  0.29328000  1.0 -0.0583537921
O  O45  1  0.47180000  0.07985000  0.64367000  1.0 -0.0887495054
O  O46  1  0.31950000  0.04680000  0.16240000  1.0 -0.1383674344
O  O47  1  0.25650000  0.81840000  0.00980000  1.0 -0.1117147162
O  O48  1  0.49340000  0.08240000  0.99460000  1.0 -0.1117147162
O  O49  1  0.47678000  0.13024000  0.18388000  1.0 -0.5512469518
O  O50  1  0.09143000  0.78532000  0.79665000  1.0 -0.5009705058
O  O51  1  0.21789000  0.90750000  0.89901000  1.0 -0.581090764
O  O52  1  0.34372000  0.02033000  0.08155000  1.0 -0.5300309716
O  O53  1  0.39338000  0.02632000  0.98810000  1.0 -0.3295449722
O  O54  1  0.22465000  0.90432000  0.12583000  1.0 -0.3199774582
O  O55  1  0.24430000  0.85480000  0.10620000  1.0 -0.3388413621
O  O56  1  0.38300000  0.97753000  0.00707000  1.0 -0.3680933872
O  O57  1  0.14490000  0.90620000  0.94990000  1.0 -0.1487083766
O  O58  1  0.82082000  0.98851000  0.01289000  1.0 -0.0887495054
O  O59  1  0.68966000  0.20672000  0.99553000  1.0 -0.0583537921
O  O60  1  0.02820000  0.85633000  0.42015000  1.0 -0.0887495054
O  O61  1  0.04680000  0.16240000  0.31950000  1.0 -0.1383674344
O  O62  1  0.81840000  0.00980000  0.25650000  1.0 -0.1117147162
O  O63  1  0.08240000  0.99460000  0.49340000  1.0 -0.119003627
O  O64  1  0.13024000  0.18388000  0.47678000  1.0 -0.5512469518
O  O65  1  0.78532000  0.79665000  0.09143000  1.0 -0.5070466507
O  O66  1  0.90750000  0.89901000  0.21789000  1.0 -0.5869402844
O  O67  1  0.02033000  0.08155000  0.34372000  1.0 -0.5300309716
O  O68  1  0.02632000  0.98810000  0.39338000  1.0 -0.3388413621
O  O69  1  0.90432000  0.12583000  0.22465000  1.0 -0.3388413621
O  O70  1  0.85480000  0.10620000  0.24430000  1.0 -0.3388413621
O  O71  1  0.97753000  0.00707000  0.38300000  1.0 -0.3388413621
O  O72  1  0.90620000  0.94990000  0.14490000  1.0 -0.1383674344
O  O73  1  0.98851000  0.01289000  0.82082000  1.0 -0.0887495054
O  O74  1  0.20672000  0.99553000  0.68966000  1.0 -0.0698770348
O  O75  1  0.85633000  0.42015000  0.02820000  1.0 -0.0887495054
O  O76  1  0.16240000  0.31950000  0.04680000  1.0 -0.1487083766
O  O77  1  0.00980000  0.25650000  0.81840000  1.0 -0.1117147162
O  O78  1  0.99460000  0.49340000  0.08240000  1.0 -0.1117147162
O  O79  1  0.18388000  0.47678000  0.13024000  1.0 -0.5409052132
O  O80  1  0.79665000  0.09143000  0.78532000  1.0 -0.5009705058
O  O81  1  0.89901000  0.21789000  0.90750000  1.0 -0.581090764
O  O82  1  0.08155000  0.34372000  0.02033000  1.0 -0.4797143597
O  O83  1  0.98810000  0.39338000  0.02632000  1.0 -0.3199774582
O  O84  1  0.12583000  0.22465000  0.90432000  1.0 -0.3590202402
O  O85  1  0.10620000  0.24430000  0.85480000  1.0 -0.3295449722
O  O86  1  0.00707000  0.38300000  0.97753000  1.0 -0.3590202402
O  O87  1  0.94990000  0.14490000  0.90620000  1.0 -0.0795620666
O  O88  1  0.01289000  0.82082000  0.98851000  1.0 -0.0887495054
O  O89  1  0.99553000  0.68966000  0.20672000  1.0 -0.0583537921
O  O90  1  0.42015000  0.02820000  0.85633000  1.0 -0.0887495054
O  O91  1  0.31840000  0.75650000  0.50980000  1.0 -0.1004566516
O  O92  1  0.58240000  0.99340000  0.49460000  1.0 -0.1117147162
O  O93  1  0.63024000  0.97678000  0.68388000  1.0 -0.570702052
O  O94  1  0.28532000  0.59143000  0.29665000  1.0 -0.5009705058
O  O95  1  0.40750000  0.71789000  0.39901000  1.0 -0.581090764
O  O96  1  0.52033000  0.84372000  0.58155000  1.0 -0.5300309716
O  O97  1  0.52632000  0.89338000  0.48810000  1.0 -0.3388413621
O  O98  1  0.40432000  0.72465000  0.62583000  1.0 -0.2780862886
O  O99  1  0.35480000  0.74430000  0.60620000  1.0 -0.3115260143
O  O100  1  0.47753000  0.88300000  0.50707000  1.0 -0.3590202402
O  O101  1  0.40620000  0.64490000  0.44990000  1.0 -0.1117147162
O  O102  1  0.48851000  0.32082000  0.51289000  1.0 -0.0698770348
O  O103  1  0.70672000  0.18966000  0.49553000  1.0 -0.0698770348
O  O104  1  0.35633000  0.52820000  0.92015000  1.0 -0.0887495054
O  O105  1  0.50980000  0.31840000  0.75650000  1.0 -0.1004566516
O  O106  1  0.49460000  0.58240000  0.99340000  1.0 -0.1117147162
O  O107  1  0.68388000  0.63024000  0.97678000  1.0 -0.5608979273
O  O108  1  0.29665000  0.28532000  0.59143000  1.0 -0.5009705058
O  O109  1  0.39901000  0.40750000  0.71789000  1.0 -0.581090764
O  O110  1  0.58155000  0.52033000  0.84372000  1.0 -0.5300309716
O  O111  1  0.48810000  0.52632000  0.89338000  1.0 -0.3388413621
O  O112  1  0.62583000  0.40432000  0.72465000  1.0 -0.2903960206
O  O113  1  0.60620000  0.35480000  0.74430000  1.0 -0.3115260143
O  O114  1  0.50707000  0.47753000  0.88300000  1.0 -0.3517095331
O  O115  1  0.44990000  0.40620000  0.64490000  1.0 -0.119003627
O  O116  1  0.51289000  0.48851000  0.32082000  1.0 -0.0795620666
O  O117  1  0.49553000  0.70672000  0.18966000  1.0 -0.0698770348
O  O118  1  0.92015000  0.35633000  0.52820000  1.0 -0.0887495054
O  O119  1  0.81950000  0.66240000  0.54680000  1.0 -0.1487083766
O  O120  1  0.75650000  0.50980000  0.31840000  1.0 -0.1117147162
O  O121  1  0.99340000  0.49460000  0.58240000  1.0 -0.1117147162
O  O122  1  0.97678000  0.68388000  0.63024000  1.0 -0.5512469518
O  O123  1  0.59143000  0.29665000  0.28532000  1.0 -0.5009705058
O  O124  1  0.71789000  0.39901000  0.40750000  1.0 -0.581090764
O  O125  1  0.84372000  0.58155000  0.52033000  1.0 -0.5300309716
O  O126  1  0.89338000  0.48810000  0.52632000  1.0 -0.3295449722
O  O127  1  0.72465000  0.62583000  0.40432000  1.0 -0.3388413621
O  O128  1  0.74430000  0.60620000  0.35480000  1.0 -0.3388413621
O  O129  1  0.88300000  0.50707000  0.47753000  1.0 -0.3517095331
O  O130  1  0.64490000  0.44990000  0.40620000  1.0 -0.119003627
O  O131  1  0.32082000  0.51289000  0.48851000  1.0 -0.0795620666
O  O132  1  0.18966000  0.49553000  0.70672000  1.0 -0.0698770348
O  O133  1  0.52820000  0.92015000  0.35633000  1.0 -0.0887495054
O  O134  1  0.68050000  0.95320000  0.83760000  1.0 -0.1383674344
O  O135  1  0.74350000  0.18160000  0.99020000  1.0 -0.1117147162
O  O136  1  0.50660000  0.91760000  0.00540000  1.0 -0.1117147162
O  O137  1  0.52322000  0.86976000  0.81612000  1.0 -0.5608979273
O  O138  1  0.90857000  0.21468000  0.20335000  1.0 -0.5009705058
O  O139  1  0.78211000  0.09250000  0.10099000  1.0 -0.581090764
O  O140  1  0.65628000  0.97967000  0.91845000  1.0 -0.5409052132
O  O141  1  0.60662000  0.97368000  0.01190000  1.0 -0.3295449722
O  O142  1  0.77535000  0.09568000  0.87417000  1.0 -0.1798553872
O  O143  1  0.75570000  0.14520000  0.89380000  1.0 -0.3295449722
O  O144  1  0.61700000  0.02247000  0.99293000  1.0 -0.3590202402
O  O145  1  0.85510000  0.09380000  0.05010000  1.0 -0.1383674344
O  O146  1  0.17918000  0.01149000  0.98711000  1.0 -0.1004566516
O  O147  1  0.31034000  0.79328000  0.00447000  1.0 -0.0698770348
O  O148  1  0.97180000  0.14367000  0.57985000  1.0 -0.0887495054
O  O149  1  0.18160000  0.99020000  0.74350000  1.0 -0.1117147162
O  O150  1  0.91760000  0.00540000  0.50660000  1.0 -0.1117147162
O  O151  1  0.86976000  0.81612000  0.52322000  1.0 -0.4545260329
O  O152  1  0.21468000  0.20335000  0.90857000  1.0 -0.5009705058
O  O153  1  0.09250000  0.10099000  0.78211000  1.0 -0.570702052
O  O154  1  0.97967000  0.91845000  0.65628000  1.0 -0.5009705058
O  O155  1  0.97368000  0.01190000  0.60662000  1.0 -0.3199774582
O  O156  1  0.09568000  0.87417000  0.77535000  1.0 -0.3388413621
O  O157  1  0.14520000  0.89380000  0.75570000  1.0 -0.3115260143
O  O158  1  0.90907000  0.75280000  0.48993000  1.0 -0.119003627
O  O159  1  0.02247000  0.99293000  0.61700000  1.0 -0.3590202402
O  O160  1  0.09380000  0.05010000  0.85510000  1.0 -0.119003627
O  O161  1  0.01149000  0.98711000  0.17918000  1.0 -0.1117147162
O  O162  1  0.79328000  0.00447000  0.31034000  1.0 -0.0583537921
O  O163  1  0.14367000  0.57985000  0.97180000  1.0 -0.0887495054
O  O164  1  0.83760000  0.68050000  0.95320000  1.0 -0.1487083766
O  O165  1  0.99020000  0.74350000  0.18160000  1.0 -0.1117147162
O  O166  1  0.00540000  0.50660000  0.91760000  1.0 -0.1117147162
O  O167  1  0.81612000  0.52322000  0.86976000  1.0 -0.5608979273
O  O168  1  0.20335000  0.90857000  0.21468000  1.0 -0.5009705058
O  O169  1  0.10099000  0.78211000  0.09250000  1.0 -0.581090764
O  O170  1  0.91845000  0.65628000  0.97967000  1.0 -0.5409052132
O  O171  1  0.01190000  0.60662000  0.97368000  1.0 -0.3295449722
O  O172  1  0.87417000  0.77535000  0.09568000  1.0 -0.2780862886
O  O173  1  0.89380000  0.75570000  0.14520000  1.0 -0.3115260143
O  O174  1  0.99293000  0.61700000  0.02247000  1.0 -0.3517095331
O  O175  1  0.05010000  0.85510000  0.09380000  1.0 -0.1383674344
O  O176  1  0.98711000  0.17918000  0.01149000  1.0 -0.1004566516
O  O177  1  0.00447000  0.31034000  0.79328000  1.0 -0.0583537921
O  O178  1  0.57985000  0.97180000  0.14367000  1.0 -0.0887495054
O  O179  1  0.97640000  0.88445000  0.53390000  1.0 -0.1004566516
O  O180  1  0.80988000  0.72368000  0.63222000  1.0 -0.0795620666
O  O181  1  0.05365000  0.13304000  0.22435000  1.0 -0.1004566516
O  O182  1  0.24097000  0.06886000  0.11263000  1.0 -0.0698770348
O  O183  1  0.90265000  0.82597000  0.03656000  1.0 -0.1004566516
O  O184  1  0.35245000  0.53075000  0.02574000  1.0 -0.119003627
O  O185  1  0.82732000  0.10184000  0.93413000  1.0 -0.0012368835
O  O186  1  0.48544000  0.01969000  0.23595000  1.0 -0.119003627
O  O187  1  0.05415000  0.33146000  0.51818000  1.0 -0.0698770348
O  O188  1  0.03098000  0.19314000  0.95638000  1.0 0.0299795178
