# DDEC6 charges by PACMAN v1.1 (https://github.com/mtap-research/PACMAN-charge/)
data_EVUPOC_FSR_pacman
_symmetry_space_group_name_H-M   'P 1'
_cell_length_a   11.09000000
_cell_length_b   11.32000000
_cell_length_c   16.24300000
_cell_angle_alpha   74.94000000
_cell_angle_beta   82.76000000
_cell_angle_gamma   75.06000000
_symmetry_Int_Tables_number   1
_chemical_formula_structural   NdH12C14(NO4)2
_chemical_formula_sum   'Nd4 H48 C56 N8 O32'
_cell_volume   1898.71605146
_cell_formula_units_Z   4
loop_
 _symmetry_equiv_pos_site_id
 _symmetry_equiv_pos_as_xyz
  1  'x, y, z'
loop_
 _atom_site_type_symbol
 _atom_site_label
 _atom_site_symmetry_multiplicity
 _atom_site_fract_x
 _atom_site_fract_y
 _atom_site_fract_z
 _atom_site_occupancy
 _atom_site_charge
Nd  Nd1  1  0.08707000  0.34091000  0.37296000  1.0 2.066617537
Nd  Nd2  1  0.91293000  0.65909000  0.62704000  1.0 2.066617537
Nd  Nd3  1  0.70867000  0.49371000  0.86533000  1.0 2.1774940972
Nd  Nd4  1  0.29133000  0.50629000  0.13467000  1.0 2.1774940972
H  H1  1  0.83120000  0.01550000  0.72280000  1.0 0.1210738828
H  H2  1  0.16880000  0.98450000  0.27720000  1.0 0.1210738828
H  H3  1  0.62510000  0.84620000  0.91700000  1.0 0.1398035704
H  H4  1  0.37490000  0.15380000  0.08300000  1.0 0.1398035704
H  H5  1  0.13180000  0.22950000  0.55560000  1.0 0.3618734961
H  H6  1  0.86820000  0.77050000  0.44440000  1.0 0.3618734961
H  H7  1  0.08810000  0.35910000  0.55120000  1.0 0.3788131734
H  H8  1  0.91190000  0.64090000  0.44880000  1.0 0.3788131734
H  H9  1  0.11400000  0.59390000  0.35930000  1.0 0.3788131734
H  H10  1  0.88600000  0.40610000  0.64070000  1.0 0.3788131734
H  H11  1  0.11890000  0.53720000  0.44660000  1.0 0.3788131734
H  H12  1  0.88110000  0.46280000  0.55340000  1.0 0.3788131734
H  H13  1  0.06580000  0.08240000  0.41100000  1.0 0.3788131734
H  H14  1  0.93420000  0.91760000  0.58900000  1.0 0.3788131734
H  H15  1  0.03020000  0.11790000  0.49000000  1.0 0.3618734961
H  H16  1  0.96980000  0.88210000  0.51000000  1.0 0.3618734961
H  H17  1  0.16250000  0.45520000  0.93320000  1.0 0.1398035704
H  H18  1  0.83750000  0.54480000  0.06680000  1.0 0.1398035704
H  H19  1  0.64380000  0.34550000  0.32010000  1.0 0.1317291257
H  H20  1  0.35620000  0.65450000  0.67990000  1.0 0.1317291257
H  H21  1  0.35590000  0.34530000  0.49540000  1.0 0.1317291257
H  H22  1  0.64410000  0.65470000  0.50460000  1.0 0.1317291257
H  H23  1  0.63240000  0.20920000  0.88820000  1.0 0.1398035704
H  H24  1  0.36760000  0.79080000  0.11180000  1.0 0.1398035704
H  H25  1  0.47530000  0.37420000  0.78390000  1.0 0.1398035704
H  H26  1  0.52470000  0.62580000  0.21610000  1.0 0.1398035704
H  H27  1  0.69640000  0.34010000  0.56390000  1.0 0.1398035704
H  H28  1  0.30360000  0.65990000  0.43610000  1.0 0.1398035704
H  H29  1  0.14160000  0.39870000  0.69840000  1.0 0.1317291257
H  H30  1  0.85840000  0.60130000  0.30160000  1.0 0.1317291257
H  H31  1  0.58760000  0.32720000  0.07750000  1.0 0.1715304514
H  H32  1  0.41240000  0.67280000  0.92250000  1.0 0.1715304514
H  H33  1  0.65510000  0.26040000  0.16230000  1.0 0.1511966621
H  H34  1  0.34490000  0.73960000  0.83770000  1.0 0.1511966621
H  H35  1  0.62850000  0.17990000  0.10430000  1.0 0.1715304514
H  H36  1  0.37150000  0.82010000  0.89570000  1.0 0.1715304514
H  H37  1  0.79740000  0.24280000  0.21800000  1.0 0.1398035704
H  H38  1  0.20260000  0.75720000  0.78200000  1.0 0.1398035704
H  H39  1  0.94370000  0.19980000  0.21050000  1.0 0.1398035704
H  H40  1  0.05630000  0.80020000  0.78950000  1.0 0.1398035704
H  H41  1  0.86250000  0.10390000  0.21370000  1.0 0.1398035704
H  H42  1  0.13750000  0.89610000  0.78630000  1.0 0.1398035704
H  H43  1  0.00940000  0.18910000  0.00400000  1.0 0.1511966621
H  H44  1  0.99060000  0.81090000  0.99600000  1.0 0.1511966621
H  H45  1  0.06220000  0.19600000  0.08730000  1.0 0.1317291257
H  H46  1  0.93780000  0.80400000  0.91270000  1.0 0.1317291257
H  H47  1  0.99920000  0.32000000  0.02340000  1.0 0.1599684243
H  H48  1  0.00080000  0.68000000  0.97660000  1.0 0.1599684243
C  C1  1  0.12390000  0.43650000  0.81640000  1.0 -0.0221408324
C  C2  1  0.87610000  0.56350000  0.18360000  1.0 -0.0221408324
C  C3  1  0.77810000  0.79070000  0.78740000  1.0 0.6478115504
C  C4  1  0.22190000  0.20930000  0.21260000  1.0 0.6478115504
C  C5  1  0.73410000  0.91280000  0.81740000  1.0 -0.0273946731
C  C6  1  0.26590000  0.08720000  0.18260000  1.0 -0.0273946731
C  C7  1  0.77710000  0.01950000  0.77110000  1.0 -0.1206178854
C  C8  1  0.22290000  0.98050000  0.22890000  1.0 -0.1206178854
C  C9  1  0.65390000  0.91700000  0.88800000  1.0 -0.1456135179
C  C10  1  0.34610000  0.08300000  0.11200000  1.0 -0.1402942901
C  C11  1  0.40360000  0.36100000  0.32790000  1.0 0.6659767215
C  C12  1  0.59640000  0.63900000  0.67210000  1.0 0.6659767215
C  C13  1  0.40740000  0.42430000  0.93480000  1.0 0.6574832086
C  C14  1  0.59260000  0.57570000  0.06520000  1.0 0.6574832086
C  C15  1  0.78570000  0.24640000  0.75480000  1.0 0.6210923676
C  C16  1  0.21430000  0.75360000  0.24520000  1.0 0.6210923676
C  C17  1  0.82530000  0.34550000  0.41430000  1.0 0.5473677401
C  C18  1  0.17470000  0.65450000  0.58570000  1.0 0.5473677401
C  C19  1  0.48720000  0.34510000  0.39800000  1.0 -0.0221408324
C  C20  1  0.51280000  0.65490000  0.60200000  1.0 -0.0221408324
C  C21  1  0.19940000  0.43900000  0.88130000  1.0 -0.0793726968
C  C22  1  0.80060000  0.56100000  0.11870000  1.0 -0.0793726968
C  C23  1  0.61280000  0.34360000  0.37630000  1.0 -0.1002079065
C  C24  1  0.38720000  0.65640000  0.62370000  1.0 -0.1002079065
C  C25  1  0.44000000  0.34410000  0.48070000  1.0 -0.1456135179
C  C26  1  0.56000000  0.65590000  0.51930000  1.0 -0.1456135179
C  C27  1  0.65830000  0.13470000  0.87000000  1.0 -0.1402942901
C  C28  1  0.34170000  0.86530000  0.13000000  1.0 -0.1402942901
C  C29  1  0.51920000  0.34110000  0.54340000  1.0 0.1599684243
C  C30  1  0.48080000  0.65890000  0.45660000  1.0 0.1599684243
C  C31  1  0.61460000  0.02840000  0.91710000  1.0 0.1599684243
C  C32  1  0.38540000  0.97160000  0.08290000  1.0 0.1599684243
C  C33  1  0.69420000  0.33940000  0.43750000  1.0 -0.0273946731
C  C34  1  0.30580000  0.66060000  0.56250000  1.0 -0.0273946731
C  C35  1  0.31580000  0.38020000  0.72840000  1.0 0.1599684243
C  C36  1  0.68420000  0.61980000  0.27160000  1.0 0.1599684243
C  C37  1  0.38870000  0.38820000  0.79220000  1.0 -0.127085578
C  C38  1  0.61130000  0.61180000  0.20780000  1.0 -0.127085578
C  C39  1  0.64520000  0.34020000  0.52270000  1.0 -0.1564503724
C  C40  1  0.35480000  0.65980000  0.47730000  1.0 -0.1564503724
C  C41  1  0.32890000  0.41650000  0.86550000  1.0 -0.0221408324
C  C42  1  0.67110000  0.58350000  0.13450000  1.0 -0.0221408324
C  C43  1  0.73750000  0.13150000  0.79860000  1.0 -0.0221408324
C  C44  1  0.26250000  0.86850000  0.20140000  1.0 -0.0221408324
C  C45  1  0.18790000  0.40400000  0.74070000  1.0 -0.1655539091
C  C46  1  0.81210000  0.59600000  0.25930000  1.0 -0.1655539091
C  C47  1  0.98740000  0.47700000  0.82880000  1.0 0.5919702535
C  C48  1  0.01260000  0.52300000  0.17120000  1.0 0.5919702535
C  C49  1  0.77500000  0.26040000  0.05630000  1.0 0.4929586833
C  C50  1  0.22500000  0.73960000  0.94370000  1.0 0.4929586833
C  C51  1  0.65020000  0.25660000  0.10440000  1.0 -0.5792351182
C  C52  1  0.34980000  0.74340000  0.89560000  1.0 -0.5792351182
C  C53  1  0.86800000  0.19000000  0.19370000  1.0 -0.3397100384
C  C54  1  0.13200000  0.81000000  0.80630000  1.0 -0.3397100384
C  C55  1  0.99700000  0.23400000  0.04830000  1.0 -0.3462479229
C  C56  1  0.00300000  0.76600000  0.95170000  1.0 -0.3462479229
N  N1  1  0.36110000  0.36030000  0.64600000  1.0 -0.1206178854
N  N2  1  0.63890000  0.63970000  0.35400000  1.0 -0.1206178854
N  N3  1  0.47740000  0.35010000  0.62960000  1.0 -0.1088131185
N  N4  1  0.52260000  0.64990000  0.37040000  1.0 -0.1088131185
N  N5  1  0.52440000  0.04580000  0.98460000  1.0 -0.1206178854
N  N6  1  0.47560000  0.95420000  0.01540000  1.0 -0.1206178854
N  N7  1  0.86590000  0.22770000  0.09810000  1.0 0.0383070854
N  N8  1  0.13410000  0.77230000  0.90190000  1.0 0.0383070854
O  O1  1  0.35210000  0.43380000  0.00730000  1.0 -0.6921520347
O  O2  1  0.64790000  0.56620000  0.99270000  1.0 -0.6921520347
O  O3  1  0.52120000  0.42230000  0.91640000  1.0 -0.6639062281
O  O4  1  0.47880000  0.57770000  0.08360000  1.0 -0.6639062281
O  O5  1  0.92510000  0.50140000  0.76170000  1.0 -0.7600844419
O  O6  1  0.07490000  0.49860000  0.23830000  1.0 -0.7543574686
O  O7  1  0.93090000  0.48000000  0.89910000  1.0 -0.5651565309
O  O8  1  0.06910000  0.52000000  0.10090000  1.0 -0.5649710412
O  O9  1  0.85920000  0.78840000  0.72730000  1.0 -0.6407736058
O  O10  1  0.14080000  0.21160000  0.27270000  1.0 -0.6407736058
O  O11  1  0.72360000  0.70450000  0.82430000  1.0 -0.6732863302
O  O12  1  0.27640000  0.29550000  0.17570000  1.0 -0.6732863302
O  O13  1  0.29760000  0.33420000  0.35430000  1.0 -0.7338392849
O  O14  1  0.70240000  0.66580000  0.64570000  1.0 -0.7338392849
O  O15  1  0.43600000  0.40340000  0.25080000  1.0 -0.6407736058
O  O16  1  0.56400000  0.59660000  0.74920000  1.0 -0.6407736058
O  O17  1  0.88670000  0.38290000  0.45750000  1.0 -0.6209711547
O  O18  1  0.11330000  0.61710000  0.54250000  1.0 -0.6209711547
O  O19  1  0.87670000  0.31750000  0.34660000  1.0 -0.598692965
O  O20  1  0.12330000  0.68250000  0.65340000  1.0 -0.598692965
O  O21  1  0.74230000  0.34570000  0.78350000  1.0 -0.7113299484
O  O22  1  0.25770000  0.65430000  0.21650000  1.0 -0.7113299484
O  O23  1  0.13880000  0.30370000  0.52730000  1.0 -0.7600844419
O  O24  1  0.86120000  0.69630000  0.47270000  1.0 -0.7600844419
O  O25  1  0.07960000  0.54860000  0.40190000  1.0 -0.7721106822
O  O26  1  0.92040000  0.45140000  0.59810000  1.0 -0.7721106822
O  O27  1  0.08520000  0.12090000  0.44610000  1.0 -0.7781986112
O  O28  1  0.91480000  0.87910000  0.55390000  1.0 -0.7781986112
O  O29  1  0.85760000  0.24170000  0.69010000  1.0 -0.5413475151
O  O30  1  0.14240000  0.75830000  0.30990000  1.0 -0.5413475151
O  O31  1  0.78570000  0.30060000  0.97180000  1.0 -0.7113299484
O  O32  1  0.21430000  0.69940000  0.02820000  1.0 -0.7113299484
