# DDEC6 charges by PACMAN v1.1 (https://github.com/mtap-research/PACMAN-charge/)
data_EVUPOC_ASR_pacman
_symmetry_space_group_name_H-M   'P 1'
_cell_length_a   11.09000000
_cell_length_b   11.32000000
_cell_length_c   16.24300000
_cell_angle_alpha   74.94000000
_cell_angle_beta   82.76000000
_cell_angle_gamma   75.06000000
_symmetry_Int_Tables_number   1
_chemical_formula_structural   Nd2H9C24(NO4)3
_chemical_formula_sum   'Nd4 H18 C48 N6 O24'
_cell_volume   1898.71605146
_cell_formula_units_Z   2
loop_
 _symmetry_equiv_pos_site_id
 _symmetry_equiv_pos_as_xyz
  1  'x, y, z'
loop_
 _atom_site_type_symbol
 _atom_site_label
 _atom_site_symmetry_multiplicity
 _atom_site_fract_x
 _atom_site_fract_y
 _atom_site_fract_z
 _atom_site_occupancy
 _atom_site_charge
Nd  Nd1  1  0.08707000  0.34091000  0.37296000  1.0 2.0830457084
Nd  Nd2  1  0.91293000  0.65909000  0.62704000  1.0 2.0884241931
Nd  Nd3  1  0.70867000  0.49371000  0.86533000  1.0 2.1784552208
Nd  Nd4  1  0.29133000  0.50629000  0.13467000  1.0 2.1784552208
H  H1  1  0.83120000  0.01550000  0.72280000  1.0 0.1268331282
H  H2  1  0.16880000  0.98450000  0.27720000  1.0 0.1268331282
H  H3  1  0.62510000  0.84620000  0.91700000  1.0 0.1381217487
H  H4  1  0.37490000  0.15380000  0.08300000  1.0 0.1381217487
H  H5  1  0.16250000  0.45520000  0.93320000  1.0 0.1381217487
H  H6  1  0.83750000  0.54480000  0.06680000  1.0 0.1381217487
H  H7  1  0.64380000  0.34550000  0.32010000  1.0 0.1268331282
H  H8  1  0.35620000  0.65450000  0.67990000  1.0 0.1268331282
H  H9  1  0.35590000  0.34530000  0.49540000  1.0 0.121780435
H  H10  1  0.64410000  0.65470000  0.50460000  1.0 0.121780435
H  H11  1  0.63240000  0.20920000  0.88820000  1.0 0.121780435
H  H12  1  0.36760000  0.79080000  0.11180000  1.0 0.121780435
H  H13  1  0.47530000  0.37420000  0.78390000  1.0 0.1268331282
H  H14  1  0.52470000  0.62580000  0.21610000  1.0 0.1268331282
H  H15  1  0.69640000  0.34010000  0.56390000  1.0 0.1381217487
H  H16  1  0.30360000  0.65990000  0.43610000  1.0 0.1381217487
H  H17  1  0.14160000  0.39870000  0.69840000  1.0 0.1268331282
H  H18  1  0.85840000  0.60130000  0.30160000  1.0 0.1268331282
C  C1  1  0.12390000  0.43650000  0.81640000  1.0 -0.0351142228
C  C2  1  0.87610000  0.56350000  0.18360000  1.0 -0.0351142228
C  C3  1  0.77810000  0.79070000  0.78740000  1.0 0.6613111369
C  C4  1  0.22190000  0.20930000  0.21260000  1.0 0.6613111369
C  C5  1  0.73410000  0.91280000  0.81740000  1.0 -0.0208134536
C  C6  1  0.26590000  0.08720000  0.18260000  1.0 -0.0208134536
C  C7  1  0.77710000  0.01950000  0.77110000  1.0 -0.0890253872
C  C8  1  0.22290000  0.98050000  0.22890000  1.0 -0.0890253872
C  C9  1  0.65390000  0.91700000  0.88800000  1.0 -0.1405765591
C  C10  1  0.34610000  0.08300000  0.11200000  1.0 -0.1405765591
C  C11  1  0.40360000  0.36100000  0.32790000  1.0 0.6613111369
C  C12  1  0.59640000  0.63900000  0.67210000  1.0 0.6613111369
C  C13  1  0.40740000  0.42430000  0.93480000  1.0 0.6691595189
C  C14  1  0.59260000  0.57570000  0.06520000  1.0 0.6691595189
C  C15  1  0.78570000  0.24640000  0.75480000  1.0 0.6095762126
C  C16  1  0.21430000  0.75360000  0.24520000  1.0 0.6095762126
C  C17  1  0.82530000  0.34550000  0.41430000  1.0 0.5568078629
C  C18  1  0.17470000  0.65450000  0.58570000  1.0 0.5568078629
C  C19  1  0.48720000  0.34510000  0.39800000  1.0 -0.0308057222
C  C20  1  0.51280000  0.65490000  0.60200000  1.0 -0.0308057222
C  C21  1  0.19940000  0.43900000  0.88130000  1.0 -0.0890253872
C  C22  1  0.80060000  0.56100000  0.11870000  1.0 -0.0890253872
C  C23  1  0.61280000  0.34360000  0.37630000  1.0 -0.0982847099
C  C24  1  0.38720000  0.65640000  0.62370000  1.0 -0.0982847099
C  C25  1  0.44000000  0.34410000  0.48070000  1.0 -0.151089979
C  C26  1  0.56000000  0.65590000  0.51930000  1.0 -0.151089979
C  C27  1  0.65830000  0.13470000  0.87000000  1.0 -0.1405765591
C  C28  1  0.34170000  0.86530000  0.13000000  1.0 -0.1405765591
C  C29  1  0.51920000  0.34110000  0.54340000  1.0 0.1471274592
C  C30  1  0.48080000  0.65890000  0.45660000  1.0 0.1471274592
C  C31  1  0.61460000  0.02840000  0.91710000  1.0 0.1471274592
C  C32  1  0.38540000  0.97160000  0.08290000  1.0 0.1471274592
C  C33  1  0.69420000  0.33940000  0.43750000  1.0 -0.0308057222
C  C34  1  0.30580000  0.66060000  0.56250000  1.0 -0.0308057222
C  C35  1  0.31580000  0.38020000  0.72840000  1.0 0.1471274592
C  C36  1  0.68420000  0.61980000  0.27160000  1.0 0.1471274592
C  C37  1  0.38870000  0.38820000  0.79220000  1.0 -0.1275681012
C  C38  1  0.61130000  0.61180000  0.20780000  1.0 -0.1275681012
C  C39  1  0.64520000  0.34020000  0.52270000  1.0 -0.1405765591
C  C40  1  0.35480000  0.65980000  0.47730000  1.0 -0.1405765591
C  C41  1  0.32890000  0.41650000  0.86550000  1.0 -0.0308057222
C  C42  1  0.67110000  0.58350000  0.13450000  1.0 -0.0308057222
C  C43  1  0.73750000  0.13150000  0.79860000  1.0 -0.0351142228
C  C44  1  0.26250000  0.86850000  0.20140000  1.0 -0.0351142228
C  C45  1  0.18790000  0.40400000  0.74070000  1.0 -0.1681947537
C  C46  1  0.81210000  0.59600000  0.25930000  1.0 -0.1681947537
C  C47  1  0.98740000  0.47700000  0.82880000  1.0 0.5963419549
C  C48  1  0.01260000  0.52300000  0.17120000  1.0 0.5963419549
N  N1  1  0.36110000  0.36030000  0.64600000  1.0 -0.0982847099
N  N2  1  0.63890000  0.63970000  0.35400000  1.0 -0.0982847099
N  N3  1  0.47740000  0.35010000  0.62960000  1.0 -0.1055947558
N  N4  1  0.52260000  0.64990000  0.37040000  1.0 -0.1055947558
N  N5  1  0.52440000  0.04580000  0.98460000  1.0 -0.1213359662
N  N6  1  0.47560000  0.95420000  0.01540000  1.0 -0.1213359662
O  O1  1  0.35210000  0.43380000  0.00730000  1.0 -0.6959576436
O  O2  1  0.64790000  0.56620000  0.99270000  1.0 -0.6959576436
O  O3  1  0.52120000  0.42230000  0.91640000  1.0 -0.6874620296
O  O4  1  0.47880000  0.57770000  0.08360000  1.0 -0.6874620296
O  O5  1  0.92510000  0.50140000  0.76170000  1.0 -0.7682877906
O  O6  1  0.07490000  0.49860000  0.23830000  1.0 -0.7682877906
O  O7  1  0.93090000  0.48000000  0.89910000  1.0 -0.5860143431
O  O8  1  0.06910000  0.52000000  0.10090000  1.0 -0.5860143431
O  O9  1  0.85920000  0.78840000  0.72730000  1.0 -0.6398249545
O  O10  1  0.14080000  0.21160000  0.27270000  1.0 -0.6398249545
O  O11  1  0.72360000  0.70450000  0.82430000  1.0 -0.6874620296
O  O12  1  0.27640000  0.29550000  0.17570000  1.0 -0.6874620296
O  O13  1  0.29760000  0.33420000  0.35430000  1.0 -0.7608539589
O  O14  1  0.70240000  0.66580000  0.64570000  1.0 -0.7608539589
O  O15  1  0.43600000  0.40340000  0.25080000  1.0 -0.6398249545
O  O16  1  0.56400000  0.59660000  0.74920000  1.0 -0.6398249545
O  O17  1  0.88670000  0.38290000  0.45750000  1.0 -0.6456488796
O  O18  1  0.11330000  0.61710000  0.54250000  1.0 -0.6456488796
O  O19  1  0.87670000  0.31750000  0.34660000  1.0 -0.6093091198
O  O20  1  0.12330000  0.68250000  0.65340000  1.0 -0.6093091198
O  O21  1  0.74230000  0.34570000  0.78350000  1.0 -0.7405779489
O  O22  1  0.25770000  0.65430000  0.21650000  1.0 -0.7405779489
O  O23  1  0.85760000  0.24170000  0.69010000  1.0 -0.5105228551
O  O24  1  0.14240000  0.75830000  0.30990000  1.0 -0.5105228551
