# DDEC6 charges by PACMAN v1.1 (https://github.com/mtap-research/PACMAN-charge/)
data_EWETOR_ASR_pacman
_symmetry_space_group_name_H-M   'P 1'
_cell_length_a   27.39400000
_cell_length_b   27.39400000
_cell_length_c   27.39400000
_cell_angle_alpha   60.00000000
_cell_angle_beta   60.00000000
_cell_angle_gamma   60.00000000
_symmetry_Int_Tables_number   1
_chemical_formula_structural   Zr3Re9C126N18(Cl6O23)2
_chemical_formula_sum   'Zr6 Re18 C252 N36 Cl24 O92'
_cell_volume   14536.21562255
_cell_formula_units_Z   2
loop_
 _symmetry_equiv_pos_site_id
 _symmetry_equiv_pos_as_xyz
  1  'x, y, z'
loop_
 _atom_site_type_symbol
 _atom_site_label
 _atom_site_symmetry_multiplicity
 _atom_site_fract_x
 _atom_site_fract_y
 _atom_site_fract_z
 _atom_site_occupancy
 _atom_site_charge
Zr  Zr1  1  0.43579000  0.56421000  0.56421000  1.0 2.365933992
Zr  Zr2  1  0.56421000  0.43579000  0.43579000  1.0 2.3630439297
Zr  Zr3  1  0.56421000  0.43579000  0.56421000  1.0 2.3630439297
Zr  Zr4  1  0.43579000  0.56421000  0.43579000  1.0 2.3630439297
Zr  Zr5  1  0.56421000  0.56421000  0.43579000  1.0 2.3630439297
Zr  Zr6  1  0.43579000  0.43579000  0.56421000  1.0 2.3630439297
Re  Re1  1  0.44380000  0.05620000  0.44380000  1.0 0.0659313315
Re  Re2  1  0.05620000  0.44380000  0.05620000  1.0 0.0640409851
Re  Re3  1  0.44380000  0.44380000  0.05620000  1.0 0.0640409851
Re  Re4  1  0.05620000  0.05620000  0.44380000  1.0 0.0640409851
Re  Re5  1  0.05620000  0.44380000  0.44380000  1.0 0.0640409851
Re  Re6  1  0.44380000  0.05620000  0.05620000  1.0 0.0659313315
Re  Re7  1  0.43640000  0.97860000  0.60680000  1.0 0.1603909583
Re  Re8  1  0.97860000  0.43640000  0.97820000  1.0 0.1603909583
Re  Re9  1  0.60680000  0.97820000  0.43640000  1.0 0.1603909583
Re  Re10  1  0.97820000  0.60680000  0.97860000  1.0 0.1603909583
Re  Re11  1  0.60680000  0.43640000  0.97860000  1.0 0.1603909583
Re  Re12  1  0.97820000  0.97860000  0.43640000  1.0 0.1603909583
Re  Re13  1  0.43640000  0.60680000  0.97820000  1.0 0.1603909583
Re  Re14  1  0.97860000  0.97820000  0.60680000  1.0 0.1603909583
Re  Re15  1  0.97860000  0.60680000  0.43640000  1.0 0.1603909583
Re  Re16  1  0.43640000  0.97820000  0.97860000  1.0 0.1603909583
Re  Re17  1  0.97820000  0.43640000  0.60680000  1.0 0.1603909583
Re  Re18  1  0.60680000  0.97860000  0.97820000  1.0 0.1603909583
C  C1  1  0.40790000  0.04070000  0.41130000  1.0 0.2385388853
C  C2  1  0.04070000  0.40790000  0.14010000  1.0 0.2385388853
C  C3  1  0.41130000  0.14010000  0.40790000  1.0 0.2385388853
C  C4  1  0.14010000  0.41130000  0.04070000  1.0 0.2385388853
C  C5  1  0.41130000  0.40790000  0.04070000  1.0 0.2454771177
C  C6  1  0.14010000  0.04070000  0.40790000  1.0 0.2454771177
C  C7  1  0.40790000  0.41130000  0.14010000  1.0 0.2385388853
C  C8  1  0.04070000  0.14010000  0.41130000  1.0 0.2454771177
C  C9  1  0.04070000  0.41130000  0.40790000  1.0 0.2385388853
C  C10  1  0.40790000  0.14010000  0.04070000  1.0 0.2385388853
C  C11  1  0.14010000  0.40790000  0.41130000  1.0 0.2385388853
C  C12  1  0.41130000  0.04070000  0.14010000  1.0 0.2385388853
C  C13  1  0.52470000  0.95270000  0.51790000  1.0 0.0817441389
C  C14  1  0.95270000  0.52470000  0.00470000  1.0 0.0873961673
C  C15  1  0.51790000  0.00470000  0.52470000  1.0 0.0873961673
C  C16  1  0.00470000  0.51790000  0.95270000  1.0 0.0817441389
C  C17  1  0.51790000  0.52470000  0.95270000  1.0 0.0873961673
C  C18  1  0.00470000  0.95270000  0.52470000  1.0 0.0817441389
C  C19  1  0.52470000  0.51790000  0.00470000  1.0 0.0873961673
C  C20  1  0.95270000  0.00470000  0.51790000  1.0 0.0873961673
C  C21  1  0.95270000  0.51790000  0.52470000  1.0 0.0873961673
C  C22  1  0.52470000  0.00470000  0.95270000  1.0 0.0817441389
C  C23  1  0.00470000  0.52470000  0.51790000  1.0 0.0817441389
C  C24  1  0.51790000  0.95270000  0.00470000  1.0 0.0873961673
C  C25  1  0.48700000  0.91840000  0.48240000  1.0 -0.0307336004
C  C26  1  0.91840000  0.48700000  0.11220000  1.0 -0.0307336004
C  C27  1  0.48240000  0.11220000  0.48700000  1.0 -0.0307336004
C  C28  1  0.11220000  0.48240000  0.91840000  1.0 -0.0307336004
C  C29  1  0.48240000  0.48700000  0.91840000  1.0 -0.039773352
C  C30  1  0.11220000  0.91840000  0.48700000  1.0 -0.0307336004
C  C31  1  0.48700000  0.48240000  0.11220000  1.0 -0.039773352
C  C32  1  0.91840000  0.11220000  0.48240000  1.0 -0.0307336004
C  C33  1  0.91840000  0.48240000  0.48700000  1.0 -0.0307336004
C  C34  1  0.48700000  0.11220000  0.91840000  1.0 -0.0307336004
C  C35  1  0.11220000  0.48700000  0.48240000  1.0 -0.0307336004
C  C36  1  0.48240000  0.91840000  0.11220000  1.0 -0.0307336004
C  C37  1  0.55550000  0.89390000  0.54510000  1.0 -0.0617875007
C  C38  1  0.89390000  0.55550000  0.00550000  1.0 -0.0617875007
C  C39  1  0.54510000  0.00550000  0.55550000  1.0 -0.0617875007
C  C40  1  0.00550000  0.54510000  0.89390000  1.0 -0.0617875007
C  C41  1  0.54510000  0.55550000  0.89390000  1.0 -0.0698540512
C  C42  1  0.00550000  0.89390000  0.55550000  1.0 -0.0617875007
C  C43  1  0.55550000  0.54510000  0.00550000  1.0 -0.0617875007
C  C44  1  0.89390000  0.00550000  0.54510000  1.0 -0.0617875007
C  C45  1  0.89390000  0.54510000  0.55550000  1.0 -0.0617875007
C  C46  1  0.55550000  0.00550000  0.89390000  1.0 -0.0617875007
C  C47  1  0.00550000  0.55550000  0.54510000  1.0 -0.0617875007
C  C48  1  0.54510000  0.89390000  0.00550000  1.0 -0.0617875007
C  C49  1  0.51770000  0.85950000  0.50970000  1.0 -0.010119841
C  C50  1  0.85950000  0.51770000  0.11310000  1.0 -0.010119841
C  C51  1  0.50970000  0.11310000  0.51770000  1.0 -0.010119841
C  C52  1  0.11310000  0.50970000  0.85950000  1.0 -0.010119841
C  C53  1  0.50970000  0.51770000  0.85950000  1.0 -0.010119841
C  C54  1  0.11310000  0.85950000  0.51770000  1.0 -0.010119841
C  C55  1  0.51770000  0.50970000  0.11310000  1.0 -0.010119841
C  C56  1  0.85950000  0.11310000  0.50970000  1.0 -0.010119841
C  C57  1  0.85950000  0.50970000  0.51770000  1.0 -0.010119841
C  C58  1  0.51770000  0.11310000  0.85950000  1.0 -0.010119841
C  C59  1  0.11310000  0.51770000  0.50970000  1.0 -0.010119841
C  C60  1  0.50970000  0.85950000  0.11310000  1.0 -0.010119841
C  C61  1  0.55200000  0.84720000  0.54100000  1.0 -0.010119841
C  C62  1  0.84720000  0.55200000  0.05980000  1.0 -0.010119841
C  C63  1  0.54100000  0.05980000  0.55200000  1.0 -0.010119841
C  C64  1  0.05980000  0.54100000  0.84720000  1.0 -0.010119841
C  C65  1  0.54100000  0.55200000  0.84720000  1.0 -0.010119841
C  C66  1  0.05980000  0.84720000  0.55200000  1.0 -0.010119841
C  C67  1  0.55200000  0.54100000  0.05980000  1.0 -0.010119841
C  C68  1  0.84720000  0.05980000  0.54100000  1.0 -0.010119841
C  C69  1  0.84720000  0.54100000  0.55200000  1.0 -0.010119841
C  C70  1  0.55200000  0.05980000  0.84720000  1.0 -0.010119841
C  C71  1  0.05980000  0.55200000  0.54100000  1.0 -0.010119841
C  C72  1  0.54100000  0.84720000  0.05980000  1.0 -0.010119841
C  C73  1  0.51620000  0.80520000  0.50980000  1.0 0.0378748494
C  C74  1  0.80520000  0.51620000  0.16880000  1.0 0.0378748494
C  C75  1  0.50980000  0.16880000  0.51620000  1.0 0.0378748494
C  C76  1  0.16880000  0.50980000  0.80520000  1.0 0.0378748494
C  C77  1  0.50980000  0.51620000  0.80520000  1.0 0.0378748494
C  C78  1  0.16880000  0.80520000  0.51620000  1.0 0.0378748494
C  C79  1  0.51620000  0.50980000  0.16880000  1.0 0.0378748494
C  C80  1  0.80520000  0.16880000  0.50980000  1.0 0.0378748494
C  C81  1  0.80520000  0.50980000  0.51620000  1.0 0.0378748494
C  C82  1  0.51620000  0.16880000  0.80520000  1.0 0.0378748494
C  C83  1  0.16880000  0.51620000  0.50980000  1.0 0.0378748494
C  C84  1  0.50980000  0.80520000  0.16880000  1.0 0.0378748494
C  C85  1  0.47070000  0.78190000  0.55290000  1.0 -0.0698540512
C  C86  1  0.78190000  0.47070000  0.19450000  1.0 -0.0698540512
C  C87  1  0.55290000  0.19450000  0.47070000  1.0 -0.0698540512
C  C88  1  0.19450000  0.55290000  0.78190000  1.0 -0.0698540512
C  C89  1  0.55290000  0.47070000  0.78190000  1.0 -0.0698540512
C  C90  1  0.19450000  0.78190000  0.47070000  1.0 -0.0698540512
C  C91  1  0.47070000  0.55290000  0.19450000  1.0 -0.0698540512
C  C92  1  0.78190000  0.19450000  0.55290000  1.0 -0.0698540512
C  C93  1  0.78190000  0.55290000  0.47070000  1.0 -0.0698540512
C  C94  1  0.47070000  0.19450000  0.78190000  1.0 -0.0698540512
C  C95  1  0.19450000  0.47070000  0.55290000  1.0 -0.0698540512
C  C96  1  0.55290000  0.78190000  0.19450000  1.0 -0.0698540512
C  C97  1  0.56010000  0.77870000  0.46650000  1.0 -0.0617875007
C  C98  1  0.77870000  0.56010000  0.19470000  1.0 -0.0617875007
C  C99  1  0.46650000  0.19470000  0.56010000  1.0 -0.0698540512
C  C100  1  0.19470000  0.46650000  0.77870000  1.0 -0.0698540512
C  C101  1  0.46650000  0.56010000  0.77870000  1.0 -0.0698540512
C  C102  1  0.19470000  0.77870000  0.56010000  1.0 -0.0698540512
C  C103  1  0.56010000  0.46650000  0.19470000  1.0 -0.0617875007
C  C104  1  0.77870000  0.19470000  0.46650000  1.0 -0.0617875007
C  C105  1  0.77870000  0.46650000  0.56010000  1.0 -0.0698540512
C  C106  1  0.56010000  0.19470000  0.77870000  1.0 -0.0698540512
C  C107  1  0.19470000  0.56010000  0.46650000  1.0 -0.0617875007
C  C108  1  0.46650000  0.77870000  0.19470000  1.0 -0.0698540512
C  C109  1  0.46900000  0.73180000  0.55320000  1.0 0.0317475892
C  C110  1  0.73180000  0.46900000  0.24600000  1.0 0.0317475892
C  C111  1  0.55320000  0.24600000  0.46900000  1.0 0.0317475892
C  C112  1  0.24600000  0.55320000  0.73180000  1.0 0.0317475892
C  C113  1  0.55320000  0.46900000  0.73180000  1.0 0.0317475892
C  C114  1  0.24600000  0.73180000  0.46900000  1.0 0.0317475892
C  C115  1  0.46900000  0.55320000  0.24600000  1.0 0.0317475892
C  C116  1  0.73180000  0.24600000  0.55320000  1.0 0.0317475892
C  C117  1  0.73180000  0.55320000  0.46900000  1.0 0.0317475892
C  C118  1  0.46900000  0.24600000  0.73180000  1.0 0.0317475892
C  C119  1  0.24600000  0.46900000  0.55320000  1.0 0.0317475892
C  C120  1  0.55320000  0.73180000  0.24600000  1.0 0.0317475892
C  C121  1  0.55830000  0.72870000  0.46670000  1.0 0.0378748494
C  C122  1  0.72870000  0.55830000  0.24630000  1.0 0.0317475892
C  C123  1  0.46670000  0.24630000  0.55830000  1.0 0.0378748494
C  C124  1  0.24630000  0.46670000  0.72870000  1.0 0.0378748494
C  C125  1  0.46670000  0.55830000  0.72870000  1.0 0.0317475892
C  C126  1  0.24630000  0.72870000  0.55830000  1.0 0.0378748494
C  C127  1  0.55830000  0.46670000  0.24630000  1.0 0.0317475892
C  C128  1  0.72870000  0.24630000  0.46670000  1.0 0.0317475892
C  C129  1  0.72870000  0.46670000  0.55830000  1.0 0.0378748494
C  C130  1  0.55830000  0.24630000  0.72870000  1.0 0.0317475892
C  C131  1  0.24630000  0.55830000  0.46670000  1.0 0.0317475892
C  C132  1  0.46670000  0.72870000  0.24630000  1.0 0.0378748494
C  C133  1  0.51280000  0.70540000  0.51000000  1.0 -0.0698540512
C  C134  1  0.70540000  0.51280000  0.27180000  1.0 -0.0698540512
C  C135  1  0.51000000  0.27180000  0.51280000  1.0 -0.0698540512
C  C136  1  0.27180000  0.51000000  0.70540000  1.0 -0.0698540512
C  C137  1  0.51000000  0.51280000  0.70540000  1.0 -0.0698540512
C  C138  1  0.27180000  0.70540000  0.51280000  1.0 -0.0698540512
C  C139  1  0.51280000  0.51000000  0.27180000  1.0 -0.0698540512
C  C140  1  0.70540000  0.27180000  0.51000000  1.0 -0.0698540512
C  C141  1  0.70540000  0.51000000  0.51280000  1.0 -0.0698540512
C  C142  1  0.51280000  0.27180000  0.70540000  1.0 -0.0698540512
C  C143  1  0.27180000  0.51280000  0.51000000  1.0 -0.0698540512
C  C144  1  0.51000000  0.70540000  0.27180000  1.0 -0.0698540512
C  C145  1  0.50480000  0.65660000  0.50520000  1.0 0.6884263034
C  C146  1  0.65660000  0.50480000  0.33340000  1.0 0.6884263034
C  C147  1  0.50520000  0.33340000  0.50480000  1.0 0.6884263034
C  C148  1  0.33340000  0.50520000  0.65660000  1.0 0.6884263034
C  C149  1  0.50520000  0.50480000  0.65660000  1.0 0.6884263034
C  C150  1  0.33340000  0.65660000  0.50480000  1.0 0.6884263034
C  C151  1  0.50480000  0.50520000  0.33340000  1.0 0.6884263034
C  C152  1  0.65660000  0.33340000  0.50520000  1.0 0.6884263034
C  C153  1  0.65660000  0.50520000  0.50480000  1.0 0.6884263034
C  C154  1  0.50480000  0.33340000  0.65660000  1.0 0.6884263034
C  C155  1  0.33340000  0.50480000  0.50520000  1.0 0.6884263034
C  C156  1  0.50520000  0.65660000  0.33340000  1.0 0.6884263034
C  C157  1  0.47420000  0.92320000  0.66600000  1.0 0.1306862811
C  C158  1  0.92320000  0.47420000  0.93660000  1.0 0.1306862811
C  C159  1  0.66600000  0.93660000  0.47420000  1.0 0.1306862811
C  C160  1  0.93660000  0.66600000  0.92320000  1.0 0.1240503416
C  C161  1  0.66600000  0.47420000  0.92320000  1.0 0.1306862811
C  C162  1  0.93660000  0.92320000  0.47420000  1.0 0.1306862811
C  C163  1  0.47420000  0.66600000  0.93660000  1.0 0.1306862811
C  C164  1  0.92320000  0.93660000  0.66600000  1.0 0.1306862811
C  C165  1  0.92320000  0.66600000  0.47420000  1.0 0.1306862811
C  C166  1  0.47420000  0.93660000  0.92320000  1.0 0.1306862811
C  C167  1  0.93660000  0.47420000  0.66600000  1.0 0.1306862811
C  C168  1  0.66600000  0.92320000  0.93660000  1.0 0.1306862811
C  C169  1  0.38810000  0.92830000  0.65210000  1.0 0.1485327226
C  C170  1  0.92830000  0.38810000  0.03150000  1.0 0.1485327226
C  C171  1  0.65210000  0.03150000  0.38810000  1.0 0.1485327226
C  C172  1  0.03150000  0.65210000  0.92830000  1.0 0.1603909583
C  C173  1  0.65210000  0.38810000  0.92830000  1.0 0.1485327226
C  C174  1  0.03150000  0.92830000  0.38810000  1.0 0.1485327226
C  C175  1  0.38810000  0.65210000  0.03150000  1.0 0.1603909583
C  C176  1  0.92830000  0.03150000  0.65210000  1.0 0.1603909583
C  C177  1  0.92830000  0.65210000  0.38810000  1.0 0.1485327226
C  C178  1  0.38810000  0.03150000  0.92830000  1.0 0.1603909583
C  C179  1  0.03150000  0.38810000  0.65210000  1.0 0.1485327226
C  C180  1  0.65210000  0.92830000  0.03150000  1.0 0.1485327226
C  C181  1  0.38230000  0.01350000  0.66810000  1.0 0.0974872827
C  C182  1  0.01350000  0.38230000  0.93610000  1.0 0.0974872827
C  C183  1  0.66810000  0.93610000  0.38230000  1.0 0.0974872827
C  C184  1  0.93610000  0.66810000  0.01350000  1.0 0.0974872827
C  C185  1  0.66810000  0.38230000  0.01350000  1.0 0.0974872827
C  C186  1  0.93610000  0.01350000  0.38230000  1.0 0.0974872827
C  C187  1  0.38230000  0.66810000  0.93610000  1.0 0.0974872827
C  C188  1  0.01350000  0.93610000  0.66810000  1.0 0.0974872827
C  C189  1  0.01350000  0.66810000  0.38230000  1.0 0.0974872827
C  C190  1  0.38230000  0.93610000  0.01350000  1.0 0.0974872827
C  C191  1  0.93610000  0.38230000  0.66810000  1.0 0.0974872827
C  C192  1  0.66810000  0.01350000  0.93610000  1.0 0.0974872827
C  C193  1  0.51950000  0.85590000  0.51050000  1.0 -0.010119841
C  C194  1  0.85590000  0.51950000  0.11410000  1.0 -0.010119841
C  C195  1  0.51050000  0.11410000  0.51950000  1.0 -0.010119841
C  C196  1  0.11410000  0.51050000  0.85590000  1.0 -0.010119841
C  C197  1  0.51050000  0.51950000  0.85590000  1.0 -0.010119841
C  C198  1  0.11410000  0.85590000  0.51950000  1.0 -0.010119841
C  C199  1  0.51950000  0.51050000  0.11410000  1.0 -0.010119841
C  C200  1  0.85590000  0.11410000  0.51050000  1.0 -0.010119841
C  C201  1  0.85590000  0.51050000  0.51950000  1.0 -0.010119841
C  C202  1  0.51950000  0.11410000  0.85590000  1.0 -0.010119841
C  C203  1  0.11410000  0.51950000  0.51050000  1.0 -0.010119841
C  C204  1  0.51050000  0.85590000  0.11410000  1.0 -0.010119841
C  C205  1  0.47650000  0.87870000  0.55650000  1.0 0.0213564188
C  C206  1  0.87870000  0.47650000  0.08830000  1.0 0.0137396021
C  C207  1  0.55650000  0.08830000  0.47650000  1.0 0.0213564188
C  C208  1  0.08830000  0.55650000  0.87870000  1.0 0.0213564188
C  C209  1  0.55650000  0.47650000  0.87870000  1.0 0.0213564188
C  C210  1  0.08830000  0.87870000  0.47650000  1.0 0.0137396021
C  C211  1  0.47650000  0.55650000  0.08830000  1.0 0.0137396021
C  C212  1  0.87870000  0.08830000  0.55650000  1.0 0.0137396021
C  C213  1  0.87870000  0.55650000  0.47650000  1.0 0.0137396021
C  C214  1  0.47650000  0.08830000  0.87870000  1.0 0.0213564188
C  C215  1  0.08830000  0.47650000  0.55650000  1.0 0.0137396021
C  C216  1  0.55650000  0.87870000  0.08830000  1.0 0.0213564188
C  C217  1  0.51970000  0.95470000  0.51550000  1.0 0.1425225742
C  C218  1  0.95470000  0.51970000  0.01010000  1.0 0.1425225742
C  C219  1  0.51550000  0.01010000  0.51970000  1.0 0.1425225742
C  C220  1  0.01010000  0.51550000  0.95470000  1.0 0.1425225742
C  C221  1  0.51550000  0.51970000  0.95470000  1.0 0.1425225742
C  C222  1  0.01010000  0.95470000  0.51970000  1.0 0.1425225742
C  C223  1  0.51970000  0.51550000  0.01010000  1.0 0.1425225742
C  C224  1  0.95470000  0.01010000  0.51550000  1.0 0.1485327226
C  C225  1  0.95470000  0.51550000  0.51970000  1.0 0.1425225742
C  C226  1  0.51970000  0.01010000  0.95470000  1.0 0.1425225742
C  C227  1  0.01010000  0.51970000  0.51550000  1.0 0.1425225742
C  C228  1  0.51550000  0.95470000  0.01010000  1.0 0.1425225742
C  C229  1  0.56280000  0.88240000  0.46700000  1.0 -0.0307336004
C  C230  1  0.88240000  0.56280000  0.08780000  1.0 -0.0307336004
C  C231  1  0.46700000  0.08780000  0.56280000  1.0 -0.0307336004
C  C232  1  0.08780000  0.46700000  0.88240000  1.0 -0.0307336004
C  C233  1  0.46700000  0.56280000  0.88240000  1.0 -0.0307336004
C  C234  1  0.08780000  0.88240000  0.56280000  1.0 -0.0307336004
C  C235  1  0.56280000  0.46700000  0.08780000  1.0 -0.0307336004
C  C236  1  0.88240000  0.08780000  0.46700000  1.0 -0.0307336004
C  C237  1  0.88240000  0.46700000  0.56280000  1.0 -0.0307336004
C  C238  1  0.56280000  0.08780000  0.88240000  1.0 -0.0307336004
C  C239  1  0.08780000  0.56280000  0.46700000  1.0 -0.0307336004
C  C240  1  0.46700000  0.88240000  0.08780000  1.0 -0.0307336004
C  C241  1  0.50470000  0.05870000  0.36710000  1.0 0.0317475892
C  C242  1  0.05870000  0.50470000  0.06950000  1.0 0.0378748494
C  C243  1  0.36710000  0.06950000  0.50470000  1.0 0.0378748494
C  C244  1  0.06950000  0.36710000  0.05870000  1.0 0.0378748494
C  C245  1  0.36710000  0.50470000  0.05870000  1.0 0.0317475892
C  C246  1  0.06950000  0.05870000  0.50470000  1.0 0.0317475892
C  C247  1  0.50470000  0.36710000  0.06950000  1.0 0.0317475892
C  C248  1  0.05870000  0.06950000  0.36710000  1.0 0.0317475892
C  C249  1  0.05870000  0.36710000  0.50470000  1.0 0.0317475892
C  C250  1  0.50470000  0.06950000  0.05870000  1.0 0.0378748494
C  C251  1  0.06950000  0.50470000  0.36710000  1.0 0.0317475892
C  C252  1  0.36710000  0.05870000  0.06950000  1.0 0.0317475892
N  N1  1  0.49050000  0.96490000  0.48650000  1.0 -0.0788315633
N  N2  1  0.96490000  0.49050000  0.05810000  1.0 -0.0788315633
N  N3  1  0.48650000  0.05810000  0.49050000  1.0 -0.0788315633
N  N4  1  0.05810000  0.48650000  0.96490000  1.0 -0.0788315633
N  N5  1  0.48650000  0.49050000  0.96490000  1.0 -0.0788315633
N  N6  1  0.05810000  0.96490000  0.49050000  1.0 -0.0788315633
N  N7  1  0.49050000  0.48650000  0.05810000  1.0 -0.0788315633
N  N8  1  0.96490000  0.05810000  0.48650000  1.0 -0.0698540512
N  N9  1  0.96490000  0.48650000  0.49050000  1.0 -0.0788315633
N  N10  1  0.49050000  0.05810000  0.96490000  1.0 -0.0788315633
N  N11  1  0.05810000  0.49050000  0.48650000  1.0 -0.0788315633
N  N12  1  0.48650000  0.96490000  0.05810000  1.0 -0.0788315633
N  N13  1  0.47660000  0.92800000  0.55900000  1.0 -0.0788315633
N  N14  1  0.92800000  0.47660000  0.03640000  1.0 -0.0788315633
N  N15  1  0.55900000  0.03640000  0.47660000  1.0 -0.0698540512
N  N16  1  0.03640000  0.55900000  0.92800000  1.0 -0.0788315633
N  N17  1  0.55900000  0.47660000  0.92800000  1.0 -0.0698540512
N  N18  1  0.03640000  0.92800000  0.47660000  1.0 -0.0788315633
N  N19  1  0.47660000  0.55900000  0.03640000  1.0 -0.0788315633
N  N20  1  0.92800000  0.03640000  0.55900000  1.0 -0.0788315633
N  N21  1  0.92800000  0.55900000  0.47660000  1.0 -0.0698540512
N  N22  1  0.47660000  0.03640000  0.92800000  1.0 -0.0788315633
N  N23  1  0.03640000  0.47660000  0.55900000  1.0 -0.0788315633
N  N24  1  0.55900000  0.92800000  0.03640000  1.0 -0.0788315633
N  N25  1  0.56280000  0.93180000  0.46960000  1.0 -0.0307336004
N  N26  1  0.93180000  0.56280000  0.03580000  1.0 -0.0307336004
N  N27  1  0.46960000  0.03580000  0.56280000  1.0 -0.0307336004
N  N28  1  0.03580000  0.46960000  0.93180000  1.0 -0.039773352
N  N29  1  0.46960000  0.56280000  0.93180000  1.0 -0.039773352
N  N30  1  0.03580000  0.93180000  0.56280000  1.0 -0.039773352
N  N31  1  0.56280000  0.46960000  0.03580000  1.0 -0.0307336004
N  N32  1  0.93180000  0.03580000  0.46960000  1.0 -0.0307336004
N  N33  1  0.93180000  0.46960000  0.56280000  1.0 -0.0307336004
N  N34  1  0.56280000  0.03580000  0.93180000  1.0 -0.0307336004
N  N35  1  0.03580000  0.56280000  0.46960000  1.0 -0.0307336004
N  N36  1  0.46960000  0.93180000  0.03580000  1.0 -0.0307336004
Cl  Cl1  1  0.50140000  0.08180000  0.33920000  1.0 0.0817441389
Cl  Cl2  1  0.08180000  0.50140000  0.07760000  1.0 0.0817441389
Cl  Cl3  1  0.33920000  0.07760000  0.50140000  1.0 0.0817441389
Cl  Cl4  1  0.07760000  0.33920000  0.08180000  1.0 0.0817441389
Cl  Cl5  1  0.33920000  0.50140000  0.08180000  1.0 0.0817441389
Cl  Cl6  1  0.07760000  0.08180000  0.50140000  1.0 0.0817441389
Cl  Cl7  1  0.50140000  0.33920000  0.07760000  1.0 0.0817441389
Cl  Cl8  1  0.08180000  0.07760000  0.33920000  1.0 0.0817441389
Cl  Cl9  1  0.08180000  0.33920000  0.50140000  1.0 0.0817441389
Cl  Cl10  1  0.50140000  0.07760000  0.08180000  1.0 0.0817441389
Cl  Cl11  1  0.07760000  0.50140000  0.33920000  1.0 0.0817441389
Cl  Cl12  1  0.33920000  0.08180000  0.07760000  1.0 0.0817441389
Cl  Cl13  1  0.53540000  0.03880000  0.38960000  1.0 0.0213564188
Cl  Cl14  1  0.03880000  0.53540000  0.03620000  1.0 0.0213564188
Cl  Cl15  1  0.38960000  0.03620000  0.53540000  1.0 0.0213564188
Cl  Cl16  1  0.03620000  0.38960000  0.03880000  1.0 0.0213564188
Cl  Cl17  1  0.38960000  0.53540000  0.03880000  1.0 0.0317475892
Cl  Cl18  1  0.03620000  0.03880000  0.53540000  1.0 0.0213564188
Cl  Cl19  1  0.53540000  0.38960000  0.03620000  1.0 0.0213564188
Cl  Cl20  1  0.03880000  0.03620000  0.38960000  1.0 0.0213564188
Cl  Cl21  1  0.03880000  0.38960000  0.53540000  1.0 0.0213564188
Cl  Cl22  1  0.53540000  0.03620000  0.03880000  1.0 0.0213564188
Cl  Cl23  1  0.03620000  0.53540000  0.38960000  1.0 0.0213564188
Cl  Cl24  1  0.38960000  0.03880000  0.03620000  1.0 0.0213564188
O  O1  1  0.38330000  0.03730000  0.38890000  1.0 -0.1281489419
O  O2  1  0.03730000  0.38330000  0.19050000  1.0 -0.1281489419
O  O3  1  0.38890000  0.19050000  0.38330000  1.0 -0.1281489419
O  O4  1  0.19050000  0.38890000  0.03730000  1.0 -0.1281489419
O  O5  1  0.38890000  0.38330000  0.03730000  1.0 -0.1281489419
O  O6  1  0.19050000  0.03730000  0.38330000  1.0 -0.1281489419
O  O7  1  0.38330000  0.38890000  0.19050000  1.0 -0.1281489419
O  O8  1  0.03730000  0.19050000  0.38890000  1.0 -0.1281489419
O  O9  1  0.03730000  0.38890000  0.38330000  1.0 -0.1281489419
O  O10  1  0.38330000  0.19050000  0.03730000  1.0 -0.1281489419
O  O11  1  0.19050000  0.38330000  0.38890000  1.0 -0.1281489419
O  O12  1  0.38890000  0.03730000  0.19050000  1.0 -0.1281489419
O  O13  1  0.45770000  0.63750000  0.54950000  1.0 -0.6684616381
O  O14  1  0.63750000  0.45770000  0.35530000  1.0 -0.6684616381
O  O15  1  0.54950000  0.35530000  0.45770000  1.0 -0.6684616381
O  O16  1  0.35530000  0.54950000  0.63750000  1.0 -0.6684616381
O  O17  1  0.54950000  0.45770000  0.63750000  1.0 -0.6684616381
O  O18  1  0.35530000  0.63750000  0.45770000  1.0 -0.6684616381
O  O19  1  0.45770000  0.54950000  0.35530000  1.0 -0.6684616381
O  O20  1  0.63750000  0.35530000  0.54950000  1.0 -0.6684616381
O  O21  1  0.63750000  0.54950000  0.45770000  1.0 -0.6684616381
O  O22  1  0.45770000  0.35530000  0.63750000  1.0 -0.6684616381
O  O23  1  0.35530000  0.45770000  0.54950000  1.0 -0.6684616381
O  O24  1  0.54950000  0.63750000  0.35530000  1.0 -0.6684616381
O  O25  1  0.54790000  0.63950000  0.45710000  1.0 -0.6590354467
O  O26  1  0.63950000  0.54790000  0.35550000  1.0 -0.6590354467
O  O27  1  0.45710000  0.35550000  0.54790000  1.0 -0.6590354467
O  O28  1  0.35550000  0.45710000  0.63950000  1.0 -0.6590354467
O  O29  1  0.45710000  0.54790000  0.63950000  1.0 -0.6590354467
O  O30  1  0.35550000  0.63950000  0.54790000  1.0 -0.6590354467
O  O31  1  0.54790000  0.45710000  0.35550000  1.0 -0.6590354467
O  O32  1  0.63950000  0.35550000  0.45710000  1.0 -0.6590354467
O  O33  1  0.63950000  0.45710000  0.54790000  1.0 -0.6590354467
O  O34  1  0.54790000  0.35550000  0.63950000  1.0 -0.6590354467
O  O35  1  0.35550000  0.54790000  0.45710000  1.0 -0.6590354467
O  O36  1  0.45710000  0.63950000  0.35550000  1.0 -0.6590354467
O  O37  1  0.52760000  0.52760000  0.52760000  1.0 -1.164028945
O  O38  1  0.52760000  0.52760000  0.41720000  1.0 -1.164028945
O  O39  1  0.52760000  0.41720000  0.52760000  1.0 -1.1683572754
O  O40  1  0.41720000  0.52760000  0.52760000  1.0 -1.164028945
O  O41  1  0.46210000  0.61370000  0.46210000  1.0 -1.0678227468
O  O42  1  0.61370000  0.46210000  0.46210000  1.0 -1.0678227468
O  O43  1  0.46210000  0.46210000  0.46210000  1.0 -1.0678227468
O  O44  1  0.46210000  0.46210000  0.61370000  1.0 -1.0678227468
O  O45  1  0.50620000  0.89780000  0.69420000  1.0 -0.1281489419
O  O46  1  0.89780000  0.50620000  0.90180000  1.0 -0.1281489419
O  O47  1  0.69420000  0.90180000  0.50620000  1.0 -0.1281489419
O  O48  1  0.90180000  0.69420000  0.89780000  1.0 -0.1281489419
O  O49  1  0.69420000  0.50620000  0.89780000  1.0 -0.1281489419
O  O50  1  0.90180000  0.89780000  0.50620000  1.0 -0.1281489419
O  O51  1  0.50620000  0.69420000  0.90180000  1.0 -0.1281489419
O  O52  1  0.89780000  0.90180000  0.69420000  1.0 -0.1281489419
O  O53  1  0.89780000  0.69420000  0.50620000  1.0 -0.1281489419
O  O54  1  0.50620000  0.90180000  0.89780000  1.0 -0.1281489419
O  O55  1  0.90180000  0.50620000  0.69420000  1.0 -0.1281489419
O  O56  1  0.69420000  0.89780000  0.90180000  1.0 -0.1281489419
O  O57  1  0.36780000  0.88980000  0.68620000  1.0 -0.1281489419
O  O58  1  0.88980000  0.36780000  0.05620000  1.0 -0.1281489419
O  O59  1  0.68620000  0.05620000  0.36780000  1.0 -0.1281489419
O  O60  1  0.05620000  0.68620000  0.88980000  1.0 -0.135379152
O  O61  1  0.68620000  0.36780000  0.88980000  1.0 -0.135379152
O  O62  1  0.05620000  0.88980000  0.36780000  1.0 -0.1281489419
O  O63  1  0.36780000  0.68620000  0.05620000  1.0 -0.1281489419
O  O64  1  0.88980000  0.05620000  0.68620000  1.0 -0.135379152
O  O65  1  0.88980000  0.68620000  0.36780000  1.0 -0.135379152
O  O66  1  0.36780000  0.05620000  0.88980000  1.0 -0.135379152
O  O67  1  0.05620000  0.36780000  0.68620000  1.0 -0.1281489419
O  O68  1  0.68620000  0.88980000  0.05620000  1.0 -0.1281489419
O  O69  1  0.34930000  0.03470000  0.70570000  1.0 -0.1209970954
O  O70  1  0.03470000  0.34930000  0.91030000  1.0 -0.1209970954
O  O71  1  0.70570000  0.91030000  0.34930000  1.0 -0.1209970954
O  O72  1  0.91030000  0.70570000  0.03470000  1.0 -0.1209970954
O  O73  1  0.70570000  0.34930000  0.03470000  1.0 -0.1209970954
O  O74  1  0.91030000  0.03470000  0.34930000  1.0 -0.1209970954
O  O75  1  0.34930000  0.70570000  0.91030000  1.0 -0.1209970954
O  O76  1  0.03470000  0.91030000  0.70570000  1.0 -0.1209970954
O  O77  1  0.03470000  0.70570000  0.34930000  1.0 -0.1209970954
O  O78  1  0.34930000  0.91030000  0.03470000  1.0 -0.1209970954
O  O79  1  0.91030000  0.34930000  0.70570000  1.0 -0.1209970954
O  O80  1  0.70570000  0.03470000  0.91030000  1.0 -0.1209970954
O  O81  1  0.54220000  0.06020000  0.32180000  1.0 -0.0481812674
O  O82  1  0.06020000  0.54220000  0.07580000  1.0 -0.039773352
O  O83  1  0.32180000  0.07580000  0.54220000  1.0 -0.039773352
O  O84  1  0.07580000  0.32180000  0.06020000  1.0 -0.039773352
O  O85  1  0.32180000  0.54220000  0.06020000  1.0 -0.039773352
O  O86  1  0.07580000  0.06020000  0.54220000  1.0 -0.039773352
O  O87  1  0.54220000  0.32180000  0.07580000  1.0 -0.039773352
O  O88  1  0.06020000  0.07580000  0.32180000  1.0 -0.039773352
O  O89  1  0.06020000  0.32180000  0.54220000  1.0 -0.039773352
O  O90  1  0.54220000  0.07580000  0.06020000  1.0 -0.039773352
O  O91  1  0.07580000  0.54220000  0.32180000  1.0 -0.0481812674
O  O92  1  0.32180000  0.06020000  0.07580000  1.0 -0.039773352
