# DDEC6 charges by PACMAN v1.1 (https://github.com/mtap-research/PACMAN-charge/)
data_EWIBIY_ASR_pacman
_symmetry_space_group_name_H-M   'P 1'
_cell_length_a   23.77200000
_cell_length_b   23.77200000
_cell_length_c   23.77200000
_cell_angle_alpha   90.00000000
_cell_angle_beta   90.00000000
_cell_angle_gamma   90.00000000
_symmetry_Int_Tables_number   1
_chemical_formula_structural   Dy16Zn4H73Rh4C42S12N12O43
_chemical_formula_sum   'Dy64 Zn16 H292 Rh16 C168 S48 N48 O172'
_cell_volume   13433.74699565
_cell_formula_units_Z   4
loop_
 _symmetry_equiv_pos_site_id
 _symmetry_equiv_pos_as_xyz
  1  'x, y, z'
loop_
 _atom_site_type_symbol
 _atom_site_label
 _atom_site_symmetry_multiplicity
 _atom_site_fract_x
 _atom_site_fract_y
 _atom_site_fract_z
 _atom_site_occupancy
 _atom_site_charge
Dy  Dy1  1  0.30886000  0.22712000  0.18142000  1.0 0.7639388259
Dy  Dy2  1  0.53080000  0.54950000  0.47970000  1.0 0.0973624263
Dy  Dy3  1  0.31880000  0.25150000  0.30150000  1.0 0.0044719319
Dy  Dy4  1  0.32690000  0.20280000  0.19070000  1.0 0.4886578858
Dy  Dy5  1  0.57481000  0.45020000  0.99341000  1.0 0.0973624263
Dy  Dy6  1  0.19114000  0.77288000  0.68142000  1.0 0.7702660444
Dy  Dy7  1  0.96920000  0.45050000  0.97970000  1.0 0.0973624263
Dy  Dy8  1  0.18120000  0.74850000  0.80150000  1.0 0.0044719319
Dy  Dy9  1  0.17310000  0.79720000  0.69070000  1.0 0.4886578858
Dy  Dy10  1  0.92519000  0.54980000  0.49341000  1.0 0.0973624263
Dy  Dy11  1  0.69114000  0.72712000  0.31858000  1.0 0.7702660444
Dy  Dy12  1  0.46920000  0.04950000  0.02030000  1.0 0.0973624263
Dy  Dy13  1  0.68120000  0.75150000  0.19850000  1.0 0.0064735158
Dy  Dy14  1  0.67310000  0.70280000  0.30930000  1.0 0.4886578858
Dy  Dy15  1  0.42519000  0.95020000  0.50659000  1.0 0.0973624263
Dy  Dy16  1  0.80886000  0.27288000  0.81858000  1.0 0.7702660444
Dy  Dy17  1  0.03080000  0.95050000  0.52030000  1.0 0.1123059982
Dy  Dy18  1  0.81880000  0.24850000  0.69850000  1.0 0.0044719319
Dy  Dy19  1  0.82690000  0.29720000  0.80930000  1.0 0.4886578858
Dy  Dy20  1  0.07481000  0.04980000  0.00659000  1.0 0.0973624263
Dy  Dy21  1  0.18142000  0.30886000  0.22712000  1.0 0.7639388259
Dy  Dy22  1  0.47970000  0.53080000  0.54950000  1.0 0.0973624263
Dy  Dy23  1  0.30150000  0.31880000  0.25150000  1.0 0.0044719319
Dy  Dy24  1  0.19070000  0.32690000  0.20280000  1.0 0.4886578858
Dy  Dy25  1  0.99341000  0.57481000  0.45020000  1.0 0.0973624263
Dy  Dy26  1  0.68142000  0.19114000  0.77288000  1.0 0.7702660444
Dy  Dy27  1  0.97970000  0.96920000  0.45050000  1.0 0.0973624263
Dy  Dy28  1  0.80150000  0.18120000  0.74850000  1.0 0.0044719319
Dy  Dy29  1  0.69070000  0.17310000  0.79720000  1.0 0.4886578858
Dy  Dy30  1  0.49341000  0.92519000  0.54980000  1.0 0.0973624263
Dy  Dy31  1  0.31858000  0.69114000  0.72712000  1.0 0.7702660444
Dy  Dy32  1  0.02030000  0.46920000  0.04950000  1.0 0.0973624263
Dy  Dy33  1  0.19850000  0.68120000  0.75150000  1.0 0.0044719319
Dy  Dy34  1  0.30930000  0.67310000  0.70280000  1.0 0.4886578858
Dy  Dy35  1  0.50659000  0.42519000  0.95020000  1.0 0.0973624263
Dy  Dy36  1  0.81858000  0.80886000  0.27288000  1.0 0.7702660444
Dy  Dy37  1  0.52030000  0.03080000  0.95050000  1.0 0.0973624263
Dy  Dy38  1  0.69850000  0.81880000  0.24850000  1.0 0.0064735158
Dy  Dy39  1  0.80930000  0.82690000  0.29720000  1.0 0.4886578858
Dy  Dy40  1  0.00659000  0.07481000  0.04980000  1.0 0.0973624263
Dy  Dy41  1  0.22712000  0.18142000  0.30886000  1.0 0.7639388259
Dy  Dy42  1  0.54950000  0.47970000  0.53080000  1.0 0.0973624263
Dy  Dy43  1  0.25150000  0.30150000  0.31880000  1.0 0.0044719319
Dy  Dy44  1  0.20280000  0.19070000  0.32690000  1.0 0.4886578858
Dy  Dy45  1  0.45020000  0.99341000  0.57481000  1.0 0.0973624263
Dy  Dy46  1  0.77288000  0.68142000  0.19114000  1.0 0.7702660444
Dy  Dy47  1  0.45050000  0.97970000  0.96920000  1.0 0.0973624263
Dy  Dy48  1  0.74850000  0.80150000  0.18120000  1.0 0.0064735158
Dy  Dy49  1  0.79720000  0.69070000  0.17310000  1.0 0.4886578858
Dy  Dy50  1  0.54980000  0.49341000  0.92519000  1.0 0.0973624263
Dy  Dy51  1  0.72712000  0.31858000  0.69114000  1.0 0.7702660444
Dy  Dy52  1  0.04950000  0.02030000  0.46920000  1.0 0.0973624263
Dy  Dy53  1  0.75150000  0.19850000  0.68120000  1.0 0.0044719319
Dy  Dy54  1  0.70280000  0.30930000  0.67310000  1.0 0.4886578858
Dy  Dy55  1  0.95020000  0.50659000  0.42519000  1.0 0.0973624263
Dy  Dy56  1  0.27288000  0.81858000  0.80886000  1.0 0.7702660444
Dy  Dy57  1  0.95050000  0.52030000  0.03080000  1.0 0.0973624263
Dy  Dy58  1  0.24850000  0.69850000  0.81880000  1.0 0.0044719319
Dy  Dy59  1  0.29720000  0.80930000  0.82690000  1.0 0.4886578858
Dy  Dy60  1  0.04980000  0.00659000  0.07481000  1.0 0.0973624263
Dy  Dy61  1  0.31428000  0.31428000  0.31428000  1.0 0.3640036598
Dy  Dy62  1  0.18572000  0.68572000  0.81428000  1.0 0.365531312
Dy  Dy63  1  0.68572000  0.81428000  0.18572000  1.0 0.3640036598
Dy  Dy64  1  0.81428000  0.18572000  0.68572000  1.0 0.365531312
Zn  Zn1  1  0.66877000  0.23387000  0.37482000  1.0 0.5601246745
Zn  Zn2  1  0.83123000  0.76613000  0.87482000  1.0 0.5601246745
Zn  Zn3  1  0.33123000  0.73387000  0.12518000  1.0 0.5601246745
Zn  Zn4  1  0.16877000  0.26613000  0.62518000  1.0 0.5601246745
Zn  Zn5  1  0.37482000  0.66877000  0.23387000  1.0 0.5601246745
Zn  Zn6  1  0.87482000  0.83123000  0.76613000  1.0 0.5601246745
Zn  Zn7  1  0.12518000  0.33123000  0.73387000  1.0 0.5601246745
Zn  Zn8  1  0.62518000  0.16877000  0.26613000  1.0 0.5601246745
Zn  Zn9  1  0.23387000  0.37482000  0.66877000  1.0 0.5601246745
Zn  Zn10  1  0.76613000  0.87482000  0.83123000  1.0 0.5601246745
Zn  Zn11  1  0.73387000  0.12518000  0.33123000  1.0 0.5601246745
Zn  Zn12  1  0.26613000  0.62518000  0.16877000  1.0 0.5601246745
Zn  Zn13  1  0.73967000  0.23967000  0.26033000  1.0 0.5601246745
Zn  Zn14  1  0.76033000  0.76033000  0.76033000  1.0 0.5601246745
Zn  Zn15  1  0.26033000  0.73967000  0.23967000  1.0 0.5601246745
Zn  Zn16  1  0.23967000  0.26033000  0.73967000  1.0 0.5601246745
H  H1  1  0.49543000  0.13469000  0.42692000  1.0 0.2889128035
H  H2  1  0.50403000  0.09099000  0.46980000  1.0 0.2889128035
H  H3  1  0.50055000  0.33381000  0.29243000  1.0 0.2889128035
H  H4  1  0.50498000  0.37409000  0.24567000  1.0 0.2889128035
H  H5  1  0.60225000  0.34243000  0.15298000  1.0 0.2802507142
H  H6  1  0.58320000  0.39628000  0.17663000  1.0 0.2802507142
H  H7  1  0.64502000  0.42169000  0.29780000  1.0 0.2802507142
H  H8  1  0.58732000  0.43491000  0.28016000  1.0 0.2889128035
H  H9  1  0.58242000  0.23717000  0.49619000  1.0 0.1604255652
H  H10  1  0.55314000  0.22653000  0.43625000  1.0 0.1384493798
H  H11  1  0.55368000  0.14713000  0.52715000  1.0 0.1218274366
H  H12  1  0.49742000  0.21210000  0.20068000  1.0 0.1494526941
H  H13  1  0.50678000  0.22605000  0.26611000  1.0 0.1384493798
H  H14  1  0.49548000  0.30921000  0.17914000  1.0 0.1218274366
H  H15  1  0.74836000  0.36483000  0.17545000  1.0 0.1494526941
H  H16  1  0.70543000  0.31572000  0.15752000  1.0 0.1384493798
H  H17  1  0.67103000  0.42757000  0.19227000  1.0 0.1123059982
H  H18  1  0.59922000  0.35540000  0.42760000  1.0 0.1494526941
H  H19  1  0.65586000  0.36102000  0.39138000  1.0 0.1384493798
H  H20  1  0.54839000  0.40737000  0.36047000  1.0 0.1123059982
H  H21  1  0.34745000  0.20141000  0.29641000  1.0 0.2802507142
H  H22  1  0.22794000  0.39234000  0.05369000  1.0 0.1716719956
H  H23  1  0.29107000  0.36901000  0.05513000  1.0 0.1716719956
H  H24  1  0.24440000  0.33754000  0.01822000  1.0 0.1803046083
H  H25  1  0.00457000  0.86531000  0.92692000  1.0 0.2889128035
H  H26  1  0.99597000  0.90901000  0.96980000  1.0 0.2889128035
H  H27  1  0.99945000  0.66619000  0.79243000  1.0 0.2889128035
H  H28  1  0.99502000  0.62591000  0.74567000  1.0 0.2889128035
H  H29  1  0.89775000  0.65757000  0.65298000  1.0 0.2802507142
H  H30  1  0.91680000  0.60372000  0.67663000  1.0 0.2802507142
H  H31  1  0.85498000  0.57831000  0.79780000  1.0 0.2802507142
H  H32  1  0.91268000  0.56509000  0.78016000  1.0 0.2889128035
H  H33  1  0.91758000  0.76283000  0.99619000  1.0 0.1604255652
H  H34  1  0.94686000  0.77347000  0.93625000  1.0 0.1384493798
H  H35  1  0.94632000  0.85287000  0.02715000  1.0 0.1218274366
H  H36  1  0.00258000  0.78790000  0.70068000  1.0 0.1494526941
H  H37  1  0.99322000  0.77395000  0.76611000  1.0 0.1384493798
H  H38  1  0.00452000  0.69079000  0.67914000  1.0 0.1218274366
H  H39  1  0.75164000  0.63517000  0.67545000  1.0 0.1494526941
H  H40  1  0.79457000  0.68428000  0.65752000  1.0 0.1384493798
H  H41  1  0.82897000  0.57243000  0.69227000  1.0 0.1123059982
H  H42  1  0.90078000  0.64460000  0.92760000  1.0 0.1494526941
H  H43  1  0.84414000  0.63898000  0.89138000  1.0 0.1384493798
H  H44  1  0.95161000  0.59263000  0.86047000  1.0 0.1123059982
H  H45  1  0.15255000  0.79859000  0.79641000  1.0 0.2802507142
H  H46  1  0.27206000  0.60766000  0.55369000  1.0 0.1716719956
H  H47  1  0.20893000  0.63099000  0.55513000  1.0 0.1716719956
H  H48  1  0.25560000  0.66246000  0.51822000  1.0 0.1803046083
H  H49  1  0.50457000  0.63469000  0.07308000  1.0 0.2889128035
H  H50  1  0.49597000  0.59099000  0.03020000  1.0 0.2889128035
H  H51  1  0.49945000  0.83381000  0.20757000  1.0 0.2889128035
H  H52  1  0.49502000  0.87409000  0.25433000  1.0 0.2889128035
H  H53  1  0.39775000  0.84243000  0.34702000  1.0 0.2802507142
H  H54  1  0.41680000  0.89628000  0.32337000  1.0 0.2802507142
H  H55  1  0.35498000  0.92169000  0.20220000  1.0 0.2802507142
H  H56  1  0.41268000  0.93491000  0.21984000  1.0 0.2889128035
H  H57  1  0.41758000  0.73717000  0.00381000  1.0 0.1604255652
H  H58  1  0.44686000  0.72653000  0.06375000  1.0 0.1384493798
H  H59  1  0.44632000  0.64713000  0.97285000  1.0 0.1218274366
H  H60  1  0.50258000  0.71210000  0.29932000  1.0 0.1494526941
H  H61  1  0.49322000  0.72605000  0.23389000  1.0 0.1384493798
H  H62  1  0.50452000  0.80921000  0.32086000  1.0 0.1218274366
H  H63  1  0.25164000  0.86483000  0.32455000  1.0 0.1494526941
H  H64  1  0.29457000  0.81572000  0.34248000  1.0 0.1384493798
H  H65  1  0.32897000  0.92757000  0.30773000  1.0 0.1123059982
H  H66  1  0.40078000  0.85540000  0.07240000  1.0 0.1494526941
H  H67  1  0.34414000  0.86102000  0.10862000  1.0 0.1384493798
H  H68  1  0.45161000  0.90737000  0.13953000  1.0 0.1123059982
H  H69  1  0.65255000  0.70141000  0.20359000  1.0 0.2802507142
H  H70  1  0.77206000  0.89234000  0.44631000  1.0 0.1716719956
H  H71  1  0.70893000  0.86901000  0.44487000  1.0 0.1716719956
H  H72  1  0.75560000  0.83754000  0.48178000  1.0 0.1803046083
H  H73  1  0.99543000  0.36531000  0.57308000  1.0 0.2889128035
H  H74  1  0.00403000  0.40901000  0.53020000  1.0 0.2889128035
H  H75  1  0.00055000  0.16619000  0.70757000  1.0 0.2889128035
H  H76  1  0.00498000  0.12591000  0.75433000  1.0 0.2889128035
H  H77  1  0.10225000  0.15757000  0.84702000  1.0 0.2802507142
H  H78  1  0.08320000  0.10372000  0.82337000  1.0 0.2802507142
H  H79  1  0.14502000  0.07831000  0.70220000  1.0 0.2802507142
H  H80  1  0.08732000  0.06509000  0.71984000  1.0 0.2889128035
H  H81  1  0.08242000  0.26283000  0.50381000  1.0 0.1604255652
H  H82  1  0.05314000  0.27347000  0.56375000  1.0 0.1384493798
H  H83  1  0.05368000  0.35287000  0.47285000  1.0 0.1218274366
H  H84  1  0.99742000  0.28790000  0.79932000  1.0 0.1494526941
H  H85  1  0.00678000  0.27395000  0.73389000  1.0 0.1384493798
H  H86  1  0.99548000  0.19079000  0.82086000  1.0 0.1218274366
H  H87  1  0.24836000  0.13517000  0.82455000  1.0 0.1494526941
H  H88  1  0.20543000  0.18428000  0.84248000  1.0 0.1384493798
H  H89  1  0.17103000  0.07243000  0.80773000  1.0 0.1123059982
H  H90  1  0.09922000  0.14460000  0.57240000  1.0 0.1494526941
H  H91  1  0.15586000  0.13898000  0.60862000  1.0 0.1384493798
H  H92  1  0.04839000  0.09263000  0.63953000  1.0 0.1123059982
H  H93  1  0.84745000  0.29859000  0.70359000  1.0 0.2802507142
H  H94  1  0.72794000  0.10766000  0.94631000  1.0 0.1716719956
H  H95  1  0.79107000  0.13099000  0.94487000  1.0 0.1716719956
H  H96  1  0.74440000  0.16246000  0.98178000  1.0 0.1803046083
H  H97  1  0.42692000  0.49543000  0.13469000  1.0 0.2889128035
H  H98  1  0.46980000  0.50403000  0.09099000  1.0 0.2889128035
H  H99  1  0.29243000  0.50055000  0.33381000  1.0 0.2889128035
H  H100  1  0.24567000  0.50498000  0.37409000  1.0 0.2889128035
H  H101  1  0.15298000  0.60225000  0.34243000  1.0 0.2802507142
H  H102  1  0.17663000  0.58320000  0.39628000  1.0 0.2802507142
H  H103  1  0.29780000  0.64502000  0.42169000  1.0 0.2802507142
H  H104  1  0.28016000  0.58732000  0.43491000  1.0 0.2889128035
H  H105  1  0.49619000  0.58242000  0.23717000  1.0 0.1604255652
H  H106  1  0.43625000  0.55314000  0.22653000  1.0 0.1384493798
H  H107  1  0.52715000  0.55368000  0.14713000  1.0 0.1218274366
H  H108  1  0.20068000  0.49742000  0.21210000  1.0 0.1494526941
H  H109  1  0.26611000  0.50678000  0.22605000  1.0 0.1384493798
H  H110  1  0.17914000  0.49548000  0.30921000  1.0 0.1218274366
H  H111  1  0.17545000  0.74836000  0.36483000  1.0 0.1494526941
H  H112  1  0.15752000  0.70543000  0.31572000  1.0 0.1384493798
H  H113  1  0.19227000  0.67103000  0.42757000  1.0 0.1123059982
H  H114  1  0.42760000  0.59922000  0.35540000  1.0 0.1494526941
H  H115  1  0.39138000  0.65586000  0.36102000  1.0 0.1384493798
H  H116  1  0.36047000  0.54839000  0.40737000  1.0 0.1123059982
H  H117  1  0.29641000  0.34745000  0.20141000  1.0 0.2802507142
H  H118  1  0.05369000  0.22794000  0.39234000  1.0 0.1716719956
H  H119  1  0.05513000  0.29107000  0.36901000  1.0 0.1716719956
H  H120  1  0.01822000  0.24440000  0.33754000  1.0 0.1803046083
H  H121  1  0.92692000  0.00457000  0.86531000  1.0 0.2889128035
H  H122  1  0.96980000  0.99597000  0.90901000  1.0 0.2889128035
H  H123  1  0.79243000  0.99945000  0.66619000  1.0 0.2889128035
H  H124  1  0.74567000  0.99502000  0.62591000  1.0 0.2889128035
H  H125  1  0.65298000  0.89775000  0.65757000  1.0 0.2802507142
H  H126  1  0.67663000  0.91680000  0.60372000  1.0 0.2802507142
H  H127  1  0.79780000  0.85498000  0.57831000  1.0 0.2802507142
H  H128  1  0.78016000  0.91268000  0.56509000  1.0 0.2889128035
H  H129  1  0.99619000  0.91758000  0.76283000  1.0 0.1604255652
H  H130  1  0.93625000  0.94686000  0.77347000  1.0 0.1384493798
H  H131  1  0.02715000  0.94632000  0.85287000  1.0 0.1218274366
H  H132  1  0.70068000  0.00258000  0.78790000  1.0 0.1494526941
H  H133  1  0.76611000  0.99322000  0.77395000  1.0 0.1384493798
H  H134  1  0.67914000  0.00452000  0.69079000  1.0 0.1218274366
H  H135  1  0.67545000  0.75164000  0.63517000  1.0 0.1494526941
H  H136  1  0.65752000  0.79457000  0.68428000  1.0 0.1384493798
H  H137  1  0.69227000  0.82897000  0.57243000  1.0 0.1123059982
H  H138  1  0.92760000  0.90078000  0.64460000  1.0 0.1494526941
H  H139  1  0.89138000  0.84414000  0.63898000  1.0 0.1384493798
H  H140  1  0.86047000  0.95161000  0.59263000  1.0 0.1123059982
H  H141  1  0.79641000  0.15255000  0.79859000  1.0 0.2802507142
H  H142  1  0.55369000  0.27206000  0.60766000  1.0 0.1716719956
H  H143  1  0.55513000  0.20893000  0.63099000  1.0 0.1716719956
H  H144  1  0.51822000  0.25560000  0.66246000  1.0 0.1803046083
H  H145  1  0.07308000  0.50457000  0.63469000  1.0 0.2889128035
H  H146  1  0.03020000  0.49597000  0.59099000  1.0 0.2889128035
H  H147  1  0.20757000  0.49945000  0.83381000  1.0 0.2889128035
H  H148  1  0.25433000  0.49502000  0.87409000  1.0 0.2889128035
H  H149  1  0.34702000  0.39775000  0.84243000  1.0 0.2802507142
H  H150  1  0.32337000  0.41680000  0.89628000  1.0 0.2802507142
H  H151  1  0.20220000  0.35498000  0.92169000  1.0 0.2802507142
H  H152  1  0.21984000  0.41268000  0.93491000  1.0 0.2889128035
H  H153  1  0.00381000  0.41758000  0.73717000  1.0 0.1604255652
H  H154  1  0.06375000  0.44686000  0.72653000  1.0 0.1384493798
H  H155  1  0.97285000  0.44632000  0.64713000  1.0 0.1218274366
H  H156  1  0.29932000  0.50258000  0.71210000  1.0 0.1494526941
H  H157  1  0.23389000  0.49322000  0.72605000  1.0 0.1384493798
H  H158  1  0.32086000  0.50452000  0.80921000  1.0 0.1218274366
H  H159  1  0.32455000  0.25164000  0.86483000  1.0 0.1494526941
H  H160  1  0.34248000  0.29457000  0.81572000  1.0 0.1384493798
H  H161  1  0.30773000  0.32897000  0.92757000  1.0 0.1123059982
H  H162  1  0.07240000  0.40078000  0.85540000  1.0 0.1494526941
H  H163  1  0.10862000  0.34414000  0.86102000  1.0 0.1384493798
H  H164  1  0.13953000  0.45161000  0.90737000  1.0 0.1123059982
H  H165  1  0.20359000  0.65255000  0.70141000  1.0 0.2802507142
H  H166  1  0.44631000  0.77206000  0.89234000  1.0 0.1716719956
H  H167  1  0.44487000  0.70893000  0.86901000  1.0 0.1716719956
H  H168  1  0.48178000  0.75560000  0.83754000  1.0 0.1803046083
H  H169  1  0.57308000  0.99543000  0.36531000  1.0 0.2889128035
H  H170  1  0.53020000  0.00403000  0.40901000  1.0 0.2889128035
H  H171  1  0.70757000  0.00055000  0.16619000  1.0 0.2889128035
H  H172  1  0.75433000  0.00498000  0.12591000  1.0 0.2889128035
H  H173  1  0.84702000  0.10225000  0.15757000  1.0 0.2802507142
H  H174  1  0.82337000  0.08320000  0.10372000  1.0 0.2802507142
H  H175  1  0.70220000  0.14502000  0.07831000  1.0 0.2802507142
H  H176  1  0.71984000  0.08732000  0.06509000  1.0 0.2889128035
H  H177  1  0.50381000  0.08242000  0.26283000  1.0 0.1604255652
H  H178  1  0.56375000  0.05314000  0.27347000  1.0 0.1384493798
H  H179  1  0.47285000  0.05368000  0.35287000  1.0 0.1218274366
H  H180  1  0.79932000  0.99742000  0.28790000  1.0 0.1494526941
H  H181  1  0.73389000  0.00678000  0.27395000  1.0 0.1384493798
H  H182  1  0.82086000  0.99548000  0.19079000  1.0 0.1218274366
H  H183  1  0.82455000  0.24836000  0.13517000  1.0 0.1494526941
H  H184  1  0.84248000  0.20543000  0.18428000  1.0 0.1384493798
H  H185  1  0.80773000  0.17103000  0.07243000  1.0 0.1123059982
H  H186  1  0.57240000  0.09922000  0.14460000  1.0 0.1494526941
H  H187  1  0.60862000  0.15586000  0.13898000  1.0 0.1384493798
H  H188  1  0.63953000  0.04839000  0.09263000  1.0 0.1123059982
H  H189  1  0.70359000  0.84745000  0.29859000  1.0 0.2802507142
H  H190  1  0.94631000  0.72794000  0.10766000  1.0 0.1716719956
H  H191  1  0.94487000  0.79107000  0.13099000  1.0 0.1716719956
H  H192  1  0.98178000  0.74440000  0.16246000  1.0 0.1803046083
H  H193  1  0.13469000  0.42692000  0.49543000  1.0 0.2889128035
H  H194  1  0.09099000  0.46980000  0.50403000  1.0 0.2889128035
H  H195  1  0.33381000  0.29243000  0.50055000  1.0 0.2889128035
H  H196  1  0.37409000  0.24567000  0.50498000  1.0 0.2889128035
H  H197  1  0.34243000  0.15298000  0.60225000  1.0 0.2802507142
H  H198  1  0.39628000  0.17663000  0.58320000  1.0 0.2802507142
H  H199  1  0.42169000  0.29780000  0.64502000  1.0 0.2802507142
H  H200  1  0.43491000  0.28016000  0.58732000  1.0 0.2889128035
H  H201  1  0.23717000  0.49619000  0.58242000  1.0 0.1604255652
H  H202  1  0.22653000  0.43625000  0.55314000  1.0 0.1384493798
H  H203  1  0.14713000  0.52715000  0.55368000  1.0 0.1218274366
H  H204  1  0.21210000  0.20068000  0.49742000  1.0 0.1494526941
H  H205  1  0.22605000  0.26611000  0.50678000  1.0 0.1384493798
H  H206  1  0.30921000  0.17914000  0.49548000  1.0 0.1218274366
H  H207  1  0.36483000  0.17545000  0.74836000  1.0 0.1494526941
H  H208  1  0.31572000  0.15752000  0.70543000  1.0 0.1384493798
H  H209  1  0.42757000  0.19227000  0.67103000  1.0 0.1123059982
H  H210  1  0.35540000  0.42760000  0.59922000  1.0 0.1494526941
H  H211  1  0.36102000  0.39138000  0.65586000  1.0 0.1384493798
H  H212  1  0.40737000  0.36047000  0.54839000  1.0 0.1123059982
H  H213  1  0.20141000  0.29641000  0.34745000  1.0 0.2802507142
H  H214  1  0.39234000  0.05369000  0.22794000  1.0 0.1716719956
H  H215  1  0.36901000  0.05513000  0.29107000  1.0 0.1716719956
H  H216  1  0.33754000  0.01822000  0.24440000  1.0 0.1803046083
H  H217  1  0.86531000  0.92692000  0.00457000  1.0 0.2889128035
H  H218  1  0.90901000  0.96980000  0.99597000  1.0 0.2889128035
H  H219  1  0.66619000  0.79243000  0.99945000  1.0 0.2889128035
H  H220  1  0.62591000  0.74567000  0.99502000  1.0 0.2889128035
H  H221  1  0.65757000  0.65298000  0.89775000  1.0 0.2802507142
H  H222  1  0.60372000  0.67663000  0.91680000  1.0 0.2802507142
H  H223  1  0.57831000  0.79780000  0.85498000  1.0 0.2802507142
H  H224  1  0.56509000  0.78016000  0.91268000  1.0 0.2889128035
H  H225  1  0.76283000  0.99619000  0.91758000  1.0 0.1604255652
H  H226  1  0.77347000  0.93625000  0.94686000  1.0 0.1384493798
H  H227  1  0.85287000  0.02715000  0.94632000  1.0 0.1218274366
H  H228  1  0.78790000  0.70068000  0.00258000  1.0 0.1494526941
H  H229  1  0.77395000  0.76611000  0.99322000  1.0 0.1384493798
H  H230  1  0.69079000  0.67914000  0.00452000  1.0 0.1218274366
H  H231  1  0.63517000  0.67545000  0.75164000  1.0 0.1494526941
H  H232  1  0.68428000  0.65752000  0.79457000  1.0 0.1384493798
H  H233  1  0.57243000  0.69227000  0.82897000  1.0 0.1123059982
H  H234  1  0.64460000  0.92760000  0.90078000  1.0 0.1494526941
H  H235  1  0.63898000  0.89138000  0.84414000  1.0 0.1384493798
H  H236  1  0.59263000  0.86047000  0.95161000  1.0 0.1123059982
H  H237  1  0.79859000  0.79641000  0.15255000  1.0 0.2802507142
H  H238  1  0.60766000  0.55369000  0.27206000  1.0 0.1716719956
H  H239  1  0.63099000  0.55513000  0.20893000  1.0 0.1716719956
H  H240  1  0.66246000  0.51822000  0.25560000  1.0 0.1803046083
H  H241  1  0.63469000  0.07308000  0.50457000  1.0 0.2889128035
H  H242  1  0.59099000  0.03020000  0.49597000  1.0 0.2889128035
H  H243  1  0.83381000  0.20757000  0.49945000  1.0 0.2889128035
H  H244  1  0.87409000  0.25433000  0.49502000  1.0 0.2889128035
H  H245  1  0.84243000  0.34702000  0.39775000  1.0 0.2802507142
H  H246  1  0.89628000  0.32337000  0.41680000  1.0 0.2802507142
H  H247  1  0.92169000  0.20220000  0.35498000  1.0 0.2802507142
H  H248  1  0.93491000  0.21984000  0.41268000  1.0 0.2889128035
H  H249  1  0.73717000  0.00381000  0.41758000  1.0 0.1604255652
H  H250  1  0.72653000  0.06375000  0.44686000  1.0 0.1384493798
H  H251  1  0.64713000  0.97285000  0.44632000  1.0 0.1218274366
H  H252  1  0.71210000  0.29932000  0.50258000  1.0 0.1494526941
H  H253  1  0.72605000  0.23389000  0.49322000  1.0 0.1384493798
H  H254  1  0.80921000  0.32086000  0.50452000  1.0 0.1218274366
H  H255  1  0.86483000  0.32455000  0.25164000  1.0 0.1494526941
H  H256  1  0.81572000  0.34248000  0.29457000  1.0 0.1384493798
H  H257  1  0.92757000  0.30773000  0.32897000  1.0 0.1123059982
H  H258  1  0.85540000  0.07240000  0.40078000  1.0 0.1494526941
H  H259  1  0.86102000  0.10862000  0.34414000  1.0 0.1384493798
H  H260  1  0.90737000  0.13953000  0.45161000  1.0 0.1123059982
H  H261  1  0.70141000  0.20359000  0.65255000  1.0 0.2802507142
H  H262  1  0.89234000  0.44631000  0.77206000  1.0 0.1716719956
H  H263  1  0.86901000  0.44487000  0.70893000  1.0 0.1716719956
H  H264  1  0.83754000  0.48178000  0.75560000  1.0 0.1803046083
H  H265  1  0.36531000  0.57308000  0.99543000  1.0 0.2889128035
H  H266  1  0.40901000  0.53020000  0.00403000  1.0 0.2889128035
H  H267  1  0.16619000  0.70757000  0.00055000  1.0 0.2889128035
H  H268  1  0.12591000  0.75433000  0.00498000  1.0 0.2889128035
H  H269  1  0.15757000  0.84702000  0.10225000  1.0 0.2802507142
H  H270  1  0.10372000  0.82337000  0.08320000  1.0 0.2802507142
H  H271  1  0.07831000  0.70220000  0.14502000  1.0 0.2802507142
H  H272  1  0.06509000  0.71984000  0.08732000  1.0 0.2889128035
H  H273  1  0.26283000  0.50381000  0.08242000  1.0 0.1604255652
H  H274  1  0.27347000  0.56375000  0.05314000  1.0 0.1384493798
H  H275  1  0.35287000  0.47285000  0.05368000  1.0 0.1218274366
H  H276  1  0.28790000  0.79932000  0.99742000  1.0 0.1494526941
H  H277  1  0.27395000  0.73389000  0.00678000  1.0 0.1384493798
H  H278  1  0.19079000  0.82086000  0.99548000  1.0 0.1218274366
H  H279  1  0.13517000  0.82455000  0.24836000  1.0 0.1494526941
H  H280  1  0.18428000  0.84248000  0.20543000  1.0 0.1384493798
H  H281  1  0.07243000  0.80773000  0.17103000  1.0 0.1123059982
H  H282  1  0.14460000  0.57240000  0.09922000  1.0 0.1494526941
H  H283  1  0.13898000  0.60862000  0.15586000  1.0 0.1384493798
H  H284  1  0.09263000  0.63953000  0.04839000  1.0 0.1123059982
H  H285  1  0.29859000  0.70359000  0.84745000  1.0 0.2802507142
H  H286  1  0.10766000  0.94631000  0.72794000  1.0 0.1716719956
H  H287  1  0.13099000  0.94487000  0.79107000  1.0 0.1716719956
H  H288  1  0.16246000  0.98178000  0.74440000  1.0 0.1803046083
H  H289  1  0.19408000  0.19408000  0.19408000  1.0 0.5665962264
H  H290  1  0.30592000  0.80592000  0.69408000  1.0 0.5665962264
H  H291  1  0.80592000  0.69408000  0.30592000  1.0 0.5665962264
H  H292  1  0.69408000  0.30592000  0.80592000  1.0 0.5665962264
Rh  Rh1  1  0.60309000  0.33154000  0.25925000  1.0 0.4886578858
Rh  Rh2  1  0.89691000  0.66846000  0.75925000  1.0 0.4886578858
Rh  Rh3  1  0.39691000  0.83154000  0.24075000  1.0 0.4886578858
Rh  Rh4  1  0.10309000  0.16846000  0.74075000  1.0 0.4886578858
Rh  Rh5  1  0.25925000  0.60309000  0.33154000  1.0 0.4886578858
Rh  Rh6  1  0.75925000  0.89691000  0.66846000  1.0 0.4886578858
Rh  Rh7  1  0.24075000  0.39691000  0.83154000  1.0 0.4886578858
Rh  Rh8  1  0.74075000  0.10309000  0.16846000  1.0 0.4886578858
Rh  Rh9  1  0.33154000  0.25925000  0.60309000  1.0 0.4886578858
Rh  Rh10  1  0.66846000  0.75925000  0.89691000  1.0 0.4886578858
Rh  Rh11  1  0.83154000  0.24075000  0.39691000  1.0 0.4886578858
Rh  Rh12  1  0.16846000  0.74075000  0.10309000  1.0 0.4886578858
Rh  Rh13  1  0.59166000  0.09166000  0.40834000  1.0 0.4789179579
Rh  Rh14  1  0.90834000  0.90834000  0.90834000  1.0 0.4789179579
Rh  Rh15  1  0.40834000  0.59166000  0.09166000  1.0 0.4789179579
Rh  Rh16  1  0.09166000  0.40834000  0.59166000  1.0 0.4789179579
C  C1  1  0.57230000  0.20800000  0.46830000  1.0 -0.1899545218
C  C2  1  0.53370000  0.16500000  0.49470000  1.0 0.0361450088
C  C3  1  0.47980000  0.19330000  0.51650000  1.0 0.4956714005
C  C4  1  0.51410000  0.23940000  0.22730000  1.0 -0.1899545218
C  C5  1  0.48800000  0.29720000  0.21880000  1.0 0.028972497
C  C6  1  0.42400000  0.29320000  0.22690000  1.0 0.5921755101
C  C7  1  0.71030000  0.34920000  0.18180000  1.0 -0.155250369
C  C8  1  0.66530000  0.39340000  0.16840000  1.0 0.0452922002
C  C9  1  0.67060000  0.40920000  0.10550000  1.0 0.554467158
C  C10  1  0.61440000  0.35780000  0.38890000  1.0 -0.1727918818
C  C11  1  0.59040000  0.40960000  0.35930000  1.0 0.028972497
C  C12  1  0.60880000  0.46200000  0.39120000  1.0 0.5762534902
C  C13  1  0.23620000  0.32070000  0.10430000  1.0 0.6063379065
C  C14  1  0.25130000  0.35840000  0.05310000  1.0 -0.5699966534
C  C15  1  0.92770000  0.79200000  0.96830000  1.0 -0.1899545218
C  C16  1  0.96630000  0.83500000  0.99470000  1.0 0.0361450088
C  C17  1  0.02020000  0.80670000  0.01650000  1.0 0.4956714005
C  C18  1  0.98590000  0.76060000  0.72730000  1.0 -0.1899545218
C  C19  1  0.01200000  0.70280000  0.71880000  1.0 0.028972497
C  C20  1  0.07600000  0.70680000  0.72690000  1.0 0.5921755101
C  C21  1  0.78970000  0.65080000  0.68180000  1.0 -0.155250369
C  C22  1  0.83470000  0.60660000  0.66840000  1.0 0.0452922002
C  C23  1  0.82940000  0.59080000  0.60550000  1.0 0.554467158
C  C24  1  0.88560000  0.64220000  0.88890000  1.0 -0.1727918818
C  C25  1  0.90960000  0.59040000  0.85930000  1.0 0.028972497
C  C26  1  0.89120000  0.53800000  0.89120000  1.0 0.5762534902
C  C27  1  0.26380000  0.67930000  0.60430000  1.0 0.6063379065
C  C28  1  0.24870000  0.64160000  0.55310000  1.0 -0.5699966534
C  C29  1  0.42770000  0.70800000  0.03170000  1.0 -0.1955494865
C  C30  1  0.46630000  0.66500000  0.00530000  1.0 0.0361450088
C  C31  1  0.52020000  0.69330000  0.98350000  1.0 0.4956714005
C  C32  1  0.48590000  0.73940000  0.27270000  1.0 -0.1899545218
C  C33  1  0.51200000  0.79720000  0.28120000  1.0 0.028972497
C  C34  1  0.57600000  0.79320000  0.27310000  1.0 0.5921755101
C  C35  1  0.28970000  0.84920000  0.31820000  1.0 -0.155250369
C  C36  1  0.33470000  0.89340000  0.33160000  1.0 0.0452922002
C  C37  1  0.32940000  0.90920000  0.39450000  1.0 0.554467158
C  C38  1  0.38560000  0.85780000  0.11110000  1.0 -0.1727918818
C  C39  1  0.40960000  0.90960000  0.14070000  1.0 0.028972497
C  C40  1  0.39120000  0.96200000  0.10880000  1.0 0.5762534902
C  C41  1  0.76380000  0.82070000  0.39570000  1.0 0.6042414578
C  C42  1  0.74870000  0.85840000  0.44690000  1.0 -0.5699966534
C  C43  1  0.07230000  0.29200000  0.53170000  1.0 -0.1899545218
C  C44  1  0.03370000  0.33500000  0.50530000  1.0 0.0361450088
C  C45  1  0.97980000  0.30670000  0.48350000  1.0 0.4956714005
C  C46  1  0.01410000  0.26060000  0.77270000  1.0 -0.1899545218
C  C47  1  0.98800000  0.20280000  0.78120000  1.0 0.028972497
C  C48  1  0.92400000  0.20680000  0.77310000  1.0 0.5921755101
C  C49  1  0.21030000  0.15080000  0.81820000  1.0 -0.155250369
C  C50  1  0.16530000  0.10660000  0.83160000  1.0 0.0452922002
C  C51  1  0.17060000  0.09080000  0.89450000  1.0 0.554467158
C  C52  1  0.11440000  0.14220000  0.61110000  1.0 -0.1727918818
C  C53  1  0.09040000  0.09040000  0.64070000  1.0 0.028972497
C  C54  1  0.10880000  0.03800000  0.60880000  1.0 0.5762534902
C  C55  1  0.73620000  0.17930000  0.89570000  1.0 0.6042414578
C  C56  1  0.75130000  0.14160000  0.94690000  1.0 -0.5699966534
C  C57  1  0.46830000  0.57230000  0.20800000  1.0 -0.1899545218
C  C58  1  0.49470000  0.53370000  0.16500000  1.0 0.0361450088
C  C59  1  0.51650000  0.47980000  0.19330000  1.0 0.4956714005
C  C60  1  0.22730000  0.51410000  0.23940000  1.0 -0.1899545218
C  C61  1  0.21880000  0.48800000  0.29720000  1.0 0.028972497
C  C62  1  0.22690000  0.42400000  0.29320000  1.0 0.5921755101
C  C63  1  0.18180000  0.71030000  0.34920000  1.0 -0.155250369
C  C64  1  0.16840000  0.66530000  0.39340000  1.0 0.0452922002
C  C65  1  0.10550000  0.67060000  0.40920000  1.0 0.554467158
C  C66  1  0.38890000  0.61440000  0.35780000  1.0 -0.1727918818
C  C67  1  0.35930000  0.59040000  0.40960000  1.0 0.028972497
C  C68  1  0.39120000  0.60880000  0.46200000  1.0 0.5762534902
C  C69  1  0.10430000  0.23620000  0.32070000  1.0 0.6063379065
C  C70  1  0.05310000  0.25130000  0.35840000  1.0 -0.5699966534
C  C71  1  0.96830000  0.92770000  0.79200000  1.0 -0.1899545218
C  C72  1  0.99470000  0.96630000  0.83500000  1.0 0.0361450088
C  C73  1  0.01650000  0.02020000  0.80670000  1.0 0.4956714005
C  C74  1  0.72730000  0.98590000  0.76060000  1.0 -0.1899545218
C  C75  1  0.71880000  0.01200000  0.70280000  1.0 0.028972497
C  C76  1  0.72690000  0.07600000  0.70680000  1.0 0.5921755101
C  C77  1  0.68180000  0.78970000  0.65080000  1.0 -0.155250369
C  C78  1  0.66840000  0.83470000  0.60660000  1.0 0.0452922002
C  C79  1  0.60550000  0.82940000  0.59080000  1.0 0.554467158
C  C80  1  0.88890000  0.88560000  0.64220000  1.0 -0.1727918818
C  C81  1  0.85930000  0.90960000  0.59040000  1.0 0.028972497
C  C82  1  0.89120000  0.89120000  0.53800000  1.0 0.5762534902
C  C83  1  0.60430000  0.26380000  0.67930000  1.0 0.6042414578
C  C84  1  0.55310000  0.24870000  0.64160000  1.0 -0.5699966534
C  C85  1  0.03170000  0.42770000  0.70800000  1.0 -0.1899545218
C  C86  1  0.00530000  0.46630000  0.66500000  1.0 0.0361450088
C  C87  1  0.98350000  0.52020000  0.69330000  1.0 0.4956714005
C  C88  1  0.27270000  0.48590000  0.73940000  1.0 -0.1899545218
C  C89  1  0.28120000  0.51200000  0.79720000  1.0 0.028972497
C  C90  1  0.27310000  0.57600000  0.79320000  1.0 0.5921755101
C  C91  1  0.31820000  0.28970000  0.84920000  1.0 -0.155250369
C  C92  1  0.33160000  0.33470000  0.89340000  1.0 0.0452922002
C  C93  1  0.39450000  0.32940000  0.90920000  1.0 0.554467158
C  C94  1  0.11110000  0.38560000  0.85780000  1.0 -0.1727918818
C  C95  1  0.14070000  0.40960000  0.90960000  1.0 0.028972497
C  C96  1  0.10880000  0.39120000  0.96200000  1.0 0.5762534902
C  C97  1  0.39570000  0.76380000  0.82070000  1.0 0.6042414578
C  C98  1  0.44690000  0.74870000  0.85840000  1.0 -0.5699966534
C  C99  1  0.53170000  0.07230000  0.29200000  1.0 -0.1899545218
C  C100  1  0.50530000  0.03370000  0.33500000  1.0 0.0361450088
C  C101  1  0.48350000  0.97980000  0.30670000  1.0 0.4956714005
C  C102  1  0.77270000  0.01410000  0.26060000  1.0 -0.1899545218
C  C103  1  0.78120000  0.98800000  0.20280000  1.0 0.028972497
C  C104  1  0.77310000  0.92400000  0.20680000  1.0 0.5921755101
C  C105  1  0.81820000  0.21030000  0.15080000  1.0 -0.155250369
C  C106  1  0.83160000  0.16530000  0.10660000  1.0 0.0452922002
C  C107  1  0.89450000  0.17060000  0.09080000  1.0 0.554467158
C  C108  1  0.61110000  0.11440000  0.14220000  1.0 -0.1727918818
C  C109  1  0.64070000  0.09040000  0.09040000  1.0 0.028972497
C  C110  1  0.60880000  0.10880000  0.03800000  1.0 0.5762534902
C  C111  1  0.89570000  0.73620000  0.17930000  1.0 0.6042414578
C  C112  1  0.94690000  0.75130000  0.14160000  1.0 -0.5699966534
C  C113  1  0.20800000  0.46830000  0.57230000  1.0 -0.1899545218
C  C114  1  0.16500000  0.49470000  0.53370000  1.0 0.0361450088
C  C115  1  0.19330000  0.51650000  0.47980000  1.0 0.4956714005
C  C116  1  0.23940000  0.22730000  0.51410000  1.0 -0.1899545218
C  C117  1  0.29720000  0.21880000  0.48800000  1.0 0.028972497
C  C118  1  0.29320000  0.22690000  0.42400000  1.0 0.5921755101
C  C119  1  0.34920000  0.18180000  0.71030000  1.0 -0.155250369
C  C120  1  0.39340000  0.16840000  0.66530000  1.0 0.0452922002
C  C121  1  0.40920000  0.10550000  0.67060000  1.0 0.554467158
C  C122  1  0.35780000  0.38890000  0.61440000  1.0 -0.1727918818
C  C123  1  0.40960000  0.35930000  0.59040000  1.0 0.028972497
C  C124  1  0.46200000  0.39120000  0.60880000  1.0 0.5762534902
C  C125  1  0.32070000  0.10430000  0.23620000  1.0 0.6063379065
C  C126  1  0.35840000  0.05310000  0.25130000  1.0 -0.5699966534
C  C127  1  0.79200000  0.96830000  0.92770000  1.0 -0.1899545218
C  C128  1  0.83500000  0.99470000  0.96630000  1.0 0.0361450088
C  C129  1  0.80670000  0.01650000  0.02020000  1.0 0.4956714005
C  C130  1  0.76060000  0.72730000  0.98590000  1.0 -0.1899545218
C  C131  1  0.70280000  0.71880000  0.01200000  1.0 0.028972497
C  C132  1  0.70680000  0.72690000  0.07600000  1.0 0.5921755101
C  C133  1  0.65080000  0.68180000  0.78970000  1.0 -0.155250369
C  C134  1  0.60660000  0.66840000  0.83470000  1.0 0.0452922002
C  C135  1  0.59080000  0.60550000  0.82940000  1.0 0.554467158
C  C136  1  0.64220000  0.88890000  0.88560000  1.0 -0.1727918818
C  C137  1  0.59040000  0.85930000  0.90960000  1.0 0.028972497
C  C138  1  0.53800000  0.89120000  0.89120000  1.0 0.5762534902
C  C139  1  0.67930000  0.60430000  0.26380000  1.0 0.6042414578
C  C140  1  0.64160000  0.55310000  0.24870000  1.0 -0.5699966534
C  C141  1  0.70800000  0.03170000  0.42770000  1.0 -0.1899545218
C  C142  1  0.66500000  0.00530000  0.46630000  1.0 0.0361450088
C  C143  1  0.69330000  0.98350000  0.52020000  1.0 0.4956714005
C  C144  1  0.73940000  0.27270000  0.48590000  1.0 -0.1899545218
C  C145  1  0.79720000  0.28120000  0.51200000  1.0 0.028972497
C  C146  1  0.79320000  0.27310000  0.57600000  1.0 0.5921755101
C  C147  1  0.84920000  0.31820000  0.28970000  1.0 -0.155250369
C  C148  1  0.89340000  0.33160000  0.33470000  1.0 0.0452922002
C  C149  1  0.90920000  0.39450000  0.32940000  1.0 0.554467158
C  C150  1  0.85780000  0.11110000  0.38560000  1.0 -0.1727918818
C  C151  1  0.90960000  0.14070000  0.40960000  1.0 0.028972497
C  C152  1  0.96200000  0.10880000  0.39120000  1.0 0.5762534902
C  C153  1  0.82070000  0.39570000  0.76380000  1.0 0.6042414578
C  C154  1  0.85840000  0.44690000  0.74870000  1.0 -0.5699966534
C  C155  1  0.29200000  0.53170000  0.07230000  1.0 -0.1955494865
C  C156  1  0.33500000  0.50530000  0.03370000  1.0 0.0361450088
C  C157  1  0.30670000  0.48350000  0.97980000  1.0 0.4956714005
C  C158  1  0.26060000  0.77270000  0.01410000  1.0 -0.1899545218
C  C159  1  0.20280000  0.78120000  0.98800000  1.0 0.028972497
C  C160  1  0.20680000  0.77310000  0.92400000  1.0 0.5921755101
C  C161  1  0.15080000  0.81820000  0.21030000  1.0 -0.155250369
C  C162  1  0.10660000  0.83160000  0.16530000  1.0 0.0452922002
C  C163  1  0.09080000  0.89450000  0.17060000  1.0 0.554467158
C  C164  1  0.14220000  0.61110000  0.11440000  1.0 -0.1727918818
C  C165  1  0.09040000  0.64070000  0.09040000  1.0 0.028972497
C  C166  1  0.03800000  0.60880000  0.10880000  1.0 0.5762534902
C  C167  1  0.17930000  0.89570000  0.73620000  1.0 0.6063379065
C  C168  1  0.14160000  0.94690000  0.75130000  1.0 -0.5699966534
S  S1  1  0.63594000  0.17156000  0.44364000  1.0 -0.2574733646
S  S2  1  0.59005000  0.24519000  0.21524000  1.0 -0.2503198568
S  S3  1  0.70099000  0.32994000  0.25683000  1.0 -0.2574733646
S  S4  1  0.59575000  0.29495000  0.34997000  1.0 -0.2574733646
S  S5  1  0.86406000  0.82844000  0.94364000  1.0 -0.2574733646
S  S6  1  0.90995000  0.75481000  0.71524000  1.0 -0.2503198568
S  S7  1  0.79901000  0.67006000  0.75683000  1.0 -0.2574733646
S  S8  1  0.90425000  0.70505000  0.84997000  1.0 -0.2574733646
S  S9  1  0.36406000  0.67156000  0.05636000  1.0 -0.2574733646
S  S10  1  0.40995000  0.74519000  0.28476000  1.0 -0.2503198568
S  S11  1  0.29901000  0.82994000  0.24317000  1.0 -0.2574733646
S  S12  1  0.40425000  0.79495000  0.15003000  1.0 -0.2574733646
S  S13  1  0.13594000  0.32844000  0.55636000  1.0 -0.2574733646
S  S14  1  0.09005000  0.25481000  0.78476000  1.0 -0.2503198568
S  S15  1  0.20099000  0.17006000  0.74317000  1.0 -0.2574733646
S  S16  1  0.09575000  0.20505000  0.65003000  1.0 -0.2574733646
S  S17  1  0.44364000  0.63594000  0.17156000  1.0 -0.2574733646
S  S18  1  0.21524000  0.59005000  0.24519000  1.0 -0.2503198568
S  S19  1  0.25683000  0.70099000  0.32994000  1.0 -0.2574733646
S  S20  1  0.34997000  0.59575000  0.29495000  1.0 -0.2574733646
S  S21  1  0.94364000  0.86406000  0.82844000  1.0 -0.2574733646
S  S22  1  0.71524000  0.90995000  0.75481000  1.0 -0.2503198568
S  S23  1  0.75683000  0.79901000  0.67006000  1.0 -0.2574733646
S  S24  1  0.84997000  0.90425000  0.70505000  1.0 -0.2574733646
S  S25  1  0.05636000  0.36406000  0.67156000  1.0 -0.2574733646
S  S26  1  0.28476000  0.40995000  0.74519000  1.0 -0.2503198568
S  S27  1  0.24317000  0.29901000  0.82994000  1.0 -0.2574733646
S  S28  1  0.15003000  0.40425000  0.79495000  1.0 -0.2574733646
S  S29  1  0.55636000  0.13594000  0.32844000  1.0 -0.2574733646
S  S30  1  0.78476000  0.09005000  0.25481000  1.0 -0.2503198568
S  S31  1  0.74317000  0.20099000  0.17006000  1.0 -0.2574733646
S  S32  1  0.65003000  0.09575000  0.20505000  1.0 -0.2574733646
S  S33  1  0.17156000  0.44364000  0.63594000  1.0 -0.2574733646
S  S34  1  0.24519000  0.21524000  0.59005000  1.0 -0.2503198568
S  S35  1  0.32994000  0.25683000  0.70099000  1.0 -0.2574733646
S  S36  1  0.29495000  0.34997000  0.59575000  1.0 -0.2574733646
S  S37  1  0.82844000  0.94364000  0.86406000  1.0 -0.2574733646
S  S38  1  0.75481000  0.71524000  0.90995000  1.0 -0.2503198568
S  S39  1  0.67006000  0.75683000  0.79901000  1.0 -0.2574733646
S  S40  1  0.70505000  0.84997000  0.90425000  1.0 -0.2574733646
S  S41  1  0.67156000  0.05636000  0.36406000  1.0 -0.2574733646
S  S42  1  0.74519000  0.28476000  0.40995000  1.0 -0.2503198568
S  S43  1  0.82994000  0.24317000  0.29901000  1.0 -0.2574733646
S  S44  1  0.79495000  0.15003000  0.40425000  1.0 -0.2574733646
S  S45  1  0.32844000  0.55636000  0.13594000  1.0 -0.2574733646
S  S46  1  0.25481000  0.78476000  0.09005000  1.0 -0.2503198568
S  S47  1  0.17006000  0.74317000  0.20099000  1.0 -0.2574733646
S  S48  1  0.20505000  0.65003000  0.09575000  1.0 -0.2574733646
N  N1  1  0.52060000  0.12060000  0.45210000  1.0 -0.4552011524
N  N2  1  0.51440000  0.33880000  0.25710000  1.0 -0.439136093
N  N3  1  0.60970000  0.36880000  0.17970000  1.0 -0.4491706549
N  N4  1  0.60870000  0.40970000  0.29940000  1.0 -0.439136093
N  N5  1  0.97940000  0.87940000  0.95210000  1.0 -0.4552011524
N  N6  1  0.98560000  0.66120000  0.75710000  1.0 -0.439136093
N  N7  1  0.89030000  0.63120000  0.67970000  1.0 -0.4491706549
N  N8  1  0.89130000  0.59030000  0.79940000  1.0 -0.439136093
N  N9  1  0.47940000  0.62060000  0.04790000  1.0 -0.4552011524
N  N10  1  0.48560000  0.83880000  0.24290000  1.0 -0.439136093
N  N11  1  0.39030000  0.86880000  0.32030000  1.0 -0.4491706549
N  N12  1  0.39130000  0.90970000  0.20060000  1.0 -0.439136093
N  N13  1  0.02060000  0.37940000  0.54790000  1.0 -0.4552011524
N  N14  1  0.01440000  0.16120000  0.74290000  1.0 -0.439136093
N  N15  1  0.10970000  0.13120000  0.82030000  1.0 -0.4491706549
N  N16  1  0.10870000  0.09030000  0.70060000  1.0 -0.439136093
N  N17  1  0.45210000  0.52060000  0.12060000  1.0 -0.4552011524
N  N18  1  0.25710000  0.51440000  0.33880000  1.0 -0.439136093
N  N19  1  0.17970000  0.60970000  0.36880000  1.0 -0.4491706549
N  N20  1  0.29940000  0.60870000  0.40970000  1.0 -0.439136093
N  N21  1  0.95210000  0.97940000  0.87940000  1.0 -0.4552011524
N  N22  1  0.75710000  0.98560000  0.66120000  1.0 -0.439136093
N  N23  1  0.67970000  0.89030000  0.63120000  1.0 -0.4491706549
N  N24  1  0.79940000  0.89130000  0.59030000  1.0 -0.439136093
N  N25  1  0.04790000  0.47940000  0.62060000  1.0 -0.4552011524
N  N26  1  0.24290000  0.48560000  0.83880000  1.0 -0.439136093
N  N27  1  0.32030000  0.39030000  0.86880000  1.0 -0.4491706549
N  N28  1  0.20060000  0.39130000  0.90970000  1.0 -0.439136093
N  N29  1  0.54790000  0.02060000  0.37940000  1.0 -0.4552011524
N  N30  1  0.74290000  0.01440000  0.16120000  1.0 -0.439136093
N  N31  1  0.82030000  0.10970000  0.13120000  1.0 -0.4491706549
N  N32  1  0.70060000  0.10870000  0.09030000  1.0 -0.439136093
N  N33  1  0.12060000  0.45210000  0.52060000  1.0 -0.4552011524
N  N34  1  0.33880000  0.25710000  0.51440000  1.0 -0.439136093
N  N35  1  0.36880000  0.17970000  0.60970000  1.0 -0.4491706549
N  N36  1  0.40970000  0.29940000  0.60870000  1.0 -0.439136093
N  N37  1  0.87940000  0.95210000  0.97940000  1.0 -0.4552011524
N  N38  1  0.66120000  0.75710000  0.98560000  1.0 -0.439136093
N  N39  1  0.63120000  0.67970000  0.89030000  1.0 -0.4491706549
N  N40  1  0.59030000  0.79940000  0.89130000  1.0 -0.439136093
N  N41  1  0.62060000  0.04790000  0.47940000  1.0 -0.4552011524
N  N42  1  0.83880000  0.24290000  0.48560000  1.0 -0.439136093
N  N43  1  0.86880000  0.32030000  0.39030000  1.0 -0.4491706549
N  N44  1  0.90970000  0.20060000  0.39130000  1.0 -0.439136093
N  N45  1  0.37940000  0.54790000  0.02060000  1.0 -0.4552011524
N  N46  1  0.16120000  0.74290000  0.01440000  1.0 -0.439136093
N  N47  1  0.13120000  0.82030000  0.10970000  1.0 -0.4491706549
N  N48  1  0.09030000  0.70060000  0.10870000  1.0 -0.439136093
O  O1  1  0.43470000  0.18060000  0.50110000  1.0 -0.4120337923
O  O2  1  0.48370000  0.21990000  0.55860000  1.0 -0.4298123106
O  O3  1  0.40370000  0.31520000  0.27510000  1.0 -0.5813501859
O  O4  1  0.39820000  0.26570000  0.19420000  1.0 -0.5333257451
O  O5  1  0.62740000  0.40930000  0.07610000  1.0 -0.4914579972
O  O6  1  0.71870000  0.43620000  0.09590000  1.0 -0.5205197344
O  O7  1  0.65560000  0.48850000  0.36950000  1.0 -0.5205197344
O  O8  1  0.58820000  0.47270000  0.43270000  1.0 -0.439136093
O  O9  1  0.31420000  0.22330000  0.28280000  1.0 -0.5122051621
O  O10  1  0.26290000  0.27520000  0.10930000  1.0 -0.5205197344
O  O11  1  0.20150000  0.34120000  0.13960000  1.0 -0.5205197344
O  O12  1  0.36720000  0.21300000  0.09990000  1.0 -0.2745814308
O  O13  1  0.26730000  0.15960000  0.12090000  1.0 -0.2936197752
O  O14  1  0.06530000  0.81940000  0.00110000  1.0 -0.4120337923
O  O15  1  0.01630000  0.78010000  0.05860000  1.0 -0.4298123106
O  O16  1  0.09630000  0.68480000  0.77510000  1.0 -0.5813501859
O  O17  1  0.10180000  0.73430000  0.69420000  1.0 -0.5333257451
O  O18  1  0.87260000  0.59070000  0.57610000  1.0 -0.4914579972
O  O19  1  0.78130000  0.56380000  0.59590000  1.0 -0.5205197344
O  O20  1  0.84440000  0.51150000  0.86950000  1.0 -0.5205197344
O  O21  1  0.91180000  0.52730000  0.93270000  1.0 -0.439136093
O  O22  1  0.18580000  0.77670000  0.78280000  1.0 -0.5122051621
O  O23  1  0.23710000  0.72480000  0.60930000  1.0 -0.5205197344
O  O24  1  0.29850000  0.65880000  0.63960000  1.0 -0.5205197344
O  O25  1  0.13280000  0.78700000  0.59990000  1.0 -0.2780418354
O  O26  1  0.23270000  0.84040000  0.62090000  1.0 -0.2936197752
O  O27  1  0.56530000  0.68060000  0.99890000  1.0 -0.4120337923
O  O28  1  0.51630000  0.71990000  0.94140000  1.0 -0.4298123106
O  O29  1  0.59630000  0.81520000  0.22490000  1.0 -0.5813501859
O  O30  1  0.60180000  0.76570000  0.30580000  1.0 -0.5333257451
O  O31  1  0.37260000  0.90930000  0.42390000  1.0 -0.4914579972
O  O32  1  0.28130000  0.93620000  0.40410000  1.0 -0.5205197344
O  O33  1  0.34440000  0.98850000  0.13050000  1.0 -0.5205197344
O  O34  1  0.41180000  0.97270000  0.06730000  1.0 -0.439136093
O  O35  1  0.68580000  0.72330000  0.21720000  1.0 -0.5122051621
O  O36  1  0.73710000  0.77520000  0.39070000  1.0 -0.5205197344
O  O37  1  0.79850000  0.84120000  0.36040000  1.0 -0.5205197344
O  O38  1  0.63280000  0.71300000  0.40010000  1.0 -0.2780418354
O  O39  1  0.73270000  0.65960000  0.37910000  1.0 -0.2936197752
O  O40  1  0.93470000  0.31940000  0.49890000  1.0 -0.4120337923
O  O41  1  0.98370000  0.28010000  0.44140000  1.0 -0.4298123106
O  O42  1  0.90370000  0.18480000  0.72490000  1.0 -0.5813501859
O  O43  1  0.89820000  0.23430000  0.80580000  1.0 -0.5333257451
O  O44  1  0.12740000  0.09070000  0.92390000  1.0 -0.4914579972
O  O45  1  0.21870000  0.06380000  0.90410000  1.0 -0.5205197344
O  O46  1  0.15560000  0.01150000  0.63050000  1.0 -0.5205197344
O  O47  1  0.08820000  0.02730000  0.56730000  1.0 -0.439136093
O  O48  1  0.81420000  0.27670000  0.71720000  1.0 -0.5122051621
O  O49  1  0.76290000  0.22480000  0.89070000  1.0 -0.5205197344
O  O50  1  0.70150000  0.15880000  0.86040000  1.0 -0.5205197344
O  O51  1  0.86720000  0.28700000  0.90010000  1.0 -0.2780418354
O  O52  1  0.76730000  0.34040000  0.87910000  1.0 -0.2936197752
O  O53  1  0.50110000  0.43470000  0.18060000  1.0 -0.4120337923
O  O54  1  0.55860000  0.48370000  0.21990000  1.0 -0.4298123106
O  O55  1  0.27510000  0.40370000  0.31520000  1.0 -0.5813501859
O  O56  1  0.19420000  0.39820000  0.26570000  1.0 -0.5333257451
O  O57  1  0.07610000  0.62740000  0.40930000  1.0 -0.4914579972
O  O58  1  0.09590000  0.71870000  0.43620000  1.0 -0.5205197344
O  O59  1  0.36950000  0.65560000  0.48850000  1.0 -0.5205197344
O  O60  1  0.43270000  0.58820000  0.47270000  1.0 -0.439136093
O  O61  1  0.28280000  0.31420000  0.22330000  1.0 -0.5122051621
O  O62  1  0.10930000  0.26290000  0.27520000  1.0 -0.5205197344
O  O63  1  0.13960000  0.20150000  0.34120000  1.0 -0.5205197344
O  O64  1  0.09990000  0.36720000  0.21300000  1.0 -0.2780418354
O  O65  1  0.12090000  0.26730000  0.15960000  1.0 -0.2936197752
O  O66  1  0.00110000  0.06530000  0.81940000  1.0 -0.4120337923
O  O67  1  0.05860000  0.01630000  0.78010000  1.0 -0.4298123106
O  O68  1  0.77510000  0.09630000  0.68480000  1.0 -0.5813501859
O  O69  1  0.69420000  0.10180000  0.73430000  1.0 -0.5333257451
O  O70  1  0.57610000  0.87260000  0.59070000  1.0 -0.4914579972
O  O71  1  0.59590000  0.78130000  0.56380000  1.0 -0.5205197344
O  O72  1  0.86950000  0.84440000  0.51150000  1.0 -0.5205197344
O  O73  1  0.93270000  0.91180000  0.52730000  1.0 -0.439136093
O  O74  1  0.78280000  0.18580000  0.77670000  1.0 -0.5122051621
O  O75  1  0.60930000  0.23710000  0.72480000  1.0 -0.5205197344
O  O76  1  0.63960000  0.29850000  0.65880000  1.0 -0.5205197344
O  O77  1  0.59990000  0.13280000  0.78700000  1.0 -0.2780418354
O  O78  1  0.62090000  0.23270000  0.84040000  1.0 -0.2936197752
O  O79  1  0.99890000  0.56530000  0.68060000  1.0 -0.4120337923
O  O80  1  0.94140000  0.51630000  0.71990000  1.0 -0.4298123106
O  O81  1  0.22490000  0.59630000  0.81520000  1.0 -0.5813501859
O  O82  1  0.30580000  0.60180000  0.76570000  1.0 -0.5333257451
O  O83  1  0.42390000  0.37260000  0.90930000  1.0 -0.4914579972
O  O84  1  0.40410000  0.28130000  0.93620000  1.0 -0.5205197344
O  O85  1  0.13050000  0.34440000  0.98850000  1.0 -0.5205197344
O  O86  1  0.06730000  0.41180000  0.97270000  1.0 -0.439136093
O  O87  1  0.21720000  0.68580000  0.72330000  1.0 -0.5122051621
O  O88  1  0.39070000  0.73710000  0.77520000  1.0 -0.5205197344
O  O89  1  0.36040000  0.79850000  0.84120000  1.0 -0.5205197344
O  O90  1  0.40010000  0.63280000  0.71300000  1.0 -0.2780418354
O  O91  1  0.37910000  0.73270000  0.65960000  1.0 -0.2936197752
O  O92  1  0.49890000  0.93470000  0.31940000  1.0 -0.4120337923
O  O93  1  0.44140000  0.98370000  0.28010000  1.0 -0.4298123106
O  O94  1  0.72490000  0.90370000  0.18480000  1.0 -0.5813501859
O  O95  1  0.80580000  0.89820000  0.23430000  1.0 -0.5333257451
O  O96  1  0.92390000  0.12740000  0.09070000  1.0 -0.4914579972
O  O97  1  0.90410000  0.21870000  0.06380000  1.0 -0.5205197344
O  O98  1  0.63050000  0.15560000  0.01150000  1.0 -0.5205197344
O  O99  1  0.56730000  0.08820000  0.02730000  1.0 -0.439136093
O  O100  1  0.71720000  0.81420000  0.27670000  1.0 -0.5122051621
O  O101  1  0.89070000  0.76290000  0.22480000  1.0 -0.5205197344
O  O102  1  0.86040000  0.70150000  0.15880000  1.0 -0.5205197344
O  O103  1  0.90010000  0.86720000  0.28700000  1.0 -0.2780418354
O  O104  1  0.87910000  0.76730000  0.34040000  1.0 -0.2936197752
O  O105  1  0.18060000  0.50110000  0.43470000  1.0 -0.4120337923
O  O106  1  0.21990000  0.55860000  0.48370000  1.0 -0.4298123106
O  O107  1  0.31520000  0.27510000  0.40370000  1.0 -0.5813501859
O  O108  1  0.26570000  0.19420000  0.39820000  1.0 -0.5333257451
O  O109  1  0.40930000  0.07610000  0.62740000  1.0 -0.4914579972
O  O110  1  0.43620000  0.09590000  0.71870000  1.0 -0.5205197344
O  O111  1  0.48850000  0.36950000  0.65560000  1.0 -0.5205197344
O  O112  1  0.47270000  0.43270000  0.58820000  1.0 -0.439136093
O  O113  1  0.22330000  0.28280000  0.31420000  1.0 -0.5122051621
O  O114  1  0.27520000  0.10930000  0.26290000  1.0 -0.5205197344
O  O115  1  0.34120000  0.13960000  0.20150000  1.0 -0.5205197344
O  O116  1  0.21300000  0.09990000  0.36720000  1.0 -0.2780418354
O  O117  1  0.15960000  0.12090000  0.26730000  1.0 -0.2936197752
O  O118  1  0.81940000  0.00110000  0.06530000  1.0 -0.4120337923
O  O119  1  0.78010000  0.05860000  0.01630000  1.0 -0.4298123106
O  O120  1  0.68480000  0.77510000  0.09630000  1.0 -0.5813501859
O  O121  1  0.73430000  0.69420000  0.10180000  1.0 -0.5333257451
O  O122  1  0.59070000  0.57610000  0.87260000  1.0 -0.4914579972
O  O123  1  0.56380000  0.59590000  0.78130000  1.0 -0.5205197344
O  O124  1  0.51150000  0.86950000  0.84440000  1.0 -0.5205197344
O  O125  1  0.52730000  0.93270000  0.91180000  1.0 -0.439136093
O  O126  1  0.77670000  0.78280000  0.18580000  1.0 -0.5122051621
O  O127  1  0.72480000  0.60930000  0.23710000  1.0 -0.5205197344
O  O128  1  0.65880000  0.63960000  0.29850000  1.0 -0.5205197344
O  O129  1  0.78700000  0.59990000  0.13280000  1.0 -0.2780418354
O  O130  1  0.84040000  0.62090000  0.23270000  1.0 -0.2936197752
O  O131  1  0.68060000  0.99890000  0.56530000  1.0 -0.4120337923
O  O132  1  0.71990000  0.94140000  0.51630000  1.0 -0.4298123106
O  O133  1  0.81520000  0.22490000  0.59630000  1.0 -0.5813501859
O  O134  1  0.76570000  0.30580000  0.60180000  1.0 -0.5333257451
O  O135  1  0.90930000  0.42390000  0.37260000  1.0 -0.4914579972
O  O136  1  0.93620000  0.40410000  0.28130000  1.0 -0.5205197344
O  O137  1  0.98850000  0.13050000  0.34440000  1.0 -0.5205197344
O  O138  1  0.97270000  0.06730000  0.41180000  1.0 -0.439136093
O  O139  1  0.72330000  0.21720000  0.68580000  1.0 -0.5122051621
O  O140  1  0.77520000  0.39070000  0.73710000  1.0 -0.5205197344
O  O141  1  0.84120000  0.36040000  0.79850000  1.0 -0.5205197344
O  O142  1  0.71300000  0.40010000  0.63280000  1.0 -0.2780418354
O  O143  1  0.65960000  0.37910000  0.73270000  1.0 -0.2936197752
O  O144  1  0.31940000  0.49890000  0.93470000  1.0 -0.4120337923
O  O145  1  0.28010000  0.44140000  0.98370000  1.0 -0.4298123106
O  O146  1  0.18480000  0.72490000  0.90370000  1.0 -0.5813501859
O  O147  1  0.23430000  0.80580000  0.89820000  1.0 -0.5333257451
O  O148  1  0.09070000  0.92390000  0.12740000  1.0 -0.4914579972
O  O149  1  0.06380000  0.90410000  0.21870000  1.0 -0.5205197344
O  O150  1  0.01150000  0.63050000  0.15560000  1.0 -0.5205197344
O  O151  1  0.02730000  0.56730000  0.08820000  1.0 -0.439136093
O  O152  1  0.27670000  0.71720000  0.81420000  1.0 -0.5122051621
O  O153  1  0.22480000  0.89070000  0.76290000  1.0 -0.5205197344
O  O154  1  0.15880000  0.86040000  0.70150000  1.0 -0.5205197344
O  O155  1  0.28700000  0.90010000  0.86720000  1.0 -0.2780418354
O  O156  1  0.34040000  0.87910000  0.76730000  1.0 -0.2936197752
O  O157  1  0.69207000  0.19207000  0.30793000  1.0 -0.7957450732
O  O158  1  0.80793000  0.80793000  0.80793000  1.0 -0.7957450732
O  O159  1  0.30793000  0.69207000  0.19207000  1.0 -0.7957450732
O  O160  1  0.19207000  0.30793000  0.69207000  1.0 -0.7947853192
O  O161  1  0.21840000  0.21840000  0.21840000  1.0 -0.9595270291
O  O162  1  0.50210000  0.50210000  0.50210000  1.0 -0.1422661155
O  O163  1  0.28160000  0.78160000  0.71840000  1.0 -0.9595270291
O  O164  1  0.99790000  0.49790000  0.00210000  1.0 -0.1422661155
O  O165  1  0.78160000  0.71840000  0.28160000  1.0 -0.9595270291
O  O166  1  0.49790000  0.00210000  0.99790000  1.0 -0.1422661155
O  O167  1  0.71840000  0.28160000  0.78160000  1.0 -0.9595270291
O  O168  1  0.00210000  0.99790000  0.49790000  1.0 -0.1422661155
O  O169  1  0.54200000  0.45800000  0.95800000  1.0 -0.2325807496
O  O170  1  0.95800000  0.54200000  0.45800000  1.0 -0.2325807496
O  O171  1  0.45800000  0.95800000  0.54200000  1.0 -0.2325807496
O  O172  1  0.04200000  0.04200000  0.04200000  1.0 -0.2325807496
