# DDEC6 charges by PACMAN v1.1 (https://github.com/mtap-research/PACMAN-charge/)
data_EWOFON_FSR_pacman
_symmetry_space_group_name_H-M   'P 1'
_cell_length_a   13.50200000
_cell_length_b   18.60900000
_cell_length_c   26.61100000
_cell_angle_alpha   90.00000000
_cell_angle_beta   90.00000000
_cell_angle_gamma   90.00000000
_symmetry_Int_Tables_number   1
_chemical_formula_structural   Eu2H44C78(N2O5)3
_chemical_formula_sum   'Eu8 H176 C312 N24 O60'
_cell_volume   6686.24574470
_cell_formula_units_Z   4
loop_
 _symmetry_equiv_pos_site_id
 _symmetry_equiv_pos_as_xyz
  1  'x, y, z'
loop_
 _atom_site_type_symbol
 _atom_site_label
 _atom_site_symmetry_multiplicity
 _atom_site_fract_x
 _atom_site_fract_y
 _atom_site_fract_z
 _atom_site_occupancy
 _atom_site_charge
Eu  Eu1  1  0.08660000  0.15581000  0.38021000  1.0 1.9534405001
Eu  Eu2  1  0.41340000  0.65581000  0.11979000  1.0 1.9553130396
Eu  Eu3  1  0.91340000  0.34419000  0.38021000  1.0 1.9534405001
Eu  Eu4  1  0.58660000  0.84419000  0.11979000  1.0 1.9553130396
Eu  Eu5  1  0.91340000  0.84419000  0.61979000  1.0 1.9553130396
Eu  Eu6  1  0.58660000  0.34419000  0.88021000  1.0 1.9553130396
Eu  Eu7  1  0.08660000  0.65581000  0.61979000  1.0 1.9553130396
Eu  Eu8  1  0.41340000  0.15581000  0.88021000  1.0 1.9553130396
H  H1  1  0.03300000  0.06770000  0.48870000  1.0 0.0995804311
H  H2  1  0.46700000  0.56770000  0.01130000  1.0 0.0995804311
H  H3  1  0.96700000  0.43230000  0.48870000  1.0 0.0995804311
H  H4  1  0.53300000  0.93230000  0.01130000  1.0 0.0995804311
H  H5  1  0.96700000  0.93230000  0.51130000  1.0 0.0995804311
H  H6  1  0.53300000  0.43230000  0.98870000  1.0 0.0995804311
H  H7  1  0.03300000  0.56770000  0.51130000  1.0 0.0995804311
H  H8  1  0.46700000  0.06770000  0.98870000  1.0 0.0995804311
H  H9  1  0.08890000  0.00480000  0.55720000  1.0 0.1310150769
H  H10  1  0.41110000  0.50480000  0.94280000  1.0 0.1310150769
H  H11  1  0.91110000  0.49520000  0.55720000  1.0 0.1310150769
H  H12  1  0.58890000  0.99520000  0.94280000  1.0 0.1310150769
H  H13  1  0.91110000  0.99520000  0.44280000  1.0 0.1310150769
H  H14  1  0.58890000  0.49520000  0.05720000  1.0 0.1310150769
H  H15  1  0.08890000  0.50480000  0.44280000  1.0 0.1310150769
H  H16  1  0.41110000  0.00480000  0.05720000  1.0 0.1310150769
H  H17  1  0.25880000  0.97960000  0.56460000  1.0 0.1196700942
H  H18  1  0.24120000  0.47960000  0.93540000  1.0 0.1196700942
H  H19  1  0.74120000  0.52040000  0.56460000  1.0 0.1196700942
H  H20  1  0.75880000  0.02040000  0.93540000  1.0 0.1196700942
H  H21  1  0.74120000  0.02040000  0.43540000  1.0 0.1196700942
H  H22  1  0.75880000  0.52040000  0.06460000  1.0 0.1196700942
H  H23  1  0.25880000  0.47960000  0.43540000  1.0 0.1196700942
H  H24  1  0.24120000  0.97960000  0.06460000  1.0 0.1196700942
H  H25  1  0.55410000  0.10820000  0.38600000  1.0 0.1196700942
H  H26  1  0.94590000  0.60820000  0.11400000  1.0 0.1196700942
H  H27  1  0.44590000  0.39180000  0.38600000  1.0 0.1196700942
H  H28  1  0.05410000  0.89180000  0.11400000  1.0 0.1196700942
H  H29  1  0.44590000  0.89180000  0.61400000  1.0 0.1196700942
H  H30  1  0.05410000  0.39180000  0.88600000  1.0 0.1196700942
H  H31  1  0.55410000  0.60820000  0.61400000  1.0 0.1196700942
H  H32  1  0.94590000  0.10820000  0.88600000  1.0 0.1196700942
H  H33  1  0.48310000  0.17710000  0.32240000  1.0 0.1093324811
H  H34  1  0.01690000  0.67710000  0.17760000  1.0 0.1093324811
H  H35  1  0.51690000  0.32290000  0.32240000  1.0 0.1093324811
H  H36  1  0.98310000  0.82290000  0.17760000  1.0 0.1093324811
H  H37  1  0.51690000  0.82290000  0.67760000  1.0 0.1093324811
H  H38  1  0.98310000  0.32290000  0.82240000  1.0 0.1093324811
H  H39  1  0.48310000  0.67710000  0.67760000  1.0 0.1093324811
H  H40  1  0.01690000  0.17710000  0.82240000  1.0 0.1093324811
H  H41  1  0.31090000  0.19480000  0.32270000  1.0 0.1093324811
H  H42  1  0.18910000  0.69480000  0.17730000  1.0 0.1093324811
H  H43  1  0.68910000  0.30520000  0.32270000  1.0 0.1093324811
H  H44  1  0.81090000  0.80520000  0.17730000  1.0 0.1093324811
H  H45  1  0.68910000  0.80520000  0.67730000  1.0 0.1093324811
H  H46  1  0.81090000  0.30520000  0.82270000  1.0 0.1093324811
H  H47  1  0.31090000  0.69480000  0.67730000  1.0 0.1093324811
H  H48  1  0.18910000  0.19480000  0.82270000  1.0 0.1093324811
H  H49  1  0.68940000  0.21040000  0.46340000  1.0 0.1196700942
H  H50  1  0.81060000  0.71040000  0.03660000  1.0 0.1196700942
H  H51  1  0.31060000  0.28960000  0.46340000  1.0 0.1196700942
H  H52  1  0.18940000  0.78960000  0.03660000  1.0 0.1196700942
H  H53  1  0.31060000  0.78960000  0.53660000  1.0 0.1196700942
H  H54  1  0.18940000  0.28960000  0.96340000  1.0 0.1196700942
H  H55  1  0.68940000  0.71040000  0.53660000  1.0 0.1196700942
H  H56  1  0.81060000  0.21040000  0.96340000  1.0 0.1196700942
H  H57  1  0.58520000  0.16970000  0.52630000  1.0 0.1369431921
H  H58  1  0.91480000  0.66970000  0.97370000  1.0 0.1369431921
H  H59  1  0.41480000  0.33030000  0.52630000  1.0 0.1369431921
H  H60  1  0.08520000  0.83030000  0.97370000  1.0 0.1369431921
H  H61  1  0.41480000  0.83030000  0.47370000  1.0 0.1369431921
H  H62  1  0.08520000  0.33030000  0.02630000  1.0 0.1369431921
H  H63  1  0.58520000  0.66970000  0.47370000  1.0 0.1369431921
H  H64  1  0.91480000  0.16970000  0.02630000  1.0 0.1310150769
H  H65  1  0.81930000  0.09320000  0.60350000  1.0 0.1093324811
H  H66  1  0.68070000  0.59320000  0.89650000  1.0 0.1093324811
H  H67  1  0.18070000  0.40680000  0.60350000  1.0 0.1093324811
H  H68  1  0.31930000  0.90680000  0.89650000  1.0 0.1093324811
H  H69  1  0.18070000  0.90680000  0.39650000  1.0 0.1093324811
H  H70  1  0.31930000  0.40680000  0.10350000  1.0 0.1093324811
H  H71  1  0.81930000  0.59320000  0.39650000  1.0 0.1093324811
H  H72  1  0.68070000  0.09320000  0.10350000  1.0 0.1093324811
H  H73  1  0.92650000  0.13270000  0.53940000  1.0 0.1093324811
H  H74  1  0.57350000  0.63270000  0.96060000  1.0 0.1093324811
H  H75  1  0.07350000  0.36730000  0.53940000  1.0 0.1093324811
H  H76  1  0.42650000  0.86730000  0.96060000  1.0 0.1093324811
H  H77  1  0.07350000  0.86730000  0.46060000  1.0 0.1093324811
H  H78  1  0.42650000  0.36730000  0.03940000  1.0 0.1093324811
H  H79  1  0.92650000  0.63270000  0.46060000  1.0 0.1093324811
H  H80  1  0.57350000  0.13270000  0.03940000  1.0 0.1093324811
H  H81  1  0.69600000  0.22460000  0.63770000  1.0 0.1310150769
H  H82  1  0.80400000  0.72460000  0.86230000  1.0 0.1310150769
H  H83  1  0.30400000  0.27540000  0.63770000  1.0 0.1310150769
H  H84  1  0.19600000  0.77540000  0.86230000  1.0 0.1310150769
H  H85  1  0.30400000  0.77540000  0.36230000  1.0 0.1310150769
H  H86  1  0.19600000  0.27540000  0.13770000  1.0 0.1310150769
H  H87  1  0.69600000  0.72460000  0.36230000  1.0 0.1310150769
H  H88  1  0.80400000  0.22460000  0.13770000  1.0 0.1310150769
H  H89  1  0.68150000  0.27140000  0.71920000  1.0 0.1196700942
H  H90  1  0.81850000  0.77140000  0.78080000  1.0 0.1196700942
H  H91  1  0.31850000  0.22860000  0.71920000  1.0 0.1196700942
H  H92  1  0.18150000  0.72860000  0.78080000  1.0 0.1196700942
H  H93  1  0.31850000  0.72860000  0.28080000  1.0 0.1196700942
H  H94  1  0.18150000  0.22860000  0.21920000  1.0 0.1196700942
H  H95  1  0.68150000  0.77140000  0.28080000  1.0 0.1196700942
H  H96  1  0.81850000  0.27140000  0.21920000  1.0 0.1196700942
H  H97  1  0.55210000  0.08740000  0.76430000  1.0 0.1196700942
H  H98  1  0.94790000  0.58740000  0.73570000  1.0 0.1196700942
H  H99  1  0.44790000  0.41260000  0.76430000  1.0 0.1196700942
H  H100  1  0.05210000  0.91260000  0.73570000  1.0 0.1196700942
H  H101  1  0.44790000  0.91260000  0.23570000  1.0 0.1196700942
H  H102  1  0.05210000  0.41260000  0.26430000  1.0 0.1196700942
H  H103  1  0.55210000  0.58740000  0.23570000  1.0 0.1196700942
H  H104  1  0.94790000  0.08740000  0.26430000  1.0 0.1196700942
H  H105  1  0.56390000  0.04200000  0.68340000  1.0 0.1310150769
H  H106  1  0.93610000  0.54200000  0.81660000  1.0 0.1310150769
H  H107  1  0.43610000  0.45800000  0.68340000  1.0 0.1310150769
H  H108  1  0.06390000  0.95800000  0.81660000  1.0 0.1310150769
H  H109  1  0.43610000  0.95800000  0.31660000  1.0 0.1310150769
H  H110  1  0.06390000  0.45800000  0.18340000  1.0 0.1310150769
H  H111  1  0.56390000  0.54200000  0.31660000  1.0 0.1310150769
H  H112  1  0.93610000  0.04200000  0.18340000  1.0 0.1310150769
H  H113  1  0.15150000  0.93760000  0.27990000  1.0 0.0929747618
H  H114  1  0.34850000  0.43760000  0.22010000  1.0 0.0929747618
H  H115  1  0.84850000  0.56240000  0.27990000  1.0 0.0929747618
H  H116  1  0.65150000  0.06240000  0.22010000  1.0 0.0929747618
H  H117  1  0.84850000  0.06240000  0.72010000  1.0 0.0929747618
H  H118  1  0.65150000  0.56240000  0.77990000  1.0 0.0929747618
H  H119  1  0.15150000  0.43760000  0.72010000  1.0 0.0929747618
H  H120  1  0.34850000  0.93760000  0.77990000  1.0 0.0929747618
H  H121  1  0.10920000  0.82840000  0.24200000  1.0 0.0995804311
H  H122  1  0.39080000  0.32840000  0.25800000  1.0 0.0995804311
H  H123  1  0.89080000  0.67160000  0.24200000  1.0 0.0995804311
H  H124  1  0.60920000  0.17160000  0.25800000  1.0 0.0995804311
H  H125  1  0.89080000  0.17160000  0.75800000  1.0 0.0995804311
H  H126  1  0.60920000  0.67160000  0.74200000  1.0 0.0995804311
H  H127  1  0.10920000  0.32840000  0.75800000  1.0 0.0995804311
H  H128  1  0.39080000  0.82840000  0.74200000  1.0 0.0995804311
H  H129  1  0.85280000  0.82450000  0.32110000  1.0 0.1093324811
H  H130  1  0.64720000  0.32450000  0.17890000  1.0 0.1093324811
H  H131  1  0.14720000  0.67550000  0.32110000  1.0 0.1093324811
H  H132  1  0.35280000  0.17550000  0.17890000  1.0 0.1093324811
H  H133  1  0.14720000  0.17550000  0.67890000  1.0 0.1093324811
H  H134  1  0.35280000  0.67550000  0.82110000  1.0 0.1093324811
H  H135  1  0.85280000  0.32450000  0.67890000  1.0 0.1093324811
H  H136  1  0.64720000  0.82450000  0.82110000  1.0 0.1093324811
H  H137  1  0.89510000  0.93380000  0.35900000  1.0 0.0995804311
H  H138  1  0.60490000  0.43380000  0.14100000  1.0 0.0995804311
H  H139  1  0.10490000  0.56620000  0.35900000  1.0 0.0995804311
H  H140  1  0.39510000  0.06620000  0.14100000  1.0 0.0995804311
H  H141  1  0.10490000  0.06620000  0.64100000  1.0 0.0995804311
H  H142  1  0.39510000  0.56620000  0.85900000  1.0 0.0995804311
H  H143  1  0.89510000  0.43380000  0.64100000  1.0 0.0995804311
H  H144  1  0.60490000  0.93380000  0.85900000  1.0 0.0995804311
H  H145  1  0.17250000  0.96090000  0.26280000  1.0 0.0803472648
H  H146  1  0.32750000  0.46090000  0.23720000  1.0 0.0803472648
H  H147  1  0.82750000  0.53910000  0.26280000  1.0 0.0803472648
H  H148  1  0.67250000  0.03910000  0.23720000  1.0 0.0803472648
H  H149  1  0.82750000  0.03910000  0.73720000  1.0 0.0803472648
H  H150  1  0.67250000  0.53910000  0.76280000  1.0 0.0803472648
H  H151  1  0.17250000  0.46090000  0.73720000  1.0 0.0803472648
H  H152  1  0.32750000  0.96090000  0.76280000  1.0 0.0803472648
H  H153  1  0.15310000  0.84680000  0.22370000  1.0 0.1093324811
H  H154  1  0.34690000  0.34680000  0.27630000  1.0 0.1093324811
H  H155  1  0.84690000  0.65320000  0.22370000  1.0 0.1093324811
H  H156  1  0.65310000  0.15320000  0.27630000  1.0 0.1093324811
H  H157  1  0.84690000  0.15320000  0.77630000  1.0 0.1093324811
H  H158  1  0.65310000  0.65320000  0.72370000  1.0 0.1093324811
H  H159  1  0.15310000  0.34680000  0.77630000  1.0 0.1093324811
H  H160  1  0.34690000  0.84680000  0.72370000  1.0 0.1093324811
H  H161  1  0.96330000  0.78680000  0.33450000  1.0 0.0929747618
H  H162  1  0.53670000  0.28680000  0.16550000  1.0 0.0929747618
H  H163  1  0.03670000  0.71320000  0.33450000  1.0 0.0929747618
H  H164  1  0.46330000  0.21320000  0.16550000  1.0 0.0929747618
H  H165  1  0.03670000  0.21320000  0.66550000  1.0 0.0929747618
H  H166  1  0.46330000  0.71320000  0.83450000  1.0 0.0929747618
H  H167  1  0.96330000  0.28680000  0.66550000  1.0 0.0929747618
H  H168  1  0.53670000  0.78680000  0.83450000  1.0 0.0929747618
H  H169  1  0.97760000  0.90200000  0.37130000  1.0 0.0995804311
H  H170  1  0.52240000  0.40200000  0.12870000  1.0 0.0995804311
H  H171  1  0.02240000  0.59800000  0.37130000  1.0 0.0995804311
H  H172  1  0.47760000  0.09800000  0.12870000  1.0 0.0995804311
H  H173  1  0.02240000  0.09800000  0.62870000  1.0 0.0995804311
H  H174  1  0.47760000  0.59800000  0.87130000  1.0 0.0995804311
H  H175  1  0.97760000  0.40200000  0.62870000  1.0 0.0995804311
H  H176  1  0.52240000  0.90200000  0.87130000  1.0 0.0995804311
C  C1  1  0.10210000  0.05870000  0.49137000  1.0 0.0929747618
C  C2  1  0.39790000  0.55870000  0.00863000  1.0 0.0929747618
C  C3  1  0.89790000  0.44130000  0.49137000  1.0 0.0929747618
C  C4  1  0.60210000  0.94130000  0.00863000  1.0 0.0929747618
C  C5  1  0.89790000  0.94130000  0.50863000  1.0 0.0929747618
C  C6  1  0.60210000  0.44130000  0.99137000  1.0 0.0929747618
C  C7  1  0.10210000  0.55870000  0.50863000  1.0 0.0929747618
C  C8  1  0.39790000  0.05870000  0.99137000  1.0 0.0929747618
C  C9  1  0.13430000  0.02070000  0.53226000  1.0 -0.1566396079
C  C10  1  0.36570000  0.52070000  0.96774000  1.0 -0.1566396079
C  C11  1  0.86570000  0.47930000  0.53226000  1.0 -0.1566396079
C  C12  1  0.63430000  0.97930000  0.96774000  1.0 -0.1566396079
C  C13  1  0.86570000  0.97930000  0.46774000  1.0 -0.1566396079
C  C14  1  0.63430000  0.47930000  0.03226000  1.0 -0.1566396079
C  C15  1  0.13430000  0.52070000  0.46774000  1.0 -0.1566396079
C  C16  1  0.36570000  0.02070000  0.03226000  1.0 -0.1566396079
C  C17  1  0.23410000  0.00580000  0.53662000  1.0 -0.0591641947
C  C18  1  0.26590000  0.50580000  0.96338000  1.0 -0.0591641947
C  C19  1  0.76590000  0.49420000  0.53662000  1.0 -0.0591641947
C  C20  1  0.73410000  0.99420000  0.96338000  1.0 -0.0591641947
C  C21  1  0.76590000  0.99420000  0.46338000  1.0 -0.0591641947
C  C22  1  0.73410000  0.49420000  0.03662000  1.0 -0.0591641947
C  C23  1  0.23410000  0.50580000  0.46338000  1.0 -0.0591641947
C  C24  1  0.26590000  0.00580000  0.03662000  1.0 -0.0591641947
C  C25  1  0.29760000  0.03000000  0.49912000  1.0 -0.009499272
C  C26  1  0.20240000  0.53000000  0.00088000  1.0 -0.009499272
C  C27  1  0.70240000  0.47000000  0.49912000  1.0 -0.009499272
C  C28  1  0.79760000  0.97000000  0.00088000  1.0 -0.009499272
C  C29  1  0.70240000  0.97000000  0.50088000  1.0 -0.009499272
C  C30  1  0.79760000  0.47000000  0.99912000  1.0 -0.009499272
C  C31  1  0.29760000  0.53000000  0.50088000  1.0 -0.009499272
C  C32  1  0.20240000  0.03000000  0.99912000  1.0 -0.009499272
C  C33  1  0.40320000  0.01474000  0.50036000  1.0 0.1196700942
C  C34  1  0.09680000  0.51474000  0.99964000  1.0 0.1196700942
C  C35  1  0.59680000  0.48526000  0.50036000  1.0 0.1196700942
C  C36  1  0.90320000  0.98526000  0.99964000  1.0 0.1196700942
C  C37  1  0.59680000  0.98526000  0.49964000  1.0 0.1196700942
C  C38  1  0.90320000  0.48526000  0.00036000  1.0 0.1196700942
C  C39  1  0.40320000  0.51474000  0.49964000  1.0 0.1196700942
C  C40  1  0.09680000  0.01474000  0.00036000  1.0 0.1196700942
C  C41  1  0.46500000  0.04050000  0.46206000  1.0 0.1196700942
C  C42  1  0.03500000  0.54050000  0.03794000  1.0 0.1196700942
C  C43  1  0.53500000  0.45950000  0.46206000  1.0 0.1196700942
C  C44  1  0.96500000  0.95950000  0.03794000  1.0 0.1196700942
C  C45  1  0.53500000  0.95950000  0.53794000  1.0 0.1196700942
C  C46  1  0.96500000  0.45950000  0.96206000  1.0 0.1196700942
C  C47  1  0.46500000  0.54050000  0.53794000  1.0 0.1196700942
C  C48  1  0.03500000  0.04050000  0.96206000  1.0 0.1196700942
C  C49  1  0.42460000  0.08470000  0.42185000  1.0 -0.009499272
C  C50  1  0.07540000  0.58470000  0.07815000  1.0 -0.009499272
C  C51  1  0.57540000  0.41530000  0.42185000  1.0 -0.009499272
C  C52  1  0.92460000  0.91530000  0.07815000  1.0 -0.009499272
C  C53  1  0.57540000  0.91530000  0.57815000  1.0 -0.009499272
C  C54  1  0.92460000  0.41530000  0.92185000  1.0 -0.009499272
C  C55  1  0.42460000  0.58470000  0.57815000  1.0 -0.009499272
C  C56  1  0.07540000  0.08470000  0.92185000  1.0 -0.009499272
C  C57  1  0.48450000  0.11550000  0.38514000  1.0 -0.0831725511
C  C58  1  0.01550000  0.61550000  0.11486000  1.0 -0.0831725511
C  C59  1  0.51550000  0.38450000  0.38514000  1.0 -0.0831725511
C  C60  1  0.98450000  0.88450000  0.11486000  1.0 -0.0831725511
C  C61  1  0.51550000  0.88450000  0.61486000  1.0 -0.0831725511
C  C62  1  0.98450000  0.38450000  0.88514000  1.0 -0.0831725511
C  C63  1  0.48450000  0.61550000  0.61486000  1.0 -0.0831725511
C  C64  1  0.01550000  0.11550000  0.88514000  1.0 -0.0831725511
C  C65  1  0.44320000  0.15620000  0.34800000  1.0 -0.1825621149
C  C66  1  0.05680000  0.65620000  0.15200000  1.0 -0.1825621149
C  C67  1  0.55680000  0.34380000  0.34800000  1.0 -0.1825621149
C  C68  1  0.94320000  0.84380000  0.15200000  1.0 -0.1825621149
C  C69  1  0.55680000  0.84380000  0.65200000  1.0 -0.1825621149
C  C70  1  0.94320000  0.34380000  0.84800000  1.0 -0.1825621149
C  C71  1  0.44320000  0.65620000  0.65200000  1.0 -0.1825621149
C  C72  1  0.05680000  0.15620000  0.84800000  1.0 -0.1825621149
C  C73  1  0.33990000  0.16640000  0.34844000  1.0 0.0803472648
C  C74  1  0.16010000  0.66640000  0.15156000  1.0 0.0803472648
C  C75  1  0.66010000  0.33360000  0.34844000  1.0 0.0803472648
C  C76  1  0.83990000  0.83360000  0.15156000  1.0 0.0803472648
C  C77  1  0.66010000  0.83360000  0.65156000  1.0 0.0803472648
C  C78  1  0.83990000  0.33360000  0.84844000  1.0 0.0803472648
C  C79  1  0.33990000  0.66640000  0.65156000  1.0 0.0803472648
C  C80  1  0.16010000  0.16640000  0.84844000  1.0 0.0803472648
C  C81  1  0.32250000  0.09790000  0.42014000  1.0 0.1470602655
C  C82  1  0.17750000  0.59790000  0.07986000  1.0 0.1470602655
C  C83  1  0.67750000  0.40210000  0.42014000  1.0 0.1470602655
C  C84  1  0.82250000  0.90210000  0.07986000  1.0 0.1470602655
C  C85  1  0.67750000  0.90210000  0.57986000  1.0 0.1470602655
C  C86  1  0.82250000  0.40210000  0.92014000  1.0 0.1470602655
C  C87  1  0.32250000  0.59790000  0.57986000  1.0 0.1470602655
C  C88  1  0.17750000  0.09790000  0.92014000  1.0 0.1470602655
C  C89  1  0.25900000  0.06946000  0.45885000  1.0 0.1369431921
C  C90  1  0.24100000  0.56946000  0.04115000  1.0 0.1369431921
C  C91  1  0.74100000  0.43054000  0.45885000  1.0 0.1369431921
C  C92  1  0.75900000  0.93054000  0.04115000  1.0 0.1369431921
C  C93  1  0.74100000  0.93054000  0.54115000  1.0 0.1369431921
C  C94  1  0.75900000  0.43054000  0.95885000  1.0 0.1369431921
C  C95  1  0.25900000  0.56946000  0.54115000  1.0 0.1369431921
C  C96  1  0.24100000  0.06946000  0.95885000  1.0 0.1369431921
C  C97  1  0.88370000  0.19900000  0.45233000  1.0 0.6434177884
C  C98  1  0.61630000  0.69900000  0.04767000  1.0 0.6434177884
C  C99  1  0.11630000  0.30100000  0.45233000  1.0 0.6434177884
C  C100  1  0.38370000  0.80100000  0.04767000  1.0 0.6434177884
C  C101  1  0.11630000  0.80100000  0.54767000  1.0 0.6434177884
C  C102  1  0.38370000  0.30100000  0.95233000  1.0 0.6434177884
C  C103  1  0.88370000  0.69900000  0.54767000  1.0 0.6434177884
C  C104  1  0.61630000  0.19900000  0.95233000  1.0 0.6434177884
C  C105  1  0.81860000  0.17500000  0.49469000  1.0 -0.0331610686
C  C106  1  0.68140000  0.67500000  0.00531000  1.0 -0.0331610686
C  C107  1  0.18140000  0.32500000  0.49469000  1.0 -0.0331610686
C  C108  1  0.31860000  0.82500000  0.00531000  1.0 -0.0331610686
C  C109  1  0.18140000  0.82500000  0.50531000  1.0 -0.0331610686
C  C110  1  0.31860000  0.32500000  0.99469000  1.0 -0.0331610686
C  C111  1  0.81860000  0.67500000  0.50531000  1.0 -0.0331610686
C  C112  1  0.68140000  0.17500000  0.99469000  1.0 -0.0331610686
C  C113  1  0.71640000  0.18610000  0.49169000  1.0 -0.0831725511
C  C114  1  0.78360000  0.68610000  0.00831000  1.0 -0.0831725511
C  C115  1  0.28360000  0.31390000  0.49169000  1.0 -0.0831725511
C  C116  1  0.21640000  0.81390000  0.00831000  1.0 -0.0831725511
C  C117  1  0.28360000  0.81390000  0.50831000  1.0 -0.0831725511
C  C118  1  0.21640000  0.31390000  0.99169000  1.0 -0.0831725511
C  C119  1  0.71640000  0.68610000  0.50831000  1.0 -0.0831725511
C  C120  1  0.78360000  0.18610000  0.99169000  1.0 -0.0831725511
C  C121  1  0.65470000  0.16250000  0.52884000  1.0 -0.189437471
C  C122  1  0.84530000  0.66250000  0.97116000  1.0 -0.189437471
C  C123  1  0.34530000  0.33750000  0.52884000  1.0 -0.189437471
C  C124  1  0.15470000  0.83750000  0.97116000  1.0 -0.189437471
C  C125  1  0.34530000  0.83750000  0.47116000  1.0 -0.189437471
C  C126  1  0.15470000  0.33750000  0.02884000  1.0 -0.189437471
C  C127  1  0.65470000  0.66250000  0.47116000  1.0 -0.189437471
C  C128  1  0.84530000  0.16250000  0.02884000  1.0 -0.189437471
C  C129  1  0.69430000  0.12820000  0.56980000  1.0 0.2242900708
C  C130  1  0.80570000  0.62820000  0.93020000  1.0 0.2242900708
C  C131  1  0.30570000  0.37180000  0.56980000  1.0 0.2242900708
C  C132  1  0.19430000  0.87180000  0.93020000  1.0 0.2242900708
C  C133  1  0.30570000  0.87180000  0.43020000  1.0 0.2242900708
C  C134  1  0.19430000  0.37180000  0.06980000  1.0 0.2242900708
C  C135  1  0.69430000  0.62820000  0.43020000  1.0 0.2242900708
C  C136  1  0.80570000  0.12820000  0.06980000  1.0 0.2242900708
C  C137  1  0.79370000  0.11680000  0.57462000  1.0 -0.2307531967
C  C138  1  0.70630000  0.61680000  0.92538000  1.0 -0.2307531967
C  C139  1  0.20630000  0.38320000  0.57462000  1.0 -0.2307531967
C  C140  1  0.29370000  0.88320000  0.92538000  1.0 -0.2307531967
C  C141  1  0.20630000  0.88320000  0.42538000  1.0 -0.2307531967
C  C142  1  0.29370000  0.38320000  0.07462000  1.0 -0.2307531967
C  C143  1  0.79370000  0.61680000  0.42538000  1.0 -0.2307531967
C  C144  1  0.70630000  0.11680000  0.07462000  1.0 -0.2307531967
C  C145  1  0.85720000  0.14030000  0.53664000  1.0 -0.1129789858
C  C146  1  0.64280000  0.64030000  0.96336000  1.0 -0.1129789858
C  C147  1  0.14280000  0.35970000  0.53664000  1.0 -0.1129789858
C  C148  1  0.35720000  0.85970000  0.96336000  1.0 -0.1129789858
C  C149  1  0.14280000  0.85970000  0.46336000  1.0 -0.1129789858
C  C150  1  0.35720000  0.35970000  0.03664000  1.0 -0.1129789858
C  C151  1  0.85720000  0.64030000  0.46336000  1.0 -0.1129789858
C  C152  1  0.64280000  0.14030000  0.03664000  1.0 -0.1129789858
C  C153  1  0.62950000  0.12960000  0.65343000  1.0 0.2458454163
C  C154  1  0.87050000  0.62960000  0.84657000  1.0 0.2458454163
C  C155  1  0.37050000  0.37040000  0.65343000  1.0 0.2458454163
C  C156  1  0.12950000  0.87040000  0.84657000  1.0 0.2458454163
C  C157  1  0.37050000  0.87040000  0.34657000  1.0 0.2458454163
C  C158  1  0.12950000  0.37040000  0.15343000  1.0 0.2458454163
C  C159  1  0.62950000  0.62960000  0.34657000  1.0 0.2458454163
C  C160  1  0.87050000  0.12960000  0.15343000  1.0 0.2458454163
C  C161  1  0.66570000  0.19700000  0.66354000  1.0 -0.2307531967
C  C162  1  0.83430000  0.69700000  0.83646000  1.0 -0.2307531967
C  C163  1  0.33430000  0.30300000  0.66354000  1.0 -0.2307531967
C  C164  1  0.16570000  0.80300000  0.83646000  1.0 -0.2307531967
C  C165  1  0.33430000  0.80300000  0.33646000  1.0 -0.2307531967
C  C166  1  0.16570000  0.30300000  0.16354000  1.0 -0.2307531967
C  C167  1  0.66570000  0.69700000  0.33646000  1.0 -0.2307531967
C  C168  1  0.83430000  0.19700000  0.16354000  1.0 -0.2307531967
C  C169  1  0.65750000  0.22450000  0.71203000  1.0 -0.0999766424
C  C170  1  0.84250000  0.72450000  0.78797000  1.0 -0.0999766424
C  C171  1  0.34250000  0.27550000  0.71203000  1.0 -0.0999766424
C  C172  1  0.15750000  0.77550000  0.78797000  1.0 -0.0999766424
C  C173  1  0.34250000  0.77550000  0.28797000  1.0 -0.0999766424
C  C174  1  0.15750000  0.27550000  0.21203000  1.0 -0.0999766424
C  C175  1  0.65750000  0.72450000  0.28797000  1.0 -0.0999766424
C  C176  1  0.84250000  0.22450000  0.21203000  1.0 -0.0999766424
C  C177  1  0.61460000  0.18400000  0.74999000  1.0 -0.0428262407
C  C178  1  0.88540000  0.68400000  0.75001000  1.0 -0.0428262407
C  C179  1  0.38540000  0.31600000  0.74999000  1.0 -0.0428262407
C  C180  1  0.11460000  0.81600000  0.75001000  1.0 -0.0428262407
C  C181  1  0.38540000  0.81600000  0.25001000  1.0 -0.0428262407
C  C182  1  0.11460000  0.31600000  0.24999000  1.0 -0.0428262407
C  C183  1  0.61460000  0.68400000  0.25001000  1.0 -0.0428262407
C  C184  1  0.88540000  0.18400000  0.24999000  1.0 -0.0428262407
C  C185  1  0.58080000  0.11600000  0.73856000  1.0 -0.0999766424
C  C186  1  0.91920000  0.61600000  0.76144000  1.0 -0.0999766424
C  C187  1  0.41920000  0.38400000  0.73856000  1.0 -0.0999766424
C  C188  1  0.08080000  0.88400000  0.76144000  1.0 -0.0999766424
C  C189  1  0.41920000  0.88400000  0.26144000  1.0 -0.0999766424
C  C190  1  0.08080000  0.38400000  0.23856000  1.0 -0.0999766424
C  C191  1  0.58080000  0.61600000  0.26144000  1.0 -0.0999766424
C  C192  1  0.91920000  0.11600000  0.23856000  1.0 -0.0999766424
C  C193  1  0.58790000  0.08890000  0.69067000  1.0 -0.2041918806
C  C194  1  0.91210000  0.58890000  0.80933000  1.0 -0.2041918806
C  C195  1  0.41210000  0.41110000  0.69067000  1.0 -0.2041918806
C  C196  1  0.08790000  0.91110000  0.80933000  1.0 -0.2041918806
C  C197  1  0.41210000  0.91110000  0.30933000  1.0 -0.2041918806
C  C198  1  0.08790000  0.41110000  0.19067000  1.0 -0.2041918806
C  C199  1  0.58790000  0.58890000  0.30933000  1.0 -0.2041918806
C  C200  1  0.91210000  0.08890000  0.19067000  1.0 -0.2041918806
C  C201  1  0.60430000  0.21510000  0.80156000  1.0 0.6308490165
C  C202  1  0.89570000  0.71510000  0.69844000  1.0 0.6308490165
C  C203  1  0.39570000  0.28490000  0.80156000  1.0 0.6308490165
C  C204  1  0.10430000  0.78490000  0.69844000  1.0 0.6308490165
C  C205  1  0.39570000  0.78490000  0.19844000  1.0 0.6308490165
C  C206  1  0.10430000  0.28490000  0.30156000  1.0 0.6308490165
C  C207  1  0.60430000  0.71510000  0.19844000  1.0 0.6308490165
C  C208  1  0.89570000  0.21510000  0.30156000  1.0 0.6308490165
C  C209  1  0.06240000  0.01660000  0.34261000  1.0 0.4109812543
C  C210  1  0.43760000  0.51660000  0.15739000  1.0 0.4109812543
C  C211  1  0.93760000  0.48340000  0.34261000  1.0 0.4109812543
C  C212  1  0.56240000  0.98340000  0.15739000  1.0 0.4109812543
C  C213  1  0.93760000  0.98340000  0.65739000  1.0 0.4109812543
C  C214  1  0.56240000  0.48340000  0.84261000  1.0 0.4109812543
C  C215  1  0.06240000  0.51660000  0.65739000  1.0 0.4109812543
C  C216  1  0.43760000  0.01660000  0.84261000  1.0 0.4109812543
C  C217  1  0.02730000  0.94600000  0.32303000  1.0 0.0276186547
C  C218  1  0.47270000  0.44600000  0.17697000  1.0 0.0276186547
C  C219  1  0.97270000  0.55400000  0.32303000  1.0 0.0276186547
C  C220  1  0.52730000  0.05400000  0.17697000  1.0 0.0276186547
C  C221  1  0.97270000  0.05400000  0.67697000  1.0 0.0276186547
C  C222  1  0.52730000  0.55400000  0.82303000  1.0 0.0276186547
C  C223  1  0.02730000  0.44600000  0.67697000  1.0 0.0276186547
C  C224  1  0.47270000  0.94600000  0.82303000  1.0 0.0276186547
C  C225  1  0.09090000  0.91470000  0.28830000  1.0 -0.0034480387
C  C226  1  0.40910000  0.41470000  0.21170000  1.0 -0.0034480387
C  C227  1  0.90910000  0.58530000  0.28830000  1.0 -0.0034480387
C  C228  1  0.59090000  0.08530000  0.21170000  1.0 -0.0034480387
C  C229  1  0.90910000  0.08530000  0.71170000  1.0 -0.0034480387
C  C230  1  0.59090000  0.58530000  0.78830000  1.0 -0.0034480387
C  C231  1  0.09090000  0.41470000  0.71170000  1.0 -0.0034480387
C  C232  1  0.40910000  0.91470000  0.78830000  1.0 -0.0034480387
C  C233  1  0.06570000  0.84980000  0.26570000  1.0 -0.0034480387
C  C234  1  0.43430000  0.34980000  0.23430000  1.0 -0.0034480387
C  C235  1  0.93430000  0.65020000  0.26570000  1.0 -0.0034480387
C  C236  1  0.56570000  0.15020000  0.23430000  1.0 -0.0034480387
C  C237  1  0.93430000  0.15020000  0.73430000  1.0 -0.0034480387
C  C238  1  0.56570000  0.65020000  0.76570000  1.0 -0.0034480387
C  C239  1  0.06570000  0.34980000  0.73430000  1.0 -0.0034480387
C  C240  1  0.43430000  0.84980000  0.76570000  1.0 -0.0034480387
C  C241  1  0.97700000  0.81620000  0.27800000  1.0 0.0460701615
C  C242  1  0.52300000  0.31620000  0.22200000  1.0 0.0460701615
C  C243  1  0.02300000  0.68380000  0.27800000  1.0 0.0460701615
C  C244  1  0.47700000  0.18380000  0.22200000  1.0 0.0460701615
C  C245  1  0.02300000  0.18380000  0.72200000  1.0 0.0460701615
C  C246  1  0.47700000  0.68380000  0.77800000  1.0 0.0460701615
C  C247  1  0.97700000  0.31620000  0.72200000  1.0 0.0460701615
C  C248  1  0.52300000  0.81620000  0.77800000  1.0 0.0460701615
C  C249  1  0.91340000  0.84750000  0.31280000  1.0 -0.1256987427
C  C250  1  0.58660000  0.34750000  0.18720000  1.0 -0.1256987427
C  C251  1  0.08660000  0.65250000  0.31280000  1.0 -0.1256987427
C  C252  1  0.41340000  0.15250000  0.18720000  1.0 -0.1256987427
C  C253  1  0.08660000  0.15250000  0.68720000  1.0 -0.1256987427
C  C254  1  0.41340000  0.65250000  0.81280000  1.0 -0.1256987427
C  C255  1  0.91340000  0.34750000  0.68720000  1.0 -0.1256987427
C  C256  1  0.58660000  0.84750000  0.81280000  1.0 -0.1256987427
C  C257  1  0.93860000  0.91240000  0.33530000  1.0 -0.0892509095
C  C258  1  0.56140000  0.41240000  0.16470000  1.0 -0.0892509095
C  C259  1  0.06140000  0.58760000  0.33530000  1.0 -0.0892509095
C  C260  1  0.43860000  0.08760000  0.16470000  1.0 -0.0892509095
C  C261  1  0.06140000  0.08760000  0.66470000  1.0 -0.0892509095
C  C262  1  0.43860000  0.58760000  0.83530000  1.0 -0.0892509095
C  C263  1  0.93860000  0.41240000  0.66470000  1.0 -0.0892509095
C  C264  1  0.56140000  0.91240000  0.83530000  1.0 -0.0892509095
C  C265  1  0.06930000  0.94190000  0.31800000  1.0 0.0353032701
C  C266  1  0.43070000  0.44190000  0.18200000  1.0 0.0353032701
C  C267  1  0.93070000  0.55810000  0.31800000  1.0 0.0353032701
C  C268  1  0.56930000  0.05810000  0.18200000  1.0 0.0353032701
C  C269  1  0.93070000  0.05810000  0.68200000  1.0 0.0353032701
C  C270  1  0.56930000  0.55810000  0.81800000  1.0 0.0353032701
C  C271  1  0.06930000  0.44190000  0.68200000  1.0 0.0276186547
C  C272  1  0.43070000  0.94190000  0.81800000  1.0 0.0353032701
C  C273  1  0.12810000  0.92620000  0.27610000  1.0 -0.0187938658
C  C274  1  0.37190000  0.42620000  0.22390000  1.0 -0.0187938658
C  C275  1  0.87190000  0.57380000  0.27610000  1.0 -0.0187938658
C  C276  1  0.62810000  0.07380000  0.22390000  1.0 -0.0187938658
C  C277  1  0.87190000  0.07380000  0.72390000  1.0 -0.0187938658
C  C278  1  0.62810000  0.57380000  0.77610000  1.0 -0.0187938658
C  C279  1  0.12810000  0.42620000  0.72390000  1.0 -0.0187938658
C  C280  1  0.37190000  0.92620000  0.77610000  1.0 -0.0187938658
C  C281  1  0.11960000  0.85790000  0.25410000  1.0 -0.1129789858
C  C282  1  0.38040000  0.35790000  0.24590000  1.0 -0.1129789858
C  C283  1  0.88040000  0.64210000  0.25410000  1.0 -0.1129789858
C  C284  1  0.61960000  0.14210000  0.24590000  1.0 -0.1129789858
C  C285  1  0.88040000  0.14210000  0.74590000  1.0 -0.1129789858
C  C286  1  0.61960000  0.64210000  0.75410000  1.0 -0.1129789858
C  C287  1  0.11960000  0.35790000  0.74590000  1.0 -0.1129789858
C  C288  1  0.38040000  0.85790000  0.75410000  1.0 -0.1129789858
C  C289  1  0.06280000  0.80860000  0.27730000  1.0 0.0248778199
C  C290  1  0.43720000  0.30860000  0.22270000  1.0 0.0276186547
C  C291  1  0.93720000  0.69140000  0.27730000  1.0 0.0276186547
C  C292  1  0.56280000  0.19140000  0.22270000  1.0 0.0276186547
C  C293  1  0.93720000  0.19140000  0.72270000  1.0 0.0276186547
C  C294  1  0.56280000  0.69140000  0.77730000  1.0 0.0276186547
C  C295  1  0.06280000  0.30860000  0.72270000  1.0 0.0276186547
C  C296  1  0.43720000  0.80860000  0.77730000  1.0 0.0276186547
C  C297  1  0.00510000  0.82250000  0.32040000  1.0 -0.0831725511
C  C298  1  0.49490000  0.32250000  0.17960000  1.0 -0.0831725511
C  C299  1  0.99490000  0.67750000  0.32040000  1.0 -0.0892509095
C  C300  1  0.50510000  0.17750000  0.17960000  1.0 -0.0831725511
C  C301  1  0.99490000  0.17750000  0.67960000  1.0 -0.0892509095
C  C302  1  0.50510000  0.67750000  0.82040000  1.0 -0.0831725511
C  C303  1  0.00510000  0.32250000  0.67960000  1.0 -0.0831725511
C  C304  1  0.49490000  0.82250000  0.82040000  1.0 -0.0831725511
C  C305  1  0.01220000  0.89080000  0.34120000  1.0 -0.0187938658
C  C306  1  0.48780000  0.39080000  0.15880000  1.0 -0.0187938658
C  C307  1  0.98780000  0.60920000  0.34120000  1.0 -0.0187938658
C  C308  1  0.51220000  0.10920000  0.15880000  1.0 -0.0187938658
C  C309  1  0.98780000  0.10920000  0.65880000  1.0 -0.0187938658
C  C310  1  0.51220000  0.60920000  0.84120000  1.0 -0.0187938658
C  C311  1  0.01220000  0.39080000  0.65880000  1.0 -0.0187938658
C  C312  1  0.48780000  0.89080000  0.84120000  1.0 -0.0187938658
N  N1  1  0.16010000  0.08408000  0.45505000  1.0 -0.3802788578
N  N2  1  0.33990000  0.58408000  0.04495000  1.0 -0.3802788578
N  N3  1  0.83990000  0.41592000  0.45505000  1.0 -0.3802788578
N  N4  1  0.66010000  0.91592000  0.04495000  1.0 -0.3802788578
N  N5  1  0.83990000  0.91592000  0.54495000  1.0 -0.3802788578
N  N6  1  0.66010000  0.41592000  0.95505000  1.0 -0.3802788578
N  N7  1  0.16010000  0.58408000  0.54495000  1.0 -0.3802788578
N  N8  1  0.33990000  0.08408000  0.95505000  1.0 -0.3802788578
N  N9  1  0.28060000  0.13785000  0.38348000  1.0 -0.3451014332
N  N10  1  0.21940000  0.63785000  0.11652000  1.0 -0.3451014332
N  N11  1  0.71940000  0.36215000  0.38348000  1.0 -0.3447895817
N  N12  1  0.78060000  0.86215000  0.11652000  1.0 -0.3447895817
N  N13  1  0.71940000  0.86215000  0.61652000  1.0 -0.3451014332
N  N14  1  0.78060000  0.36215000  0.88348000  1.0 -0.3447895817
N  N15  1  0.28060000  0.63785000  0.61652000  1.0 -0.3451014332
N  N16  1  0.21940000  0.13785000  0.88348000  1.0 -0.3451014332
N  N17  1  0.43720000  0.97420000  0.53833000  1.0 -0.2844770423
N  N18  1  0.06280000  0.47420000  0.96167000  1.0 -0.2844770423
N  N19  1  0.56280000  0.52580000  0.53833000  1.0 -0.2844770423
N  N20  1  0.93720000  0.02580000  0.96167000  1.0 -0.2844770423
N  N21  1  0.56280000  0.02580000  0.46167000  1.0 -0.2844770423
N  N22  1  0.93720000  0.52580000  0.03833000  1.0 -0.2844770423
N  N23  1  0.43720000  0.47420000  0.46167000  1.0 -0.2844770423
N  N24  1  0.06280000  0.97420000  0.03833000  1.0 -0.2844770423
O  O1  1  0.96660000  0.16894000  0.44656000  1.0 -0.6532156042
O  O2  1  0.53340000  0.66894000  0.05344000  1.0 -0.6532156042
O  O3  1  0.03340000  0.33106000  0.44656000  1.0 -0.6532156042
O  O4  1  0.46660000  0.83106000  0.05344000  1.0 -0.6532156042
O  O5  1  0.03340000  0.83106000  0.55344000  1.0 -0.6532156042
O  O6  1  0.46660000  0.33106000  0.94656000  1.0 -0.6532156042
O  O7  1  0.96660000  0.66894000  0.55344000  1.0 -0.6532156042
O  O8  1  0.53340000  0.16894000  0.94656000  1.0 -0.6532156042
O  O9  1  0.84990000  0.24786000  0.42458000  1.0 -0.6688775665
O  O10  1  0.65010000  0.74786000  0.07542000  1.0 -0.6688775665
O  O11  1  0.15010000  0.25214000  0.42458000  1.0 -0.6688775665
O  O12  1  0.34990000  0.75214000  0.07542000  1.0 -0.6688775665
O  O13  1  0.15010000  0.75214000  0.57542000  1.0 -0.6688775665
O  O14  1  0.34990000  0.25214000  0.92458000  1.0 -0.6688775665
O  O15  1  0.84990000  0.74786000  0.57542000  1.0 -0.6688775665
O  O16  1  0.65010000  0.24786000  0.92458000  1.0 -0.6688775665
O  O17  1  0.62910000  0.10002000  0.60573000  1.0 -0.2398187949
O  O18  1  0.87090000  0.60002000  0.89427000  1.0 -0.2398187949
O  O19  1  0.37090000  0.39998000  0.60573000  1.0 -0.2398187949
O  O20  1  0.12910000  0.89998000  0.89427000  1.0 -0.2398187949
O  O21  1  0.37090000  0.89998000  0.39427000  1.0 -0.2398187949
O  O22  1  0.12910000  0.39998000  0.10573000  1.0 -0.2398187949
O  O23  1  0.62910000  0.60002000  0.39427000  1.0 -0.2398187949
O  O24  1  0.87090000  0.10002000  0.10573000  1.0 -0.2398187949
O  O25  1  0.55400000  0.17981000  0.83352000  1.0 -0.7021767817
O  O26  1  0.94600000  0.67981000  0.66648000  1.0 -0.7021767817
O  O27  1  0.44600000  0.32019000  0.83352000  1.0 -0.7021767817
O  O28  1  0.05400000  0.82019000  0.66648000  1.0 -0.7021767817
O  O29  1  0.44600000  0.82019000  0.16648000  1.0 -0.7021767817
O  O30  1  0.05400000  0.32019000  0.33352000  1.0 -0.7021767817
O  O31  1  0.55400000  0.67981000  0.16648000  1.0 -0.7021767817
O  O32  1  0.94600000  0.17981000  0.33352000  1.0 -0.7021767817
O  O33  1  0.64320000  0.27457000  0.81101000  1.0 -0.6390390567
O  O34  1  0.85680000  0.77457000  0.68899000  1.0 -0.6390390567
O  O35  1  0.35680000  0.22543000  0.81101000  1.0 -0.6390390567
O  O36  1  0.14320000  0.72543000  0.68899000  1.0 -0.6390390567
O  O37  1  0.35680000  0.72543000  0.18899000  1.0 -0.6390390567
O  O38  1  0.14320000  0.22543000  0.31101000  1.0 -0.6390390567
O  O39  1  0.64320000  0.77457000  0.18899000  1.0 -0.6390390567
O  O40  1  0.85680000  0.27457000  0.31101000  1.0 -0.6390390567
O  O41  1  0.12960000  0.05589000  0.32645000  1.0 -0.5343446008
O  O42  1  0.37040000  0.55589000  0.17355000  1.0 -0.5343446008
O  O43  1  0.87040000  0.44411000  0.32645000  1.0 -0.5343446008
O  O44  1  0.62960000  0.94411000  0.17355000  1.0 -0.5343446008
O  O45  1  0.87040000  0.94411000  0.67355000  1.0 -0.5343446008
O  O46  1  0.62960000  0.44411000  0.82645000  1.0 -0.5343446008
O  O47  1  0.12960000  0.55589000  0.67355000  1.0 -0.5343446008
O  O48  1  0.37040000  0.05589000  0.82645000  1.0 -0.5343446008
O  O49  1  0.00470000  0.03737000  0.37743000  1.0 -0.5636119566
O  O50  1  0.49530000  0.53737000  0.12257000  1.0 -0.5636119566
O  O51  1  0.99530000  0.46263000  0.37743000  1.0 -0.5636119566
O  O52  1  0.50470000  0.96263000  0.12257000  1.0 -0.5636119566
O  O53  1  0.99530000  0.96263000  0.62257000  1.0 -0.5636119566
O  O54  1  0.50470000  0.46263000  0.87743000  1.0 -0.5636119566
O  O55  1  0.00470000  0.53737000  0.62257000  1.0 -0.5636119566
O  O56  1  0.49530000  0.03737000  0.87743000  1.0 -0.5636119566
O  O57  1  0.00000000  0.75000000  0.25090000  1.0 -0.189437471
O  O58  1  0.50000000  0.25000000  0.24910000  1.0 -0.189437471
O  O59  1  0.00000000  0.25000000  0.74910000  1.0 -0.189437471
O  O60  1  0.50000000  0.75000000  0.75090000  1.0 -0.189437471
