# DDEC6 charges by PACMAN v1.1 (https://github.com/mtap-research/PACMAN-charge/)
data_EWOJUY_ASR_pacman
_symmetry_space_group_name_H-M   'P 1'
_cell_length_a   16.05860000
_cell_length_b   16.05860000
_cell_length_c   19.12900000
_cell_angle_alpha   88.40210000
_cell_angle_beta   91.59790000
_cell_angle_gamma   40.74830000
_symmetry_Int_Tables_number   1
_chemical_formula_structural   TbH21C30(NO2)5
_chemical_formula_sum   'Tb4 H84 C120 N20 O40'
_cell_volume   3209.58225351
_cell_formula_units_Z   4
loop_
 _symmetry_equiv_pos_site_id
 _symmetry_equiv_pos_as_xyz
  1  'x, y, z'
loop_
 _atom_site_type_symbol
 _atom_site_label
 _atom_site_symmetry_multiplicity
 _atom_site_fract_x
 _atom_site_fract_y
 _atom_site_fract_z
 _atom_site_occupancy
 _atom_site_charge
Tb  Tb1  1  0.80681000  0.80681000  0.25000000  1.0 2.0393611692
Tb  Tb2  1  0.19319000  0.19319000  0.75000000  1.0 2.0393611692
Tb  Tb3  1  0.28575000  0.28575000  0.25000000  1.0 2.0143504642
Tb  Tb4  1  0.71425000  0.71425000  0.75000000  1.0 2.0143504642
H  H1  1  0.85622000  0.69930000  0.57810000  1.0 0.3642288351
H  H2  1  0.45233000  0.37255000  0.56896000  1.0 0.2308195063
H  H3  1  0.65186000  0.24324000  0.57109000  1.0 0.1473351174
H  H4  1  0.07406000  0.11448000  0.38815000  1.0 0.2610174272
H  H5  1  0.26179000  0.01001000  0.38333000  1.0 0.2368013465
H  H6  1  0.34361000  0.42963000  0.39305000  1.0 0.1405291312
H  H7  1  0.25267000  0.48365000  0.59452000  1.0 0.12657552
H  H8  1  0.98269000  0.63503000  0.43903000  1.0 0.1405291312
H  H9  1  0.77550000  0.13550000  0.42114000  1.0 0.1099116402
H  H10  1  0.96054000  0.05520000  0.38803000  1.0 0.0907734387
H  H11  1  0.96353000  0.21553000  0.54726000  1.0 0.1001097721
H  H12  1  0.76333000  0.30617000  0.57590000  1.0 0.1001097721
H  H13  1  0.44210000  0.93324000  0.34659000  1.0 0.1405291312
H  H14  1  0.73129000  0.77199000  0.48917000  1.0 0.12657552
H  H15  1  0.40260000  0.92174000  0.55429000  1.0 0.1473351174
H  H16  1  0.60917000  0.33921000  0.56922000  1.0 0.1564415821
H  H17  1  0.08483000  0.08743000  0.38890000  1.0 0.2610174272
H  H18  1  0.68786000  0.31000000  0.39602000  1.0 0.1099116402
H  H19  1  0.87492000  0.22796000  0.36366000  1.0 0.1001097721
H  H20  1  0.00594000  0.12058000  0.56335000  1.0 0.1001097721
H  H21  1  0.81816000  0.22262000  0.59602000  1.0 0.0907734387
H  H22  1  0.69930000  0.85622000  0.92190000  1.0 0.3642288351
H  H23  1  0.37255000  0.45233000  0.93104000  1.0 0.2308195063
H  H24  1  0.24324000  0.65186000  0.92891000  1.0 0.1473351174
H  H25  1  0.11448000  0.07406000  0.11185000  1.0 0.2610174272
H  H26  1  0.01001000  0.26179000  0.11667000  1.0 0.2368013465
H  H27  1  0.42963000  0.34361000  0.10694000  1.0 0.1405291312
H  H28  1  0.48365000  0.25267000  0.90548000  1.0 0.12657552
H  H29  1  0.63503000  0.98269000  0.06097000  1.0 0.1405291312
H  H30  1  0.13550000  0.77550000  0.07886000  1.0 0.1099116402
H  H31  1  0.05520000  0.96054000  0.11197000  1.0 0.0907734387
H  H32  1  0.21553000  0.96353000  0.95274000  1.0 0.1001097721
H  H33  1  0.30617000  0.76333000  0.92410000  1.0 0.1001097721
H  H34  1  0.93324000  0.44210000  0.15341000  1.0 0.1405291312
H  H35  1  0.77199000  0.73129000  0.01083000  1.0 0.12657552
H  H36  1  0.92174000  0.40260000  0.94571000  1.0 0.1473351174
H  H37  1  0.33921000  0.60917000  0.93078000  1.0 0.1564415821
H  H38  1  0.08743000  0.08483000  0.11110000  1.0 0.2610174272
H  H39  1  0.31000000  0.68786000  0.10398000  1.0 0.1099116402
H  H40  1  0.22796000  0.87492000  0.13634000  1.0 0.1001097721
H  H41  1  0.12058000  0.00594000  0.93665000  1.0 0.1001097721
H  H42  1  0.22262000  0.81816000  0.90398000  1.0 0.0907734387
H  H43  1  0.14378000  0.30070000  0.42190000  1.0 0.3642288351
H  H44  1  0.54767000  0.62745000  0.43104000  1.0 0.2308195063
H  H45  1  0.34814000  0.75676000  0.42891000  1.0 0.1473351174
H  H46  1  0.92594000  0.88552000  0.61185000  1.0 0.2610174272
H  H47  1  0.73821000  0.98999000  0.61667000  1.0 0.2368013465
H  H48  1  0.65639000  0.57037000  0.60694000  1.0 0.1405291312
H  H49  1  0.74733000  0.51635000  0.40548000  1.0 0.12657552
H  H50  1  0.01731000  0.36497000  0.56097000  1.0 0.1405291312
H  H51  1  0.22450000  0.86450000  0.57886000  1.0 0.1099116402
H  H52  1  0.03946000  0.94480000  0.61197000  1.0 0.0907734387
H  H53  1  0.03647000  0.78447000  0.45274000  1.0 0.1001097721
H  H54  1  0.23667000  0.69383000  0.42410000  1.0 0.1001097721
H  H55  1  0.55790000  0.06676000  0.65341000  1.0 0.1405291312
H  H56  1  0.26871000  0.22801000  0.51083000  1.0 0.12657552
H  H57  1  0.59740000  0.07826000  0.44571000  1.0 0.1473351174
H  H58  1  0.39083000  0.66079000  0.43078000  1.0 0.1564415821
H  H59  1  0.91517000  0.91257000  0.61110000  1.0 0.2610174272
H  H60  1  0.31214000  0.69000000  0.60398000  1.0 0.1099116402
H  H61  1  0.12508000  0.77204000  0.63634000  1.0 0.1001097721
H  H62  1  0.99406000  0.87942000  0.43665000  1.0 0.1001097721
H  H63  1  0.18184000  0.77738000  0.40398000  1.0 0.0907734387
H  H64  1  0.30070000  0.14378000  0.07810000  1.0 0.3642288351
H  H65  1  0.62745000  0.54767000  0.06896000  1.0 0.2308195063
H  H66  1  0.75676000  0.34814000  0.07109000  1.0 0.1473351174
H  H67  1  0.88552000  0.92594000  0.88815000  1.0 0.2610174272
H  H68  1  0.98999000  0.73821000  0.88333000  1.0 0.2368013465
H  H69  1  0.57037000  0.65639000  0.89305000  1.0 0.1405291312
H  H70  1  0.51635000  0.74733000  0.09452000  1.0 0.12657552
H  H71  1  0.36497000  0.01731000  0.93903000  1.0 0.1405291312
H  H72  1  0.86450000  0.22450000  0.92114000  1.0 0.1099116402
H  H73  1  0.94480000  0.03946000  0.88803000  1.0 0.0907734387
H  H74  1  0.78447000  0.03647000  0.04726000  1.0 0.1001097721
H  H75  1  0.69383000  0.23667000  0.07590000  1.0 0.1001097721
H  H76  1  0.06676000  0.55790000  0.84659000  1.0 0.1405291312
H  H77  1  0.22801000  0.26871000  0.98917000  1.0 0.12657552
H  H78  1  0.07826000  0.59740000  0.05429000  1.0 0.1473351174
H  H79  1  0.66079000  0.39083000  0.06922000  1.0 0.1564415821
H  H80  1  0.91257000  0.91517000  0.88890000  1.0 0.2610174272
H  H81  1  0.69000000  0.31214000  0.89602000  1.0 0.1099116402
H  H82  1  0.77204000  0.12508000  0.86366000  1.0 0.1001097721
H  H83  1  0.87942000  0.99406000  0.06335000  1.0 0.1001097721
H  H84  1  0.77738000  0.18184000  0.09602000  1.0 0.0907734387
C  C1  1  0.12490000  0.55010000  0.32900000  1.0 0.6635102534
C  C2  1  0.15870000  0.53390000  0.40510000  1.0 -0.0153537619
C  C3  1  0.28300000  0.46520000  0.42680000  1.0 -0.2201230548
C  C4  1  0.31780000  0.44900000  0.49800000  1.0 0.2308195063
C  C5  1  0.22960000  0.49600000  0.54590000  1.0 -0.2290494836
C  C6  1  0.10760000  0.56080000  0.52430000  1.0 -0.0355308198
C  C7  1  0.06800000  0.58540000  0.45380000  1.0 -0.13986473
C  C8  1  0.01650000  0.60810000  0.57770000  1.0 0.5515129172
C  C9  1  0.53730000  0.33570000  0.48690000  1.0 0.2876044564
C  C10  1  0.75850000  0.22130000  0.50480000  1.0 0.1001097721
C  C11  1  0.81310000  0.15170000  0.44680000  1.0 -0.1194528
C  C12  1  0.92130000  0.10650000  0.42690000  1.0 -0.1194528
C  C13  1  0.97650000  0.13050000  0.45950000  1.0 0.0819084819
C  C14  1  0.92400000  0.20200000  0.52080000  1.0 -0.0676790982
C  C15  1  0.80730000  0.25130000  0.53880000  1.0 -0.13986473
C  C16  1  0.18380000  0.05340000  0.47030000  1.0 0.2610174272
C  C17  1  0.40120000  0.93860000  0.44770000  1.0 0.2237051928
C  C18  1  0.47600000  0.90940000  0.39400000  1.0 -0.2201230548
C  C19  1  0.59780000  0.84680000  0.40880000  1.0 0.0084947454
C  C20  1  0.64800000  0.81320000  0.47860000  1.0 -0.1270408419
C  C21  1  0.57530000  0.84070000  0.53160000  1.0 -0.0082597856
C  C22  1  0.45160000  0.90340000  0.51720000  1.0 -0.1928801632
C  C23  1  0.67560000  0.81920000  0.35200000  1.0 0.5679998898
C  C24  1  0.62400000  0.80460000  0.60710000  1.0 0.5808184647
C  C25  1  0.73820000  0.26620000  0.49740000  1.0 0.1099116402
C  C26  1  0.75400000  0.27200000  0.43100000  1.0 -0.1080661214
C  C27  1  0.86650000  0.22250000  0.41200000  1.0 -0.1270408419
C  C28  1  0.96910000  0.16510000  0.46070000  1.0 0.0819084819
C  C29  1  0.93910000  0.16510000  0.52740000  1.0 -0.0796567
C  C30  1  0.83180000  0.21780000  0.54760000  1.0 -0.1532211996
C  C31  1  0.55010000  0.12490000  0.17100000  1.0 0.6635102534
C  C32  1  0.53390000  0.15870000  0.09490000  1.0 -0.0153537619
C  C33  1  0.46520000  0.28300000  0.07320000  1.0 -0.2201230548
C  C34  1  0.44900000  0.31780000  0.00200000  1.0 0.2308195063
C  C35  1  0.49600000  0.22960000  0.95410000  1.0 -0.2290494836
C  C36  1  0.56080000  0.10760000  0.97570000  1.0 -0.0355308198
C  C37  1  0.58540000  0.06800000  0.04620000  1.0 -0.13986473
C  C38  1  0.60810000  0.01650000  0.92230000  1.0 0.5515129172
C  C39  1  0.33570000  0.53730000  0.01310000  1.0 0.2876044564
C  C40  1  0.22130000  0.75850000  0.99520000  1.0 0.1001097721
C  C41  1  0.15170000  0.81310000  0.05320000  1.0 -0.1194528
C  C42  1  0.10650000  0.92130000  0.07310000  1.0 -0.1194528
C  C43  1  0.13050000  0.97650000  0.04050000  1.0 0.0819084819
C  C44  1  0.20200000  0.92400000  0.97920000  1.0 -0.0676790982
C  C45  1  0.25130000  0.80730000  0.96120000  1.0 -0.13986473
C  C46  1  0.05340000  0.18380000  0.02970000  1.0 0.2610174272
C  C47  1  0.93860000  0.40120000  0.05230000  1.0 0.2237051928
C  C48  1  0.90940000  0.47600000  0.10600000  1.0 -0.2201230548
C  C49  1  0.84680000  0.59780000  0.09120000  1.0 0.0084947454
C  C50  1  0.81320000  0.64800000  0.02140000  1.0 -0.1270408419
C  C51  1  0.84070000  0.57530000  0.96840000  1.0 -0.0082597856
C  C52  1  0.90340000  0.45160000  0.98280000  1.0 -0.1928801632
C  C53  1  0.81920000  0.67560000  0.14800000  1.0 0.5679998898
C  C54  1  0.80460000  0.62400000  0.89290000  1.0 0.5808184647
C  C55  1  0.26620000  0.73820000  0.00260000  1.0 0.1099116402
C  C56  1  0.27200000  0.75400000  0.06900000  1.0 -0.1080661214
C  C57  1  0.22250000  0.86650000  0.08800000  1.0 -0.1270408419
C  C58  1  0.16510000  0.96910000  0.03930000  1.0 0.0819084819
C  C59  1  0.16510000  0.93910000  0.97260000  1.0 -0.0796567
C  C60  1  0.21780000  0.83180000  0.95240000  1.0 -0.1532211996
C  C61  1  0.87510000  0.44990000  0.67100000  1.0 0.6635102534
C  C62  1  0.84130000  0.46610000  0.59490000  1.0 -0.0153537619
C  C63  1  0.71700000  0.53480000  0.57320000  1.0 -0.2201230548
C  C64  1  0.68220000  0.55100000  0.50200000  1.0 0.2308195063
C  C65  1  0.77040000  0.50400000  0.45410000  1.0 -0.2290494836
C  C66  1  0.89240000  0.43920000  0.47570000  1.0 -0.0355308198
C  C67  1  0.93200000  0.41460000  0.54620000  1.0 -0.13986473
C  C68  1  0.98350000  0.39190000  0.42230000  1.0 0.5515129172
C  C69  1  0.46270000  0.66430000  0.51310000  1.0 0.2876044564
C  C70  1  0.24150000  0.77870000  0.49520000  1.0 0.1001097721
C  C71  1  0.18690000  0.84830000  0.55320000  1.0 -0.1194528
C  C72  1  0.07870000  0.89350000  0.57310000  1.0 -0.1194528
C  C73  1  0.02350000  0.86950000  0.54050000  1.0 0.0819084819
C  C74  1  0.07600000  0.79800000  0.47920000  1.0 -0.0676790982
C  C75  1  0.19270000  0.74870000  0.46120000  1.0 -0.13986473
C  C76  1  0.81620000  0.94660000  0.52970000  1.0 0.2610174272
C  C77  1  0.59880000  0.06140000  0.55230000  1.0 0.2237051928
C  C78  1  0.52400000  0.09060000  0.60600000  1.0 -0.2201230548
C  C79  1  0.40220000  0.15320000  0.59120000  1.0 0.0084947454
C  C80  1  0.35200000  0.18680000  0.52140000  1.0 -0.1270408419
C  C81  1  0.42470000  0.15930000  0.46840000  1.0 -0.0082597856
C  C82  1  0.54840000  0.09660000  0.48280000  1.0 -0.1928801632
C  C83  1  0.32440000  0.18080000  0.64800000  1.0 0.5679998898
C  C84  1  0.37600000  0.19540000  0.39290000  1.0 0.5808184647
C  C85  1  0.26180000  0.73380000  0.50260000  1.0 0.1099116402
C  C86  1  0.24600000  0.72800000  0.56900000  1.0 -0.1080661214
C  C87  1  0.13350000  0.77750000  0.58800000  1.0 -0.1270408419
C  C88  1  0.03090000  0.83490000  0.53930000  1.0 0.0819084819
C  C89  1  0.06090000  0.83490000  0.47260000  1.0 -0.0796567
C  C90  1  0.16820000  0.78220000  0.45240000  1.0 -0.1532211996
C  C91  1  0.44990000  0.87510000  0.82900000  1.0 0.6635102534
C  C92  1  0.46610000  0.84130000  0.90510000  1.0 -0.0153537619
C  C93  1  0.53480000  0.71700000  0.92680000  1.0 -0.2201230548
C  C94  1  0.55100000  0.68220000  0.99800000  1.0 0.2308195063
C  C95  1  0.50400000  0.77040000  0.04590000  1.0 -0.2290494836
C  C96  1  0.43920000  0.89240000  0.02430000  1.0 -0.0355308198
C  C97  1  0.41460000  0.93200000  0.95380000  1.0 -0.13986473
C  C98  1  0.39190000  0.98350000  0.07770000  1.0 0.5515129172
C  C99  1  0.66430000  0.46270000  0.98690000  1.0 0.2876044564
C  C100  1  0.77870000  0.24150000  0.00480000  1.0 0.1001097721
C  C101  1  0.84830000  0.18690000  0.94680000  1.0 -0.1194528
C  C102  1  0.89350000  0.07870000  0.92690000  1.0 -0.1194528
C  C103  1  0.86950000  0.02350000  0.95950000  1.0 0.0819084819
C  C104  1  0.79800000  0.07600000  0.02080000  1.0 -0.0676790982
C  C105  1  0.74870000  0.19270000  0.03880000  1.0 -0.13986473
C  C106  1  0.94660000  0.81620000  0.97030000  1.0 0.2610174272
C  C107  1  0.06140000  0.59880000  0.94770000  1.0 0.2237051928
C  C108  1  0.09060000  0.52400000  0.89400000  1.0 -0.2201230548
C  C109  1  0.15320000  0.40220000  0.90880000  1.0 0.0084947454
C  C110  1  0.18680000  0.35200000  0.97860000  1.0 -0.1270408419
C  C111  1  0.15930000  0.42470000  0.03160000  1.0 -0.0082597856
C  C112  1  0.09660000  0.54840000  0.01720000  1.0 -0.1928801632
C  C113  1  0.18080000  0.32440000  0.85200000  1.0 0.5679998898
C  C114  1  0.19540000  0.37600000  0.10710000  1.0 0.5808184647
C  C115  1  0.73380000  0.26180000  0.99740000  1.0 0.1099116402
C  C116  1  0.72800000  0.24600000  0.93100000  1.0 -0.1080661214
C  C117  1  0.77750000  0.13350000  0.91200000  1.0 -0.1270408419
C  C118  1  0.83490000  0.03090000  0.96070000  1.0 0.0819084819
C  C119  1  0.83490000  0.06090000  0.02740000  1.0 -0.0796567
C  C120  1  0.78220000  0.16820000  0.04760000  1.0 -0.1532211996
N  N1  1  0.43820000  0.38400000  0.52300000  1.0 -0.4659901953
N  N2  1  0.64860000  0.26420000  0.52730000  1.0 -0.0796567
N  N3  1  0.07910000  0.10070000  0.43370000  1.0 -0.2944698728
N  N4  1  0.27990000  0.00170000  0.42860000  1.0 -0.4191294706
N  N5  1  0.62390000  0.31790000  0.52550000  1.0 -0.0886648952
N  N6  1  0.38400000  0.43820000  0.97700000  1.0 -0.4659901953
N  N7  1  0.26420000  0.64860000  0.97270000  1.0 -0.0796567
N  N8  1  0.10070000  0.07910000  0.06630000  1.0 -0.2944698728
N  N9  1  0.00170000  0.27990000  0.07140000  1.0 -0.4191294706
N  N10  1  0.31790000  0.62390000  0.97450000  1.0 -0.0886648952
N  N11  1  0.56180000  0.61600000  0.47700000  1.0 -0.4659901953
N  N12  1  0.35140000  0.73580000  0.47270000  1.0 -0.0796567
N  N13  1  0.92090000  0.89930000  0.56630000  1.0 -0.2944698728
N  N14  1  0.72010000  0.99830000  0.57140000  1.0 -0.4191294706
N  N15  1  0.37610000  0.68210000  0.47450000  1.0 -0.0886648952
N  N16  1  0.61600000  0.56180000  0.02300000  1.0 -0.4659901953
N  N17  1  0.73580000  0.35140000  0.02730000  1.0 -0.0796567
N  N18  1  0.89930000  0.92090000  0.93370000  1.0 -0.2944698728
N  N19  1  0.99830000  0.72010000  0.92860000  1.0 -0.4191294706
N  N20  1  0.68210000  0.37610000  0.02550000  1.0 -0.0886648952
O  O1  1  0.01115000  0.64855000  0.30460000  1.0 -0.6868041402
O  O2  1  0.21466000  0.46306000  0.29210000  1.0 -0.6547685957
O  O3  1  0.91610000  0.64730000  0.55200000  1.0 -0.4261173702
O  O4  1  0.03598000  0.60738000  0.63960000  1.0 -0.4900297618
O  O5  1  0.53070000  0.34330000  0.42310000  1.0 -0.4554357774
O  O6  1  0.19020000  0.05700000  0.53310000  1.0 -0.4511264062
O  O7  1  0.62359000  0.86959000  0.28970000  1.0 -0.6150580144
O  O8  1  0.79020000  0.75020000  0.36370000  1.0 -0.5859817362
O  O9  1  0.73585000  0.74505000  0.62650000  1.0 -0.6570445991
O  O10  1  0.55321000  0.83241000  0.65350000  1.0 -0.5847835637
O  O11  1  0.64855000  0.01115000  0.19540000  1.0 -0.6868041402
O  O12  1  0.46306000  0.21466000  0.20790000  1.0 -0.6547685957
O  O13  1  0.64730000  0.91610000  0.94800000  1.0 -0.4261173702
O  O14  1  0.60738000  0.03598000  0.86040000  1.0 -0.4900297618
O  O15  1  0.34330000  0.53070000  0.07690000  1.0 -0.4554357774
O  O16  1  0.05700000  0.19020000  0.96690000  1.0 -0.4511264062
O  O17  1  0.86959000  0.62359000  0.21030000  1.0 -0.6150580144
O  O18  1  0.75020000  0.79020000  0.13630000  1.0 -0.5859817362
O  O19  1  0.74505000  0.73585000  0.87350000  1.0 -0.6570445991
O  O20  1  0.83241000  0.55321000  0.84650000  1.0 -0.5847835637
O  O21  1  0.98885000  0.35145000  0.69540000  1.0 -0.6868041402
O  O22  1  0.78534000  0.53694000  0.70790000  1.0 -0.6547685957
O  O23  1  0.08390000  0.35270000  0.44800000  1.0 -0.4261173702
O  O24  1  0.96402000  0.39262000  0.36040000  1.0 -0.4900297618
O  O25  1  0.46930000  0.65670000  0.57690000  1.0 -0.4554357774
O  O26  1  0.80980000  0.94300000  0.46690000  1.0 -0.4511264062
O  O27  1  0.37641000  0.13041000  0.71030000  1.0 -0.6150580144
O  O28  1  0.20980000  0.24980000  0.63630000  1.0 -0.5859817362
O  O29  1  0.26415000  0.25495000  0.37350000  1.0 -0.6570445991
O  O30  1  0.44679000  0.16759000  0.34650000  1.0 -0.5847835637
O  O31  1  0.35145000  0.98885000  0.80460000  1.0 -0.6868041402
O  O32  1  0.53694000  0.78534000  0.79210000  1.0 -0.6547685957
O  O33  1  0.35270000  0.08390000  0.05200000  1.0 -0.4261173702
O  O34  1  0.39262000  0.96402000  0.13960000  1.0 -0.4900297618
O  O35  1  0.65670000  0.46930000  0.92310000  1.0 -0.4554357774
O  O36  1  0.94300000  0.80980000  0.03310000  1.0 -0.4511264062
O  O37  1  0.13041000  0.37641000  0.78970000  1.0 -0.6150580144
O  O38  1  0.24980000  0.20980000  0.86370000  1.0 -0.5859817362
O  O39  1  0.25495000  0.26415000  0.12650000  1.0 -0.6570445991
O  O40  1  0.16759000  0.44679000  0.15350000  1.0 -0.5847835637
