# DDEC6 charges by PACMAN v1.1 (https://github.com/mtap-research/PACMAN-charge/)
data_EWUKIS_ASR_pacman
_symmetry_space_group_name_H-M   'P 1'
_cell_length_a   18.36800000
_cell_length_b   18.36800000
_cell_length_c   17.96400000
_cell_angle_alpha   90.00000000
_cell_angle_beta   90.00000000
_cell_angle_gamma   120.00000000
_symmetry_Int_Tables_number   1
_chemical_formula_structural   Zn3H5C15O11
_chemical_formula_sum   'Zn18 H30 C90 O66'
_cell_volume   5248.76851382
_cell_formula_units_Z   6
loop_
 _symmetry_equiv_pos_site_id
 _symmetry_equiv_pos_as_xyz
  1  'x, y, z'
loop_
 _atom_site_type_symbol
 _atom_site_label
 _atom_site_symmetry_multiplicity
 _atom_site_fract_x
 _atom_site_fract_y
 _atom_site_fract_z
 _atom_site_occupancy
 _atom_site_charge
Zn  Zn1  1  0.34910000  0.34910000  0.82824000  1.0 1.0861749967
Zn  Zn2  1  0.65090000  0.00000000  0.82824000  1.0 1.0861749967
Zn  Zn3  1  0.00000000  0.65090000  0.82824000  1.0 1.0861749967
Zn  Zn4  1  0.65090000  0.65090000  0.32824000  1.0 1.0861749967
Zn  Zn5  1  0.34910000  0.00000000  0.32824000  1.0 1.0861749967
Zn  Zn6  1  0.00000000  0.34910000  0.32824000  1.0 1.0861749967
Zn  Zn7  1  0.24313000  0.34157000  0.67044000  1.0 0.9774539689
Zn  Zn8  1  0.65843000  0.90156000  0.67044000  1.0 0.9774539689
Zn  Zn9  1  0.09844000  0.75687000  0.67044000  1.0 0.9774539689
Zn  Zn10  1  0.75687000  0.65843000  0.17044000  1.0 0.9774539689
Zn  Zn11  1  0.34157000  0.09844000  0.17044000  1.0 0.9774539689
Zn  Zn12  1  0.90156000  0.24313000  0.17044000  1.0 0.9774539689
Zn  Zn13  1  0.65843000  0.75687000  0.17044000  1.0 0.9774539689
Zn  Zn14  1  0.09844000  0.34157000  0.17044000  1.0 0.9774539689
Zn  Zn15  1  0.24313000  0.90156000  0.17044000  1.0 0.9774539689
Zn  Zn16  1  0.34157000  0.24313000  0.67044000  1.0 0.9774539689
Zn  Zn17  1  0.90156000  0.65843000  0.67044000  1.0 0.9774539689
Zn  Zn18  1  0.75687000  0.09844000  0.67044000  1.0 0.9774539689
H  H1  1  0.28300000  0.12730000  0.95070000  1.0 0.1311395396
H  H2  1  0.87270000  0.15570000  0.95070000  1.0 0.1311395396
H  H3  1  0.84430000  0.71700000  0.95070000  1.0 0.1311395396
H  H4  1  0.71700000  0.87270000  0.45070000  1.0 0.1311395396
H  H5  1  0.12730000  0.84430000  0.45070000  1.0 0.1311395396
H  H6  1  0.15570000  0.28300000  0.45070000  1.0 0.1311395396
H  H7  1  0.87270000  0.71700000  0.45070000  1.0 0.1311395396
H  H8  1  0.84430000  0.12730000  0.45070000  1.0 0.1311395396
H  H9  1  0.28300000  0.15570000  0.45070000  1.0 0.1311395396
H  H10  1  0.12730000  0.28300000  0.95070000  1.0 0.1311395396
H  H11  1  0.15570000  0.87270000  0.95070000  1.0 0.1311395396
H  H12  1  0.71700000  0.84430000  0.95070000  1.0 0.1311395396
H  H13  1  0.18960000  0.00000000  0.75950000  1.0 0.1311395396
H  H14  1  0.00000000  0.18960000  0.75950000  1.0 0.1311395396
H  H15  1  0.81040000  0.81040000  0.75950000  1.0 0.1311395396
H  H16  1  0.81040000  0.00000000  0.25950000  1.0 0.1351152827
H  H17  1  0.00000000  0.81040000  0.25950000  1.0 0.1311395396
H  H18  1  0.18960000  0.18960000  0.25950000  1.0 0.1351152827
H  H19  1  0.19760000  0.55220000  0.62470000  1.0 0.1311395396
H  H20  1  0.44780000  0.64540000  0.62470000  1.0 0.1311395396
H  H21  1  0.35460000  0.80240000  0.62470000  1.0 0.1311395396
H  H22  1  0.80240000  0.44780000  0.12470000  1.0 0.1311395396
H  H23  1  0.55220000  0.35460000  0.12470000  1.0 0.1311395396
H  H24  1  0.64540000  0.19760000  0.12470000  1.0 0.1311395396
H  H25  1  0.44780000  0.80240000  0.12470000  1.0 0.1311395396
H  H26  1  0.35460000  0.55220000  0.12470000  1.0 0.1311395396
H  H27  1  0.19760000  0.64540000  0.12470000  1.0 0.1311395396
H  H28  1  0.55220000  0.19760000  0.62470000  1.0 0.1311395396
H  H29  1  0.64540000  0.44780000  0.62470000  1.0 0.1311395396
H  H30  1  0.80240000  0.35460000  0.62470000  1.0 0.1311395396
C  C1  1  0.27920000  0.15740000  0.80650000  1.0 0.6000630925
C  C2  1  0.84260000  0.12180000  0.80650000  1.0 0.6000630925
C  C3  1  0.87820000  0.72080000  0.80650000  1.0 0.6000630925
C  C4  1  0.72080000  0.84260000  0.30650000  1.0 0.6000630925
C  C5  1  0.15740000  0.87820000  0.30650000  1.0 0.6000630925
C  C6  1  0.12180000  0.27920000  0.30650000  1.0 0.6000630925
C  C7  1  0.84260000  0.72080000  0.30650000  1.0 0.6000630925
C  C8  1  0.87820000  0.15740000  0.30650000  1.0 0.6000630925
C  C9  1  0.27920000  0.12180000  0.30650000  1.0 0.6000630925
C  C10  1  0.15740000  0.27920000  0.80650000  1.0 0.6000630925
C  C11  1  0.12180000  0.84260000  0.80650000  1.0 0.6000630925
C  C12  1  0.72080000  0.87820000  0.80650000  1.0 0.6000630925
C  C13  1  0.24170000  0.07590000  0.84960000  1.0 -0.0228483601
C  C14  1  0.92410000  0.16580000  0.84960000  1.0 -0.0228483601
C  C15  1  0.83420000  0.75830000  0.84960000  1.0 -0.0228483601
C  C16  1  0.75830000  0.92410000  0.34960000  1.0 -0.0228483601
C  C17  1  0.07590000  0.83420000  0.34960000  1.0 -0.0228483601
C  C18  1  0.16580000  0.24170000  0.34960000  1.0 -0.0228483601
C  C19  1  0.92410000  0.75830000  0.34960000  1.0 -0.0228483601
C  C20  1  0.83420000  0.07590000  0.34960000  1.0 -0.0228483601
C  C21  1  0.24170000  0.16580000  0.34960000  1.0 -0.0228483601
C  C22  1  0.07590000  0.24170000  0.84960000  1.0 -0.0228483601
C  C23  1  0.16580000  0.92410000  0.84960000  1.0 -0.0228483601
C  C24  1  0.75830000  0.83420000  0.84960000  1.0 -0.0228483601
C  C25  1  0.23910000  0.23910000  0.54520000  1.0 0.591571482
C  C26  1  0.76090000  0.00000000  0.54520000  1.0 0.591571482
C  C27  1  0.00000000  0.76090000  0.54520000  1.0 0.591571482
C  C28  1  0.76090000  0.76090000  0.04520000  1.0 0.591571482
C  C29  1  0.23910000  0.00000000  0.04520000  1.0 0.591571482
C  C30  1  0.00000000  0.23910000  0.04520000  1.0 0.591571482
C  C31  1  0.30860000  0.49900000  0.63300000  1.0 0.5453501065
C  C32  1  0.50100000  0.80960000  0.63300000  1.0 0.5453501065
C  C33  1  0.19040000  0.69140000  0.63300000  1.0 0.5453501065
C  C34  1  0.69140000  0.50100000  0.13300000  1.0 0.5444103542
C  C35  1  0.49900000  0.19040000  0.13300000  1.0 0.5444103542
C  C36  1  0.80960000  0.30860000  0.13300000  1.0 0.5444103542
C  C37  1  0.50100000  0.69140000  0.13300000  1.0 0.5444103542
C  C38  1  0.19040000  0.49900000  0.13300000  1.0 0.5453501065
C  C39  1  0.30860000  0.80960000  0.13300000  1.0 0.5453501065
C  C40  1  0.49900000  0.30860000  0.63300000  1.0 0.5444103542
C  C41  1  0.80960000  0.50100000  0.63300000  1.0 0.5444103542
C  C42  1  0.69140000  0.19040000  0.63300000  1.0 0.5444103542
C  C43  1  0.25370000  0.07600000  0.92500000  1.0 -0.0901053479
C  C44  1  0.92400000  0.17770000  0.92500000  1.0 -0.0901053479
C  C45  1  0.82230000  0.74630000  0.92500000  1.0 -0.0901053479
C  C46  1  0.74630000  0.92400000  0.42500000  1.0 -0.0901053479
C  C47  1  0.07600000  0.82230000  0.42500000  1.0 -0.0901053479
C  C48  1  0.17770000  0.25370000  0.42500000  1.0 -0.0901053479
C  C49  1  0.92400000  0.74630000  0.42500000  1.0 -0.0901053479
C  C50  1  0.82230000  0.07600000  0.42500000  1.0 -0.0901053479
C  C51  1  0.25370000  0.17770000  0.42500000  1.0 -0.0901053479
C  C52  1  0.07600000  0.25370000  0.92500000  1.0 -0.0901053479
C  C53  1  0.17770000  0.92400000  0.92500000  1.0 -0.0901053479
C  C54  1  0.74630000  0.82230000  0.92500000  1.0 -0.0901053479
C  C55  1  0.19770000  0.00000000  0.81110000  1.0 -0.0901053479
C  C56  1  0.00000000  0.19770000  0.81110000  1.0 -0.0901053479
C  C57  1  0.80230000  0.80230000  0.81110000  1.0 -0.0901053479
C  C58  1  0.80230000  0.00000000  0.31110000  1.0 -0.0901053479
C  C59  1  0.00000000  0.80230000  0.31110000  1.0 -0.0901053479
C  C60  1  0.19770000  0.19770000  0.31110000  1.0 -0.0901053479
C  C61  1  0.22240000  0.22240000  0.46420000  1.0 -0.0279198111
C  C62  1  0.77760000  0.00000000  0.46420000  1.0 -0.0279198111
C  C63  1  0.00000000  0.77760000  0.46420000  1.0 -0.0279198111
C  C64  1  0.77760000  0.77760000  0.96420000  1.0 -0.0279198111
C  C65  1  0.22240000  0.00000000  0.96420000  1.0 -0.0279198111
C  C66  1  0.00000000  0.22240000  0.96420000  1.0 -0.0279198111
C  C67  1  0.32160000  0.58590000  0.62440000  1.0 -0.0093615419
C  C68  1  0.41410000  0.73570000  0.62440000  1.0 -0.0093615419
C  C69  1  0.26430000  0.67840000  0.62440000  1.0 -0.0093615419
C  C70  1  0.67840000  0.41410000  0.12440000  1.0 -0.0093615419
C  C71  1  0.58590000  0.26430000  0.12440000  1.0 -0.0093615419
C  C72  1  0.73570000  0.32160000  0.12440000  1.0 -0.0093615419
C  C73  1  0.41410000  0.67840000  0.12440000  1.0 -0.0093615419
C  C74  1  0.26430000  0.58590000  0.12440000  1.0 -0.0093615419
C  C75  1  0.32160000  0.73570000  0.12440000  1.0 -0.0093615419
C  C76  1  0.58590000  0.32160000  0.62440000  1.0 -0.0093615419
C  C77  1  0.73570000  0.41410000  0.62440000  1.0 -0.0093615419
C  C78  1  0.67840000  0.26430000  0.62440000  1.0 -0.0093615419
C  C79  1  0.25240000  0.59870000  0.62450000  1.0 -0.0901053479
C  C80  1  0.40130000  0.65370000  0.62450000  1.0 -0.0901053479
C  C81  1  0.34630000  0.74760000  0.62450000  1.0 -0.0901053479
C  C82  1  0.74760000  0.40130000  0.12450000  1.0 -0.0901053479
C  C83  1  0.59870000  0.34630000  0.12450000  1.0 -0.0901053479
C  C84  1  0.65370000  0.25240000  0.12450000  1.0 -0.0901053479
C  C85  1  0.40130000  0.74760000  0.12450000  1.0 -0.0901053479
C  C86  1  0.34630000  0.59870000  0.12450000  1.0 -0.0901053479
C  C87  1  0.25240000  0.65370000  0.12450000  1.0 -0.0901053479
C  C88  1  0.59870000  0.25240000  0.62450000  1.0 -0.0901053479
C  C89  1  0.65370000  0.40130000  0.62450000  1.0 -0.0901053479
C  C90  1  0.74760000  0.34630000  0.62450000  1.0 -0.0901053479
O  O1  1  0.34350000  0.34350000  0.71270000  1.0 -0.9922348539
O  O2  1  0.65650000  0.00000000  0.71270000  1.0 -0.9922348539
O  O3  1  0.00000000  0.65650000  0.71270000  1.0 -0.9922348539
O  O4  1  0.65650000  0.65650000  0.21270000  1.0 -0.9922348539
O  O5  1  0.34350000  0.00000000  0.21270000  1.0 -0.9922348539
O  O6  1  0.00000000  0.34350000  0.21270000  1.0 -0.9922348539
O  O7  1  0.31760000  0.22430000  0.84260000  1.0 -0.5657826344
O  O8  1  0.77570000  0.09330000  0.84260000  1.0 -0.5657826344
O  O9  1  0.90670000  0.68240000  0.84260000  1.0 -0.5657826344
O  O10  1  0.68240000  0.77570000  0.34260000  1.0 -0.5657826344
O  O11  1  0.22430000  0.90670000  0.34260000  1.0 -0.5657826344
O  O12  1  0.09330000  0.31760000  0.34260000  1.0 -0.5657826344
O  O13  1  0.77570000  0.68240000  0.34260000  1.0 -0.5657826344
O  O14  1  0.90670000  0.22430000  0.34260000  1.0 -0.5657826344
O  O15  1  0.31760000  0.09330000  0.34260000  1.0 -0.5657826344
O  O16  1  0.22430000  0.31760000  0.84260000  1.0 -0.5657826344
O  O17  1  0.09330000  0.77570000  0.84260000  1.0 -0.5657826344
O  O18  1  0.68240000  0.90670000  0.84260000  1.0 -0.5657826344
O  O19  1  0.21190000  0.28190000  0.57550000  1.0 -0.5119851742
O  O20  1  0.71810000  0.93000000  0.57550000  1.0 -0.5119851742
O  O21  1  0.07000000  0.78810000  0.57550000  1.0 -0.5119851742
O  O22  1  0.78810000  0.71810000  0.07550000  1.0 -0.5119851742
O  O23  1  0.28190000  0.07000000  0.07550000  1.0 -0.5119851742
O  O24  1  0.93000000  0.21190000  0.07550000  1.0 -0.5119851742
O  O25  1  0.71810000  0.78810000  0.07550000  1.0 -0.5119851742
O  O26  1  0.07000000  0.28190000  0.07550000  1.0 -0.5119851742
O  O27  1  0.21190000  0.93000000  0.07550000  1.0 -0.5119851742
O  O28  1  0.28190000  0.21190000  0.57550000  1.0 -0.5119851742
O  O29  1  0.93000000  0.71810000  0.57550000  1.0 -0.5119851742
O  O30  1  0.78810000  0.07000000  0.57550000  1.0 -0.5119851742
O  O31  1  0.23650000  0.44200000  0.65480000  1.0 -0.5119851742
O  O32  1  0.55800000  0.79450000  0.65480000  1.0 -0.5119851742
O  O33  1  0.20550000  0.76350000  0.65480000  1.0 -0.5119851742
O  O34  1  0.76350000  0.55800000  0.15480000  1.0 -0.5119851742
O  O35  1  0.44200000  0.20550000  0.15480000  1.0 -0.5119851742
O  O36  1  0.79450000  0.23650000  0.15480000  1.0 -0.5119851742
O  O37  1  0.55800000  0.76350000  0.15480000  1.0 -0.5119851742
O  O38  1  0.20550000  0.44200000  0.15480000  1.0 -0.5119851742
O  O39  1  0.23650000  0.79450000  0.15480000  1.0 -0.5119851742
O  O40  1  0.44200000  0.23650000  0.65480000  1.0 -0.5119851742
O  O41  1  0.79450000  0.55800000  0.65480000  1.0 -0.5119851742
O  O42  1  0.76350000  0.20550000  0.65480000  1.0 -0.5119851742
O  O43  1  0.15160000  0.27130000  0.73730000  1.0 -0.5119851742
O  O44  1  0.72870000  0.88030000  0.73730000  1.0 -0.5119851742
O  O45  1  0.11970000  0.84840000  0.73730000  1.0 -0.5119851742
O  O46  1  0.84840000  0.72870000  0.23730000  1.0 -0.5119851742
O  O47  1  0.27130000  0.11970000  0.23730000  1.0 -0.5119851742
O  O48  1  0.88030000  0.15160000  0.23730000  1.0 -0.5119851742
O  O49  1  0.72870000  0.84840000  0.23730000  1.0 -0.5119851742
O  O50  1  0.11970000  0.27130000  0.23730000  1.0 -0.5119851742
O  O51  1  0.15160000  0.88030000  0.23730000  1.0 -0.5119851742
O  O52  1  0.27130000  0.15160000  0.73730000  1.0 -0.5119851742
O  O53  1  0.88030000  0.72870000  0.73730000  1.0 -0.5119851742
O  O54  1  0.84840000  0.11970000  0.73730000  1.0 -0.5119851742
O  O55  1  0.36810000  0.48600000  0.62140000  1.0 -0.4204149301
O  O56  1  0.51400000  0.88210000  0.62140000  1.0 -0.4204149301
O  O57  1  0.11790000  0.63190000  0.62140000  1.0 -0.4204149301
O  O58  1  0.63190000  0.51400000  0.12140000  1.0 -0.4204149301
O  O59  1  0.48600000  0.11790000  0.12140000  1.0 -0.4204149301
O  O60  1  0.88210000  0.36810000  0.12140000  1.0 -0.4204149301
O  O61  1  0.51400000  0.63190000  0.12140000  1.0 -0.4204149301
O  O62  1  0.11790000  0.48600000  0.12140000  1.0 -0.4204149301
O  O63  1  0.36810000  0.88210000  0.12140000  1.0 -0.4204149301
O  O64  1  0.48600000  0.36810000  0.62140000  1.0 -0.4204149301
O  O65  1  0.88210000  0.51400000  0.62140000  1.0 -0.4204149301
O  O66  1  0.63190000  0.11790000  0.62140000  1.0 -0.4204149301
