# DDEC6 charges by PACMAN v1.1 (https://github.com/mtap-research/PACMAN-charge/)
data_EWUKUF_FSR_pacman
_symmetry_space_group_name_H-M   'P 1'
_cell_length_a   12.34900000
_cell_length_b   32.65000000
_cell_length_c   25.85100000
_cell_angle_alpha   90.00000000
_cell_angle_beta   94.01000000
_cell_angle_gamma   90.00000000
_symmetry_Int_Tables_number   1
_chemical_formula_structural   Mn6Cu3H155C165N31(ClO12)2
_chemical_formula_sum   'Mn12 Cu6 H310 C330 N62 Cl4 O48'
_cell_volume   10397.47313121
_cell_formula_units_Z   2
loop_
 _symmetry_equiv_pos_site_id
 _symmetry_equiv_pos_as_xyz
  1  'x, y, z'
loop_
 _atom_site_type_symbol
 _atom_site_label
 _atom_site_symmetry_multiplicity
 _atom_site_fract_x
 _atom_site_fract_y
 _atom_site_fract_z
 _atom_site_occupancy
 _atom_site_charge
Mn  Mn1  1  0.18139000  0.43308000  0.29746000  1.0 0.8860413529
Mn  Mn2  1  0.99351000  0.50777000  0.24619000  1.0 1.0895108082
Mn  Mn3  1  0.78778000  0.57768000  0.20103000  1.0 0.8822494247
Mn  Mn4  1  0.81861000  0.93308000  0.70254000  1.0 0.8860413529
Mn  Mn5  1  0.00649000  0.00777000  0.75381000  1.0 1.0895108082
Mn  Mn6  1  0.21222000  0.07768000  0.79897000  1.0 0.8822494247
Mn  Mn7  1  0.81861000  0.56692000  0.70254000  1.0 0.8860413529
Mn  Mn8  1  0.00649000  0.49223000  0.75381000  1.0 1.0895108082
Mn  Mn9  1  0.21222000  0.42232000  0.79897000  1.0 0.8822494247
Mn  Mn10  1  0.18139000  0.06692000  0.29746000  1.0 0.8860413529
Mn  Mn11  1  0.99351000  0.99223000  0.24619000  1.0 1.0895108082
Mn  Mn12  1  0.78778000  0.92232000  0.20103000  1.0 0.8822494247
Cu  Cu1  1  0.28326000  0.25000000  0.13114000  1.0 0.3648023405
Cu  Cu2  1  0.71674000  0.75000000  0.86886000  1.0 0.3678183653
Cu  Cu3  1  0.46770000  0.75000000  0.53208000  1.0 0.1912218728
Cu  Cu4  1  0.72830000  0.75000000  0.37250000  1.0 -0.0393988482
Cu  Cu5  1  0.53230000  0.25000000  0.46792000  1.0 0.1912218728
Cu  Cu6  1  0.27170000  0.25000000  0.62750000  1.0 -0.0393988482
H  H1  1  0.28907000  0.32317000  0.37317000  1.0 0.1403298113
H  H2  1  0.20760000  0.34505000  0.33090000  1.0 0.1484984584
H  H3  1  0.68419000  0.68419000  0.11323000  1.0 0.1285356845
H  H4  1  0.76425000  0.66549000  0.15864000  1.0 0.1484984584
H  H5  1  0.03558000  0.46995000  0.43982000  1.0 0.1403298113
H  H6  1  0.15121000  0.49220000  0.44114000  1.0 0.1484984584
H  H7  1  0.08932000  0.48025000  0.38677000  1.0 0.1585213962
H  H8  1  0.45095000  0.56873000  0.25706000  1.0 0.1403298113
H  H9  1  0.51849000  0.53948000  0.22148000  1.0 0.1585213962
H  H10  1  0.57996000  0.56531000  0.26723000  1.0 0.1585213962
H  H11  1  0.31854000  0.32734000  0.19506000  1.0 0.1484984584
H  H12  1  0.42715000  0.35175000  0.21293000  1.0 0.1585213962
H  H13  1  0.33743000  0.37261000  0.17373000  1.0 0.1585213962
H  H14  1  0.36548000  0.33819000  0.47782000  1.0 0.1285356845
H  H15  1  0.26236000  0.33575000  0.51191000  1.0 0.1285356845
H  H16  1  0.26200000  0.31150000  0.45810000  1.0 0.1403298113
H  H17  1  0.48683000  0.71305000  0.12879000  1.0 0.1484984584
H  H18  1  0.49753000  0.68317000  0.08034000  1.0 0.1403298113
H  H19  1  0.38650000  0.68488000  0.10870000  1.0 0.1781553177
H  H20  1  0.68546000  0.29152000  0.05823000  1.0 0.1484984584
H  H21  1  0.60424000  0.30598000  0.01079000  1.0 0.1285356845
H  H22  1  0.67087000  0.33926000  0.04554000  1.0 0.1585213962
H  H23  1  0.03837000  0.44332000  0.51994000  1.0 0.1196288808
H  H24  1  0.32796000  0.56181000  0.16172000  1.0 0.1196288808
H  H25  1  0.46875000  0.57940000  0.42521000  1.0 0.1196288808
H  H26  1  0.46975000  0.42153000  0.11543000  1.0 0.1196288808
H  H27  1  0.03321000  0.45926000  0.60645000  1.0 0.1285356845
H  H28  1  0.14309000  0.55206000  0.17124000  1.0 0.1196288808
H  H29  1  0.37028000  0.52573000  0.38742000  1.0 0.1285356845
H  H30  1  0.56568000  0.47842000  0.14336000  1.0 0.1285356845
H  H31  1  0.32744000  0.40754000  0.63523000  1.0 0.1196288808
H  H32  1  0.11549000  0.67135000  0.21001000  1.0 0.1196288808
H  H33  1  0.22303000  0.60440000  0.28710000  1.0 0.1196288808
H  H34  1  0.83176000  0.40851000  0.17783000  1.0 0.1285356845
H  H35  1  0.33484000  0.39511000  0.54782000  1.0 0.1118000285
H  H36  1  0.30031000  0.68086000  0.20167000  1.0 0.1196288808
H  H37  1  0.32126000  0.65717000  0.32602000  1.0 0.1196288808
H  H38  1  0.72986000  0.35066000  0.15235000  1.0 0.1285356845
H  H39  1  0.44172000  0.47657000  0.27901000  1.0 0.1585213962
H  H40  1  0.51138000  0.45101000  0.24024000  1.0 0.1403298113
H  H41  1  0.38187000  0.45235000  0.23136000  1.0 0.1585213962
H  H42  1  0.91999000  0.53256000  0.11620000  1.0 0.1585213962
H  H43  1  0.83754000  0.51141000  0.07377000  1.0 0.1484984584
H  H44  1  0.94446000  0.53368000  0.05624000  1.0 0.1403298113
H  H45  1  0.49087000  0.29976000  0.35680000  1.0 0.1484984584
H  H46  1  0.59247000  0.32799000  0.37494000  1.0 0.1403298113
H  H47  1  0.48667000  0.32788000  0.40732000  1.0 0.1403298113
H  H48  1  0.73581000  0.68534000  0.00806000  1.0 0.1585213962
H  H49  1  0.65896000  0.65222000  0.97826000  1.0 0.1403298113
H  H50  1  0.62256000  0.67305000  0.03033000  1.0 0.1196288808
H  H51  1  0.66973000  0.33562000  0.28950000  1.0 0.1196288808
H  H52  1  0.81817000  0.63809000  0.94546000  1.0 0.1285356845
H  H53  1  0.85522000  0.34593000  0.28206000  1.0 0.1196288808
H  H54  1  0.85811000  0.62032000  0.86116000  1.0 0.1285356845
H  H55  1  0.82160000  0.46615000  0.31851000  1.0 0.1196288808
H  H56  1  0.81587000  0.50222000  0.89864000  1.0 0.1285356845
H  H57  1  0.63893000  0.45566000  0.32697000  1.0 0.1196288808
H  H58  1  0.77656000  0.52065000  0.98261000  1.0 0.1118000285
H  H59  1  0.33220000  0.67277000  0.52601000  1.0 0.0999706108
H  H60  1  0.27709000  0.64589000  0.47956000  1.0 0.0999706108
H  H61  1  0.37670000  0.62773000  0.51535000  1.0 0.1196288808
H  H62  1  0.65355000  0.69468000  0.35439000  1.0 0.0999706108
H  H63  1  0.57168000  0.66035000  0.33091000  1.0 0.0882549398
H  H64  1  0.54015000  0.70776000  0.32532000  1.0 0.0815223065
H  H65  1  0.92078000  0.23261000  0.05575000  1.0 -0.0023263318
H  H66  1  0.93326000  0.27803000  0.03365000  1.0 -0.0127884366
H  H67  1  0.95365000  0.23935000  0.99756000  1.0 0.0051442538
H  H68  1  0.59350000  0.63407000  0.30100000  1.0 0.0882549398
H  H69  1  0.21685000  0.77451000  0.66250000  1.0 0.1585213962
H  H70  1  0.43833000  0.69817000  0.49600000  1.0 0.0999706108
H  H71  1  0.33718000  0.70098000  0.45393000  1.0 0.0999706108
H  H72  1  0.38330000  0.65720000  0.47255000  1.0 0.0999706108
H  H73  1  0.59368000  0.68090000  0.28274000  1.0 0.0882549398
H  H74  1  0.69853000  0.66195000  0.31386000  1.0 0.1118000285
H  H75  1  0.71093000  0.82317000  0.62683000  1.0 0.1403298113
H  H76  1  0.79240000  0.84505000  0.66910000  1.0 0.1484984584
H  H77  1  0.31581000  0.18419000  0.88677000  1.0 0.1285356845
H  H78  1  0.23575000  0.16549000  0.84136000  1.0 0.1484984584
H  H79  1  0.96442000  0.96995000  0.56018000  1.0 0.1403298113
H  H80  1  0.84879000  0.99220000  0.55886000  1.0 0.1484984584
H  H81  1  0.91068000  0.98025000  0.61323000  1.0 0.1585213962
H  H82  1  0.54905000  0.06873000  0.74294000  1.0 0.1403298113
H  H83  1  0.48151000  0.03948000  0.77852000  1.0 0.1585213962
H  H84  1  0.42004000  0.06531000  0.73277000  1.0 0.1585213962
H  H85  1  0.68146000  0.82734000  0.80494000  1.0 0.1484984584
H  H86  1  0.57285000  0.85175000  0.78707000  1.0 0.1585213962
H  H87  1  0.66257000  0.87261000  0.82627000  1.0 0.1585213962
H  H88  1  0.63452000  0.83819000  0.52218000  1.0 0.1285356845
H  H89  1  0.73764000  0.83575000  0.48809000  1.0 0.1285356845
H  H90  1  0.73800000  0.81150000  0.54190000  1.0 0.1403298113
H  H91  1  0.51317000  0.21305000  0.87121000  1.0 0.1484984584
H  H92  1  0.50247000  0.18317000  0.91966000  1.0 0.1403298113
H  H93  1  0.61350000  0.18488000  0.89130000  1.0 0.1781553177
H  H94  1  0.31454000  0.79152000  0.94177000  1.0 0.1484984584
H  H95  1  0.39576000  0.80598000  0.98921000  1.0 0.1285356845
H  H96  1  0.32913000  0.83926000  0.95446000  1.0 0.1585213962
H  H97  1  0.96163000  0.94332000  0.48006000  1.0 0.1196288808
H  H98  1  0.67204000  0.06181000  0.83828000  1.0 0.1196288808
H  H99  1  0.53125000  0.07940000  0.57479000  1.0 0.1196288808
H  H100  1  0.53025000  0.92153000  0.88457000  1.0 0.1196288808
H  H101  1  0.96679000  0.95926000  0.39355000  1.0 0.1285356845
H  H102  1  0.85691000  0.05206000  0.82876000  1.0 0.1196288808
H  H103  1  0.62972000  0.02573000  0.61258000  1.0 0.1285356845
H  H104  1  0.43432000  0.97842000  0.85664000  1.0 0.1285356845
H  H105  1  0.67256000  0.90754000  0.36477000  1.0 0.1196288808
H  H106  1  0.88451000  0.17135000  0.78999000  1.0 0.1196288808
H  H107  1  0.77697000  0.10440000  0.71290000  1.0 0.1196288808
H  H108  1  0.16824000  0.90851000  0.82217000  1.0 0.1285356845
H  H109  1  0.66516000  0.89511000  0.45218000  1.0 0.1118000285
H  H110  1  0.69969000  0.18086000  0.79833000  1.0 0.1196288808
H  H111  1  0.67874000  0.15717000  0.67398000  1.0 0.1196288808
H  H112  1  0.27014000  0.85066000  0.84765000  1.0 0.1285356845
H  H113  1  0.55828000  0.97657000  0.72099000  1.0 0.1585213962
H  H114  1  0.48862000  0.95101000  0.75976000  1.0 0.1403298113
H  H115  1  0.61813000  0.95235000  0.76864000  1.0 0.1585213962
H  H116  1  0.08001000  0.03256000  0.88380000  1.0 0.1585213962
H  H117  1  0.16246000  0.01141000  0.92623000  1.0 0.1484984584
H  H118  1  0.05554000  0.03368000  0.94376000  1.0 0.1403298113
H  H119  1  0.50913000  0.79976000  0.64320000  1.0 0.1484984584
H  H120  1  0.40753000  0.82799000  0.62506000  1.0 0.1403298113
H  H121  1  0.51333000  0.82788000  0.59268000  1.0 0.1403298113
H  H122  1  0.26419000  0.18534000  0.99194000  1.0 0.1585213962
H  H123  1  0.34104000  0.15222000  0.02174000  1.0 0.1403298113
H  H124  1  0.37744000  0.17305000  0.96967000  1.0 0.1196288808
H  H125  1  0.33027000  0.83562000  0.71050000  1.0 0.1196288808
H  H126  1  0.18183000  0.13809000  0.05454000  1.0 0.1285356845
H  H127  1  0.14478000  0.84593000  0.71794000  1.0 0.1196288808
H  H128  1  0.14189000  0.12032000  0.13884000  1.0 0.1285356845
H  H129  1  0.17840000  0.96615000  0.68149000  1.0 0.1196288808
H  H130  1  0.18413000  0.00222000  0.10136000  1.0 0.1285356845
H  H131  1  0.36107000  0.95566000  0.67303000  1.0 0.1196288808
H  H132  1  0.22344000  0.02065000  0.01739000  1.0 0.1118000285
H  H133  1  0.66780000  0.17277000  0.47399000  1.0 0.0999706108
H  H134  1  0.72291000  0.14589000  0.52044000  1.0 0.0999706108
H  H135  1  0.62330000  0.12773000  0.48465000  1.0 0.1196288808
H  H136  1  0.34645000  0.19468000  0.64561000  1.0 0.0999706108
H  H137  1  0.42832000  0.16035000  0.66909000  1.0 0.0882549398
H  H138  1  0.45985000  0.20776000  0.67468000  1.0 0.0815223065
H  H139  1  0.07922000  0.73261000  0.94425000  1.0 -0.0023263318
H  H140  1  0.06674000  0.77803000  0.96635000  1.0 -0.0127884366
H  H141  1  0.04635000  0.73935000  0.00244000  1.0 0.0005567588
H  H142  1  0.40650000  0.13407000  0.69900000  1.0 0.0882549398
H  H143  1  0.78315000  0.27451000  0.33750000  1.0 0.1585213962
H  H144  1  0.56167000  0.19817000  0.50400000  1.0 0.0999706108
H  H145  1  0.66282000  0.20098000  0.54607000  1.0 0.0999706108
H  H146  1  0.61670000  0.15720000  0.52745000  1.0 0.0999706108
H  H147  1  0.40632000  0.18090000  0.71726000  1.0 0.0882549398
H  H148  1  0.30147000  0.16195000  0.68614000  1.0 0.1118000285
H  H149  1  0.71093000  0.67683000  0.62683000  1.0 0.1403298113
H  H150  1  0.79240000  0.65495000  0.66910000  1.0 0.1484984584
H  H151  1  0.31581000  0.31581000  0.88677000  1.0 0.1285356845
H  H152  1  0.23575000  0.33451000  0.84136000  1.0 0.1484984584
H  H153  1  0.96442000  0.53005000  0.56018000  1.0 0.1403298113
H  H154  1  0.84879000  0.50780000  0.55886000  1.0 0.1484984584
H  H155  1  0.91068000  0.51975000  0.61323000  1.0 0.1585213962
H  H156  1  0.54905000  0.43127000  0.74294000  1.0 0.1403298113
H  H157  1  0.48151000  0.46052000  0.77852000  1.0 0.1585213962
H  H158  1  0.42004000  0.43469000  0.73277000  1.0 0.1585213962
H  H159  1  0.68146000  0.67266000  0.80494000  1.0 0.1484984584
H  H160  1  0.57285000  0.64825000  0.78707000  1.0 0.1585213962
H  H161  1  0.66257000  0.62739000  0.82627000  1.0 0.1585213962
H  H162  1  0.63452000  0.66181000  0.52218000  1.0 0.1285356845
H  H163  1  0.73764000  0.66425000  0.48809000  1.0 0.1285356845
H  H164  1  0.73800000  0.68850000  0.54190000  1.0 0.1403298113
H  H165  1  0.51317000  0.28695000  0.87121000  1.0 0.1484984584
H  H166  1  0.50247000  0.31683000  0.91966000  1.0 0.1403298113
H  H167  1  0.61350000  0.31512000  0.89130000  1.0 0.1781553177
H  H168  1  0.31454000  0.70848000  0.94177000  1.0 0.1484984584
H  H169  1  0.39576000  0.69402000  0.98921000  1.0 0.1285356845
H  H170  1  0.32913000  0.66074000  0.95446000  1.0 0.1585213962
H  H171  1  0.96163000  0.55668000  0.48006000  1.0 0.1196288808
H  H172  1  0.67204000  0.43819000  0.83828000  1.0 0.1196288808
H  H173  1  0.53125000  0.42060000  0.57479000  1.0 0.1196288808
H  H174  1  0.53025000  0.57847000  0.88457000  1.0 0.1196288808
H  H175  1  0.96679000  0.54074000  0.39355000  1.0 0.1285356845
H  H176  1  0.85691000  0.44794000  0.82876000  1.0 0.1196288808
H  H177  1  0.62972000  0.47427000  0.61258000  1.0 0.1285356845
H  H178  1  0.43432000  0.52158000  0.85664000  1.0 0.1285356845
H  H179  1  0.67256000  0.59246000  0.36477000  1.0 0.1196288808
H  H180  1  0.88451000  0.32865000  0.78999000  1.0 0.1196288808
H  H181  1  0.77697000  0.39560000  0.71290000  1.0 0.1196288808
H  H182  1  0.16824000  0.59149000  0.82217000  1.0 0.1285356845
H  H183  1  0.66516000  0.60489000  0.45218000  1.0 0.1118000285
H  H184  1  0.69969000  0.31914000  0.79833000  1.0 0.1196288808
H  H185  1  0.67874000  0.34283000  0.67398000  1.0 0.1196288808
H  H186  1  0.27014000  0.64934000  0.84765000  1.0 0.1285356845
H  H187  1  0.55828000  0.52343000  0.72099000  1.0 0.1585213962
H  H188  1  0.48862000  0.54899000  0.75976000  1.0 0.1403298113
H  H189  1  0.61813000  0.54765000  0.76864000  1.0 0.1585213962
H  H190  1  0.08001000  0.46744000  0.88380000  1.0 0.1585213962
H  H191  1  0.16246000  0.48859000  0.92623000  1.0 0.1484984584
H  H192  1  0.05554000  0.46632000  0.94376000  1.0 0.1403298113
H  H193  1  0.50913000  0.70024000  0.64320000  1.0 0.1484984584
H  H194  1  0.40753000  0.67201000  0.62506000  1.0 0.1403298113
H  H195  1  0.51333000  0.67212000  0.59268000  1.0 0.1403298113
H  H196  1  0.26419000  0.31466000  0.99194000  1.0 0.1585213962
H  H197  1  0.34104000  0.34778000  0.02174000  1.0 0.1403298113
H  H198  1  0.37744000  0.32695000  0.96967000  1.0 0.1196288808
H  H199  1  0.33027000  0.66438000  0.71050000  1.0 0.1196288808
H  H200  1  0.18183000  0.36191000  0.05454000  1.0 0.1285356845
H  H201  1  0.14478000  0.65407000  0.71794000  1.0 0.1196288808
H  H202  1  0.14189000  0.37968000  0.13884000  1.0 0.1285356845
H  H203  1  0.17840000  0.53385000  0.68149000  1.0 0.1196288808
H  H204  1  0.18413000  0.49778000  0.10136000  1.0 0.1285356845
H  H205  1  0.36107000  0.54434000  0.67303000  1.0 0.1196288808
H  H206  1  0.22344000  0.47935000  0.01739000  1.0 0.1118000285
H  H207  1  0.66780000  0.32723000  0.47399000  1.0 0.0999706108
H  H208  1  0.72291000  0.35411000  0.52044000  1.0 0.0999706108
H  H209  1  0.62330000  0.37227000  0.48465000  1.0 0.1196288808
H  H210  1  0.34645000  0.30532000  0.64561000  1.0 0.0999706108
H  H211  1  0.42832000  0.33965000  0.66909000  1.0 0.0882549398
H  H212  1  0.45985000  0.29224000  0.67468000  1.0 0.0815223065
H  H213  1  0.07922000  0.76739000  0.94425000  1.0 -0.0023263318
H  H214  1  0.06674000  0.72197000  0.96635000  1.0 -0.0127884366
H  H215  1  0.04635000  0.76065000  0.00244000  1.0 0.0005567588
H  H216  1  0.40650000  0.36593000  0.69900000  1.0 0.0882549398
H  H217  1  0.78315000  0.22549000  0.33750000  1.0 0.1585213962
H  H218  1  0.56167000  0.30183000  0.50400000  1.0 0.0999706108
H  H219  1  0.66282000  0.29902000  0.54607000  1.0 0.0999706108
H  H220  1  0.61670000  0.34280000  0.52745000  1.0 0.0999706108
H  H221  1  0.40632000  0.31910000  0.71726000  1.0 0.0882549398
H  H222  1  0.30147000  0.33805000  0.68614000  1.0 0.1118000285
H  H223  1  0.28907000  0.17683000  0.37317000  1.0 0.1403298113
H  H224  1  0.20760000  0.15495000  0.33090000  1.0 0.1484984584
H  H225  1  0.68419000  0.81581000  0.11323000  1.0 0.1285356845
H  H226  1  0.76425000  0.83451000  0.15864000  1.0 0.1484984584
H  H227  1  0.03558000  0.03005000  0.43982000  1.0 0.1403298113
H  H228  1  0.15121000  0.00780000  0.44114000  1.0 0.1484984584
H  H229  1  0.08932000  0.01975000  0.38677000  1.0 0.1585213962
H  H230  1  0.45095000  0.93127000  0.25706000  1.0 0.1403298113
H  H231  1  0.51849000  0.96052000  0.22148000  1.0 0.1585213962
H  H232  1  0.57996000  0.93469000  0.26723000  1.0 0.1585213962
H  H233  1  0.31854000  0.17266000  0.19506000  1.0 0.1484984584
H  H234  1  0.42715000  0.14825000  0.21293000  1.0 0.1585213962
H  H235  1  0.33743000  0.12739000  0.17373000  1.0 0.1585213962
H  H236  1  0.36548000  0.16181000  0.47782000  1.0 0.1285356845
H  H237  1  0.26236000  0.16425000  0.51191000  1.0 0.1285356845
H  H238  1  0.26200000  0.18850000  0.45810000  1.0 0.1403298113
H  H239  1  0.48683000  0.78695000  0.12879000  1.0 0.1484984584
H  H240  1  0.49753000  0.81683000  0.08034000  1.0 0.1403298113
H  H241  1  0.38650000  0.81512000  0.10870000  1.0 0.1781553177
H  H242  1  0.68546000  0.20848000  0.05823000  1.0 0.1484984584
H  H243  1  0.60424000  0.19402000  0.01079000  1.0 0.1285356845
H  H244  1  0.67087000  0.16074000  0.04554000  1.0 0.1585213962
H  H245  1  0.03837000  0.05668000  0.51994000  1.0 0.1196288808
H  H246  1  0.32796000  0.93819000  0.16172000  1.0 0.1196288808
H  H247  1  0.46875000  0.92060000  0.42521000  1.0 0.1196288808
H  H248  1  0.46975000  0.07847000  0.11543000  1.0 0.1196288808
H  H249  1  0.03321000  0.04074000  0.60645000  1.0 0.1285356845
H  H250  1  0.14309000  0.94794000  0.17124000  1.0 0.1196288808
H  H251  1  0.37028000  0.97427000  0.38742000  1.0 0.1285356845
H  H252  1  0.56568000  0.02158000  0.14336000  1.0 0.1285356845
H  H253  1  0.32744000  0.09246000  0.63523000  1.0 0.1196288808
H  H254  1  0.11549000  0.82865000  0.21001000  1.0 0.1196288808
H  H255  1  0.22303000  0.89560000  0.28710000  1.0 0.1196288808
H  H256  1  0.83176000  0.09149000  0.17783000  1.0 0.1285356845
H  H257  1  0.33484000  0.10489000  0.54782000  1.0 0.1118000285
H  H258  1  0.30031000  0.81914000  0.20167000  1.0 0.1196288808
H  H259  1  0.32126000  0.84283000  0.32602000  1.0 0.1196288808
H  H260  1  0.72986000  0.14934000  0.15235000  1.0 0.1285356845
H  H261  1  0.44172000  0.02343000  0.27901000  1.0 0.1585213962
H  H262  1  0.51138000  0.04899000  0.24024000  1.0 0.1403298113
H  H263  1  0.38187000  0.04765000  0.23136000  1.0 0.1585213962
H  H264  1  0.91999000  0.96744000  0.11620000  1.0 0.1585213962
H  H265  1  0.83754000  0.98859000  0.07377000  1.0 0.1484984584
H  H266  1  0.94446000  0.96632000  0.05624000  1.0 0.1403298113
H  H267  1  0.49087000  0.20024000  0.35680000  1.0 0.1484984584
H  H268  1  0.59247000  0.17201000  0.37494000  1.0 0.1403298113
H  H269  1  0.48667000  0.17212000  0.40732000  1.0 0.1403298113
H  H270  1  0.73581000  0.81466000  0.00806000  1.0 0.1585213962
H  H271  1  0.65896000  0.84778000  0.97826000  1.0 0.1403298113
H  H272  1  0.62256000  0.82695000  0.03033000  1.0 0.1196288808
H  H273  1  0.66973000  0.16438000  0.28950000  1.0 0.1196288808
H  H274  1  0.81817000  0.86191000  0.94546000  1.0 0.1285356845
H  H275  1  0.85522000  0.15407000  0.28206000  1.0 0.1196288808
H  H276  1  0.85811000  0.87968000  0.86116000  1.0 0.1285356845
H  H277  1  0.82160000  0.03385000  0.31851000  1.0 0.1196288808
H  H278  1  0.81587000  0.99778000  0.89864000  1.0 0.1285356845
H  H279  1  0.63893000  0.04434000  0.32697000  1.0 0.1196288808
H  H280  1  0.77656000  0.97935000  0.98261000  1.0 0.1118000285
H  H281  1  0.33220000  0.82723000  0.52601000  1.0 0.0999706108
H  H282  1  0.27709000  0.85411000  0.47956000  1.0 0.0999706108
H  H283  1  0.37670000  0.87227000  0.51535000  1.0 0.1196288808
H  H284  1  0.65355000  0.80532000  0.35439000  1.0 0.0999706108
H  H285  1  0.57168000  0.83965000  0.33091000  1.0 0.0882549398
H  H286  1  0.54015000  0.79224000  0.32532000  1.0 0.0815223065
H  H287  1  0.92078000  0.26739000  0.05575000  1.0 -0.0023263318
H  H288  1  0.93326000  0.22197000  0.03365000  1.0 -0.0127884366
H  H289  1  0.95365000  0.26065000  0.99756000  1.0 0.0051442538
H  H290  1  0.59350000  0.86593000  0.30100000  1.0 0.0882549398
H  H291  1  0.21685000  0.72549000  0.66250000  1.0 0.1585213962
H  H292  1  0.43833000  0.80183000  0.49600000  1.0 0.0999706108
H  H293  1  0.33718000  0.79902000  0.45393000  1.0 0.0999706108
H  H294  1  0.38330000  0.84280000  0.47255000  1.0 0.0999706108
H  H295  1  0.59368000  0.81910000  0.28274000  1.0 0.0882549398
H  H296  1  0.69853000  0.83805000  0.31386000  1.0 0.1118000285
H  H297  1  0.37045000  0.25000000  0.03180000  1.0 0.1403298113
H  H298  1  0.49625000  0.25000000  0.02004000  1.0 0.1196288808
H  H299  1  0.62955000  0.75000000  0.96820000  1.0 0.1403298113
H  H300  1  0.50375000  0.75000000  0.97996000  1.0 0.1196288808
H  H301  1  0.65396000  0.75000000  0.47519000  1.0 0.0815223065
H  H302  1  0.66188000  0.75000000  0.41311000  1.0 0.0685486169
H  H303  1  0.53501000  0.75000000  0.48485000  1.0 0.0815223065
H  H304  1  0.65492000  0.75000000  0.46654000  1.0 0.0882549398
H  H305  1  0.12382000  0.75000000  0.62924000  1.0 0.1484984584
H  H306  1  0.34604000  0.25000000  0.52481000  1.0 0.0815223065
H  H307  1  0.33812000  0.25000000  0.58689000  1.0 0.0685486169
H  H308  1  0.46499000  0.25000000  0.51515000  1.0 0.0815223065
H  H309  1  0.34508000  0.25000000  0.53346000  1.0 0.0882549398
H  H310  1  0.87618000  0.25000000  0.37076000  1.0 0.1484984584
C  C1  1  0.26770000  0.34992000  0.35760000  1.0 -0.079517647
C  C2  1  0.70520000  0.65872000  0.13210000  1.0 -0.0887308054
C  C3  1  0.15830000  0.43179000  0.42480000  1.0 0.2459207573
C  C4  1  0.53330000  0.59991000  0.20410000  1.0 0.2322509485
C  C5  1  0.42700000  0.32950000  0.13960000  1.0 0.2322509485
C  C6  1  0.19420000  0.40817000  0.46880000  1.0 -0.1497389251
C  C7  1  0.45170000  0.62568000  0.17890000  1.0 -0.1624221075
C  C8  1  0.52650000  0.34257000  0.11570000  1.0 -0.1244607396
C  C9  1  0.23800000  0.37300000  0.44870000  1.0 0.1781553177
C  C10  1  0.50660000  0.65270000  0.15010000  1.0 0.1585213962
C  C11  1  0.54650000  0.31489000  0.08010000  1.0 0.1285356845
C  C12  1  0.10410000  0.47190000  0.42300000  1.0 -0.5002537639
C  C13  1  0.51950000  0.56540000  0.24060000  1.0 -0.5096487438
C  C14  1  0.37300000  0.34680000  0.18410000  1.0 -0.5096487438
C  C15  1  0.28610000  0.33650000  0.47650000  1.0 -0.5391096312
C  C16  1  0.46580000  0.68641000  0.11380000  1.0 -0.5002537639
C  C17  1  0.63380000  0.31270000  0.04590000  1.0 -0.5230542473
C  C18  1  0.18700000  0.41762000  0.52440000  1.0 0.1196288808
C  C19  1  0.33310000  0.62156000  0.18290000  1.0 0.1118000285
C  C20  1  0.40070000  0.62412000  0.38000000  1.0 0.0685486169
C  C21  1  0.58840000  0.37924000  0.13200000  1.0 0.0999706108
C  C22  1  0.09840000  0.43630000  0.54330000  1.0 -0.1497389251
C  C23  1  0.28520000  0.58397000  0.17260000  1.0 -0.1497389251
C  C24  1  0.41630000  0.58470000  0.39740000  1.0 -0.1788286246
C  C25  1  0.54270000  0.41844000  0.12910000  1.0 -0.1426961027
C  C26  1  0.09420000  0.44510000  0.59480000  1.0 -0.0992206372
C  C27  1  0.17490000  0.57818000  0.17800000  1.0 -0.0887308054
C  C28  1  0.35730000  0.55280000  0.37510000  1.0 -0.079517647
C  C29  1  0.59980000  0.45234000  0.14540000  1.0 -0.0992206372
C  C30  1  0.17800000  0.43358000  0.63010000  1.0 -0.0283433692
C  C31  1  0.11090000  0.61053000  0.19340000  1.0 -0.0393988482
C  C32  1  0.28030000  0.55959000  0.33550000  1.0 -0.0283433692
C  C33  1  0.70620000  0.44931000  0.16470000  1.0 -0.0393988482
C  C34  1  0.26810000  0.41510000  0.61180000  1.0 -0.1117014918
C  C35  1  0.15890000  0.64874000  0.20110000  1.0 -0.0992206372
C  C36  1  0.27120000  0.59890000  0.31660000  1.0 -0.079517647
C  C37  1  0.75730000  0.41109000  0.16630000  1.0 -0.0992206372
C  C38  1  0.27180000  0.40760000  0.55990000  1.0 -0.1497389251
C  C39  1  0.26890000  0.65454000  0.19610000  1.0 -0.1624221075
C  C40  1  0.33060000  0.63020000  0.33950000  1.0 -0.1788286246
C  C41  1  0.69610000  0.37680000  0.15040000  1.0 -0.1497389251
C  C42  1  0.16810000  0.44117000  0.68660000  1.0 0.5816847183
C  C43  1  0.99510000  0.60308000  0.20120000  1.0 0.5681843259
C  C44  1  0.21300000  0.52539000  0.31210000  1.0 0.5816847183
C  C45  1  0.76940000  0.48590000  0.18450000  1.0 0.5816847183
C  C46  1  0.43530000  0.41478000  0.29100000  1.0 0.2322509485
C  C47  1  0.82510000  0.57429000  0.07410000  1.0 0.2362911985
C  C48  1  0.51820000  0.38999000  0.31310000  1.0 -0.1690889619
C  C49  1  0.79340000  0.59511000  0.02840000  1.0 -0.1624221075
C  C50  1  0.46680000  0.35981000  0.34020000  1.0 0.1781553177
C  C51  1  0.73990000  0.62943000  0.04370000  1.0 0.1689162501
C  C52  1  0.44330000  0.45190000  0.25750000  1.0 -0.5002537639
C  C53  1  0.88720000  0.53448000  0.08060000  1.0 -0.4855660103
C  C54  1  0.51310000  0.32600000  0.37250000  1.0 -0.547199314
C  C55  1  0.68450000  0.66290000  0.01240000  1.0 -0.5391096312
C  C56  1  0.63410000  0.39516000  0.30790000  1.0 0.1196288808
C  C57  1  0.81070000  0.58276000  0.97500000  1.0 0.0999706108
C  C58  1  0.70030000  0.36210000  0.29510000  1.0 -0.1497389251
C  C59  1  0.82340000  0.60990000  0.93710000  1.0 -0.1244607396
C  C60  1  0.81100000  0.36840000  0.29060000  1.0 -0.0992206372
C  C61  1  0.84390000  0.59970000  0.88570000  1.0 -0.079517647
C  C62  1  0.85780000  0.40665000  0.29820000  1.0 -0.0500317007
C  C63  1  0.84260000  0.55933000  0.87258000  1.0 -0.0500317007
C  C64  1  0.79110000  0.43974000  0.31240000  1.0 -0.0887308054
C  C65  1  0.81860000  0.53020000  0.90850000  1.0 -0.1117014918
C  C66  1  0.68260000  0.43340000  0.31710000  1.0 -0.1497389251
C  C67  1  0.79830000  0.54090000  0.95900000  1.0 -0.1497389251
C  C68  1  0.97360000  0.41352000  0.29410000  1.0 0.5629100897
C  C69  1  0.85700000  0.54736000  0.81820000  1.0 0.5816847183
C  C70  1  0.42300000  0.67000000  0.46330000  1.0 -0.0127884366
C  C71  1  0.44870000  0.65830000  0.41550000  1.0 -0.0023263318
C  C72  1  0.52640000  0.68540000  0.39620000  1.0 0.0882549398
C  C73  1  0.34560000  0.65260000  0.49910000  1.0 -0.286233475
C  C74  1  0.57700000  0.68720000  0.34790000  1.0 -0.0283433692
C  C75  1  0.61900000  0.66170000  0.31010000  1.0 -0.2826280993
C  C76  1  0.57200000  0.67540000  0.36430000  1.0 0.0501466901
C  C77  1  0.47470000  0.66050000  0.38900000  1.0 -0.0153788566
C  C78  1  0.47670000  0.68590000  0.42350000  1.0 0.0815223065
C  C79  1  0.40300000  0.68550000  0.46490000  1.0 0.025527351
C  C80  1  0.73230000  0.84992000  0.64240000  1.0 -0.079517647
C  C81  1  0.29480000  0.15872000  0.86790000  1.0 -0.0887308054
C  C82  1  0.84170000  0.93179000  0.57520000  1.0 0.2459207573
C  C83  1  0.46670000  0.09991000  0.79590000  1.0 0.2322509485
C  C84  1  0.57300000  0.82950000  0.86040000  1.0 0.2322509485
C  C85  1  0.80580000  0.90817000  0.53120000  1.0 -0.1497389251
C  C86  1  0.54830000  0.12568000  0.82110000  1.0 -0.1624221075
C  C87  1  0.47350000  0.84257000  0.88430000  1.0 -0.1244607396
C  C88  1  0.76200000  0.87300000  0.55130000  1.0 0.1781553177
C  C89  1  0.49340000  0.15270000  0.84990000  1.0 0.1585213962
C  C90  1  0.45350000  0.81489000  0.91990000  1.0 0.1285356845
C  C91  1  0.89590000  0.97190000  0.57700000  1.0 -0.5002537639
C  C92  1  0.48050000  0.06540000  0.75940000  1.0 -0.5096487438
C  C93  1  0.62700000  0.84680000  0.81590000  1.0 -0.5096487438
C  C94  1  0.71390000  0.83650000  0.52350000  1.0 -0.5391096312
C  C95  1  0.53420000  0.18641000  0.88620000  1.0 -0.5002537639
C  C96  1  0.36620000  0.81270000  0.95410000  1.0 -0.5230542473
C  C97  1  0.81300000  0.91762000  0.47560000  1.0 0.1196288808
C  C98  1  0.66690000  0.12156000  0.81710000  1.0 0.1118000285
C  C99  1  0.59930000  0.12412000  0.62000000  1.0 0.0685486169
C  C100  1  0.41160000  0.87924000  0.86800000  1.0 0.0999706108
C  C101  1  0.90160000  0.93630000  0.45670000  1.0 -0.1497389251
C  C102  1  0.71480000  0.08397000  0.82740000  1.0 -0.1497389251
C  C103  1  0.58370000  0.08470000  0.60260000  1.0 -0.1788286246
C  C104  1  0.45730000  0.91844000  0.87090000  1.0 -0.1426961027
C  C105  1  0.90580000  0.94510000  0.40520000  1.0 -0.0992206372
C  C106  1  0.82510000  0.07818000  0.82200000  1.0 -0.0887308054
C  C107  1  0.64270000  0.05280000  0.62490000  1.0 -0.079517647
C  C108  1  0.40020000  0.95234000  0.85460000  1.0 -0.0992206372
C  C109  1  0.82200000  0.93358000  0.36990000  1.0 -0.0283433692
C  C110  1  0.88910000  0.11053000  0.80660000  1.0 -0.0393988482
C  C111  1  0.71970000  0.05959000  0.66450000  1.0 -0.0283433692
C  C112  1  0.29380000  0.94931000  0.83530000  1.0 -0.0393988482
C  C113  1  0.73190000  0.91510000  0.38820000  1.0 -0.1117014918
C  C114  1  0.84110000  0.14874000  0.79890000  1.0 -0.0992206372
C  C115  1  0.72880000  0.09890000  0.68340000  1.0 -0.079517647
C  C116  1  0.24270000  0.91109000  0.83370000  1.0 -0.0992206372
C  C117  1  0.72820000  0.90760000  0.44010000  1.0 -0.1497389251
C  C118  1  0.73110000  0.15454000  0.80390000  1.0 -0.1624221075
C  C119  1  0.66940000  0.13020000  0.66050000  1.0 -0.1788286246
C  C120  1  0.30390000  0.87680000  0.84960000  1.0 -0.1497389251
C  C121  1  0.83190000  0.94117000  0.31340000  1.0 0.5816847183
C  C122  1  0.00490000  0.10308000  0.79880000  1.0 0.5681843259
C  C123  1  0.78700000  0.02539000  0.68790000  1.0 0.5816847183
C  C124  1  0.23060000  0.98590000  0.81550000  1.0 0.5816847183
C  C125  1  0.56470000  0.91478000  0.70900000  1.0 0.2322509485
C  C126  1  0.17490000  0.07429000  0.92590000  1.0 0.2362911985
C  C127  1  0.48180000  0.88999000  0.68690000  1.0 -0.1690889619
C  C128  1  0.20660000  0.09511000  0.97160000  1.0 -0.1690889619
C  C129  1  0.53320000  0.85981000  0.65980000  1.0 0.1781553177
C  C130  1  0.26010000  0.12943000  0.95630000  1.0 0.1689162501
C  C131  1  0.55670000  0.95190000  0.74250000  1.0 -0.5002537639
C  C132  1  0.11280000  0.03448000  0.91940000  1.0 -0.4855660103
C  C133  1  0.48690000  0.82600000  0.62750000  1.0 -0.547199314
C  C134  1  0.31550000  0.16290000  0.98760000  1.0 -0.5391096312
C  C135  1  0.36590000  0.89516000  0.69210000  1.0 0.1196288808
C  C136  1  0.18930000  0.08276000  0.02500000  1.0 0.0999706108
C  C137  1  0.29970000  0.86210000  0.70490000  1.0 -0.1497389251
C  C138  1  0.17660000  0.10990000  0.06290000  1.0 -0.1244607396
C  C139  1  0.18900000  0.86840000  0.70940000  1.0 -0.0992206372
C  C140  1  0.15610000  0.09970000  0.11430000  1.0 -0.079517647
C  C141  1  0.14220000  0.90665000  0.70180000  1.0 -0.0500317007
C  C142  1  0.15740000  0.05933000  0.12742000  1.0 -0.0500317007
C  C143  1  0.20890000  0.93974000  0.68760000  1.0 -0.0887308054
C  C144  1  0.18140000  0.03020000  0.09150000  1.0 -0.1117014918
C  C145  1  0.31740000  0.93340000  0.68290000  1.0 -0.1497389251
C  C146  1  0.20170000  0.04090000  0.04100000  1.0 -0.1497389251
C  C147  1  0.02640000  0.91352000  0.70590000  1.0 0.5629100897
C  C148  1  0.14300000  0.04736000  0.18180000  1.0 0.5816847183
C  C149  1  0.57700000  0.17000000  0.53670000  1.0 -0.0127884366
C  C150  1  0.55130000  0.15830000  0.58450000  1.0 -0.0023263318
C  C151  1  0.47360000  0.18540000  0.60380000  1.0 0.0882549398
C  C152  1  0.65440000  0.15260000  0.50090000  1.0 -0.286233475
C  C153  1  0.42300000  0.18720000  0.65210000  1.0 -0.0283433692
C  C154  1  0.38100000  0.16170000  0.68990000  1.0 -0.2826280993
C  C155  1  0.42800000  0.17540000  0.63570000  1.0 0.0501466901
C  C156  1  0.52530000  0.16050000  0.61100000  1.0 -0.0127884366
C  C157  1  0.52330000  0.18590000  0.57650000  1.0 0.0815223065
C  C158  1  0.59700000  0.18550000  0.53510000  1.0 0.025527351
C  C159  1  0.73230000  0.65008000  0.64240000  1.0 -0.079517647
C  C160  1  0.29480000  0.34128000  0.86790000  1.0 -0.0887308054
C  C161  1  0.84170000  0.56821000  0.57520000  1.0 0.2459207573
C  C162  1  0.46670000  0.40009000  0.79590000  1.0 0.2322509485
C  C163  1  0.57300000  0.67050000  0.86040000  1.0 0.2322509485
C  C164  1  0.80580000  0.59183000  0.53120000  1.0 -0.1497389251
C  C165  1  0.54830000  0.37432000  0.82110000  1.0 -0.1624221075
C  C166  1  0.47350000  0.65743000  0.88430000  1.0 -0.1244607396
C  C167  1  0.76200000  0.62700000  0.55130000  1.0 0.1781553177
C  C168  1  0.49340000  0.34730000  0.84990000  1.0 0.1585213962
C  C169  1  0.45350000  0.68511000  0.91990000  1.0 0.1285356845
C  C170  1  0.89590000  0.52810000  0.57700000  1.0 -0.5002537639
C  C171  1  0.48050000  0.43460000  0.75940000  1.0 -0.5096487438
C  C172  1  0.62700000  0.65320000  0.81590000  1.0 -0.5096487438
C  C173  1  0.71390000  0.66350000  0.52350000  1.0 -0.5391096312
C  C174  1  0.53420000  0.31359000  0.88620000  1.0 -0.5002537639
C  C175  1  0.36620000  0.68730000  0.95410000  1.0 -0.5230542473
C  C176  1  0.81300000  0.58238000  0.47560000  1.0 0.1196288808
C  C177  1  0.66690000  0.37844000  0.81710000  1.0 0.1118000285
C  C178  1  0.59930000  0.37588000  0.62000000  1.0 0.0685486169
C  C179  1  0.41160000  0.62076000  0.86800000  1.0 0.0999706108
C  C180  1  0.90160000  0.56370000  0.45670000  1.0 -0.1497389251
C  C181  1  0.71480000  0.41603000  0.82740000  1.0 -0.1497389251
C  C182  1  0.58370000  0.41530000  0.60260000  1.0 -0.1788286246
C  C183  1  0.45730000  0.58156000  0.87090000  1.0 -0.1426961027
C  C184  1  0.90580000  0.55490000  0.40520000  1.0 -0.0992206372
C  C185  1  0.82510000  0.42182000  0.82200000  1.0 -0.0887308054
C  C186  1  0.64270000  0.44720000  0.62490000  1.0 -0.079517647
C  C187  1  0.40020000  0.54766000  0.85460000  1.0 -0.0992206372
C  C188  1  0.82200000  0.56642000  0.36990000  1.0 -0.0283433692
C  C189  1  0.88910000  0.38947000  0.80660000  1.0 -0.0393988482
C  C190  1  0.71970000  0.44041000  0.66450000  1.0 -0.0283433692
C  C191  1  0.29380000  0.55069000  0.83530000  1.0 -0.0393988482
C  C192  1  0.73190000  0.58490000  0.38820000  1.0 -0.1117014918
C  C193  1  0.84110000  0.35126000  0.79890000  1.0 -0.0992206372
C  C194  1  0.72880000  0.40110000  0.68340000  1.0 -0.079517647
C  C195  1  0.24270000  0.58891000  0.83370000  1.0 -0.0992206372
C  C196  1  0.72820000  0.59240000  0.44010000  1.0 -0.1497389251
C  C197  1  0.73110000  0.34546000  0.80390000  1.0 -0.1624221075
C  C198  1  0.66940000  0.36980000  0.66050000  1.0 -0.1788286246
C  C199  1  0.30390000  0.62320000  0.84960000  1.0 -0.1497389251
C  C200  1  0.83190000  0.55883000  0.31340000  1.0 0.5816847183
C  C201  1  0.00490000  0.39692000  0.79880000  1.0 0.5681843259
C  C202  1  0.78700000  0.47461000  0.68790000  1.0 0.5816847183
C  C203  1  0.23060000  0.51410000  0.81550000  1.0 0.5816847183
C  C204  1  0.56470000  0.58522000  0.70900000  1.0 0.2322509485
C  C205  1  0.17490000  0.42571000  0.92590000  1.0 0.2362911985
C  C206  1  0.48180000  0.61001000  0.68690000  1.0 -0.1690889619
C  C207  1  0.20660000  0.40489000  0.97160000  1.0 -0.1624221075
C  C208  1  0.53320000  0.64019000  0.65980000  1.0 0.1781553177
C  C209  1  0.26010000  0.37057000  0.95630000  1.0 0.1689162501
C  C210  1  0.55670000  0.54810000  0.74250000  1.0 -0.5002537639
C  C211  1  0.11280000  0.46552000  0.91940000  1.0 -0.4855660103
C  C212  1  0.48690000  0.67400000  0.62750000  1.0 -0.547199314
C  C213  1  0.31550000  0.33710000  0.98760000  1.0 -0.5391096312
C  C214  1  0.36590000  0.60484000  0.69210000  1.0 0.1196288808
C  C215  1  0.18930000  0.41724000  0.02500000  1.0 0.0999706108
C  C216  1  0.29970000  0.63790000  0.70490000  1.0 -0.1497389251
C  C217  1  0.17660000  0.39010000  0.06290000  1.0 -0.1244607396
C  C218  1  0.18900000  0.63160000  0.70940000  1.0 -0.0992206372
C  C219  1  0.15610000  0.40030000  0.11430000  1.0 -0.079517647
C  C220  1  0.14220000  0.59335000  0.70180000  1.0 -0.0500317007
C  C221  1  0.15740000  0.44067000  0.12742000  1.0 -0.0500317007
C  C222  1  0.20890000  0.56026000  0.68760000  1.0 -0.0887308054
C  C223  1  0.18140000  0.46980000  0.09150000  1.0 -0.1117014918
C  C224  1  0.31740000  0.56660000  0.68290000  1.0 -0.1497389251
C  C225  1  0.20170000  0.45910000  0.04100000  1.0 -0.1497389251
C  C226  1  0.02640000  0.58648000  0.70590000  1.0 0.5629100897
C  C227  1  0.14300000  0.45264000  0.18180000  1.0 0.5816847183
C  C228  1  0.57700000  0.33000000  0.53670000  1.0 -0.0127884366
C  C229  1  0.55130000  0.34170000  0.58450000  1.0 -0.0023263318
C  C230  1  0.47360000  0.31460000  0.60380000  1.0 0.0882549398
C  C231  1  0.65440000  0.34740000  0.50090000  1.0 -0.286233475
C  C232  1  0.42300000  0.31280000  0.65210000  1.0 -0.0283433692
C  C233  1  0.38100000  0.33830000  0.68990000  1.0 -0.2826280993
C  C234  1  0.42800000  0.32460000  0.63570000  1.0 0.0501466901
C  C235  1  0.52530000  0.33950000  0.61100000  1.0 -0.0127884366
C  C236  1  0.52330000  0.31410000  0.57650000  1.0 0.0815223065
C  C237  1  0.59700000  0.31450000  0.53510000  1.0 0.025527351
C  C238  1  0.26770000  0.15008000  0.35760000  1.0 -0.079517647
C  C239  1  0.70520000  0.84128000  0.13210000  1.0 -0.0887308054
C  C240  1  0.15830000  0.06821000  0.42480000  1.0 0.2459207573
C  C241  1  0.53330000  0.90009000  0.20410000  1.0 0.2322509485
C  C242  1  0.42700000  0.17050000  0.13960000  1.0 0.2322509485
C  C243  1  0.19420000  0.09183000  0.46880000  1.0 -0.1497389251
C  C244  1  0.45170000  0.87432000  0.17890000  1.0 -0.1624221075
C  C245  1  0.52650000  0.15743000  0.11570000  1.0 -0.1244607396
C  C246  1  0.23800000  0.12700000  0.44870000  1.0 0.1781553177
C  C247  1  0.50660000  0.84730000  0.15010000  1.0 0.1585213962
C  C248  1  0.54650000  0.18511000  0.08010000  1.0 0.1285356845
C  C249  1  0.10410000  0.02810000  0.42300000  1.0 -0.5002537639
C  C250  1  0.51950000  0.93460000  0.24060000  1.0 -0.5096487438
C  C251  1  0.37300000  0.15320000  0.18410000  1.0 -0.5096487438
C  C252  1  0.28610000  0.16350000  0.47650000  1.0 -0.5391096312
C  C253  1  0.46580000  0.81359000  0.11380000  1.0 -0.5096487438
C  C254  1  0.63380000  0.18730000  0.04590000  1.0 -0.5230542473
C  C255  1  0.18700000  0.08238000  0.52440000  1.0 0.1196288808
C  C256  1  0.33310000  0.87844000  0.18290000  1.0 0.1118000285
C  C257  1  0.40070000  0.87588000  0.38000000  1.0 0.0685486169
C  C258  1  0.58840000  0.12076000  0.13200000  1.0 0.0999706108
C  C259  1  0.09840000  0.06370000  0.54330000  1.0 -0.1497389251
C  C260  1  0.28520000  0.91603000  0.17260000  1.0 -0.1497389251
C  C261  1  0.41630000  0.91530000  0.39740000  1.0 -0.1788286246
C  C262  1  0.54270000  0.08156000  0.12910000  1.0 -0.1426961027
C  C263  1  0.09420000  0.05490000  0.59480000  1.0 -0.0992206372
C  C264  1  0.17490000  0.92182000  0.17800000  1.0 -0.0887308054
C  C265  1  0.35730000  0.94720000  0.37510000  1.0 -0.079517647
C  C266  1  0.59980000  0.04766000  0.14540000  1.0 -0.0992206372
C  C267  1  0.17800000  0.06642000  0.63010000  1.0 -0.0283433692
C  C268  1  0.11090000  0.88947000  0.19340000  1.0 -0.0393988482
C  C269  1  0.28030000  0.94041000  0.33550000  1.0 -0.0283433692
C  C270  1  0.70620000  0.05069000  0.16470000  1.0 -0.0393988482
C  C271  1  0.26810000  0.08490000  0.61180000  1.0 -0.1117014918
C  C272  1  0.15890000  0.85126000  0.20110000  1.0 -0.0992206372
C  C273  1  0.27120000  0.90110000  0.31660000  1.0 -0.079517647
C  C274  1  0.75730000  0.08891000  0.16630000  1.0 -0.0992206372
C  C275  1  0.27180000  0.09240000  0.55990000  1.0 -0.1497389251
C  C276  1  0.26890000  0.84546000  0.19610000  1.0 -0.1624221075
C  C277  1  0.33060000  0.86980000  0.33950000  1.0 -0.1788286246
C  C278  1  0.69610000  0.12320000  0.15040000  1.0 -0.1497389251
C  C279  1  0.16810000  0.05883000  0.68660000  1.0 0.5816847183
C  C280  1  0.99510000  0.89692000  0.20120000  1.0 0.5681843259
C  C281  1  0.21300000  0.97461000  0.31210000  1.0 0.5816847183
C  C282  1  0.76940000  0.01410000  0.18450000  1.0 0.5816847183
C  C283  1  0.43530000  0.08522000  0.29100000  1.0 0.2322509485
C  C284  1  0.82510000  0.92571000  0.07410000  1.0 0.2362911985
C  C285  1  0.51820000  0.11001000  0.31310000  1.0 -0.1690889619
C  C286  1  0.79340000  0.90489000  0.02840000  1.0 -0.1624221075
C  C287  1  0.46680000  0.14019000  0.34020000  1.0 0.1781553177
C  C288  1  0.73990000  0.87057000  0.04370000  1.0 0.1689162501
C  C289  1  0.44330000  0.04810000  0.25750000  1.0 -0.5002537639
C  C290  1  0.88720000  0.96552000  0.08060000  1.0 -0.4855660103
C  C291  1  0.51310000  0.17400000  0.37250000  1.0 -0.547199314
C  C292  1  0.68450000  0.83710000  0.01240000  1.0 -0.5391096312
C  C293  1  0.63410000  0.10484000  0.30790000  1.0 0.1196288808
C  C294  1  0.81070000  0.91724000  0.97500000  1.0 0.0999706108
C  C295  1  0.70030000  0.13790000  0.29510000  1.0 -0.1497389251
C  C296  1  0.82340000  0.89010000  0.93710000  1.0 -0.1244607396
C  C297  1  0.81100000  0.13160000  0.29060000  1.0 -0.0992206372
C  C298  1  0.84390000  0.90030000  0.88570000  1.0 -0.079517647
C  C299  1  0.85780000  0.09335000  0.29820000  1.0 -0.0500317007
C  C300  1  0.84260000  0.94067000  0.87258000  1.0 -0.0500317007
C  C301  1  0.79110000  0.06026000  0.31240000  1.0 -0.0887308054
C  C302  1  0.81860000  0.96980000  0.90850000  1.0 -0.1117014918
C  C303  1  0.68260000  0.06660000  0.31710000  1.0 -0.1497389251
C  C304  1  0.79830000  0.95910000  0.95900000  1.0 -0.1497389251
C  C305  1  0.97360000  0.08648000  0.29410000  1.0 0.5629100897
C  C306  1  0.85700000  0.95264000  0.81820000  1.0 0.5816847183
C  C307  1  0.42300000  0.83000000  0.46330000  1.0 -0.0127884366
C  C308  1  0.44870000  0.84170000  0.41550000  1.0 -0.0023263318
C  C309  1  0.52640000  0.81460000  0.39620000  1.0 0.0882549398
C  C310  1  0.34560000  0.84740000  0.49910000  1.0 -0.286233475
C  C311  1  0.57700000  0.81280000  0.34790000  1.0 -0.0283433692
C  C312  1  0.61900000  0.83830000  0.31010000  1.0 -0.2826280993
C  C313  1  0.57200000  0.82460000  0.36430000  1.0 0.0501466901
C  C314  1  0.47470000  0.83950000  0.38900000  1.0 -0.0153788566
C  C315  1  0.47670000  0.81410000  0.42350000  1.0 0.0815223065
C  C316  1  0.40300000  0.81450000  0.46490000  1.0 0.025527351
C  C317  1  0.44550000  0.25000000  0.04800000  1.0 -0.079517647
C  C318  1  0.07710000  0.25000000  0.05150000  1.0 0.2827535667
C  C319  1  0.96150000  0.25000000  0.03310000  1.0 -0.2113143034
C  C320  1  0.55450000  0.75000000  0.95200000  1.0 -0.079517647
C  C321  1  0.92290000  0.75000000  0.94850000  1.0 0.2827535667
C  C322  1  0.03850000  0.75000000  0.96690000  1.0 -0.2113143034
C  C323  1  0.27290000  0.75000000  0.59330000  1.0 0.2637245604
C  C324  1  0.20080000  0.75000000  0.64150000  1.0 -0.4434526465
C  C325  1  0.61100000  0.75000000  0.44100000  1.0 0.0418668375
C  C326  1  0.57700000  0.75000000  0.45400000  1.0 0.0685486169
C  C327  1  0.72710000  0.25000000  0.40670000  1.0 0.2637245604
C  C328  1  0.79920000  0.25000000  0.35850000  1.0 -0.4434526465
C  C329  1  0.38900000  0.25000000  0.55900000  1.0 0.0418668375
C  C330  1  0.42300000  0.25000000  0.54600000  1.0 0.0685486169
N  N1  1  0.23020000  0.37640000  0.39722000  1.0 0.0999706108
N  N2  1  0.61340000  0.64313000  0.15722000  1.0 0.0685486169
N  N3  1  0.46290000  0.28648000  0.07990000  1.0 0.0685486169
N  N4  1  0.18080000  0.41256000  0.38189000  1.0 -0.3084989986
N  N5  1  0.63060000  0.61116000  0.19077000  1.0 -0.2826280993
N  N6  1  0.39060000  0.29501000  0.11550000  1.0 -0.2826280993
N  N7  1  0.35890000  0.36723000  0.33322000  1.0 0.0882549398
N  N8  1  0.74460000  0.62890000  0.09589000  1.0 0.0882549398
N  N9  1  0.33790000  0.40107000  0.30311000  1.0 -0.3021824188
N  N10  1  0.79690000  0.59495000  0.11567000  1.0 -0.3084989986
N  N11  1  0.53800000  0.71590000  0.43670000  1.0 -0.1690889619
N  N12  1  0.47950000  0.70550000  0.47750000  1.0 -0.1244607396
N  N13  1  0.55700000  0.70950000  0.42770000  1.0 -0.1624221075
N  N14  1  0.61820000  0.70630000  0.38730000  1.0 -0.1624221075
N  N15  1  0.76980000  0.87640000  0.60278000  1.0 0.0999706108
N  N16  1  0.38660000  0.14313000  0.84278000  1.0 0.0685486169
N  N17  1  0.53710000  0.78648000  0.92010000  1.0 0.0685486169
N  N18  1  0.81920000  0.91256000  0.61811000  1.0 -0.3084989986
N  N19  1  0.36940000  0.11116000  0.80923000  1.0 -0.2826280993
N  N20  1  0.60940000  0.79501000  0.88450000  1.0 -0.2826280993
N  N21  1  0.64110000  0.86723000  0.66678000  1.0 0.0882549398
N  N22  1  0.25540000  0.12890000  0.90411000  1.0 0.0815223065
N  N23  1  0.66210000  0.90107000  0.69689000  1.0 -0.3021824188
N  N24  1  0.20310000  0.09495000  0.88433000  1.0 -0.3084989986
N  N25  1  0.46200000  0.21590000  0.56330000  1.0 -0.1690889619
N  N26  1  0.52050000  0.20550000  0.52250000  1.0 -0.1252147458
N  N27  1  0.44300000  0.20950000  0.57230000  1.0 -0.1624221075
N  N28  1  0.38180000  0.20630000  0.61270000  1.0 -0.1624221075
N  N29  1  0.76980000  0.62360000  0.60278000  1.0 0.0999706108
N  N30  1  0.38660000  0.35687000  0.84278000  1.0 0.0685486169
N  N31  1  0.53710000  0.71352000  0.92010000  1.0 0.0685486169
N  N32  1  0.81920000  0.58744000  0.61811000  1.0 -0.3084989986
N  N33  1  0.36940000  0.38884000  0.80923000  1.0 -0.2826280993
N  N34  1  0.60940000  0.70499000  0.88450000  1.0 -0.2826280993
N  N35  1  0.64110000  0.63277000  0.66678000  1.0 0.0882549398
N  N36  1  0.25540000  0.37110000  0.90411000  1.0 0.0882549398
N  N37  1  0.66210000  0.59893000  0.69689000  1.0 -0.3021824188
N  N38  1  0.20310000  0.40505000  0.88433000  1.0 -0.3084989986
N  N39  1  0.46200000  0.28410000  0.56330000  1.0 -0.1690889619
N  N40  1  0.52050000  0.29450000  0.52250000  1.0 -0.1252147458
N  N41  1  0.44300000  0.29050000  0.57230000  1.0 -0.1624221075
N  N42  1  0.38180000  0.29370000  0.61270000  1.0 -0.1624221075
N  N43  1  0.23020000  0.12360000  0.39722000  1.0 0.0999706108
N  N44  1  0.61340000  0.85687000  0.15722000  1.0 0.0685486169
N  N45  1  0.46290000  0.21352000  0.07990000  1.0 0.0685486169
N  N46  1  0.18080000  0.08744000  0.38189000  1.0 -0.3084989986
N  N47  1  0.63060000  0.88884000  0.19077000  1.0 -0.2826280993
N  N48  1  0.39060000  0.20499000  0.11550000  1.0 -0.2826280993
N  N49  1  0.35890000  0.13277000  0.33322000  1.0 0.0882549398
N  N50  1  0.74460000  0.87110000  0.09589000  1.0 0.0882549398
N  N51  1  0.33790000  0.09893000  0.30311000  1.0 -0.3021824188
N  N52  1  0.79690000  0.90505000  0.11567000  1.0 -0.3084989986
N  N53  1  0.53800000  0.78410000  0.43670000  1.0 -0.1690889619
N  N54  1  0.47950000  0.79450000  0.47750000  1.0 -0.1244607396
N  N55  1  0.55700000  0.79050000  0.42770000  1.0 -0.1690889619
N  N56  1  0.61820000  0.79370000  0.38730000  1.0 -0.1624221075
N  N57  1  0.16340000  0.25000000  0.06200000  1.0 -0.5002537639
N  N58  1  0.19800000  0.25000000  0.20400000  1.0 -0.2010726831
N  N59  1  0.83660000  0.75000000  0.93800000  1.0 -0.5002537639
N  N60  1  0.80200000  0.75000000  0.79600000  1.0 -0.2010726831
N  N61  1  0.34450000  0.75000000  0.57040000  1.0 -0.4203151367
N  N62  1  0.65550000  0.25000000  0.42960000  1.0 -0.4203151367
Cl  Cl1  1  0.28520000  0.25000000  0.22750000  1.0 0.1484984584
Cl  Cl2  1  0.71480000  0.75000000  0.77250000  1.0 0.1484984584
Cl  Cl3  1  0.64190000  0.75000000  0.58486000  1.0 -0.4842915736
Cl  Cl4  1  0.35810000  0.25000000  0.41514000  1.0 -0.4842915736
O  O1  1  0.10480000  0.46880000  0.69819000  1.0 -0.5584614974
O  O2  1  0.96080000  0.56582000  0.20222000  1.0 -0.5904582567
O  O3  1  0.24700000  0.48969000  0.31896000  1.0 -0.5391096312
O  O4  1  0.72190000  0.52036000  0.18195000  1.0 -0.547199314
O  O5  1  0.22370000  0.41865000  0.71815000  1.0 -0.5391096312
O  O6  1  0.93030000  0.63276000  0.20638000  1.0 -0.5584614974
O  O7  1  0.12480000  0.53599000  0.28870000  1.0 -0.5584614974
O  O8  1  0.86480000  0.48004000  0.20114000  1.0 -0.547199314
O  O9  1  0.01030000  0.45064000  0.29494000  1.0 -0.5904582567
O  O10  1  0.82040000  0.57111000  0.78301000  1.0 -0.5391096312
O  O11  1  0.03800000  0.38400000  0.29033000  1.0 -0.5391096312
O  O12  1  0.90460000  0.51469000  0.80988000  1.0 -0.5391096312
O  O13  1  0.89520000  0.96880000  0.30181000  1.0 -0.5584614974
O  O14  1  0.03920000  0.06582000  0.79778000  1.0 -0.5904582567
O  O15  1  0.75300000  0.98969000  0.68104000  1.0 -0.5391096312
O  O16  1  0.27810000  0.02036000  0.81805000  1.0 -0.547199314
O  O17  1  0.77630000  0.91865000  0.28185000  1.0 -0.5391096312
O  O18  1  0.06970000  0.13276000  0.79362000  1.0 -0.5584614974
O  O19  1  0.87520000  0.03599000  0.71130000  1.0 -0.5584614974
O  O20  1  0.13520000  0.98004000  0.79886000  1.0 -0.547199314
O  O21  1  0.98970000  0.95064000  0.70506000  1.0 -0.5904582567
O  O22  1  0.17960000  0.07111000  0.21699000  1.0 -0.5391096312
O  O23  1  0.96200000  0.88400000  0.70967000  1.0 -0.5391096312
O  O24  1  0.09540000  0.01469000  0.19012000  1.0 -0.5391096312
O  O25  1  0.89520000  0.53120000  0.30181000  1.0 -0.5584614974
O  O26  1  0.03920000  0.43418000  0.79778000  1.0 -0.5904582567
O  O27  1  0.75300000  0.51031000  0.68104000  1.0 -0.5391096312
O  O28  1  0.27810000  0.47964000  0.81805000  1.0 -0.547199314
O  O29  1  0.77630000  0.58135000  0.28185000  1.0 -0.5391096312
O  O30  1  0.06970000  0.36724000  0.79362000  1.0 -0.5584614974
O  O31  1  0.87520000  0.46401000  0.71130000  1.0 -0.5584614974
O  O32  1  0.13520000  0.51996000  0.79886000  1.0 -0.547199314
O  O33  1  0.98970000  0.54936000  0.70506000  1.0 -0.5904582567
O  O34  1  0.17960000  0.42889000  0.21699000  1.0 -0.5391096312
O  O35  1  0.96200000  0.61600000  0.70967000  1.0 -0.5391096312
O  O36  1  0.09540000  0.48531000  0.19012000  1.0 -0.5391096312
O  O37  1  0.10480000  0.03120000  0.69819000  1.0 -0.5584614974
O  O38  1  0.96080000  0.93418000  0.20222000  1.0 -0.5904582567
O  O39  1  0.24700000  0.01031000  0.31896000  1.0 -0.5391096312
O  O40  1  0.72190000  0.97964000  0.18195000  1.0 -0.547199314
O  O41  1  0.22370000  0.08135000  0.71815000  1.0 -0.5391096312
O  O42  1  0.93030000  0.86724000  0.20638000  1.0 -0.5584614974
O  O43  1  0.12480000  0.96401000  0.28870000  1.0 -0.5584614974
O  O44  1  0.86480000  0.01996000  0.20114000  1.0 -0.547199314
O  O45  1  0.01030000  0.04936000  0.29494000  1.0 -0.5904582567
O  O46  1  0.82040000  0.92889000  0.78301000  1.0 -0.5391096312
O  O47  1  0.03800000  0.11600000  0.29033000  1.0 -0.5391096312
O  O48  1  0.90460000  0.98531000  0.80988000  1.0 -0.5391096312
