# DDEC6 charges by PACMAN v1.1 (https://github.com/mtap-research/PACMAN-charge/)
data_EWUKOZ_ion_pacman
_symmetry_space_group_name_H-M   'P 1'
_cell_length_a   12.35600000
_cell_length_b   34.63900000
_cell_length_c   25.98500000
_cell_angle_alpha   90.00000000
_cell_angle_beta   96.94000000
_cell_angle_gamma   90.00000000
_symmetry_Int_Tables_number   1
_chemical_formula_structural   Mn3CuBH71C82N12(O3F)4
_chemical_formula_sum   'Mn12 Cu4 B4 H284 C328 N48 O48 F16'
_cell_volume   11040.08141651
_cell_formula_units_Z   4
loop_
 _symmetry_equiv_pos_site_id
 _symmetry_equiv_pos_as_xyz
  1  'x, y, z'
loop_
 _atom_site_type_symbol
 _atom_site_label
 _atom_site_symmetry_multiplicity
 _atom_site_fract_x
 _atom_site_fract_y
 _atom_site_fract_z
 _atom_site_occupancy
 _atom_site_charge
Mn  Mn1  1  0.32237000  0.56753000  0.19665000  1.0 0.8774964654
Mn  Mn2  1  0.53455000  0.50458000  0.25097000  1.0 1.072476744
Mn  Mn3  1  0.75613000  0.44484000  0.30588000  1.0 0.8851648563
Mn  Mn4  1  0.67763000  0.06753000  0.30335000  1.0 0.8774964654
Mn  Mn5  1  0.46545000  0.00458000  0.24903000  1.0 1.072476744
Mn  Mn6  1  0.24387000  0.94484000  0.19412000  1.0 0.8851648563
Mn  Mn7  1  0.67763000  0.43247000  0.80335000  1.0 0.8774964654
Mn  Mn8  1  0.46545000  0.49542000  0.74903000  1.0 1.072476744
Mn  Mn9  1  0.24387000  0.55516000  0.69412000  1.0 0.8851648563
Mn  Mn10  1  0.32237000  0.93247000  0.69665000  1.0 0.8774964654
Mn  Mn11  1  0.53455000  0.99542000  0.75097000  1.0 1.072476744
Mn  Mn12  1  0.75613000  0.05516000  0.80588000  1.0 0.8851648563
Cu  Cu1  1  0.80288000  0.26527000  0.17738000  1.0 0.3736669713
Cu  Cu2  1  0.19712000  0.76527000  0.32262000  1.0 0.3736669713
Cu  Cu3  1  0.19712000  0.73473000  0.82262000  1.0 0.3779588335
Cu  Cu4  1  0.80288000  0.23473000  0.67738000  1.0 0.3736669713
B  B1  1  0.87550000  0.24190000  0.93640000  1.0 1.0298271769
B  B2  1  0.12450000  0.74190000  0.56360000  1.0 1.0298271769
B  B3  1  0.12450000  0.75810000  0.06360000  1.0 1.0298271769
B  B4  1  0.87550000  0.25810000  0.43640000  1.0 1.0298271769
H  H1  1  0.78672000  0.36492000  0.35545000  1.0 0.1595353483
H  H2  1  0.86967000  0.34879000  0.40266000  1.0 0.1424643376
H  H3  1  0.78420000  0.32745000  0.88004000  1.0 0.1493557504
H  H4  1  0.70229000  0.34941000  0.83728000  1.0 0.1493557504
H  H5  1  0.93802000  0.26227000  0.04361000  1.0 0.1424643376
H  H6  1  0.82491000  0.26320000  0.06785000  1.0 0.1493557504
H  H7  1  0.57519000  0.48132000  0.43128000  1.0 0.1424643376
H  H8  1  0.68178000  0.50717000  0.44602000  1.0 0.1493557504
H  H9  1  0.64775000  0.49414000  0.38720000  1.0 0.1595353483
H  H10  1  0.54706000  0.46687000  0.95319000  1.0 0.1424643376
H  H11  1  0.65421000  0.48772000  0.93785000  1.0 0.1595353483
H  H12  1  0.56491000  0.47132000  0.89349000  1.0 0.1681341174
H  H13  1  0.96167000  0.37806000  0.22507000  1.0 0.1493557504
H  H14  1  0.92288000  0.33722000  0.24507000  1.0 0.1595353483
H  H15  1  0.83777000  0.36455000  0.21101000  1.0 0.1595353483
H  H16  1  0.94643000  0.37787000  0.50865000  1.0 0.1493557504
H  H17  1  0.83847000  0.37058000  0.53564000  1.0 0.1493557504
H  H18  1  0.85981000  0.34608000  0.48563000  1.0 0.1493557504
H  H19  1  0.87168000  0.33884000  0.97887000  1.0 0.1493557504
H  H20  1  0.78704000  0.34181000  0.02071000  1.0 0.1424643376
H  H21  1  0.75752000  0.31658000  0.96934000  1.0 0.1595353483
H  H22  1  0.04058000  0.31619000  0.02205000  1.0 0.1493557504
H  H23  1  0.12737000  0.34506000  0.05221000  1.0 0.1493557504
H  H24  1  0.13917000  0.29949000  0.06135000  1.0 0.1595353483
H  H25  1  0.87596000  0.44503000  0.56986000  1.0 0.1203948369
H  H26  1  0.85349000  0.40313000  0.05583000  1.0 0.1106467691
H  H27  1  0.18051000  0.36055000  0.21341000  1.0 0.1290162673
H  H28  1  0.82796000  0.44907000  0.65413000  1.0 0.1203948369
H  H29  1  0.85203000  0.42002000  0.14195000  1.0 0.1203948369
H  H30  1  0.29734000  0.41231000  0.23212000  1.0 0.1106467691
H  H31  1  0.51007000  0.45259000  0.59557000  1.0 0.1290162673
H  H32  1  0.54026000  0.45733000  0.10842000  1.0 0.1290162673
H  H33  1  0.15352000  0.46864000  0.10715000  1.0 0.1290162673
H  H34  1  0.55623000  0.44601000  0.51241000  1.0 0.1203948369
H  H35  1  0.53986000  0.43804000  0.02379000  1.0 0.1203948369
H  H36  1  0.04319000  0.41417000  0.08451000  1.0 0.1203948369
H  H37  1  0.02862000  0.48069000  0.28641000  1.0 0.1595353483
H  H38  1  0.08721000  0.45111000  0.25138000  1.0 0.1424643376
H  H39  1  0.95725000  0.45521000  0.24351000  1.0 0.1595353483
H  H40  1  0.94512000  0.47306000  0.80061000  1.0 0.1595353483
H  H41  1  0.01750000  0.45164000  0.76222000  1.0 0.1493557504
H  H42  1  0.88796000  0.45400000  0.74814000  1.0 0.1595353483
H  H43  1  0.92975000  0.14688000  0.22446000  1.0 0.1493557504
H  H44  1  0.81128000  0.16567000  0.21143000  1.0 0.1595353483
H  H45  1  0.90566000  0.18891000  0.24598000  1.0 0.1493557504
H  H46  1  0.06221000  0.32402000  0.39806000  1.0 0.1595353483
H  H47  1  0.17183000  0.34897000  0.40743000  1.0 0.1424643376
H  H48  1  0.07390000  0.35743000  0.44090000  1.0 0.1493557504
H  H49  1  0.97910000  0.30199000  0.86141000  1.0 0.1595353483
H  H50  1  0.08848000  0.32531000  0.88042000  1.0 0.1493557504
H  H51  1  0.98776000  0.32676000  0.91374000  1.0 0.1493557504
H  H52  1  0.14522000  0.21738000  0.06701000  1.0 0.1493557504
H  H53  1  0.10355000  0.17476000  0.05123000  1.0 0.1493557504
H  H54  1  0.03893000  0.21153000  0.02605000  1.0 0.1493557504
H  H55  1  0.22435000  0.46326000  0.34501000  1.0 0.1203948369
H  H56  1  0.14568000  0.44795000  0.84490000  1.0 0.1203948369
H  H57  1  0.22038000  0.16086000  0.16062000  1.0 0.1290162673
H  H58  1  0.40624000  0.47084000  0.33204000  1.0 0.1106467691
H  H59  1  0.32847000  0.45782000  0.83418000  1.0 0.1290162673
H  H60  1  0.30990000  0.10329000  0.18228000  1.0 0.1290162673
H  H61  1  0.43088000  0.35515000  0.31216000  1.0 0.1290162673
H  H62  1  0.34828000  0.34680000  0.78621000  1.0 0.1203948369
H  H63  1  0.02336000  0.04655000  0.15823000  1.0 0.1203948369
H  H64  1  0.24718000  0.34806000  0.32335000  1.0 0.1203948369
H  H65  1  0.16323000  0.33803000  0.79446000  1.0 0.1203948369
H  H66  1  0.93389000  0.10407000  0.14104000  1.0 0.1203948369
H  H67  1  0.65975000  0.29652000  0.18055000  1.0 0.1106467691
H  H68  1  0.66073000  0.22366000  0.18842000  1.0 0.1203948369
H  H69  1  0.76938000  0.21798000  0.28740000  1.0 0.1010846986
H  H70  1  0.56421000  0.30479000  0.31537000  1.0 0.1203948369
H  H71  1  0.70465000  0.33110000  0.26573000  1.0 0.1010846986
H  H72  1  0.21328000  0.86492000  0.14455000  1.0 0.1493557504
H  H73  1  0.13033000  0.84879000  0.09734000  1.0 0.1424643376
H  H74  1  0.21580000  0.82745000  0.61996000  1.0 0.1493557504
H  H75  1  0.29771000  0.84941000  0.66272000  1.0 0.1493557504
H  H76  1  0.06198000  0.76227000  0.45639000  1.0 0.1424643376
H  H77  1  0.17509000  0.76320000  0.43215000  1.0 0.1424643376
H  H78  1  0.42481000  0.98132000  0.06872000  1.0 0.1424643376
H  H79  1  0.31822000  0.00717000  0.05398000  1.0 0.1493557504
H  H80  1  0.35225000  0.99414000  0.11280000  1.0 0.1595353483
H  H81  1  0.45294000  0.96687000  0.54681000  1.0 0.1424643376
H  H82  1  0.34579000  0.98772000  0.56215000  1.0 0.1595353483
H  H83  1  0.43509000  0.97132000  0.60651000  1.0 0.1681341174
H  H84  1  0.03833000  0.87806000  0.27493000  1.0 0.1493557504
H  H85  1  0.07712000  0.83722000  0.25493000  1.0 0.1595353483
H  H86  1  0.16223000  0.86455000  0.28899000  1.0 0.1595353483
H  H87  1  0.05357000  0.87787000  0.99135000  1.0 0.1493557504
H  H88  1  0.16153000  0.87058000  0.96436000  1.0 0.1493557504
H  H89  1  0.14019000  0.84608000  0.01437000  1.0 0.1493557504
H  H90  1  0.12832000  0.83884000  0.52113000  1.0 0.1493557504
H  H91  1  0.21296000  0.84181000  0.47929000  1.0 0.1424643376
H  H92  1  0.24248000  0.81658000  0.53066000  1.0 0.1595353483
H  H93  1  0.95942000  0.81619000  0.47795000  1.0 0.1493557504
H  H94  1  0.87263000  0.84506000  0.44779000  1.0 0.1493557504
H  H95  1  0.86083000  0.79949000  0.43865000  1.0 0.1595353483
H  H96  1  0.12404000  0.94503000  0.93014000  1.0 0.1203948369
H  H97  1  0.14651000  0.90313000  0.44417000  1.0 0.1106467691
H  H98  1  0.81949000  0.86055000  0.28659000  1.0 0.1290162673
H  H99  1  0.17204000  0.94907000  0.84587000  1.0 0.1203948369
H  H100  1  0.14797000  0.92002000  0.35805000  1.0 0.1203948369
H  H101  1  0.70266000  0.91231000  0.26788000  1.0 0.1106467691
H  H102  1  0.48993000  0.95259000  0.90443000  1.0 0.1290162673
H  H103  1  0.45974000  0.95733000  0.39158000  1.0 0.1290162673
H  H104  1  0.84648000  0.96864000  0.39285000  1.0 0.1290162673
H  H105  1  0.44377000  0.94601000  0.98759000  1.0 0.1203948369
H  H106  1  0.46014000  0.93804000  0.47621000  1.0 0.1203948369
H  H107  1  0.95681000  0.91417000  0.41549000  1.0 0.1203948369
H  H108  1  0.97138000  0.98069000  0.21359000  1.0 0.1595353483
H  H109  1  0.91279000  0.95111000  0.24862000  1.0 0.1424643376
H  H110  1  0.04275000  0.95521000  0.25649000  1.0 0.1595353483
H  H111  1  0.05488000  0.97306000  0.69939000  1.0 0.1595353483
H  H112  1  0.98250000  0.95164000  0.73778000  1.0 0.1493557504
H  H113  1  0.11204000  0.95400000  0.75186000  1.0 0.1595353483
H  H114  1  0.07025000  0.64688000  0.27554000  1.0 0.1493557504
H  H115  1  0.18872000  0.66567000  0.28857000  1.0 0.1595353483
H  H116  1  0.09434000  0.68891000  0.25402000  1.0 0.1493557504
H  H117  1  0.93779000  0.82402000  0.10194000  1.0 0.1595353483
H  H118  1  0.82817000  0.84897000  0.09257000  1.0 0.1424643376
H  H119  1  0.92610000  0.85743000  0.05910000  1.0 0.1493557504
H  H120  1  0.02090000  0.80199000  0.63859000  1.0 0.1595353483
H  H121  1  0.91152000  0.82531000  0.61958000  1.0 0.1493557504
H  H122  1  0.01224000  0.82676000  0.58626000  1.0 0.1493557504
H  H123  1  0.85478000  0.71738000  0.43299000  1.0 0.1493557504
H  H124  1  0.89645000  0.67476000  0.44877000  1.0 0.1493557504
H  H125  1  0.96107000  0.71153000  0.47395000  1.0 0.1493557504
H  H126  1  0.77565000  0.96326000  0.15499000  1.0 0.1203948369
H  H127  1  0.85432000  0.94795000  0.65510000  1.0 0.1203948369
H  H128  1  0.77962000  0.66086000  0.33938000  1.0 0.1290162673
H  H129  1  0.59376000  0.97084000  0.16796000  1.0 0.1106467691
H  H130  1  0.67153000  0.95782000  0.66582000  1.0 0.1290162673
H  H131  1  0.69010000  0.60329000  0.31772000  1.0 0.1290162673
H  H132  1  0.56912000  0.85515000  0.18784000  1.0 0.1290162673
H  H133  1  0.65172000  0.84680000  0.71379000  1.0 0.1203948369
H  H134  1  0.97664000  0.54655000  0.34177000  1.0 0.1203948369
H  H135  1  0.75282000  0.84806000  0.17665000  1.0 0.1203948369
H  H136  1  0.83677000  0.83803000  0.70554000  1.0 0.1203948369
H  H137  1  0.06611000  0.60407000  0.35896000  1.0 0.1203948369
H  H138  1  0.34025000  0.79652000  0.31945000  1.0 0.1106467691
H  H139  1  0.33927000  0.72366000  0.31158000  1.0 0.1203948369
H  H140  1  0.23062000  0.71798000  0.21260000  1.0 0.1010846986
H  H141  1  0.43579000  0.80479000  0.18463000  1.0 0.1203948369
H  H142  1  0.29535000  0.83110000  0.23427000  1.0 0.1010846986
H  H143  1  0.21328000  0.63508000  0.64455000  1.0 0.1493557504
H  H144  1  0.13033000  0.65121000  0.59734000  1.0 0.1424643376
H  H145  1  0.21580000  0.67255000  0.11996000  1.0 0.1493557504
H  H146  1  0.29771000  0.65059000  0.16272000  1.0 0.1595353483
H  H147  1  0.06198000  0.73773000  0.95639000  1.0 0.1424643376
H  H148  1  0.17509000  0.73680000  0.93215000  1.0 0.1424643376
H  H149  1  0.42481000  0.51868000  0.56872000  1.0 0.1424643376
H  H150  1  0.31822000  0.49283000  0.55398000  1.0 0.1493557504
H  H151  1  0.35225000  0.50586000  0.61280000  1.0 0.1595353483
H  H152  1  0.45294000  0.53313000  0.04681000  1.0 0.1424643376
H  H153  1  0.34579000  0.51228000  0.06215000  1.0 0.1595353483
H  H154  1  0.43509000  0.52868000  0.10651000  1.0 0.1681341174
H  H155  1  0.03833000  0.62194000  0.77493000  1.0 0.1493557504
H  H156  1  0.07712000  0.66278000  0.75493000  1.0 0.1595353483
H  H157  1  0.16223000  0.63545000  0.78899000  1.0 0.1595353483
H  H158  1  0.05357000  0.62213000  0.49135000  1.0 0.1493557504
H  H159  1  0.16153000  0.62942000  0.46436000  1.0 0.1493557504
H  H160  1  0.14019000  0.65392000  0.51437000  1.0 0.1493557504
H  H161  1  0.12832000  0.66116000  0.02113000  1.0 0.1493557504
H  H162  1  0.21296000  0.65819000  0.97929000  1.0 0.1493557504
H  H163  1  0.24248000  0.68342000  0.03066000  1.0 0.1595353483
H  H164  1  0.95942000  0.68381000  0.97795000  1.0 0.1493557504
H  H165  1  0.87263000  0.65494000  0.94779000  1.0 0.1493557504
H  H166  1  0.86083000  0.70051000  0.93865000  1.0 0.1595353483
H  H167  1  0.12404000  0.55497000  0.43014000  1.0 0.1203948369
H  H168  1  0.14651000  0.59687000  0.94417000  1.0 0.1106467691
H  H169  1  0.81949000  0.63945000  0.78659000  1.0 0.1290162673
H  H170  1  0.17204000  0.55093000  0.34587000  1.0 0.1203948369
H  H171  1  0.14797000  0.57998000  0.85805000  1.0 0.1203948369
H  H172  1  0.70266000  0.58769000  0.76788000  1.0 0.1106467691
H  H173  1  0.48993000  0.54741000  0.40443000  1.0 0.1290162673
H  H174  1  0.45974000  0.54267000  0.89158000  1.0 0.1290162673
H  H175  1  0.84648000  0.53136000  0.89285000  1.0 0.1290162673
H  H176  1  0.44377000  0.55399000  0.48759000  1.0 0.1203948369
H  H177  1  0.46014000  0.56196000  0.97621000  1.0 0.1203948369
H  H178  1  0.95681000  0.58583000  0.91549000  1.0 0.1203948369
H  H179  1  0.97138000  0.51931000  0.71359000  1.0 0.1595353483
H  H180  1  0.91279000  0.54889000  0.74862000  1.0 0.1424643376
H  H181  1  0.04275000  0.54479000  0.75649000  1.0 0.1595353483
H  H182  1  0.05488000  0.52694000  0.19939000  1.0 0.1595353483
H  H183  1  0.98250000  0.54836000  0.23778000  1.0 0.1493557504
H  H184  1  0.11204000  0.54600000  0.25186000  1.0 0.1595353483
H  H185  1  0.07025000  0.85312000  0.77554000  1.0 0.1493557504
H  H186  1  0.18872000  0.83433000  0.78857000  1.0 0.1595353483
H  H187  1  0.09434000  0.81109000  0.75402000  1.0 0.1493557504
H  H188  1  0.93779000  0.67598000  0.60194000  1.0 0.1595353483
H  H189  1  0.82817000  0.65103000  0.59257000  1.0 0.1424643376
H  H190  1  0.92610000  0.64257000  0.55910000  1.0 0.1493557504
H  H191  1  0.02090000  0.69801000  0.13859000  1.0 0.1595353483
H  H192  1  0.91152000  0.67469000  0.11958000  1.0 0.1493557504
H  H193  1  0.01224000  0.67324000  0.08626000  1.0 0.1493557504
H  H194  1  0.85478000  0.78262000  0.93299000  1.0 0.1493557504
H  H195  1  0.89645000  0.82524000  0.94877000  1.0 0.1493557504
H  H196  1  0.96107000  0.78847000  0.97395000  1.0 0.1493557504
H  H197  1  0.77565000  0.53674000  0.65499000  1.0 0.1203948369
H  H198  1  0.85432000  0.55205000  0.15510000  1.0 0.1203948369
H  H199  1  0.77962000  0.83914000  0.83938000  1.0 0.1290162673
H  H200  1  0.59376000  0.52916000  0.66796000  1.0 0.1106467691
H  H201  1  0.67153000  0.54218000  0.16582000  1.0 0.1290162673
H  H202  1  0.69010000  0.89671000  0.81772000  1.0 0.1290162673
H  H203  1  0.56912000  0.64485000  0.68784000  1.0 0.1290162673
H  H204  1  0.65172000  0.65320000  0.21379000  1.0 0.1203948369
H  H205  1  0.97664000  0.95345000  0.84177000  1.0 0.1203948369
H  H206  1  0.75282000  0.65194000  0.67665000  1.0 0.1203948369
H  H207  1  0.83677000  0.66197000  0.20554000  1.0 0.1203948369
H  H208  1  0.06611000  0.89593000  0.85896000  1.0 0.1203948369
H  H209  1  0.34025000  0.70348000  0.81945000  1.0 0.1106467691
H  H210  1  0.33927000  0.77634000  0.81158000  1.0 0.1203948369
H  H211  1  0.23062000  0.78202000  0.71260000  1.0 0.1010846986
H  H212  1  0.43579000  0.69521000  0.68463000  1.0 0.1203948369
H  H213  1  0.29535000  0.66890000  0.73427000  1.0 0.1010846986
H  H214  1  0.78672000  0.13508000  0.85545000  1.0 0.1493557504
H  H215  1  0.86967000  0.15121000  0.90266000  1.0 0.1424643376
H  H216  1  0.78420000  0.17255000  0.38004000  1.0 0.1493557504
H  H217  1  0.70229000  0.15059000  0.33728000  1.0 0.1493557504
H  H218  1  0.93802000  0.23773000  0.54361000  1.0 0.1424643376
H  H219  1  0.82491000  0.23680000  0.56785000  1.0 0.1424643376
H  H220  1  0.57519000  0.01868000  0.93128000  1.0 0.1424643376
H  H221  1  0.68178000  0.99283000  0.94602000  1.0 0.1493557504
H  H222  1  0.64775000  0.00586000  0.88720000  1.0 0.1595353483
H  H223  1  0.54706000  0.03313000  0.45319000  1.0 0.1424643376
H  H224  1  0.65421000  0.01228000  0.43785000  1.0 0.1595353483
H  H225  1  0.56491000  0.02868000  0.39349000  1.0 0.1681341174
H  H226  1  0.96167000  0.12194000  0.72507000  1.0 0.1493557504
H  H227  1  0.92288000  0.16278000  0.74507000  1.0 0.1595353483
H  H228  1  0.83777000  0.13545000  0.71101000  1.0 0.1595353483
H  H229  1  0.94643000  0.12213000  0.00865000  1.0 0.1493557504
H  H230  1  0.83847000  0.12942000  0.03564000  1.0 0.1493557504
H  H231  1  0.85981000  0.15392000  0.98563000  1.0 0.1493557504
H  H232  1  0.87168000  0.16116000  0.47887000  1.0 0.1493557504
H  H233  1  0.78704000  0.15819000  0.52071000  1.0 0.1493557504
H  H234  1  0.75752000  0.18342000  0.46934000  1.0 0.1595353483
H  H235  1  0.04058000  0.18381000  0.52205000  1.0 0.1493557504
H  H236  1  0.12737000  0.15494000  0.55221000  1.0 0.1493557504
H  H237  1  0.13917000  0.20051000  0.56135000  1.0 0.1595353483
H  H238  1  0.87596000  0.05497000  0.06986000  1.0 0.1203948369
H  H239  1  0.85349000  0.09687000  0.55583000  1.0 0.1106467691
H  H240  1  0.18051000  0.13945000  0.71341000  1.0 0.1290162673
H  H241  1  0.82796000  0.05093000  0.15413000  1.0 0.1203948369
H  H242  1  0.85203000  0.07998000  0.64195000  1.0 0.1203948369
H  H243  1  0.29734000  0.08769000  0.73212000  1.0 0.1106467691
H  H244  1  0.51007000  0.04741000  0.09557000  1.0 0.1290162673
H  H245  1  0.54026000  0.04267000  0.60842000  1.0 0.1290162673
H  H246  1  0.15352000  0.03136000  0.60715000  1.0 0.1290162673
H  H247  1  0.55623000  0.05399000  0.01241000  1.0 0.1203948369
H  H248  1  0.53986000  0.06196000  0.52379000  1.0 0.1203948369
H  H249  1  0.04319000  0.08583000  0.58451000  1.0 0.1203948369
H  H250  1  0.02862000  0.01931000  0.78641000  1.0 0.1595353483
H  H251  1  0.08721000  0.04889000  0.75138000  1.0 0.1424643376
H  H252  1  0.95725000  0.04479000  0.74351000  1.0 0.1595353483
H  H253  1  0.94512000  0.02694000  0.30061000  1.0 0.1595353483
H  H254  1  0.01750000  0.04836000  0.26222000  1.0 0.1493557504
H  H255  1  0.88796000  0.04600000  0.24814000  1.0 0.1595353483
H  H256  1  0.92975000  0.35312000  0.72446000  1.0 0.1493557504
H  H257  1  0.81128000  0.33433000  0.71143000  1.0 0.1595353483
H  H258  1  0.90566000  0.31109000  0.74598000  1.0 0.1493557504
H  H259  1  0.06221000  0.17598000  0.89806000  1.0 0.1595353483
H  H260  1  0.17183000  0.15103000  0.90743000  1.0 0.1424643376
H  H261  1  0.07390000  0.14257000  0.94090000  1.0 0.1493557504
H  H262  1  0.97910000  0.19801000  0.36141000  1.0 0.1595353483
H  H263  1  0.08848000  0.17469000  0.38042000  1.0 0.1595353483
H  H264  1  0.98776000  0.17324000  0.41374000  1.0 0.1493557504
H  H265  1  0.14522000  0.28262000  0.56701000  1.0 0.1493557504
H  H266  1  0.10355000  0.32524000  0.55123000  1.0 0.1493557504
H  H267  1  0.03893000  0.28847000  0.52605000  1.0 0.1493557504
H  H268  1  0.22435000  0.03674000  0.84501000  1.0 0.1203948369
H  H269  1  0.14568000  0.05205000  0.34490000  1.0 0.1203948369
H  H270  1  0.22038000  0.33914000  0.66062000  1.0 0.1290162673
H  H271  1  0.40624000  0.02916000  0.83204000  1.0 0.1106467691
H  H272  1  0.32847000  0.04218000  0.33418000  1.0 0.1290162673
H  H273  1  0.30990000  0.39671000  0.68228000  1.0 0.1290162673
H  H274  1  0.43088000  0.14485000  0.81216000  1.0 0.1290162673
H  H275  1  0.34828000  0.15320000  0.28621000  1.0 0.1290162673
H  H276  1  0.02336000  0.45345000  0.65823000  1.0 0.1203948369
H  H277  1  0.24718000  0.15194000  0.82335000  1.0 0.1203948369
H  H278  1  0.16323000  0.16197000  0.29446000  1.0 0.1203948369
H  H279  1  0.93389000  0.39593000  0.64104000  1.0 0.1203948369
H  H280  1  0.65975000  0.20348000  0.68055000  1.0 0.1106467691
H  H281  1  0.66073000  0.27634000  0.68842000  1.0 0.1203948369
H  H282  1  0.76938000  0.28202000  0.78740000  1.0 0.1010846986
H  H283  1  0.56421000  0.19521000  0.81537000  1.0 0.1203948369
H  H284  1  0.70465000  0.16890000  0.76573000  1.0 0.1010846986
C  C1  1  0.84740000  0.37216000  0.38216000  1.0 -0.0713141783
C  C2  1  0.76410000  0.35305000  0.86486000  1.0 -0.0713141783
C  C3  1  0.90520000  0.26304000  0.07650000  1.0 -0.0713141783
C  C4  1  0.71600000  0.45102000  0.43293000  1.0 0.2322273872
C  C5  1  0.65850000  0.42954000  0.93078000  1.0 0.2482306951
C  C6  1  0.94210000  0.33740000  0.16900000  1.0 0.2322273872
C  C7  1  0.74900000  0.43236000  0.48035000  1.0 -0.1777613775
C  C8  1  0.69920000  0.40737000  0.97556000  1.0 -0.1777613775
C  C9  1  0.02320000  0.34980000  0.13803000  1.0 -0.1777613775
C  C10  1  0.81050000  0.40105000  0.46852000  1.0 0.1785067172
C  C11  1  0.74330000  0.37462000  0.95619000  1.0 0.1785067172
C  C12  1  0.01950000  0.32352000  0.09747000  1.0 0.1785067172
C  C13  1  0.64960000  0.48639000  0.42357000  1.0 -0.4794169559
C  C14  1  0.60140000  0.46701000  0.92865000  1.0 -0.4794169559
C  C15  1  0.91380000  0.35584000  0.21650000  1.0 -0.509205044
C  C16  1  0.86870000  0.37137000  0.50249000  1.0 -0.5011915372
C  C17  1  0.79430000  0.33998000  0.98365000  1.0 -0.509205044
C  C18  1  0.08730000  0.32084000  0.05468000  1.0 -0.4911854955
C  C19  1  0.72130000  0.44174000  0.53256000  1.0 0.1106467691
C  C20  1  0.69740000  0.41849000  0.03028000  1.0 0.1106467691
C  C21  1  0.09830000  0.38256000  0.14782000  1.0 0.1106467691
C  C22  1  0.80120000  0.44495000  0.57513000  1.0 -0.1491228029
C  C23  1  0.78910000  0.41382000  0.06664000  1.0 -0.1491228029
C  C24  1  0.17500000  0.38241000  0.19120000  1.0 -0.1420036486
C  C25  1  0.77280000  0.44805000  0.62534000  1.0 -0.1089505672
C  C26  1  0.78910000  0.42427000  0.11778000  1.0 -0.1006615786
C  C27  1  0.24360000  0.41335000  0.20274000  1.0 -0.0925111618
C  C28  1  0.66380000  0.44962000  0.63312000  1.0 -0.0205554531
C  C29  1  0.69570000  0.44124000  0.13411000  1.0 -0.0205554531
C  C30  1  0.23460000  0.44635000  0.17136000  1.0 -0.0295116141
C  C31  1  0.58450000  0.44976000  0.59048000  1.0 -0.1006615786
C  C32  1  0.60410000  0.44602000  0.09788000  1.0 -0.1089505672
C  C33  1  0.16040000  0.44642000  0.12875000  1.0 -0.1006615786
C  C34  1  0.61180000  0.44589000  0.54106000  1.0 -0.1420036486
C  C35  1  0.60400000  0.43480000  0.04753000  1.0 -0.1420036486
C  C36  1  0.09250000  0.41406000  0.11550000  1.0 -0.1587328386
C  C37  1  0.63210000  0.45177000  0.68747000  1.0 0.5695460085
C  C38  1  0.69120000  0.45359000  0.18897000  1.0 0.5814713233
C  C39  1  0.30300000  0.48118000  0.18765000  1.0 0.5814713233
C  C40  1  0.01420000  0.42452000  0.30815000  1.0 0.2322273872
C  C41  1  0.93570000  0.41464000  0.80418000  1.0 0.2322273872
C  C42  1  0.92420000  0.18893000  0.16850000  1.0 0.2395414964
C  C43  1  0.09710000  0.40245000  0.33552000  1.0 -0.1855170435
C  C44  1  0.01690000  0.38812000  0.82404000  1.0 -0.1777613775
C  C45  1  0.00670000  0.17491000  0.13839000  1.0 -0.1654764979
C  C46  1  0.04560000  0.37805000  0.36702000  1.0 0.1785067172
C  C47  1  0.96440000  0.36022000  0.84827000  1.0 0.1785067172
C  C48  1  0.01160000  0.20145000  0.10044000  1.0 0.1681341174
C  C49  1  0.02250000  0.45554000  0.26901000  1.0 -0.4911854955
C  C50  1  0.94760000  0.45144000  0.77644000  1.0 -0.4911854955
C  C51  1  0.88970000  0.17103000  0.21680000  1.0 -0.5011915372
C  C52  1  0.09240000  0.34969000  0.40675000  1.0 -0.4911854955
C  C53  1  0.00880000  0.32555000  0.87860000  1.0 -0.5011915372
C  C54  1  0.08070000  0.20126000  0.05754000  1.0 -0.4911854955
C  C55  1  0.21520000  0.40536000  0.33270000  1.0 0.1106467691
C  C56  1  0.13630000  0.39214000  0.82058000  1.0 0.1106467691
C  C57  1  0.06760000  0.13865000  0.14854000  1.0 0.1106467691
C  C58  1  0.26540000  0.44133000  0.33706000  1.0 -0.1420036486
C  C59  1  0.18650000  0.42748000  0.83239000  1.0 -0.1491228029
C  C60  1  0.17960000  0.13762000  0.16080000  1.0 -0.1491228029
C  C61  1  0.37430000  0.44586000  0.33004000  1.0 -0.0925111618
C  C62  1  0.29560000  0.43342000  0.82622000  1.0 -0.0925111618
C  C63  1  0.23300000  0.10321000  0.17342000  1.0 -0.0925111618
C  C64  1  0.43680000  0.41380000  0.32006000  1.0 -0.0295116141
C  C65  1  0.35580000  0.40369000  0.80846000  1.0 -0.0295116141
C  C66  1  0.17660000  0.06853000  0.17337000  1.0 -0.0295116141
C  C67  1  0.38860000  0.37728000  0.31802000  1.0 -0.1006615786
C  C68  1  0.30670000  0.36757000  0.79740000  1.0 -0.1006615786
C  C69  1  0.06410000  0.06987000  0.15981000  1.0 -0.1006615786
C  C70  1  0.27890000  0.37306000  0.32450000  1.0 -0.1587328386
C  C71  1  0.19680000  0.36225000  0.80288000  1.0 -0.1491228029
C  C72  1  0.01100000  0.10401000  0.14875000  1.0 -0.1491228029
C  C73  1  0.55130000  0.41990000  0.30953000  1.0 0.5695460085
C  C74  1  0.47190000  0.41055000  0.79988000  1.0 0.5695460085
C  C75  1  0.23320000  0.03170000  0.18938000  1.0 0.5814713233
C  C76  1  0.67290000  0.28260000  0.21220000  1.0 -0.1587328386
C  C77  1  0.67830000  0.24310000  0.21380000  1.0 -0.1587328386
C  C78  1  0.72640000  0.24150000  0.27570000  1.0 -0.0713141783
C  C79  1  0.63440000  0.25120000  0.30500000  1.0 0.0388674692
C  C80  1  0.61570000  0.28980000  0.29970000  1.0 -0.1491228029
C  C81  1  0.68980000  0.30270000  0.26580000  1.0 -0.0295116141
C  C82  1  0.77690000  0.27840000  0.29050000  1.0 -0.0713141783
C  C83  1  0.15260000  0.87216000  0.11784000  1.0 -0.0713141783
C  C84  1  0.23590000  0.85305000  0.63514000  1.0 -0.0713141783
C  C85  1  0.09480000  0.76304000  0.42350000  1.0 -0.0713141783
C  C86  1  0.28400000  0.95102000  0.06707000  1.0 0.2322273872
C  C87  1  0.34150000  0.92954000  0.56922000  1.0 0.2482306951
C  C88  1  0.05790000  0.83740000  0.33100000  1.0 0.2322273872
C  C89  1  0.25100000  0.93236000  0.01965000  1.0 -0.1777613775
C  C90  1  0.30080000  0.90737000  0.52444000  1.0 -0.1777613775
C  C91  1  0.97680000  0.84980000  0.36197000  1.0 -0.1777613775
C  C92  1  0.18950000  0.90105000  0.03148000  1.0 0.1785067172
C  C93  1  0.25670000  0.87462000  0.54381000  1.0 0.1785067172
C  C94  1  0.98050000  0.82352000  0.40253000  1.0 0.1785067172
C  C95  1  0.35040000  0.98639000  0.07643000  1.0 -0.4794169559
C  C96  1  0.39860000  0.96701000  0.57135000  1.0 -0.4794169559
C  C97  1  0.08620000  0.85584000  0.28350000  1.0 -0.509205044
C  C98  1  0.13130000  0.87137000  0.99751000  1.0 -0.5011915372
C  C99  1  0.20570000  0.83998000  0.51635000  1.0 -0.509205044
C  C100  1  0.91270000  0.82084000  0.44532000  1.0 -0.4911854955
C  C101  1  0.27870000  0.94174000  0.96744000  1.0 0.1106467691
C  C102  1  0.30260000  0.91849000  0.46972000  1.0 0.1106467691
C  C103  1  0.90170000  0.88256000  0.35218000  1.0 0.1106467691
C  C104  1  0.19880000  0.94495000  0.92487000  1.0 -0.1491228029
C  C105  1  0.21090000  0.91382000  0.43336000  1.0 -0.1491228029
C  C106  1  0.82500000  0.88241000  0.30880000  1.0 -0.1420036486
C  C107  1  0.22720000  0.94805000  0.87466000  1.0 -0.1089505672
C  C108  1  0.21090000  0.92427000  0.38222000  1.0 -0.1006615786
C  C109  1  0.75640000  0.91335000  0.29726000  1.0 -0.0925111618
C  C110  1  0.33620000  0.94962000  0.86688000  1.0 -0.0205554531
C  C111  1  0.30430000  0.94124000  0.36589000  1.0 -0.0205554531
C  C112  1  0.76540000  0.94635000  0.32864000  1.0 -0.0295116141
C  C113  1  0.41550000  0.94976000  0.90952000  1.0 -0.1006615786
C  C114  1  0.39590000  0.94602000  0.40212000  1.0 -0.1089505672
C  C115  1  0.83960000  0.94642000  0.37125000  1.0 -0.1006615786
C  C116  1  0.38820000  0.94589000  0.95894000  1.0 -0.1420036486
C  C117  1  0.39600000  0.93480000  0.45247000  1.0 -0.1420036486
C  C118  1  0.90750000  0.91406000  0.38450000  1.0 -0.1587328386
C  C119  1  0.36790000  0.95177000  0.81253000  1.0 0.5695460085
C  C120  1  0.30880000  0.95359000  0.31103000  1.0 0.5814713233
C  C121  1  0.69700000  0.98118000  0.31235000  1.0 0.5814713233
C  C122  1  0.98580000  0.92452000  0.19185000  1.0 0.2322273872
C  C123  1  0.06430000  0.91464000  0.69582000  1.0 0.2322273872
C  C124  1  0.07580000  0.68893000  0.33150000  1.0 0.2395414964
C  C125  1  0.90290000  0.90245000  0.16448000  1.0 -0.1855170435
C  C126  1  0.98310000  0.88812000  0.67596000  1.0 -0.1777613775
C  C127  1  0.99330000  0.67491000  0.36161000  1.0 -0.1654764979
C  C128  1  0.95440000  0.87805000  0.13298000  1.0 0.1785067172
C  C129  1  0.03560000  0.86022000  0.65173000  1.0 0.1681341174
C  C130  1  0.98840000  0.70145000  0.39956000  1.0 0.1681341174
C  C131  1  0.97750000  0.95554000  0.23099000  1.0 -0.4911854955
C  C132  1  0.05240000  0.95144000  0.72356000  1.0 -0.4911854955
C  C133  1  0.11030000  0.67103000  0.28320000  1.0 -0.5011915372
C  C134  1  0.90760000  0.84969000  0.09325000  1.0 -0.4911854955
C  C135  1  0.99120000  0.82555000  0.62140000  1.0 -0.5011915372
C  C136  1  0.91930000  0.70126000  0.44246000  1.0 -0.4911854955
C  C137  1  0.78480000  0.90536000  0.16730000  1.0 0.1106467691
C  C138  1  0.86370000  0.89214000  0.67942000  1.0 0.1106467691
C  C139  1  0.93240000  0.63865000  0.35146000  1.0 0.1106467691
C  C140  1  0.73460000  0.94133000  0.16294000  1.0 -0.1420036486
C  C141  1  0.81350000  0.92748000  0.66761000  1.0 -0.1491228029
C  C142  1  0.82040000  0.63762000  0.33920000  1.0 -0.1491228029
C  C143  1  0.62570000  0.94586000  0.16996000  1.0 -0.0925111618
C  C144  1  0.70440000  0.93342000  0.67378000  1.0 -0.0925111618
C  C145  1  0.76700000  0.60321000  0.32658000  1.0 -0.0925111618
C  C146  1  0.56320000  0.91380000  0.17994000  1.0 -0.0295116141
C  C147  1  0.64420000  0.90369000  0.69154000  1.0 -0.0295116141
C  C148  1  0.82340000  0.56853000  0.32663000  1.0 -0.0295116141
C  C149  1  0.61140000  0.87728000  0.18198000  1.0 -0.1006615786
C  C150  1  0.69330000  0.86757000  0.70260000  1.0 -0.1006615786
C  C151  1  0.93590000  0.56987000  0.34019000  1.0 -0.1006615786
C  C152  1  0.72110000  0.87306000  0.17550000  1.0 -0.1587328386
C  C153  1  0.80320000  0.86225000  0.69712000  1.0 -0.1491228029
C  C154  1  0.98900000  0.60401000  0.35125000  1.0 -0.1491228029
C  C155  1  0.44870000  0.91990000  0.19047000  1.0 0.5695460085
C  C156  1  0.52810000  0.91055000  0.70012000  1.0 0.5695460085
C  C157  1  0.76680000  0.53170000  0.31062000  1.0 0.5814713233
C  C158  1  0.32710000  0.78260000  0.28780000  1.0 -0.1587328386
C  C159  1  0.32170000  0.74310000  0.28620000  1.0 -0.1587328386
C  C160  1  0.27360000  0.74150000  0.22430000  1.0 -0.0713141783
C  C161  1  0.36560000  0.75120000  0.19500000  1.0 0.0388674692
C  C162  1  0.38430000  0.78980000  0.20030000  1.0 -0.1491228029
C  C163  1  0.31020000  0.80270000  0.23420000  1.0 -0.0295116141
C  C164  1  0.22310000  0.77840000  0.20950000  1.0 -0.0713141783
C  C165  1  0.15260000  0.62784000  0.61784000  1.0 -0.0713141783
C  C166  1  0.23590000  0.64695000  0.13514000  1.0 -0.0713141783
C  C167  1  0.09480000  0.73696000  0.92350000  1.0 -0.0713141783
C  C168  1  0.28400000  0.54898000  0.56707000  1.0 0.2322273872
C  C169  1  0.34150000  0.57046000  0.06922000  1.0 0.2482306951
C  C170  1  0.05790000  0.66260000  0.83100000  1.0 0.2322273872
C  C171  1  0.25100000  0.56764000  0.51965000  1.0 -0.1777613775
C  C172  1  0.30080000  0.59263000  0.02444000  1.0 -0.1777613775
C  C173  1  0.97680000  0.65020000  0.86197000  1.0 -0.1777613775
C  C174  1  0.18950000  0.59895000  0.53148000  1.0 0.1785067172
C  C175  1  0.25670000  0.62538000  0.04381000  1.0 0.1785067172
C  C176  1  0.98050000  0.67648000  0.90253000  1.0 0.1785067172
C  C177  1  0.35040000  0.51361000  0.57643000  1.0 -0.4794169559
C  C178  1  0.39860000  0.53299000  0.07135000  1.0 -0.4794169559
C  C179  1  0.08620000  0.64416000  0.78350000  1.0 -0.509205044
C  C180  1  0.13130000  0.62863000  0.49751000  1.0 -0.5011915372
C  C181  1  0.20570000  0.66002000  0.01635000  1.0 -0.509205044
C  C182  1  0.91270000  0.67916000  0.94532000  1.0 -0.4911854955
C  C183  1  0.27870000  0.55826000  0.46744000  1.0 0.1106467691
C  C184  1  0.30260000  0.58151000  0.96972000  1.0 0.1106467691
C  C185  1  0.90170000  0.61744000  0.85218000  1.0 0.1106467691
C  C186  1  0.19880000  0.55505000  0.42487000  1.0 -0.1491228029
C  C187  1  0.21090000  0.58618000  0.93336000  1.0 -0.1491228029
C  C188  1  0.82500000  0.61759000  0.80880000  1.0 -0.1420036486
C  C189  1  0.22720000  0.55195000  0.37466000  1.0 -0.1089505672
C  C190  1  0.21090000  0.57573000  0.88222000  1.0 -0.1006615786
C  C191  1  0.75640000  0.58665000  0.79726000  1.0 -0.0925111618
C  C192  1  0.33620000  0.55038000  0.36688000  1.0 -0.0205554531
C  C193  1  0.30430000  0.55876000  0.86589000  1.0 -0.0205554531
C  C194  1  0.76540000  0.55365000  0.82864000  1.0 -0.0295116141
C  C195  1  0.41550000  0.55024000  0.40952000  1.0 -0.1006615786
C  C196  1  0.39590000  0.55398000  0.90212000  1.0 -0.1089505672
C  C197  1  0.83960000  0.55358000  0.87125000  1.0 -0.1006615786
C  C198  1  0.38820000  0.55411000  0.45894000  1.0 -0.1420036486
C  C199  1  0.39600000  0.56520000  0.95247000  1.0 -0.1420036486
C  C200  1  0.90750000  0.58594000  0.88450000  1.0 -0.1587328386
C  C201  1  0.36790000  0.54823000  0.31253000  1.0 0.5695460085
C  C202  1  0.30880000  0.54641000  0.81103000  1.0 0.5814713233
C  C203  1  0.69700000  0.51882000  0.81235000  1.0 0.5814713233
C  C204  1  0.98580000  0.57548000  0.69185000  1.0 0.2322273872
C  C205  1  0.06430000  0.58536000  0.19582000  1.0 0.2322273872
C  C206  1  0.07580000  0.81107000  0.83150000  1.0 0.2395414964
C  C207  1  0.90290000  0.59755000  0.66448000  1.0 -0.1855170435
C  C208  1  0.98310000  0.61188000  0.17596000  1.0 -0.1777613775
C  C209  1  0.99330000  0.82509000  0.86161000  1.0 -0.1654764979
C  C210  1  0.95440000  0.62195000  0.63298000  1.0 0.1785067172
C  C211  1  0.03560000  0.63978000  0.15173000  1.0 0.1785067172
C  C212  1  0.98840000  0.79855000  0.89956000  1.0 0.1681341174
C  C213  1  0.97750000  0.54446000  0.73099000  1.0 -0.4911854955
C  C214  1  0.05240000  0.54856000  0.22356000  1.0 -0.4911854955
C  C215  1  0.11030000  0.82897000  0.78320000  1.0 -0.5011915372
C  C216  1  0.90760000  0.65031000  0.59325000  1.0 -0.4911854955
C  C217  1  0.99120000  0.67445000  0.12140000  1.0 -0.5011915372
C  C218  1  0.91930000  0.79874000  0.94246000  1.0 -0.4911854955
C  C219  1  0.78480000  0.59464000  0.66730000  1.0 0.1106467691
C  C220  1  0.86370000  0.60786000  0.17942000  1.0 0.1106467691
C  C221  1  0.93240000  0.86135000  0.85146000  1.0 0.1106467691
C  C222  1  0.73460000  0.55867000  0.66294000  1.0 -0.1420036486
C  C223  1  0.81350000  0.57252000  0.16761000  1.0 -0.1491228029
C  C224  1  0.82040000  0.86238000  0.83920000  1.0 -0.1491228029
C  C225  1  0.62570000  0.55414000  0.66996000  1.0 -0.0925111618
C  C226  1  0.70440000  0.56658000  0.17378000  1.0 -0.0925111618
C  C227  1  0.76700000  0.89679000  0.82658000  1.0 -0.0925111618
C  C228  1  0.56320000  0.58620000  0.67994000  1.0 -0.0295116141
C  C229  1  0.64420000  0.59631000  0.19154000  1.0 -0.0295116141
C  C230  1  0.82340000  0.93147000  0.82663000  1.0 -0.0295116141
C  C231  1  0.61140000  0.62272000  0.68198000  1.0 -0.1006615786
C  C232  1  0.69330000  0.63243000  0.20260000  1.0 -0.1006615786
C  C233  1  0.93590000  0.93013000  0.84019000  1.0 -0.1006615786
C  C234  1  0.72110000  0.62694000  0.67550000  1.0 -0.1587328386
C  C235  1  0.80320000  0.63775000  0.19712000  1.0 -0.1491228029
C  C236  1  0.98900000  0.89599000  0.85125000  1.0 -0.1491228029
C  C237  1  0.44870000  0.58010000  0.69047000  1.0 0.5695460085
C  C238  1  0.52810000  0.58945000  0.20012000  1.0 0.5695460085
C  C239  1  0.76680000  0.96830000  0.81062000  1.0 0.5814713233
C  C240  1  0.32710000  0.71740000  0.78780000  1.0 -0.1587328386
C  C241  1  0.32170000  0.75690000  0.78620000  1.0 -0.1587328386
C  C242  1  0.27360000  0.75850000  0.72430000  1.0 -0.0713141783
C  C243  1  0.36560000  0.74880000  0.69500000  1.0 0.0388674692
C  C244  1  0.38430000  0.71020000  0.70030000  1.0 -0.1491228029
C  C245  1  0.31020000  0.69730000  0.73420000  1.0 -0.0295116141
C  C246  1  0.22310000  0.72160000  0.70950000  1.0 -0.0713141783
C  C247  1  0.84740000  0.12784000  0.88216000  1.0 -0.0713141783
C  C248  1  0.76410000  0.14695000  0.36486000  1.0 -0.0713141783
C  C249  1  0.90520000  0.23696000  0.57650000  1.0 -0.0713141783
C  C250  1  0.71600000  0.04898000  0.93293000  1.0 0.2322273872
C  C251  1  0.65850000  0.07046000  0.43078000  1.0 0.2482306951
C  C252  1  0.94210000  0.16260000  0.66900000  1.0 0.2322273872
C  C253  1  0.74900000  0.06764000  0.98035000  1.0 -0.1777613775
C  C254  1  0.69920000  0.09263000  0.47556000  1.0 -0.1777613775
C  C255  1  0.02320000  0.15020000  0.63803000  1.0 -0.1777613775
C  C256  1  0.81050000  0.09895000  0.96852000  1.0 0.1785067172
C  C257  1  0.74330000  0.12538000  0.45619000  1.0 0.1785067172
C  C258  1  0.01950000  0.17648000  0.59747000  1.0 0.1785067172
C  C259  1  0.64960000  0.01361000  0.92357000  1.0 -0.4794169559
C  C260  1  0.60140000  0.03299000  0.42865000  1.0 -0.4794169559
C  C261  1  0.91380000  0.14416000  0.71650000  1.0 -0.509205044
C  C262  1  0.86870000  0.12863000  0.00249000  1.0 -0.5011915372
C  C263  1  0.79430000  0.16002000  0.48365000  1.0 -0.509205044
C  C264  1  0.08730000  0.17916000  0.55468000  1.0 -0.4911854955
C  C265  1  0.72130000  0.05826000  0.03256000  1.0 0.1106467691
C  C266  1  0.69740000  0.08151000  0.53028000  1.0 0.1106467691
C  C267  1  0.09830000  0.11744000  0.64782000  1.0 0.1106467691
C  C268  1  0.80120000  0.05505000  0.07513000  1.0 -0.1491228029
C  C269  1  0.78910000  0.08618000  0.56664000  1.0 -0.1491228029
C  C270  1  0.17500000  0.11759000  0.69120000  1.0 -0.1420036486
C  C271  1  0.77280000  0.05195000  0.12534000  1.0 -0.1089505672
C  C272  1  0.78910000  0.07573000  0.61778000  1.0 -0.1006615786
C  C273  1  0.24360000  0.08665000  0.70274000  1.0 -0.0925111618
C  C274  1  0.66380000  0.05038000  0.13312000  1.0 -0.0205554531
C  C275  1  0.69570000  0.05876000  0.63411000  1.0 -0.0205554531
C  C276  1  0.23460000  0.05365000  0.67136000  1.0 -0.0295116141
C  C277  1  0.58450000  0.05024000  0.09048000  1.0 -0.1006615786
C  C278  1  0.60410000  0.05398000  0.59788000  1.0 -0.1089505672
C  C279  1  0.16040000  0.05358000  0.62875000  1.0 -0.1006615786
C  C280  1  0.61180000  0.05411000  0.04106000  1.0 -0.1420036486
C  C281  1  0.60400000  0.06520000  0.54753000  1.0 -0.1420036486
C  C282  1  0.09250000  0.08594000  0.61550000  1.0 -0.1587328386
C  C283  1  0.63210000  0.04823000  0.18747000  1.0 0.5695460085
C  C284  1  0.69120000  0.04641000  0.68897000  1.0 0.5814713233
C  C285  1  0.30300000  0.01882000  0.68765000  1.0 0.5814713233
C  C286  1  0.01420000  0.07548000  0.80815000  1.0 0.2322273872
C  C287  1  0.93570000  0.08536000  0.30418000  1.0 0.2322273872
C  C288  1  0.92420000  0.31107000  0.66850000  1.0 0.2395414964
C  C289  1  0.09710000  0.09755000  0.83552000  1.0 -0.1855170435
C  C290  1  0.01690000  0.11188000  0.32404000  1.0 -0.1777613775
C  C291  1  0.00670000  0.32509000  0.63839000  1.0 -0.1654764979
C  C292  1  0.04560000  0.12195000  0.86702000  1.0 0.1785067172
C  C293  1  0.96440000  0.13978000  0.34827000  1.0 0.1785067172
C  C294  1  0.01160000  0.29855000  0.60044000  1.0 0.1681341174
C  C295  1  0.02250000  0.04446000  0.76901000  1.0 -0.4911854955
C  C296  1  0.94760000  0.04856000  0.27644000  1.0 -0.4911854955
C  C297  1  0.88970000  0.32897000  0.71680000  1.0 -0.5011915372
C  C298  1  0.09240000  0.15031000  0.90675000  1.0 -0.4911854955
C  C299  1  0.00880000  0.17445000  0.37860000  1.0 -0.5011915372
C  C300  1  0.08070000  0.29874000  0.55754000  1.0 -0.4911854955
C  C301  1  0.21520000  0.09464000  0.83270000  1.0 0.1106467691
C  C302  1  0.13630000  0.10786000  0.32058000  1.0 0.1106467691
C  C303  1  0.06760000  0.36135000  0.64854000  1.0 0.1106467691
C  C304  1  0.26540000  0.05867000  0.83706000  1.0 -0.1420036486
C  C305  1  0.18650000  0.07252000  0.33239000  1.0 -0.1491228029
C  C306  1  0.17960000  0.36238000  0.66080000  1.0 -0.1491228029
C  C307  1  0.37430000  0.05414000  0.83004000  1.0 -0.0925111618
C  C308  1  0.29560000  0.06658000  0.32622000  1.0 -0.0925111618
C  C309  1  0.23300000  0.39679000  0.67342000  1.0 -0.0925111618
C  C310  1  0.43680000  0.08620000  0.82006000  1.0 -0.0295116141
C  C311  1  0.35580000  0.09631000  0.30846000  1.0 -0.0295116141
C  C312  1  0.17660000  0.43147000  0.67337000  1.0 -0.0295116141
C  C313  1  0.38860000  0.12272000  0.81802000  1.0 -0.1006615786
C  C314  1  0.30670000  0.13243000  0.29740000  1.0 -0.1006615786
C  C315  1  0.06410000  0.43013000  0.65981000  1.0 -0.1006615786
C  C316  1  0.27890000  0.12694000  0.82450000  1.0 -0.1587328386
C  C317  1  0.19680000  0.13775000  0.30288000  1.0 -0.1491228029
C  C318  1  0.01100000  0.39599000  0.64875000  1.0 -0.1491228029
C  C319  1  0.55130000  0.08010000  0.80953000  1.0 0.5695460085
C  C320  1  0.47190000  0.08945000  0.29988000  1.0 0.5695460085
C  C321  1  0.23320000  0.46830000  0.68938000  1.0 0.5814713233
C  C322  1  0.67290000  0.21740000  0.71220000  1.0 -0.1587328386
C  C323  1  0.67830000  0.25690000  0.71380000  1.0 -0.1587328386
C  C324  1  0.72640000  0.25850000  0.77570000  1.0 -0.0713141783
C  C325  1  0.63440000  0.24880000  0.80500000  1.0 0.0388674692
C  C326  1  0.61570000  0.21020000  0.79970000  1.0 -0.1491228029
C  C327  1  0.68980000  0.19730000  0.76580000  1.0 -0.0295116141
C  C328  1  0.77690000  0.22160000  0.79050000  1.0 -0.0713141783
N  N1  1  0.80950000  0.40133000  0.41616000  1.0 0.1010846986
N  N2  1  0.73090000  0.37787000  0.90430000  1.0 0.0791647304
N  N3  1  0.93880000  0.29785000  0.10416000  1.0 0.0551393175
N  N4  1  0.75260000  0.43158000  0.39367000  1.0 -0.28953128
N  N5  1  0.67860000  0.41144000  0.88835000  1.0 -0.3013034469
N  N6  1  0.89110000  0.30665000  0.14799000  1.0 -0.2823121107
N  N7  1  0.93790000  0.38578000  0.35713000  1.0 0.0791647304
N  N8  1  0.85700000  0.36926000  0.84225000  1.0 0.0791647304
N  N9  1  0.93700000  0.22925000  0.10625000  1.0 0.0740988993
N  N10  1  0.91640000  0.41425000  0.32088000  1.0 -0.28953128
N  N11  1  0.83880000  0.40243000  0.81462000  1.0 -0.28953128
N  N12  1  0.88380000  0.22183000  0.14870000  1.0 -0.28953128
N  N13  1  0.19050000  0.90133000  0.08384000  1.0 0.1010846986
N  N14  1  0.26910000  0.87787000  0.59570000  1.0 0.0791647304
N  N15  1  0.06120000  0.79785000  0.39584000  1.0 0.0551393175
N  N16  1  0.24740000  0.93158000  0.10633000  1.0 -0.28953128
N  N17  1  0.32140000  0.91144000  0.61165000  1.0 -0.3013034469
N  N18  1  0.10890000  0.80665000  0.35201000  1.0 -0.2823121107
N  N19  1  0.06210000  0.88578000  0.14287000  1.0 0.0791647304
N  N20  1  0.14300000  0.86926000  0.65775000  1.0 0.0791647304
N  N21  1  0.06300000  0.72925000  0.39375000  1.0 0.0740988993
N  N22  1  0.08360000  0.91425000  0.17912000  1.0 -0.28953128
N  N23  1  0.16120000  0.90243000  0.68538000  1.0 -0.28953128
N  N24  1  0.11620000  0.72183000  0.35130000  1.0 -0.28953128
N  N25  1  0.19050000  0.59867000  0.58384000  1.0 0.1010846986
N  N26  1  0.26910000  0.62213000  0.09570000  1.0 0.0791647304
N  N27  1  0.06120000  0.70215000  0.89584000  1.0 0.0551393175
N  N28  1  0.24740000  0.56842000  0.60633000  1.0 -0.28953128
N  N29  1  0.32140000  0.58856000  0.11165000  1.0 -0.3013034469
N  N30  1  0.10890000  0.69335000  0.85201000  1.0 -0.2823121107
N  N31  1  0.06210000  0.61422000  0.64287000  1.0 0.0791647304
N  N32  1  0.14300000  0.63074000  0.15775000  1.0 0.0791647304
N  N33  1  0.06300000  0.77075000  0.89375000  1.0 0.0740988993
N  N34  1  0.08360000  0.58575000  0.67912000  1.0 -0.28953128
N  N35  1  0.16120000  0.59757000  0.18538000  1.0 -0.28953128
N  N36  1  0.11620000  0.77817000  0.85130000  1.0 -0.28953128
N  N37  1  0.80950000  0.09867000  0.91616000  1.0 0.1010846986
N  N38  1  0.73090000  0.12213000  0.40430000  1.0 0.0791647304
N  N39  1  0.93880000  0.20215000  0.60416000  1.0 0.0551393175
N  N40  1  0.75260000  0.06842000  0.89367000  1.0 -0.28953128
N  N41  1  0.67860000  0.08856000  0.38835000  1.0 -0.3013034469
N  N42  1  0.89110000  0.19335000  0.64799000  1.0 -0.2823121107
N  N43  1  0.93790000  0.11422000  0.85713000  1.0 0.0791647304
N  N44  1  0.85700000  0.13074000  0.34225000  1.0 0.0791647304
N  N45  1  0.93700000  0.27075000  0.60625000  1.0 0.0740988993
N  N46  1  0.91640000  0.08575000  0.82088000  1.0 -0.28953128
N  N47  1  0.83880000  0.09757000  0.31462000  1.0 -0.28953128
N  N48  1  0.88380000  0.27817000  0.64870000  1.0 -0.28953128
O  O1  1  0.54270000  0.46641000  0.69149000  1.0 -0.5318487939
O  O2  1  0.75810000  0.43852000  0.22436000  1.0 -0.5478955029
O  O3  1  0.38920000  0.47608000  0.21715000  1.0 -0.5478955029
O  O4  1  0.69740000  0.43851000  0.72373000  1.0 -0.539747954
O  O5  1  0.62050000  0.47764000  0.19590000  1.0 -0.5478955029
O  O6  1  0.26560000  0.51305000  0.17053000  1.0 -0.5318487939
O  O7  1  0.58264000  0.45450000  0.30322000  1.0 -0.57724917
O  O8  1  0.50550000  0.44572000  0.80220000  1.0 -0.57724917
O  O9  1  0.32770000  0.03449000  0.21101000  1.0 -0.539747954
O  O10  1  0.61559000  0.39181000  0.30813000  1.0 -0.5478955029
O  O11  1  0.53519000  0.38337000  0.79321000  1.0 -0.5318487939
O  O12  1  0.18050000  0.00042000  0.18059000  1.0 -0.539747954
O  O13  1  0.45730000  0.96641000  0.80851000  1.0 -0.5318487939
O  O14  1  0.24190000  0.93852000  0.27564000  1.0 -0.5478955029
O  O15  1  0.61080000  0.97608000  0.28285000  1.0 -0.5478955029
O  O16  1  0.30260000  0.93851000  0.77627000  1.0 -0.539747954
O  O17  1  0.37950000  0.97764000  0.30410000  1.0 -0.5478955029
O  O18  1  0.73440000  0.01305000  0.32947000  1.0 -0.5318487939
O  O19  1  0.41736000  0.95450000  0.19678000  1.0 -0.57724917
O  O20  1  0.49450000  0.94572000  0.69780000  1.0 -0.5852299935
O  O21  1  0.67230000  0.53449000  0.28899000  1.0 -0.539747954
O  O22  1  0.38441000  0.89181000  0.19187000  1.0 -0.5478955029
O  O23  1  0.46481000  0.88337000  0.70679000  1.0 -0.5318487939
O  O24  1  0.81950000  0.50042000  0.31941000  1.0 -0.539747954
O  O25  1  0.45730000  0.53359000  0.30851000  1.0 -0.5318487939
O  O26  1  0.24190000  0.56148000  0.77564000  1.0 -0.5478955029
O  O27  1  0.61080000  0.52392000  0.78285000  1.0 -0.5478955029
O  O28  1  0.30260000  0.56149000  0.27627000  1.0 -0.539747954
O  O29  1  0.37950000  0.52236000  0.80410000  1.0 -0.5478955029
O  O30  1  0.73440000  0.48695000  0.82947000  1.0 -0.5318487939
O  O31  1  0.41736000  0.54550000  0.69678000  1.0 -0.57724917
O  O32  1  0.49450000  0.55428000  0.19780000  1.0 -0.5852299935
O  O33  1  0.67230000  0.96551000  0.78899000  1.0 -0.539747954
O  O34  1  0.38441000  0.60819000  0.69187000  1.0 -0.5478955029
O  O35  1  0.46481000  0.61663000  0.20679000  1.0 -0.5318487939
O  O36  1  0.81950000  0.99958000  0.81941000  1.0 -0.539747954
O  O37  1  0.54270000  0.03359000  0.19149000  1.0 -0.5318487939
O  O38  1  0.75810000  0.06148000  0.72436000  1.0 -0.5478955029
O  O39  1  0.38920000  0.02392000  0.71715000  1.0 -0.5478955029
O  O40  1  0.69740000  0.06149000  0.22373000  1.0 -0.539747954
O  O41  1  0.62050000  0.02236000  0.69590000  1.0 -0.5478955029
O  O42  1  0.26560000  0.98695000  0.67053000  1.0 -0.5318487939
O  O43  1  0.58264000  0.04550000  0.80322000  1.0 -0.57724917
O  O44  1  0.50550000  0.05428000  0.30220000  1.0 -0.5852299935
O  O45  1  0.32770000  0.46551000  0.71101000  1.0 -0.539747954
O  O46  1  0.61559000  0.10819000  0.80813000  1.0 -0.5478955029
O  O47  1  0.53519000  0.11663000  0.29321000  1.0 -0.5318487939
O  O48  1  0.18050000  0.49958000  0.68059000  1.0 -0.539747954
F  F1  1  0.81710000  0.22480000  0.97230000  1.0 -0.4911854955
F  F2  1  0.91190000  0.21515000  0.90480000  1.0 -0.471075908
F  F3  1  0.96190000  0.26250000  0.96153000  1.0 -0.4911854955
F  F4  1  0.80680000  0.26596000  0.90711000  1.0 -0.4599801756
F  F5  1  0.18290000  0.72480000  0.52770000  1.0 -0.4911854955
F  F6  1  0.08810000  0.71515000  0.59520000  1.0 -0.471075908
F  F7  1  0.03810000  0.76250000  0.53847000  1.0 -0.4911854955
F  F8  1  0.19320000  0.76596000  0.59289000  1.0 -0.4599801756
F  F9  1  0.18290000  0.77520000  0.02770000  1.0 -0.4911854955
F  F10  1  0.08810000  0.78485000  0.09520000  1.0 -0.471075908
F  F11  1  0.03810000  0.73750000  0.03847000  1.0 -0.4911854955
F  F12  1  0.19320000  0.73404000  0.09289000  1.0 -0.4599801756
F  F13  1  0.81710000  0.27520000  0.47230000  1.0 -0.4911854955
F  F14  1  0.91190000  0.28485000  0.40480000  1.0 -0.471075908
F  F15  1  0.96190000  0.23750000  0.46153000  1.0 -0.4911854955
F  F16  1  0.80680000  0.23404000  0.40711000  1.0 -0.4599801756
