# DDEC6 charges by PACMAN v1.1 (https://github.com/mtap-research/PACMAN-charge/)
data_EWULEQ_ion_pacman
_symmetry_space_group_name_H-M   'P 1'
_cell_length_a   12.39500000
_cell_length_b   25.85300000
_cell_length_c   35.41400000
_cell_angle_alpha   87.98000000
_cell_angle_beta   88.86000000
_cell_angle_gamma   81.34000000
_symmetry_Int_Tables_number   1
_chemical_formula_structural   Mn6Cu2H132C153S2N24(O11F2)3
_chemical_formula_sum   'Mn12 Cu4 H264 C306 S4 N48 O66 F12'
_cell_volume   11210.76957284
_cell_formula_units_Z   2
loop_
 _symmetry_equiv_pos_site_id
 _symmetry_equiv_pos_as_xyz
  1  'x, y, z'
loop_
 _atom_site_type_symbol
 _atom_site_label
 _atom_site_symmetry_multiplicity
 _atom_site_fract_x
 _atom_site_fract_y
 _atom_site_fract_z
 _atom_site_occupancy
 _atom_site_charge
Mn  Mn1  1  0.69345000  0.69501000  0.55982000  1.0 0.8603923929
Mn  Mn2  1  0.48758000  0.75256000  0.49690000  1.0 1.0914580387
Mn  Mn3  1  0.26971000  0.80791000  0.43803000  1.0 0.8603923929
Mn  Mn4  1  0.25718000  0.80870000  0.07028000  1.0 0.8781855863
Mn  Mn5  1  0.48763000  0.75386000  0.01516000  1.0 1.0733608764
Mn  Mn6  1  0.70140000  0.69420000  0.95610000  1.0 0.8704960805
Mn  Mn7  1  0.30655000  0.30499000  0.44018000  1.0 0.8603923929
Mn  Mn8  1  0.51242000  0.24744000  0.50310000  1.0 1.0914580387
Mn  Mn9  1  0.73029000  0.19209000  0.56197000  1.0 0.8603923929
Mn  Mn10  1  0.74282000  0.19130000  0.92972000  1.0 0.8781855863
Mn  Mn11  1  0.51237000  0.24614000  0.98484000  1.0 1.0733608764
Mn  Mn12  1  0.29860000  0.30580000  0.04390000  1.0 0.8704960805
Cu  Cu1  1  0.84371000  0.80804000  0.75612000  1.0 0.1491884498
Cu  Cu2  1  0.19250000  0.68394000  0.25431000  1.0 0.6308289927
Cu  Cu3  1  0.15629000  0.19196000  0.24388000  1.0 0.1590695468
Cu  Cu4  1  0.80750000  0.31606000  0.74569000  1.0 0.6223593515
H  H1  1  0.76067000  0.14482000  0.64302000  1.0 0.1590695468
H  H2  1  0.84247000  0.09777000  0.65968000  1.0 0.1398547054
H  H3  1  0.18303000  0.57343000  0.25660000  1.0 0.1398547054
H  H4  1  0.07623000  0.54787000  0.25898000  1.0 0.1398547054
H  H5  1  0.19771000  0.38340000  0.33745000  1.0 0.1398547054
H  H6  1  0.27776000  0.33993000  0.35898000  1.0 0.1491884498
H  H7  1  0.98176000  0.94235000  0.75206000  1.0 0.1398547054
H  H8  1  0.86484000  0.92608000  0.75371000  1.0 0.1491884498
H  H9  1  0.17716000  0.37428000  0.14761000  1.0 0.1287976914
H  H10  1  0.26051000  0.33250000  0.12667000  1.0 0.1491884498
H  H11  1  0.78174000  0.14147000  0.85360000  1.0 0.1590695468
H  H12  1  0.86262000  0.09415000  0.83800000  1.0 0.1398547054
H  H13  1  0.56121000  0.09607000  0.53072000  1.0 0.1590695468
H  H14  1  0.62630000  0.04494000  0.51415000  1.0 0.1398547054
H  H15  1  0.67078000  0.09835000  0.50829000  1.0 0.1590695468
H  H16  1  0.17254000  0.72553000  0.33669000  1.0 0.1590695468
H  H17  1  0.08477000  0.72498000  0.36913000  1.0 0.1491884498
H  H18  1  0.05223000  0.75259000  0.33001000  1.0 0.1590695468
H  H19  1  0.36714000  0.39769000  0.48441000  1.0 0.1590695468
H  H20  1  0.37588000  0.45759000  0.48280000  1.0 0.1398547054
H  H21  1  0.46733000  0.41763000  0.46408000  1.0 0.1590695468
H  H22  1  0.82908000  0.78882000  0.65669000  1.0 0.1590695468
H  H23  1  0.91182000  0.75051000  0.68124000  1.0 0.1491884498
H  H24  1  0.94505000  0.76761000  0.64025000  1.0 0.1398547054
H  H25  1  0.46562000  0.43234000  0.02431000  1.0 0.1491884498
H  H26  1  0.36678000  0.46497000  0.00310000  1.0 0.1491884498
H  H27  1  0.38389000  0.40366000  0.00271000  1.0 0.1720064041
H  H28  1  0.67281000  0.10449000  0.98770000  1.0 0.1590695468
H  H29  1  0.65519000  0.04571000  0.99127000  1.0 0.1398547054
H  H30  1  0.57185000  0.08654000  0.96883000  1.0 0.1491884498
H  H31  1  0.89873000  0.99318000  0.64534000  1.0 0.1398547054
H  H32  1  0.79866000  0.96278000  0.64392000  1.0 0.1398547054
H  H33  1  0.79346000  0.01134000  0.66955000  1.0 0.1491884498
H  H34  1  0.94449000  0.53454000  0.29816000  1.0 0.1398547054
H  H35  1  0.84541000  0.57561000  0.31088000  1.0 0.1491884498
H  H36  1  0.91737000  0.54171000  0.34126000  1.0 0.1491884498
H  H37  1  0.25199000  0.48277000  0.32478000  1.0 0.1491884498
H  H38  1  0.19248000  0.52605000  0.35102000  1.0 0.1287976914
H  H39  1  0.13376000  0.47917000  0.34012000  1.0 0.1491884498
H  H40  1  0.15971000  0.92452000  0.71132000  1.0 0.1491884498
H  H41  1  0.06584000  0.96487000  0.69349000  1.0 0.1590695468
H  H42  1  0.14994000  0.93103000  0.66729000  1.0 0.1590695468
H  H43  1  0.08696000  0.48017000  0.13438000  1.0 0.1491884498
H  H44  1  0.17602000  0.51684000  0.13758000  1.0 0.1491884498
H  H45  1  0.18723000  0.46354000  0.16074000  1.0 0.1491884498
H  H46  1  0.86855000  0.01145000  0.83923000  1.0 0.1491884498
H  H47  1  0.81146000  0.96654000  0.85783000  1.0 0.1491884498
H  H48  1  0.92681000  0.97516000  0.87146000  1.0 0.1491884498
H  H49  1  0.84270000  0.92847000  0.58248000  1.0 0.1191352862
H  H50  1  0.82006000  0.70738000  0.35475000  1.0 0.1191352862
H  H51  1  0.46744000  0.51658000  0.44122000  1.0 0.1191352862
H  H52  1  0.24951000  0.82956000  0.64587000  1.0 0.1287976914
H  H53  1  0.44425000  0.52105000  0.05239000  1.0 0.1191352862
H  H54  1  0.87594000  0.92860000  0.93435000  1.0 0.108995515
H  H55  1  0.80866000  0.84654000  0.56861000  1.0 0.1287976914
H  H56  1  0.68438000  0.70905000  0.40359000  1.0 0.1287976914
H  H57  1  0.48256000  0.60225000  0.45491000  1.0 0.1287976914
H  H58  1  0.32853000  0.81840000  0.59019000  1.0 0.1287976914
H  H59  1  0.45985000  0.60864000  0.04919000  1.0 0.1398547054
H  H60  1  0.83616000  0.84522000  0.95308000  1.0 0.1191352862
H  H61  1  0.50519000  0.90751000  0.54351000  1.0 0.1398547054
H  H62  1  0.90431000  0.62762000  0.46701000  1.0 0.1287976914
H  H63  1  0.17883000  0.64898000  0.41702000  1.0 0.1191352862
H  H64  1  0.03883000  0.84398000  0.53821000  1.0 0.1191352862
H  H65  1  0.15019000  0.64692000  0.07579000  1.0 0.1287976914
H  H66  1  0.51766000  0.90670000  0.96225000  1.0 0.1398547054
H  H67  1  0.54088000  0.98842000  0.55810000  1.0 0.1287976914
H  H68  1  0.01475000  0.60783000  0.41297000  1.0 0.108995515
H  H69  1  0.16805000  0.56437000  0.40057000  1.0 0.108995515
H  H70  1  0.95164000  0.85480000  0.59748000  1.0 0.108995515
H  H71  1  0.12789000  0.56051000  0.07435000  1.0 0.1191352862
H  H72  1  0.56126000  0.98654000  0.94697000  1.0 0.1191352862
H  H73  1  0.99775000  0.21168000  0.52731000  1.0 0.1590695468
H  H74  1  0.05669000  0.24517000  0.55408000  1.0 0.1491884498
H  H75  1  0.92953000  0.25662000  0.55008000  1.0 0.1590695468
H  H76  1  0.15323000  0.72840000  0.17479000  1.0 0.1590695468
H  H77  1  0.02982000  0.74734000  0.16606000  1.0 0.1491884498
H  H78  1  0.10315000  0.71218000  0.13747000  1.0 0.1590695468
H  H79  1  0.11241000  0.25106000  0.46205000  1.0 0.1590695468
H  H80  1  0.98996000  0.24841000  0.45323000  1.0 0.1491884498
H  H81  1  0.02002000  0.29341000  0.47771000  1.0 0.1590695468
H  H82  1  0.88610000  0.78461000  0.87058000  1.0 0.1491884498
H  H83  1  0.98686000  0.74963000  0.85248000  1.0 0.1398547054
H  H84  1  0.87738000  0.76248000  0.83029000  1.0 0.1398547054
H  H85  1  0.02227000  0.30589000  0.00220000  1.0 0.1590695468
H  H86  1  0.96999000  0.26198000  0.02427000  1.0 0.1491884498
H  H87  1  0.09701000  0.25636000  0.01887000  1.0 0.1590695468
H  H88  1  0.08029000  0.23705000  0.93990000  1.0 0.1398547054
H  H89  1  0.99051000  0.21254000  0.96317000  1.0 0.1491884498
H  H90  1  0.95646000  0.25745000  0.93290000  1.0 0.1491884498
H  H91  1  0.14202000  0.09419000  0.66012000  1.0 0.1491884498
H  H92  1  0.04738000  0.06147000  0.65412000  1.0 0.1491884498
H  H93  1  0.03293000  0.10603000  0.68351000  1.0 0.1590695468
H  H94  1  0.88086000  0.55808000  0.22395000  1.0 0.1491884498
H  H95  1  0.97801000  0.52223000  0.20454000  1.0 0.1491884498
H  H96  1  0.88355000  0.55256000  0.17998000  1.0 0.1491884498
H  H97  1  0.99289000  0.42354000  0.34146000  1.0 0.1491884498
H  H98  1  0.89465000  0.39205000  0.33933000  1.0 0.1491884498
H  H99  1  0.00142000  0.37507000  0.31560000  1.0 0.1590695468
H  H100  1  0.18268000  0.92317000  0.82508000  1.0 0.1398547054
H  H101  1  0.07872000  0.96295000  0.81426000  1.0 0.1491884498
H  H102  1  0.14719000  0.93110000  0.78278000  1.0 0.1398547054
H  H103  1  0.98770000  0.35762000  0.16768000  1.0 0.1590695468
H  H104  1  0.87876000  0.37777000  0.14652000  1.0 0.1491884498
H  H105  1  0.97340000  0.41178000  0.14560000  1.0 0.1491884498
H  H106  1  0.10168000  0.05775000  0.84651000  1.0 0.1491884498
H  H107  1  0.15295000  0.10164000  0.82405000  1.0 0.1491884498
H  H108  1  0.03453000  0.09181000  0.81504000  1.0 0.1590695468
H  H109  1  0.19835000  0.15970000  0.54520000  1.0 0.1191352862
H  H110  1  0.98321000  0.59148000  0.11034000  1.0 0.1191352862
H  H111  1  0.82489000  0.30273000  0.34783000  1.0 0.1191352862
H  H112  1  0.96545000  0.84691000  0.90918000  1.0 0.1191352862
H  H113  1  0.81151000  0.29800000  0.13195000  1.0 0.1191352862
H  H114  1  0.21661000  0.15064000  0.94639000  1.0 0.1287976914
H  H115  1  0.38146000  0.16407000  0.53871000  1.0 0.1191352862
H  H116  1  0.87756000  0.60954000  0.05599000  1.0 0.1287976914
H  H117  1  0.64293000  0.29561000  0.35677000  1.0 0.1191352862
H  H118  1  0.04261000  0.82929000  0.96755000  1.0 0.1191352862
H  H119  1  0.62800000  0.29080000  0.12780000  1.0 0.1191352862
H  H120  1  0.39063000  0.16272000  0.95422000  1.0 0.1191352862
H  H121  1  0.40185000  0.18020000  0.64975000  1.0 0.1191352862
H  H122  1  0.72343000  0.73353000  0.10671000  1.0 0.1191352862
H  H123  1  0.65791000  0.32679000  0.46726000  1.0 0.1191352862
H  H124  1  0.32675000  0.82362000  0.91656000  1.0 0.1287976914
H  H125  1  0.64439000  0.33613000  0.01805000  1.0 0.1191352862
H  H126  1  0.42316000  0.18326000  0.84136000  1.0 0.1287976914
H  H127  1  0.20929000  0.18820000  0.65542000  1.0 0.1191352862
H  H128  1  0.83172000  0.71278000  0.15823000  1.0 0.1287976914
H  H129  1  0.84514000  0.33442000  0.45866000  1.0 0.1191352862
H  H130  1  0.25110000  0.83734000  0.85963000  1.0 0.1287976914
H  H131  1  0.82496000  0.34792000  0.02514000  1.0 0.1191352862
H  H132  1  0.24552000  0.16543000  0.83514000  1.0 0.1191352862
H  H133  1  0.23933000  0.85518000  0.35698000  1.0 0.1590695468
H  H134  1  0.15753000  0.90223000  0.34032000  1.0 0.1398547054
H  H135  1  0.81697000  0.42657000  0.74340000  1.0 0.1398547054
H  H136  1  0.92377000  0.45213000  0.74102000  1.0 0.1398547054
H  H137  1  0.80229000  0.61660000  0.66255000  1.0 0.1398547054
H  H138  1  0.72224000  0.66007000  0.64102000  1.0 0.1491884498
H  H139  1  0.01824000  0.05765000  0.24794000  1.0 0.1398547054
H  H140  1  0.13516000  0.07392000  0.24629000  1.0 0.1491884498
H  H141  1  0.82284000  0.62572000  0.85239000  1.0 0.1287976914
H  H142  1  0.73949000  0.66750000  0.87333000  1.0 0.1491884498
H  H143  1  0.21826000  0.85853000  0.14640000  1.0 0.1590695468
H  H144  1  0.13738000  0.90585000  0.16200000  1.0 0.1398547054
H  H145  1  0.43879000  0.90393000  0.46928000  1.0 0.1590695468
H  H146  1  0.37370000  0.95506000  0.48585000  1.0 0.1398547054
H  H147  1  0.32922000  0.90165000  0.49171000  1.0 0.1590695468
H  H148  1  0.82746000  0.27447000  0.66331000  1.0 0.1590695468
H  H149  1  0.91523000  0.27502000  0.63087000  1.0 0.1491884498
H  H150  1  0.94777000  0.24741000  0.66999000  1.0 0.1590695468
H  H151  1  0.63286000  0.60231000  0.51559000  1.0 0.1590695468
H  H152  1  0.62412000  0.54241000  0.51720000  1.0 0.1398547054
H  H153  1  0.53267000  0.58237000  0.53592000  1.0 0.1590695468
H  H154  1  0.17092000  0.21118000  0.34331000  1.0 0.1590695468
H  H155  1  0.08818000  0.24949000  0.31876000  1.0 0.1491884498
H  H156  1  0.05495000  0.23239000  0.35975000  1.0 0.1398547054
H  H157  1  0.53438000  0.56766000  0.97569000  1.0 0.1491884498
H  H158  1  0.63322000  0.53503000  0.99690000  1.0 0.1491884498
H  H159  1  0.61611000  0.59634000  0.99729000  1.0 0.1720064041
H  H160  1  0.32719000  0.89551000  0.01230000  1.0 0.1590695468
H  H161  1  0.34481000  0.95429000  0.00873000  1.0 0.1398547054
H  H162  1  0.42815000  0.91346000  0.03117000  1.0 0.1491884498
H  H163  1  0.10127000  0.00682000  0.35466000  1.0 0.1398547054
H  H164  1  0.20134000  0.03722000  0.35608000  1.0 0.1398547054
H  H165  1  0.20654000  0.98866000  0.33045000  1.0 0.1491884498
H  H166  1  0.05551000  0.46546000  0.70184000  1.0 0.1398547054
H  H167  1  0.15459000  0.42439000  0.68912000  1.0 0.1491884498
H  H168  1  0.08263000  0.45829000  0.65874000  1.0 0.1491884498
H  H169  1  0.74801000  0.51723000  0.67522000  1.0 0.1491884498
H  H170  1  0.80752000  0.47395000  0.64898000  1.0 0.1287976914
H  H171  1  0.86624000  0.52083000  0.65988000  1.0 0.1491884498
H  H172  1  0.84029000  0.07548000  0.28868000  1.0 0.1491884498
H  H173  1  0.93416000  0.03513000  0.30651000  1.0 0.1590695468
H  H174  1  0.85006000  0.06897000  0.33271000  1.0 0.1590695468
H  H175  1  0.91304000  0.51983000  0.86562000  1.0 0.1491884498
H  H176  1  0.82398000  0.48316000  0.86242000  1.0 0.1491884498
H  H177  1  0.81277000  0.53646000  0.83926000  1.0 0.1491884498
H  H178  1  0.13145000  0.98855000  0.16077000  1.0 0.1491884498
H  H179  1  0.18854000  0.03346000  0.14217000  1.0 0.1491884498
H  H180  1  0.07319000  0.02484000  0.12854000  1.0 0.1491884498
H  H181  1  0.15730000  0.07153000  0.41752000  1.0 0.1191352862
H  H182  1  0.17994000  0.29262000  0.64525000  1.0 0.1191352862
H  H183  1  0.53256000  0.48342000  0.55878000  1.0 0.1191352862
H  H184  1  0.75049000  0.17044000  0.35413000  1.0 0.1287976914
H  H185  1  0.55575000  0.47895000  0.94761000  1.0 0.1191352862
H  H186  1  0.12406000  0.07140000  0.06565000  1.0 0.108995515
H  H187  1  0.19134000  0.15346000  0.43139000  1.0 0.1287976914
H  H188  1  0.31562000  0.29095000  0.59641000  1.0 0.1287976914
H  H189  1  0.51744000  0.39775000  0.54509000  1.0 0.1287976914
H  H190  1  0.67147000  0.18160000  0.40981000  1.0 0.1287976914
H  H191  1  0.54015000  0.39136000  0.95081000  1.0 0.1398547054
H  H192  1  0.16384000  0.15478000  0.04692000  1.0 0.1191352862
H  H193  1  0.49481000  0.09249000  0.45649000  1.0 0.1398547054
H  H194  1  0.09569000  0.37238000  0.53299000  1.0 0.1287976914
H  H195  1  0.82117000  0.35102000  0.58298000  1.0 0.1191352862
H  H196  1  0.96117000  0.15602000  0.46179000  1.0 0.1191352862
H  H197  1  0.84981000  0.35308000  0.92421000  1.0 0.1287976914
H  H198  1  0.48234000  0.09330000  0.03775000  1.0 0.1398547054
H  H199  1  0.45912000  0.01158000  0.44190000  1.0 0.1287976914
H  H200  1  0.98525000  0.39217000  0.58703000  1.0 0.108995515
H  H201  1  0.83195000  0.43563000  0.59943000  1.0 0.108995515
H  H202  1  0.04836000  0.14520000  0.40252000  1.0 0.108995515
H  H203  1  0.87211000  0.43949000  0.92565000  1.0 0.1191352862
H  H204  1  0.43874000  0.01346000  0.05303000  1.0 0.1191352862
H  H205  1  0.00225000  0.78832000  0.47269000  1.0 0.1590695468
H  H206  1  0.94331000  0.75483000  0.44592000  1.0 0.1491884498
H  H207  1  0.07047000  0.74338000  0.44992000  1.0 0.1590695468
H  H208  1  0.84677000  0.27160000  0.82521000  1.0 0.1590695468
H  H209  1  0.97018000  0.25266000  0.83394000  1.0 0.1491884498
H  H210  1  0.89685000  0.28782000  0.86253000  1.0 0.1491884498
H  H211  1  0.88759000  0.74894000  0.53795000  1.0 0.1590695468
H  H212  1  0.01004000  0.75159000  0.54677000  1.0 0.1491884498
H  H213  1  0.97998000  0.70659000  0.52229000  1.0 0.1590695468
H  H214  1  0.11390000  0.21539000  0.12942000  1.0 0.1491884498
H  H215  1  0.01314000  0.25037000  0.14752000  1.0 0.1398547054
H  H216  1  0.12262000  0.23752000  0.16971000  1.0 0.1398547054
H  H217  1  0.97773000  0.69411000  0.99780000  1.0 0.1590695468
H  H218  1  0.03001000  0.73802000  0.97573000  1.0 0.1491884498
H  H219  1  0.90299000  0.74364000  0.98113000  1.0 0.1590695468
H  H220  1  0.91971000  0.76295000  0.06010000  1.0 0.1398547054
H  H221  1  0.00949000  0.78746000  0.03683000  1.0 0.1491884498
H  H222  1  0.04354000  0.74255000  0.06710000  1.0 0.1491884498
H  H223  1  0.85798000  0.90581000  0.33988000  1.0 0.1491884498
H  H224  1  0.95262000  0.93853000  0.34588000  1.0 0.1491884498
H  H225  1  0.96707000  0.89397000  0.31649000  1.0 0.1590695468
H  H226  1  0.11914000  0.44192000  0.77605000  1.0 0.1491884498
H  H227  1  0.02199000  0.47777000  0.79546000  1.0 0.1491884498
H  H228  1  0.11645000  0.44744000  0.82002000  1.0 0.1491884498
H  H229  1  0.00711000  0.57646000  0.65854000  1.0 0.1491884498
H  H230  1  0.10535000  0.60795000  0.66067000  1.0 0.1491884498
H  H231  1  0.99858000  0.62493000  0.68440000  1.0 0.1590695468
H  H232  1  0.81732000  0.07683000  0.17492000  1.0 0.1398547054
H  H233  1  0.92128000  0.03705000  0.18574000  1.0 0.1491884498
H  H234  1  0.85281000  0.06890000  0.21722000  1.0 0.1398547054
H  H235  1  0.01230000  0.64238000  0.83232000  1.0 0.1590695468
H  H236  1  0.12124000  0.62223000  0.85348000  1.0 0.1491884498
H  H237  1  0.02660000  0.58822000  0.85440000  1.0 0.1491884498
H  H238  1  0.89832000  0.94225000  0.15349000  1.0 0.1491884498
H  H239  1  0.84705000  0.89836000  0.17595000  1.0 0.1491884498
H  H240  1  0.96547000  0.90819000  0.18496000  1.0 0.1590695468
H  H241  1  0.80165000  0.84030000  0.45480000  1.0 0.1191352862
H  H242  1  0.01679000  0.40852000  0.88966000  1.0 0.1191352862
H  H243  1  0.17511000  0.69727000  0.65217000  1.0 0.1191352862
H  H244  1  0.03455000  0.15309000  0.09082000  1.0 0.1191352862
H  H245  1  0.18849000  0.70200000  0.86805000  1.0 0.1191352862
H  H246  1  0.78339000  0.84936000  0.05361000  1.0 0.1287976914
H  H247  1  0.61854000  0.83593000  0.46129000  1.0 0.1191352862
H  H248  1  0.12244000  0.39046000  0.94401000  1.0 0.1287976914
H  H249  1  0.35707000  0.70439000  0.64323000  1.0 0.1191352862
H  H250  1  0.95739000  0.17071000  0.03245000  1.0 0.1191352862
H  H251  1  0.37200000  0.70920000  0.87220000  1.0 0.1191352862
H  H252  1  0.60937000  0.83728000  0.04578000  1.0 0.1191352862
H  H253  1  0.59815000  0.81980000  0.35025000  1.0 0.1191352862
H  H254  1  0.27657000  0.26647000  0.89329000  1.0 0.1191352862
H  H255  1  0.34209000  0.67321000  0.53274000  1.0 0.1191352862
H  H256  1  0.67325000  0.17638000  0.08344000  1.0 0.1287976914
H  H257  1  0.35561000  0.66387000  0.98195000  1.0 0.1191352862
H  H258  1  0.57684000  0.81674000  0.15864000  1.0 0.1287976914
H  H259  1  0.79071000  0.81180000  0.34458000  1.0 0.1191352862
H  H260  1  0.16828000  0.28722000  0.84177000  1.0 0.1287976914
H  H261  1  0.15486000  0.66558000  0.54134000  1.0 0.1191352862
H  H262  1  0.74890000  0.16266000  0.14037000  1.0 0.1287976914
H  H263  1  0.17504000  0.65208000  0.97486000  1.0 0.1191352862
H  H264  1  0.75448000  0.83457000  0.16486000  1.0 0.1191352862
C  C1  1  0.82030000  0.11760000  0.63660000  1.0 -0.0633543867
C  C2  1  0.10400000  0.58100000  0.25730000  1.0 -0.0901021934
C  C3  1  0.21770000  0.36820000  0.36220000  1.0 -0.0695253665
C  C4  1  0.94220000  0.91270000  0.75280000  1.0 -0.1019205815
C  C5  1  0.20090000  0.36110000  0.12300000  1.0 -0.0695253665
C  C6  1  0.84140000  0.11410000  0.86030000  1.0 -0.0812408818
C  C7  1  0.69530000  0.06700000  0.56180000  1.0 0.2296690804
C  C8  1  0.06730000  0.67060000  0.32770000  1.0 0.2194240975
C  C9  1  0.33160000  0.43180000  0.43410000  1.0 0.2194240975
C  C10  1  0.94930000  0.82530000  0.67840000  1.0 0.1891681862
C  C11  1  0.32290000  0.43190000  0.05210000  1.0 0.2461672884
C  C12  1  0.71200000  0.06550000  0.94010000  1.0 0.2194240975
C  C13  1  0.71870000  0.01900000  0.58320000  1.0 -0.1499473803
C  C14  1  0.98840000  0.64190000  0.34290000  1.0 -0.1701029105
C  C15  1  0.30130000  0.47650000  0.41100000  1.0 -0.1701029105
C  C16  1  0.03000000  0.85170000  0.66460000  1.0 -0.1701029105
C  C17  1  0.28300000  0.47530000  0.07520000  1.0 -0.1773133365
C  C18  1  0.74450000  0.01780000  0.92460000  1.0 -0.160509451
C  C19  1  0.77500000  0.03170000  0.61410000  1.0 0.1590695468
C  C20  1  0.99200000  0.60070000  0.31800000  1.0 0.1287976914
C  C21  1  0.24940000  0.45860000  0.37990000  1.0 0.184788124
C  C22  1  0.04060000  0.89150000  0.69090000  1.0 0.1491884498
C  C23  1  0.22740000  0.45370000  0.10450000  1.0 0.1720064041
C  C24  1  0.80500000  0.02900000  0.89110000  1.0 0.1891681862
C  C25  1  0.63270000  0.07760000  0.52540000  1.0 -0.4804929686
C  C26  1  0.09710000  0.72360000  0.34230000  1.0 -0.4804929686
C  C27  1  0.39050000  0.42570000  0.46930000  1.0 -0.4720999736
C  C28  1  0.90470000  0.77880000  0.66270000  1.0 -0.4804929686
C  C29  1  0.39070000  0.43330000  0.01750000  1.0 -0.4898775506
C  C30  1  0.64730000  0.07650000  0.97500000  1.0 -0.4804929686
C  C31  1  0.82050000  0.99660000  0.64610000  1.0 -0.5122236448
C  C32  1  0.91810000  0.55940000  0.31700000  1.0 -0.4898775506
C  C33  1  0.20270000  0.48940000  0.34590000  1.0 -0.5264488074
C  C34  1  0.10970000  0.93130000  0.69070000  1.0 -0.4898775506
C  C35  1  0.16350000  0.48110000  0.13740000  1.0 -0.5201901533
C  C36  1  0.85760000  0.99230000  0.86240000  1.0 -0.5264488074
C  C37  1  0.69290000  0.96810000  0.57130000  1.0 0.0989405251
C  C38  1  0.91600000  0.64930000  0.37670000  1.0 0.108995515
C  C39  1  0.31730000  0.53110000  0.41830000  1.0 0.108995515
C  C40  1  0.09110000  0.84460000  0.62790000  1.0 0.1191352862
C  C41  1  0.29030000  0.53170000  0.06850000  1.0 0.108995515
C  C42  1  0.71750000  0.96520000  0.93750000  1.0 0.0908366314
C  C43  1  0.77370000  0.92430000  0.57440000  1.0 -0.1499473803
C  C44  1  0.83200000  0.68540000  0.37610000  1.0 -0.160509451
C  C45  1  0.41030000  0.54320000  0.43560000  1.0 -0.1499473803
C  C46  1  0.20680000  0.83210000  0.62440000  1.0 -0.1413264933
C  C47  1  0.38460000  0.54600000  0.05830000  1.0 -0.129502787
C  C48  1  0.80460000  0.92340000  0.93980000  1.0 -0.1499473803
C  C49  1  0.75390000  0.87520000  0.56600000  1.0 -0.1019205815
C  C50  1  0.75540000  0.69260000  0.40770000  1.0 -0.0695253665
C  C51  1  0.41880000  0.59450000  0.44450000  1.0 -0.1019205815
C  C52  1  0.25270000  0.82420000  0.59160000  1.0 -0.0695253665
C  C53  1  0.39330000  0.59880000  0.05660000  1.0 -0.109023482
C  C54  1  0.78000000  0.87330000  0.95070000  1.0 -0.11895698
C  C55  1  0.65430000  0.86870000  0.55370000  1.0 -0.0287755933
C  C56  1  0.78480000  0.67620000  0.44240000  1.0 -0.0812408818
C  C57  1  0.33270000  0.63370000  0.43770000  1.0 -0.0206656439
C  C58  1  0.19290000  0.82410000  0.55730000  1.0 -0.0901021934
C  C59  1  0.30900000  0.63710000  0.06520000  1.0 -0.0287755933
C  C60  1  0.67160000  0.86550000  0.95790000  1.0 -0.0117372073
C  C61  1  0.57470000  0.91140000  0.55130000  1.0 -0.1019205815
C  C62  1  0.88110000  0.64270000  0.44380000  1.0 -0.0901021934
C  C63  1  0.23730000  0.62250000  0.42130000  1.0 -0.109023482
C  C64  1  0.08000000  0.83930000  0.56010000  1.0 -0.0812408818
C  C65  1  0.21060000  0.62170000  0.07150000  1.0 -0.109023482
C  C66  1  0.58980000  0.91020000  0.95650000  1.0 -0.109023482
C  C67  1  0.59650000  0.96000000  0.56010000  1.0 -0.129502787
C  C68  1  0.94840000  0.62980000  0.41060000  1.0 -0.1701029105
C  C69  1  0.23110000  0.57170000  0.41170000  1.0 -0.1499473803
C  C70  1  0.02730000  0.84750000  0.59560000  1.0 -0.1701029105
C  C71  1  0.19710000  0.57010000  0.07190000  1.0 -0.1413264933
C  C72  1  0.61610000  0.95770000  0.94700000  1.0 -0.129502787
C  C73  1  0.63580000  0.81460000  0.54450000  1.0 0.5905504387
C  C74  1  0.72610000  0.68850000  0.47610000  1.0 0.5494491321
C  C75  1  0.33790000  0.68980000  0.44730000  1.0 0.5905504387
C  C76  1  0.24300000  0.81160000  0.52160000  1.0 0.5598348242
C  C77  1  0.32440000  0.69300000  0.06280000  1.0 0.5843937856
C  C78  1  0.64770000  0.81030000  0.96750000  1.0 0.5701563072
C  C79  1  0.97950000  0.19180000  0.58270000  1.0 0.2721176606
C  C80  1  0.05840000  0.66940000  0.18440000  1.0 0.2103330654
C  C81  1  0.05090000  0.30360000  0.42290000  1.0 0.2296690804
C  C82  1  0.96110000  0.82180000  0.83060000  1.0 0.1720064041
C  C83  1  0.03940000  0.30840000  0.05950000  1.0 0.2721176606
C  C84  1  0.00740000  0.18660000  0.90900000  1.0 0.1993745428
C  C85  1  0.06830000  0.16290000  0.60530000  1.0 -0.160509451
C  C86  1  0.98590000  0.63790000  0.17220000  1.0 -0.1499473803
C  C87  1  0.96820000  0.32740000  0.39860000  1.0 -0.1773133365
C  C88  1  0.04060000  0.84980000  0.84120000  1.0 -0.1499473803
C  C89  1  0.95130000  0.32830000  0.08510000  1.0 -0.1499473803
C  C90  1  0.09010000  0.16240000  0.88810000  1.0 -0.1701029105
C  C91  1  0.02000000  0.13260000  0.63050000  1.0 0.1590695468
C  C92  1  0.98930000  0.60010000  0.19750000  1.0 0.1287976914
C  C93  1  0.01840000  0.35440000  0.37120000  1.0 0.1720064041
C  C94  1  0.05170000  0.88680000  0.81380000  1.0 0.1287976914
C  C95  1  0.00030000  0.35170000  0.11280000  1.0 0.1590695468
C  C96  1  0.03990000  0.13190000  0.86440000  1.0 0.1720064041
C  C97  1  0.99200000  0.22970000  0.55070000  1.0 -0.5122236448
C  C98  1  0.08910000  0.71900000  0.16370000  1.0 -0.4720999736
C  C99  1  0.04260000  0.27140000  0.45680000  1.0 -0.4985872197
C  C100  1  0.92480000  0.77580000  0.84740000  1.0 -0.4804929686
C  C101  1  0.03140000  0.28060000  0.02280000  1.0 -0.4898775506
C  C102  1  0.00880000  0.22720000  0.93900000  1.0 -0.4804929686
C  C103  1  0.06430000  0.09550000  0.65950000  1.0 -0.4898775506
C  C104  1  0.92730000  0.55400000  0.20190000  1.0 -0.4804929686
C  C105  1  0.97280000  0.38940000  0.33900000  1.0 -0.4985872197
C  C106  1  0.12150000  0.93000000  0.80850000  1.0 -0.4804929686
C  C107  1  0.95650000  0.37670000  0.14580000  1.0 -0.4804929686
C  C108  1  0.08670000  0.09200000  0.83470000  1.0 -0.4804929686
C  C109  1  0.18920000  0.16630000  0.60150000  1.0 0.108995515
C  C110  1  0.90280000  0.64960000  0.13890000  1.0 0.0908366314
C  C111  1  0.85150000  0.32280000  0.40300000  1.0 0.108995515
C  C112  1  0.10000000  0.84200000  0.87840000  1.0 0.0989405251
C  C113  1  0.83570000  0.32530000  0.08040000  1.0 0.108995515
C  C114  1  0.20970000  0.16420000  0.89030000  1.0 0.0989405251
C  C115  1  0.23870000  0.16420000  0.56640000  1.0 -0.1413264933
C  C116  1  0.92630000  0.61940000  0.10940000  1.0 -0.1499473803
C  C117  1  0.79140000  0.30840000  0.37140000  1.0 -0.1499473803
C  C118  1  0.04110000  0.84090000  0.91070000  1.0 -0.160509451
C  C119  1  0.77670000  0.30710000  0.10910000  1.0 -0.1499473803
C  C120  1  0.25780000  0.15890000  0.92540000  1.0 -0.11895698
C  C121  1  0.34770000  0.16890000  0.56230000  1.0 -0.0901021934
C  C122  1  0.86330000  0.63040000  0.07690000  1.0 -0.109023482
C  C123  1  0.68310000  0.30350000  0.37710000  1.0 -0.109023482
C  C124  1  0.08710000  0.83120000  0.94620000  1.0 -0.1019205815
C  C125  1  0.66666667  0.30090000  0.10670000  1.0 -0.0812408818
C  C126  1  0.36120000  0.16520000  0.93020000  1.0 -0.1019205815
C  C127  1  0.40860000  0.18080000  0.59290000  1.0 -0.0206656439
C  C128  1  0.78150000  0.67170000  0.07590000  1.0 -0.0206656439
C  C129  1  0.63080000  0.30990000  0.41290000  1.0 -0.0287755933
C  C130  1  0.20390000  0.82400000  0.94980000  1.0 -0.0812408818
C  C131  1  0.61640000  0.31070000  0.07080000  1.0 -0.0695253665
C  C132  1  0.42520000  0.17570000  0.89860000  1.0 -0.0117372073
C  C133  1  0.35940000  0.18030000  0.62840000  1.0 -0.1019205815
C  C134  1  0.77380000  0.70300000  0.10690000  1.0 -0.109023482
C  C135  1  0.69100000  0.32220000  0.44360000  1.0 -0.0901021934
C  C136  1  0.25090000  0.82750000  0.91620000  1.0 -0.0812408818
C  C137  1  0.67690000  0.32860000  0.04140000  1.0 -0.0812408818
C  C138  1  0.38130000  0.17690000  0.86260000  1.0 -0.1019205815
C  C139  1  0.24540000  0.17980000  0.63270000  1.0 -0.160509451
C  C140  1  0.83760000  0.69050000  0.13800000  1.0 -0.1019205815
C  C141  1  0.80410000  0.32760000  0.43820000  1.0 -0.160509451
C  C142  1  0.20680000  0.83590000  0.88100000  1.0 -0.1413264933
C  C143  1  0.78620000  0.33600000  0.04560000  1.0 -0.1499473803
C  C144  1  0.27370000  0.16830000  0.85900000  1.0 -0.1499473803
C  C145  1  0.52540000  0.19000000  0.58830000  1.0 0.5494491321
C  C146  1  0.71620000  0.68530000  0.04110000  1.0 0.5843937856
C  C147  1  0.51460000  0.30190000  0.41900000  1.0 0.5598348242
C  C148  1  0.24390000  0.81170000  0.98610000  1.0 0.5370955032
C  C149  1  0.50830000  0.29910000  0.06540000  1.0 0.5494491321
C  C150  1  0.53920000  0.18710000  0.90520000  1.0 0.5701563072
C  C151  1  0.74000000  0.76490000  0.75800000  1.0 0.3231626016
C  C152  1  0.17970000  0.88240000  0.36340000  1.0 -0.0633543867
C  C153  1  0.89600000  0.41900000  0.74270000  1.0 -0.0901021934
C  C154  1  0.78230000  0.63180000  0.63780000  1.0 -0.0695253665
C  C155  1  0.05780000  0.08730000  0.24720000  1.0 -0.1019205815
C  C156  1  0.79910000  0.63890000  0.87700000  1.0 -0.0812408818
C  C157  1  0.15860000  0.88590000  0.13970000  1.0 -0.0812408818
C  C158  1  0.30470000  0.93300000  0.43820000  1.0 0.2296690804
C  C159  1  0.93270000  0.32940000  0.67230000  1.0 0.2194240975
C  C160  1  0.66840000  0.56820000  0.56590000  1.0 0.2194240975
C  C161  1  0.05070000  0.17470000  0.32160000  1.0 0.1891681862
C  C162  1  0.67710000  0.56810000  0.94790000  1.0 0.2461672884
C  C163  1  0.28800000  0.93450000  0.05990000  1.0 0.2194240975
C  C164  1  0.28130000  0.98100000  0.41680000  1.0 -0.1499473803
C  C165  1  0.01160000  0.35810000  0.65710000  1.0 -0.1701029105
C  C166  1  0.69870000  0.52350000  0.58900000  1.0 -0.1701029105
C  C167  1  0.97000000  0.14830000  0.33540000  1.0 -0.1701029105
C  C168  1  0.71700000  0.52470000  0.92480000  1.0 -0.1773133365
C  C169  1  0.25550000  0.98220000  0.07540000  1.0 -0.160509451
C  C170  1  0.22500000  0.96830000  0.38590000  1.0 0.1590695468
C  C171  1  0.00800000  0.39930000  0.68200000  1.0 0.1287976914
C  C172  1  0.75060000  0.54140000  0.62010000  1.0 0.184788124
C  C173  1  0.95940000  0.10850000  0.30910000  1.0 0.1491884498
C  C174  1  0.77260000  0.54630000  0.89550000  1.0 0.1720064041
C  C175  1  0.19500000  0.97100000  0.10890000  1.0 0.1891681862
C  C176  1  0.36730000  0.92240000  0.47460000  1.0 -0.4804929686
C  C177  1  0.90290000  0.27640000  0.65770000  1.0 -0.4804929686
C  C178  1  0.60950000  0.57430000  0.53070000  1.0 -0.4720999736
C  C179  1  0.09530000  0.22120000  0.33730000  1.0 -0.4804929686
C  C180  1  0.60930000  0.56670000  0.98250000  1.0 -0.4898775506
C  C181  1  0.35270000  0.92350000  0.02500000  1.0 -0.4804929686
C  C182  1  0.17950000  0.00340000  0.35390000  1.0 -0.5122236448
C  C183  1  0.08190000  0.44060000  0.68300000  1.0 -0.4898775506
C  C184  1  0.79730000  0.51060000  0.65410000  1.0 -0.5264488074
C  C185  1  0.89030000  0.06870000  0.30930000  1.0 -0.4898775506
C  C186  1  0.83650000  0.51890000  0.86260000  1.0 -0.5201901533
C  C187  1  0.14240000  0.00770000  0.13760000  1.0 -0.5264488074
C  C188  1  0.30710000  0.03190000  0.42870000  1.0 0.0989405251
C  C189  1  0.08400000  0.35070000  0.62330000  1.0 0.108995515
C  C190  1  0.68270000  0.46890000  0.58170000  1.0 0.108995515
C  C191  1  0.90890000  0.15540000  0.37210000  1.0 0.1191352862
C  C192  1  0.70970000  0.46830000  0.93150000  1.0 0.108995515
C  C193  1  0.28250000  0.03480000  0.06250000  1.0 0.0908366314
C  C194  1  0.22630000  0.07570000  0.42560000  1.0 -0.1499473803
C  C195  1  0.16800000  0.31460000  0.62390000  1.0 -0.160509451
C  C196  1  0.58970000  0.45680000  0.56440000  1.0 -0.1499473803
C  C197  1  0.79320000  0.16790000  0.37560000  1.0 -0.1413264933
C  C198  1  0.61540000  0.45400000  0.94170000  1.0 -0.129502787
C  C199  1  0.19540000  0.07660000  0.06020000  1.0 -0.1499473803
C  C200  1  0.24610000  0.12480000  0.43400000  1.0 -0.1019205815
C  C201  1  0.24460000  0.30740000  0.59230000  1.0 -0.0695253665
C  C202  1  0.58120000  0.40550000  0.55550000  1.0 -0.1019205815
C  C203  1  0.74730000  0.17580000  0.40840000  1.0 -0.0695253665
C  C204  1  0.60670000  0.40120000  0.94340000  1.0 -0.109023482
C  C205  1  0.22000000  0.12670000  0.04930000  1.0 -0.11895698
C  C206  1  0.34570000  0.13130000  0.44630000  1.0 -0.0287755933
C  C207  1  0.21520000  0.32380000  0.55760000  1.0 -0.0812408818
C  C208  1  0.66730000  0.36630000  0.56230000  1.0 -0.0206656439
C  C209  1  0.80710000  0.17590000  0.44270000  1.0 -0.0901021934
C  C210  1  0.69100000  0.36290000  0.93480000  1.0 -0.0287755933
C  C211  1  0.32840000  0.13450000  0.04210000  1.0 -0.0117372073
C  C212  1  0.42530000  0.08860000  0.44870000  1.0 -0.1019205815
C  C213  1  0.11890000  0.35730000  0.55620000  1.0 -0.0901021934
C  C214  1  0.76270000  0.37750000  0.57870000  1.0 -0.109023482
C  C215  1  0.92000000  0.16070000  0.43990000  1.0 -0.0812408818
C  C216  1  0.78940000  0.37830000  0.92850000  1.0 -0.109023482
C  C217  1  0.41020000  0.08980000  0.04350000  1.0 -0.109023482
C  C218  1  0.40350000  0.04000000  0.43990000  1.0 -0.129502787
C  C219  1  0.05160000  0.37020000  0.58940000  1.0 -0.1701029105
C  C220  1  0.76890000  0.42830000  0.58830000  1.0 -0.1499473803
C  C221  1  0.97270000  0.15250000  0.40440000  1.0 -0.1701029105
C  C222  1  0.80290000  0.42990000  0.92810000  1.0 -0.1413264933
C  C223  1  0.38390000  0.04230000  0.05300000  1.0 -0.129502787
C  C224  1  0.36420000  0.18540000  0.45550000  1.0 0.5905504387
C  C225  1  0.27390000  0.31150000  0.52390000  1.0 0.5494491321
C  C226  1  0.66210000  0.31020000  0.55270000  1.0 0.5905504387
C  C227  1  0.75700000  0.18840000  0.47840000  1.0 0.5598348242
C  C228  1  0.67560000  0.30700000  0.93720000  1.0 0.5843937856
C  C229  1  0.35230000  0.18970000  0.03250000  1.0 0.5701563072
C  C230  1  0.02050000  0.80820000  0.41730000  1.0 0.2721176606
C  C231  1  0.94160000  0.33060000  0.81560000  1.0 0.2103330654
C  C232  1  0.94910000  0.69640000  0.57710000  1.0 0.2296690804
C  C233  1  0.03890000  0.17820000  0.16940000  1.0 0.1720064041
C  C234  1  0.96060000  0.69160000  0.94050000  1.0 0.2721176606
C  C235  1  0.99260000  0.81340000  0.09100000  1.0 0.1993745428
C  C236  1  0.93170000  0.83710000  0.39470000  1.0 -0.160509451
C  C237  1  0.01410000  0.36210000  0.82780000  1.0 -0.1499473803
C  C238  1  0.03180000  0.67260000  0.60140000  1.0 -0.1773133365
C  C239  1  0.95940000  0.15020000  0.15880000  1.0 -0.1499473803
C  C240  1  0.04870000  0.67170000  0.91490000  1.0 -0.1499473803
C  C241  1  0.90990000  0.83760000  0.11190000  1.0 -0.1701029105
C  C242  1  0.98000000  0.86740000  0.36950000  1.0 0.1590695468
C  C243  1  0.01070000  0.39990000  0.80250000  1.0 0.1287976914
C  C244  1  0.98160000  0.64560000  0.62880000  1.0 0.1720064041
C  C245  1  0.94830000  0.11320000  0.18620000  1.0 0.1398547054
C  C246  1  0.99970000  0.64830000  0.88720000  1.0 0.1590695468
C  C247  1  0.96010000  0.86810000  0.13560000  1.0 0.1720064041
C  C248  1  0.00800000  0.77030000  0.44930000  1.0 -0.5122236448
C  C249  1  0.91090000  0.28100000  0.83630000  1.0 -0.4720999736
C  C250  1  0.95740000  0.72860000  0.54320000  1.0 -0.4985872197
C  C251  1  0.07520000  0.22420000  0.15260000  1.0 -0.4804929686
C  C252  1  0.96860000  0.71940000  0.97720000  1.0 -0.4898775506
C  C253  1  0.99120000  0.77280000  0.06100000  1.0 -0.4804929686
C  C254  1  0.93570000  0.90450000  0.34050000  1.0 -0.4898775506
C  C255  1  0.07270000  0.44600000  0.79810000  1.0 -0.4804929686
C  C256  1  0.02720000  0.61060000  0.66100000  1.0 -0.4985872197
C  C257  1  0.87850000  0.07000000  0.19150000  1.0 -0.4804929686
C  C258  1  0.04350000  0.62330000  0.85420000  1.0 -0.4804929686
C  C259  1  0.91330000  0.90800000  0.16530000  1.0 -0.4804929686
C  C260  1  0.81080000  0.83370000  0.39850000  1.0 0.108995515
C  C261  1  0.09720000  0.35040000  0.86110000  1.0 0.0908366314
C  C262  1  0.14850000  0.67720000  0.59700000  1.0 0.108995515
C  C263  1  0.90000000  0.15800000  0.12160000  1.0 0.0989405251
C  C264  1  0.16430000  0.67470000  0.91960000  1.0 0.108995515
C  C265  1  0.79030000  0.83580000  0.10970000  1.0 0.0989405251
C  C266  1  0.76130000  0.83580000  0.43360000  1.0 -0.1413264933
C  C267  1  0.07370000  0.38060000  0.89060000  1.0 -0.1499473803
C  C268  1  0.20860000  0.69160000  0.62860000  1.0 -0.1499473803
C  C269  1  0.95890000  0.15910000  0.08930000  1.0 -0.160509451
C  C270  1  0.22330000  0.69290000  0.89090000  1.0 -0.1499473803
C  C271  1  0.74220000  0.84110000  0.07460000  1.0 -0.11895698
C  C272  1  0.65230000  0.83110000  0.43770000  1.0 -0.0901021934
C  C273  1  0.13670000  0.36960000  0.92310000  1.0 -0.109023482
C  C274  1  0.31690000  0.69650000  0.62290000  1.0 -0.109023482
C  C275  1  0.91290000  0.16880000  0.05380000  1.0 -0.1019205815
C  C276  1  0.33333333  0.69910000  0.89330000  1.0 -0.0812408818
C  C277  1  0.63880000  0.83480000  0.06980000  1.0 -0.1019205815
C  C278  1  0.59140000  0.81920000  0.40710000  1.0 -0.0206656439
C  C279  1  0.21850000  0.32830000  0.92410000  1.0 -0.0206656439
C  C280  1  0.36920000  0.69010000  0.58710000  1.0 -0.0287755933
C  C281  1  0.79610000  0.17600000  0.05020000  1.0 -0.0812408818
C  C282  1  0.38360000  0.68930000  0.92920000  1.0 -0.0695253665
C  C283  1  0.57480000  0.82430000  0.10140000  1.0 -0.0117372073
C  C284  1  0.64060000  0.81970000  0.37160000  1.0 -0.1019205815
C  C285  1  0.22620000  0.29700000  0.89310000  1.0 -0.109023482
C  C286  1  0.30900000  0.67780000  0.55640000  1.0 -0.0901021934
C  C287  1  0.74910000  0.17250000  0.08380000  1.0 -0.0812408818
C  C288  1  0.32310000  0.67140000  0.95860000  1.0 -0.0812408818
C  C289  1  0.61870000  0.82310000  0.13740000  1.0 -0.1019205815
C  C290  1  0.75460000  0.82020000  0.36730000  1.0 -0.160509451
C  C291  1  0.16240000  0.30950000  0.86200000  1.0 -0.1019205815
C  C292  1  0.19590000  0.67240000  0.56180000  1.0 -0.160509451
C  C293  1  0.79320000  0.16410000  0.11900000  1.0 -0.1413264933
C  C294  1  0.21380000  0.66400000  0.95440000  1.0 -0.1499473803
C  C295  1  0.72630000  0.83170000  0.14100000  1.0 -0.1499473803
C  C296  1  0.47460000  0.81000000  0.41170000  1.0 0.5494491321
C  C297  1  0.28380000  0.31470000  0.95890000  1.0 0.5843937856
C  C298  1  0.48540000  0.69810000  0.58100000  1.0 0.5598348242
C  C299  1  0.75610000  0.18830000  0.01390000  1.0 0.5370955032
C  C300  1  0.49170000  0.70090000  0.93460000  1.0 0.5494491321
C  C301  1  0.46080000  0.81290000  0.09480000  1.0 0.5701563072
C  C302  1  0.26000000  0.23510000  0.24200000  1.0 0.3231626016
C  C303  1  0.69500000  0.60350000  0.75450000  1.0 0.4292583031
C  C304  1  0.24000000  0.92750000  0.24720000  1.0 0.3905138981
C  C305  1  0.30500000  0.39650000  0.24550000  1.0 0.4292583031
C  C306  1  0.76000000  0.07250000  0.75280000  1.0 0.3905138981
S  S1  1  0.85100000  0.59390000  0.75419000  1.0 0.9297194046
S  S2  1  0.10320000  0.93628000  0.24951000  1.0 0.9570873839
S  S3  1  0.14900000  0.40610000  0.24581000  1.0 0.9297194046
S  S4  1  0.89680000  0.06372000  0.75049000  1.0 0.9570873839
N  N1  1  0.78260000  0.08360000  0.61063000  1.0 0.0989405251
N  N2  1  0.07040000  0.60960000  0.29100000  1.0 0.0989405251
N  N3  1  0.25300000  0.40790000  0.38528000  1.0 0.0908366314
N  N4  1  0.96740000  0.88290000  0.71830000  1.0 0.1191352862
N  N5  1  0.23730000  0.40240000  0.09959000  1.0 0.0790177745
N  N6  1  0.80540000  0.08040000  0.88938000  1.0 0.0989405251
N  N7  1  0.73390000  0.10510000  0.57903000  1.0 -0.298647184
N  N8  1  0.11200000  0.65090000  0.29710000  1.0 -0.2423228535
N  N9  1  0.30370000  0.38970000  0.41835000  1.0 -0.3172370928
N  N10  1  0.91370000  0.84350000  0.71320000  1.0 -0.2457609016
N  N11  1  0.29780000  0.38900000  0.06757000  1.0 -0.298647184
N  N12  1  0.74780000  0.10420000  0.91948000  1.0 -0.3172370928
N  N13  1  0.90860000  0.14100000  0.62213000  1.0 0.0444972154
N  N14  1  0.06910000  0.60690000  0.22420000  1.0 0.0908366314
N  N15  1  0.12700000  0.34780000  0.37910000  1.0 0.0592890412
N  N16  1  0.97080000  0.88120000  0.78650000  1.0 0.1191352862
N  N17  1  0.10850000  0.34210000  0.10392000  1.0 0.0444972154
N  N18  1  0.93360000  0.13790000  0.87269000  1.0 0.108995515
N  N19  1  0.88990000  0.17770000  0.59258000  1.0 -0.2878961104
N  N20  1  0.10740000  0.64990000  0.21490000  1.0 -0.2674476045
N  N21  1  0.14640000  0.31470000  0.41058000  1.0 -0.298647184
N  N22  1  0.92390000  0.84180000  0.79610000  1.0 -0.1939833748
N  N23  1  0.13410000  0.31560000  0.07060000  1.0 -0.3087970751
N  N24  1  0.90830000  0.17420000  0.89910000  1.0 -0.284760161
N  N25  1  0.21740000  0.91640000  0.38937000  1.0 0.0989405251
N  N26  1  0.92960000  0.39040000  0.70900000  1.0 0.0989405251
N  N27  1  0.74700000  0.59210000  0.61472000  1.0 0.0908366314
N  N28  1  0.03260000  0.11710000  0.28170000  1.0 0.108995515
N  N29  1  0.76270000  0.59760000  0.90041000  1.0 0.0790177745
N  N30  1  0.19460000  0.91960000  0.11062000  1.0 0.0989405251
N  N31  1  0.26610000  0.89490000  0.42097000  1.0 -0.298647184
N  N32  1  0.88800000  0.34910000  0.70290000  1.0 -0.2423228535
N  N33  1  0.69630000  0.61030000  0.58165000  1.0 -0.3172370928
N  N34  1  0.08630000  0.15650000  0.28680000  1.0 -0.2457609016
N  N35  1  0.70220000  0.61100000  0.93243000  1.0 -0.298647184
N  N36  1  0.25220000  0.89580000  0.08052000  1.0 -0.3172370928
N  N37  1  0.09140000  0.85900000  0.37787000  1.0 0.0444972154
N  N38  1  0.93090000  0.39310000  0.77580000  1.0 0.0908366314
N  N39  1  0.87300000  0.65220000  0.62090000  1.0 0.0592890412
N  N40  1  0.02920000  0.11880000  0.21350000  1.0 0.1191352862
N  N41  1  0.89150000  0.65790000  0.89608000  1.0 0.0444972154
N  N42  1  0.06640000  0.86210000  0.12731000  1.0 0.108995515
N  N43  1  0.11010000  0.82230000  0.40742000  1.0 -0.2878961104
N  N44  1  0.89260000  0.35010000  0.78510000  1.0 -0.2674476045
N  N45  1  0.85360000  0.68530000  0.58942000  1.0 -0.298647184
N  N46  1  0.07610000  0.15820000  0.20390000  1.0 -0.1939833748
N  N47  1  0.86590000  0.68440000  0.92940000  1.0 -0.3087970751
N  N48  1  0.09170000  0.82580000  0.10090000  1.0 -0.2878961104
O  O1  1  0.69910000  0.77595000  0.55763000  1.0 -0.5429429847
O  O2  1  0.75540000  0.67340000  0.50601000  1.0 -0.4183350939
O  O3  1  0.41640000  0.69560000  0.46944000  1.0 -0.5881445768
O  O4  1  0.34340000  0.78820000  0.52280000  1.0 -0.5881445768
O  O5  1  0.25200000  0.72750000  0.07534000  1.0 -0.5264488074
O  O6  1  0.55790000  0.81050000  0.98440000  1.0 -0.5495405036
O  O7  1  0.55270000  0.81132000  0.52422000  1.0 -0.5667695316
O  O8  1  0.63770000  0.71910000  0.47195000  1.0 -0.5122236448
O  O9  1  0.27260000  0.72592000  0.43443000  1.0 -0.5122236448
O  O10  1  0.19710000  0.82168000  0.49169000  1.0 -0.4898775506
O  O11  1  0.40650000  0.70040000  0.04550000  1.0 -0.5201901533
O  O12  1  0.71500000  0.77390000  0.95740000  1.0 -0.5201901533
O  O13  1  0.55720000  0.19417000  0.55369000  1.0 -0.5769097048
O  O14  1  0.75390000  0.66730000  0.01066000  1.0 -0.5264488074
O  O15  1  0.45760000  0.29670000  0.39214000  1.0 -0.5122236448
O  O16  1  0.20040000  0.81890000  0.01581000  1.0 -0.437970041
O  O17  1  0.44610000  0.29090000  0.09230000  1.0 -0.5201901533
O  O18  1  0.57100000  0.19127000  0.93877000  1.0 -0.5667695316
O  O19  1  0.57940000  0.19240000  0.61448000  1.0 -0.4548421937
O  O20  1  0.63340000  0.72010000  0.04340000  1.0 -0.5629200178
O  O21  1  0.47700000  0.30123000  0.45343000  1.0 -0.5881445768
O  O22  1  0.35210000  0.78860000  0.98420000  1.0 -0.6160944539
O  O23  1  0.46930000  0.30280000  0.03120000  1.0 -0.5881445768
O  O24  1  0.60410000  0.18960000  0.87720000  1.0 -0.5429429847
O  O25  1  0.66700000  0.74110000  0.76300000  1.0 -0.0901021934
O  O26  1  0.25930000  0.75190000  0.25170000  1.0 -0.7328419524
O  O27  1  0.80200000  0.73810000  0.76710000  1.0 -0.0901021934
O  O28  1  0.30090000  0.22405000  0.44237000  1.0 -0.5429429847
O  O29  1  0.24460000  0.32660000  0.49399000  1.0 -0.4183350939
O  O30  1  0.58360000  0.30440000  0.53056000  1.0 -0.5881445768
O  O31  1  0.65660000  0.21180000  0.47720000  1.0 -0.5881445768
O  O32  1  0.74800000  0.27250000  0.92466000  1.0 -0.5264488074
O  O33  1  0.44210000  0.18950000  0.01560000  1.0 -0.5495405036
O  O34  1  0.44730000  0.18868000  0.47578000  1.0 -0.5667695316
O  O35  1  0.36230000  0.28090000  0.52805000  1.0 -0.5122236448
O  O36  1  0.72740000  0.27408000  0.56557000  1.0 -0.5122236448
O  O37  1  0.80290000  0.17832000  0.50831000  1.0 -0.4898775506
O  O38  1  0.59350000  0.29960000  0.95450000  1.0 -0.5201901533
O  O39  1  0.28500000  0.22610000  0.04260000  1.0 -0.5201901533
O  O40  1  0.44280000  0.80583000  0.44631000  1.0 -0.5769097048
O  O41  1  0.24610000  0.33270000  0.98934000  1.0 -0.5264488074
O  O42  1  0.54240000  0.70330000  0.60786000  1.0 -0.5122236448
O  O43  1  0.79960000  0.18110000  0.98419000  1.0 -0.437970041
O  O44  1  0.55390000  0.70910000  0.90770000  1.0 -0.5201901533
O  O45  1  0.42900000  0.80873000  0.06123000  1.0 -0.5667695316
O  O46  1  0.42060000  0.80760000  0.38552000  1.0 -0.4574871498
O  O47  1  0.36660000  0.27990000  0.95660000  1.0 -0.5629200178
O  O48  1  0.52300000  0.69877000  0.54657000  1.0 -0.5881445768
O  O49  1  0.64790000  0.21140000  0.01580000  1.0 -0.6147042352
O  O50  1  0.53070000  0.69720000  0.96880000  1.0 -0.5881445768
O  O51  1  0.39590000  0.81040000  0.12280000  1.0 -0.5429429847
O  O52  1  0.33300000  0.25890000  0.23700000  1.0 -0.1019205815
O  O53  1  0.74070000  0.24810000  0.74830000  1.0 -0.7359257775
O  O54  1  0.19800000  0.26190000  0.23290000  1.0 -0.0901021934
O  O55  1  0.87800000  0.56030000  0.72930000  1.0 -0.3966506857
O  O56  1  0.83860000  0.64010000  0.72700000  1.0 -0.5201901533
O  O57  1  0.88380000  0.59750000  0.78820000  1.0 -0.4804929686
O  O58  1  0.07310000  0.96180000  0.21560000  1.0 -0.5667695316
O  O59  1  0.07440000  0.88730000  0.25050000  1.0 -0.5201901533
O  O60  1  0.08510000  0.96120000  0.28280000  1.0 -0.5667695316
O  O61  1  0.12200000  0.43970000  0.27070000  1.0 -0.3966506857
O  O62  1  0.16140000  0.35990000  0.27300000  1.0 -0.5201901533
O  O63  1  0.11620000  0.40250000  0.21180000  1.0 -0.4804929686
O  O64  1  0.92690000  0.03820000  0.78440000  1.0 -0.5667695316
O  O65  1  0.92560000  0.11270000  0.74950000  1.0 -0.5201901533
O  O66  1  0.91490000  0.03880000  0.71720000  1.0 -0.5667695316
F  F1  1  0.67040000  0.59870000  0.71990000  1.0 -0.2017335508
F  F2  1  0.69310000  0.54380000  0.77430000  1.0 -0.1499473803
F  F3  1  0.65860000  0.61880000  0.78230000  1.0 -0.0117372073
F  F4  1  0.29800000  0.90500000  0.21820000  1.0 -0.1499473803
F  F5  1  0.28110000  0.97910000  0.24750000  1.0 -0.1773133365
F  F6  1  0.29580000  0.90430000  0.27830000  1.0 -0.160509451
F  F7  1  0.32960000  0.40130000  0.28010000  1.0 -0.2017335508
F  F8  1  0.30690000  0.45620000  0.22570000  1.0 -0.1499473803
F  F9  1  0.34140000  0.38120000  0.21770000  1.0 -0.0206656439
F  F10  1  0.70200000  0.09500000  0.78180000  1.0 -0.1499473803
F  F11  1  0.71890000  0.02090000  0.75250000  1.0 -0.1773133365
F  F12  1  0.70420000  0.09570000  0.72170000  1.0 -0.160509451
