# DDEC6 charges by PACMAN v1.1 (https://github.com/mtap-research/PACMAN-charge/)
data_EXOGAB_ASR_pacman
_symmetry_space_group_name_H-M   'P 1'
_cell_length_a   20.41630000
_cell_length_b   20.41630000
_cell_length_c   20.41630000
_cell_angle_alpha   54.23120000
_cell_angle_beta   54.23120000
_cell_angle_gamma   54.23120000
_symmetry_Int_Tables_number   1
_chemical_formula_structural   CuH7C14O5
_chemical_formula_sum   'Cu24 H168 C336 O120'
_cell_volume   5207.37027137
_cell_formula_units_Z   24
loop_
 _symmetry_equiv_pos_site_id
 _symmetry_equiv_pos_as_xyz
  1  'x, y, z'
loop_
 _atom_site_type_symbol
 _atom_site_label
 _atom_site_symmetry_multiplicity
 _atom_site_fract_x
 _atom_site_fract_y
 _atom_site_fract_z
 _atom_site_occupancy
 _atom_site_charge
Cu  Cu1  1  0.10430000  0.66360000  0.08420000  1.0 0.5200874611
Cu  Cu2  1  0.66360000  0.08420000  0.10430000  1.0 0.5200874611
Cu  Cu3  1  0.08420000  0.10430000  0.66360000  1.0 0.5200874611
Cu  Cu4  1  0.11065000  0.52785000  0.08805000  1.0 0.4723713908
Cu  Cu5  1  0.52785000  0.08805000  0.11065000  1.0 0.4723713908
Cu  Cu6  1  0.08805000  0.11065000  0.52785000  1.0 0.4723713908
Cu  Cu7  1  0.52886000  0.11156000  0.08826000  1.0 0.4763269339
Cu  Cu8  1  0.11156000  0.08826000  0.52886000  1.0 0.4763269339
Cu  Cu9  1  0.08826000  0.52886000  0.11156000  1.0 0.4763269339
Cu  Cu10  1  0.66420000  0.10580000  0.08330000  1.0 0.5200874611
Cu  Cu11  1  0.10580000  0.08330000  0.66420000  1.0 0.5200874611
Cu  Cu12  1  0.08330000  0.66420000  0.10580000  1.0 0.5200874611
Cu  Cu13  1  0.89570000  0.33640000  0.91580000  1.0 0.5200874611
Cu  Cu14  1  0.33640000  0.91580000  0.89570000  1.0 0.5200874611
Cu  Cu15  1  0.91580000  0.89570000  0.33640000  1.0 0.5200874611
Cu  Cu16  1  0.88935000  0.47215000  0.91195000  1.0 0.4723713908
Cu  Cu17  1  0.47215000  0.91195000  0.88935000  1.0 0.4723713908
Cu  Cu18  1  0.91195000  0.88935000  0.47215000  1.0 0.4723713908
Cu  Cu19  1  0.47114000  0.88844000  0.91174000  1.0 0.4763269339
Cu  Cu20  1  0.88844000  0.91174000  0.47114000  1.0 0.4763269339
Cu  Cu21  1  0.91174000  0.47114000  0.88844000  1.0 0.4763269339
Cu  Cu22  1  0.33580000  0.89420000  0.91670000  1.0 0.5200874611
Cu  Cu23  1  0.89420000  0.91670000  0.33580000  1.0 0.5253933582
Cu  Cu24  1  0.91670000  0.33580000  0.89420000  1.0 0.5200874611
H  H1  1  0.35140000  0.55880000  0.09100000  1.0 0.0706671054
H  H2  1  0.55880000  0.09100000  0.35140000  1.0 0.0706671054
H  H3  1  0.09100000  0.35140000  0.55880000  1.0 0.0706671054
H  H4  1  0.37500000  0.36920000  0.05570000  1.0 0.0899109643
H  H5  1  0.36920000  0.05570000  0.37500000  1.0 0.0899109643
H  H6  1  0.05570000  0.37500000  0.36920000  1.0 0.0899109643
H  H7  1  0.56780000  0.33960000  0.09110000  1.0 0.064726441
H  H8  1  0.33960000  0.09110000  0.56780000  1.0 0.064726441
H  H9  1  0.09110000  0.56780000  0.33960000  1.0 0.064726441
H  H10  1  0.40240000  0.60520000  0.10850000  1.0 0.0706671054
H  H11  1  0.60520000  0.10850000  0.40240000  1.0 0.0706671054
H  H12  1  0.10850000  0.40240000  0.60520000  1.0 0.0706671054
H  H13  1  0.61800000  0.38540000  0.10790000  1.0 0.0407621431
H  H14  1  0.38540000  0.10790000  0.61800000  1.0 0.0407621431
H  H15  1  0.10790000  0.61800000  0.38540000  1.0 0.0407621431
H  H16  1  0.45740000  0.65490000  0.13790000  1.0 0.0706671054
H  H17  1  0.65490000  0.13790000  0.45740000  1.0 0.0706671054
H  H18  1  0.13790000  0.45740000  0.65490000  1.0 0.0706671054
H  H19  1  0.67300000  0.43510000  0.13730000  1.0 0.0407621431
H  H20  1  0.43510000  0.13730000  0.67300000  1.0 0.0407621431
H  H21  1  0.13730000  0.67300000  0.43510000  1.0 0.0407621431
H  H22  1  0.73010000  0.52940000  0.08340000  1.0 0.0706671054
H  H23  1  0.52940000  0.08340000  0.73010000  1.0 0.0706671054
H  H24  1  0.08340000  0.73010000  0.52940000  1.0 0.0706671054
H  H25  1  0.48950000  0.66790000  0.21280000  1.0 0.0812128371
H  H26  1  0.66790000  0.21280000  0.48950000  1.0 0.0812128371
H  H27  1  0.21280000  0.48950000  0.66790000  1.0 0.0812128371
H  H28  1  0.79080000  0.59220000  0.09040000  1.0 0.0706671054
H  H29  1  0.59220000  0.09040000  0.79080000  1.0 0.0706671054
H  H30  1  0.09040000  0.79080000  0.59220000  1.0 0.0706671054
H  H31  1  0.55020000  0.73070000  0.21980000  1.0 0.0706671054
H  H32  1  0.73070000  0.21980000  0.55020000  1.0 0.0706671054
H  H33  1  0.21980000  0.55020000  0.73070000  1.0 0.0706671054
H  H34  1  0.84820000  0.60220000  0.14990000  1.0 0.0706671054
H  H35  1  0.60220000  0.14990000  0.84820000  1.0 0.0706671054
H  H36  1  0.14990000  0.84820000  0.60220000  1.0 0.0706671054
H  H37  1  0.62460000  0.81380000  0.15380000  1.0 0.0812128371
H  H38  1  0.81380000  0.15380000  0.62460000  1.0 0.0812128371
H  H39  1  0.15380000  0.62460000  0.81380000  1.0 0.0812128371
H  H40  1  0.83090000  0.81850000  0.13480000  1.0 0.1293409828
H  H41  1  0.81850000  0.13480000  0.83090000  1.0 0.1293409828
H  H42  1  0.13480000  0.83090000  0.81850000  1.0 0.1293409828
H  H43  1  0.36450000  0.08080000  0.35730000  1.0 0.096406645
H  H44  1  0.08080000  0.35730000  0.36450000  1.0 0.096406645
H  H45  1  0.35730000  0.36450000  0.08080000  1.0 0.096406645
H  H46  1  0.34130000  0.11520000  0.54740000  1.0 0.0899109643
H  H47  1  0.11520000  0.54740000  0.34130000  1.0 0.0899109643
H  H48  1  0.54740000  0.34130000  0.11520000  1.0 0.0899109643
H  H49  1  0.55540000  0.12020000  0.32620000  1.0 0.0494709013
H  H50  1  0.12020000  0.32620000  0.55540000  1.0 0.0494709013
H  H51  1  0.32620000  0.55540000  0.12020000  1.0 0.0494709013
H  H52  1  0.39040000  0.13660000  0.59360000  1.0 0.0812128371
H  H53  1  0.13660000  0.59360000  0.39040000  1.0 0.0812128371
H  H54  1  0.59360000  0.39040000  0.13660000  1.0 0.0812128371
H  H55  1  0.44840000  0.16040000  0.64500000  1.0 0.0812128371
H  H56  1  0.16040000  0.64500000  0.44840000  1.0 0.0812128371
H  H57  1  0.64500000  0.44840000  0.16040000  1.0 0.0812128371
H  H58  1  0.66200000  0.16320000  0.42320000  1.0 0.0407621431
H  H59  1  0.16320000  0.42320000  0.66200000  1.0 0.0407621431
H  H60  1  0.42320000  0.66200000  0.16320000  1.0 0.0407621431
H  H61  1  0.60392000  0.13930000  0.37168000  1.0 0.0407621431
H  H62  1  0.13930000  0.37168000  0.60392000  1.0 0.0407621431
H  H63  1  0.37168000  0.60392000  0.13930000  1.0 0.0407621431
H  H64  1  0.48710000  0.24820000  0.64540000  1.0 0.0706671054
H  H65  1  0.24820000  0.64540000  0.48710000  1.0 0.0706671054
H  H66  1  0.64540000  0.48710000  0.24820000  1.0 0.0706671054
H  H67  1  0.55110000  0.24740000  0.71090000  1.0 0.0494709013
H  H68  1  0.24740000  0.71090000  0.55110000  1.0 0.0494709013
H  H69  1  0.71090000  0.55110000  0.24740000  1.0 0.0494709013
H  H70  1  0.78250000  0.08510000  0.59950000  1.0 0.0706671054
H  H71  1  0.08510000  0.59950000  0.78250000  1.0 0.0706671054
H  H72  1  0.59950000  0.78250000  0.08510000  1.0 0.0706671054
H  H73  1  0.71860000  0.08580000  0.53400000  1.0 0.0706671054
H  H74  1  0.08580000  0.53400000  0.71860000  1.0 0.0706671054
H  H75  1  0.53400000  0.71860000  0.08580000  1.0 0.0706671054
H  H76  1  0.84550000  0.15080000  0.60100000  1.0 0.0706671054
H  H77  1  0.15080000  0.60100000  0.84550000  1.0 0.0706671054
H  H78  1  0.60100000  0.84550000  0.15080000  1.0 0.0706671054
H  H79  1  0.83350000  0.12650000  0.81910000  1.0 0.1293409828
H  H80  1  0.12650000  0.81910000  0.83350000  1.0 0.1293409828
H  H81  1  0.81910000  0.83350000  0.12650000  1.0 0.1293409828
H  H82  1  0.62120000  0.16040000  0.81180000  1.0 0.0812128371
H  H83  1  0.16040000  0.81180000  0.62120000  1.0 0.0812128371
H  H84  1  0.81180000  0.62120000  0.16040000  1.0 0.0812128371
H  H85  1  0.64860000  0.44120000  0.90900000  1.0 0.0706671054
H  H86  1  0.44120000  0.90900000  0.64860000  1.0 0.0706671054
H  H87  1  0.90900000  0.64860000  0.44120000  1.0 0.0706671054
H  H88  1  0.62500000  0.63080000  0.94430000  1.0 0.0899109643
H  H89  1  0.63080000  0.94430000  0.62500000  1.0 0.0899109643
H  H90  1  0.94430000  0.62500000  0.63080000  1.0 0.0899109643
H  H91  1  0.43220000  0.66040000  0.90890000  1.0 0.064726441
H  H92  1  0.66040000  0.90890000  0.43220000  1.0 0.064726441
H  H93  1  0.90890000  0.43220000  0.66040000  1.0 0.064726441
H  H94  1  0.59760000  0.39480000  0.89150000  1.0 0.0706671054
H  H95  1  0.39480000  0.89150000  0.59760000  1.0 0.0706671054
H  H96  1  0.89150000  0.59760000  0.39480000  1.0 0.0706671054
H  H97  1  0.38200000  0.61460000  0.89210000  1.0 0.0407621431
H  H98  1  0.61460000  0.89210000  0.38200000  1.0 0.0407621431
H  H99  1  0.89210000  0.38200000  0.61460000  1.0 0.0407621431
H  H100  1  0.54260000  0.34510000  0.86210000  1.0 0.0706671054
H  H101  1  0.34510000  0.86210000  0.54260000  1.0 0.0706671054
H  H102  1  0.86210000  0.54260000  0.34510000  1.0 0.0706671054
H  H103  1  0.32700000  0.56490000  0.86270000  1.0 0.0407621431
H  H104  1  0.56490000  0.86270000  0.32700000  1.0 0.0407621431
H  H105  1  0.86270000  0.32700000  0.56490000  1.0 0.0407621431
H  H106  1  0.26990000  0.47060000  0.91660000  1.0 0.0706671054
H  H107  1  0.47060000  0.91660000  0.26990000  1.0 0.0706671054
H  H108  1  0.91660000  0.26990000  0.47060000  1.0 0.0706671054
H  H109  1  0.51050000  0.33210000  0.78720000  1.0 0.0812128371
H  H110  1  0.33210000  0.78720000  0.51050000  1.0 0.0812128371
H  H111  1  0.78720000  0.51050000  0.33210000  1.0 0.0812128371
H  H112  1  0.20920000  0.40780000  0.90960000  1.0 0.0706671054
H  H113  1  0.40780000  0.90960000  0.20920000  1.0 0.0706671054
H  H114  1  0.90960000  0.20920000  0.40780000  1.0 0.0706671054
H  H115  1  0.44980000  0.26930000  0.78020000  1.0 0.0706671054
H  H116  1  0.26930000  0.78020000  0.44980000  1.0 0.0706671054
H  H117  1  0.78020000  0.44980000  0.26930000  1.0 0.0706671054
H  H118  1  0.15180000  0.39780000  0.85010000  1.0 0.0706671054
H  H119  1  0.39780000  0.85010000  0.15180000  1.0 0.0706671054
H  H120  1  0.85010000  0.15180000  0.39780000  1.0 0.0706671054
H  H121  1  0.37540000  0.18620000  0.84620000  1.0 0.0812128371
H  H122  1  0.18620000  0.84620000  0.37540000  1.0 0.0812128371
H  H123  1  0.84620000  0.37540000  0.18620000  1.0 0.0812128371
H  H124  1  0.16910000  0.18150000  0.86520000  1.0 0.1293409828
H  H125  1  0.18150000  0.86520000  0.16910000  1.0 0.1293409828
H  H126  1  0.86520000  0.16910000  0.18150000  1.0 0.1293409828
H  H127  1  0.63550000  0.91920000  0.64270000  1.0 0.096406645
H  H128  1  0.91920000  0.64270000  0.63550000  1.0 0.096406645
H  H129  1  0.64270000  0.63550000  0.91920000  1.0 0.096406645
H  H130  1  0.65870000  0.88480000  0.45260000  1.0 0.0899109643
H  H131  1  0.88480000  0.45260000  0.65870000  1.0 0.0899109643
H  H132  1  0.45260000  0.65870000  0.88480000  1.0 0.0899109643
H  H133  1  0.44460000  0.87980000  0.67380000  1.0 0.0494709013
H  H134  1  0.87980000  0.67380000  0.44460000  1.0 0.0494709013
H  H135  1  0.67380000  0.44460000  0.87980000  1.0 0.0494709013
H  H136  1  0.60960000  0.86340000  0.40640000  1.0 0.0812128371
H  H137  1  0.86340000  0.40640000  0.60960000  1.0 0.0812128371
H  H138  1  0.40640000  0.60960000  0.86340000  1.0 0.0812128371
H  H139  1  0.55160000  0.83960000  0.35500000  1.0 0.0812128371
H  H140  1  0.83960000  0.35500000  0.55160000  1.0 0.0812128371
H  H141  1  0.35500000  0.55160000  0.83960000  1.0 0.0812128371
H  H142  1  0.33800000  0.83680000  0.57680000  1.0 0.0407621431
H  H143  1  0.83680000  0.57680000  0.33800000  1.0 0.0407621431
H  H144  1  0.57680000  0.33800000  0.83680000  1.0 0.0407621431
H  H145  1  0.39608000  0.86070000  0.62832000  1.0 0.0342363887
H  H146  1  0.86070000  0.62832000  0.39608000  1.0 0.0342363887
H  H147  1  0.62832000  0.39608000  0.86070000  1.0 0.0407621431
H  H148  1  0.51290000  0.75180000  0.35460000  1.0 0.0706671054
H  H149  1  0.75180000  0.35460000  0.51290000  1.0 0.0706671054
H  H150  1  0.35460000  0.51290000  0.75180000  1.0 0.0706671054
H  H151  1  0.44890000  0.75260000  0.28910000  1.0 0.0494709013
H  H152  1  0.75260000  0.28910000  0.44890000  1.0 0.0494709013
H  H153  1  0.28910000  0.44890000  0.75260000  1.0 0.0494709013
H  H154  1  0.21750000  0.91490000  0.40050000  1.0 0.0706671054
H  H155  1  0.91490000  0.40050000  0.21750000  1.0 0.0706671054
H  H156  1  0.40050000  0.21750000  0.91490000  1.0 0.0706671054
H  H157  1  0.28140000  0.91420000  0.46600000  1.0 0.064726441
H  H158  1  0.91420000  0.46600000  0.28140000  1.0 0.0706671054
H  H159  1  0.46600000  0.28140000  0.91420000  1.0 0.0706671054
H  H160  1  0.15450000  0.84920000  0.39900000  1.0 0.0706671054
H  H161  1  0.84920000  0.39900000  0.15450000  1.0 0.0706671054
H  H162  1  0.39900000  0.15450000  0.84920000  1.0 0.0706671054
H  H163  1  0.16650000  0.87350000  0.18090000  1.0 0.1293409828
H  H164  1  0.87350000  0.18090000  0.16650000  1.0 0.1293409828
H  H165  1  0.18090000  0.16650000  0.87350000  1.0 0.1293409828
H  H166  1  0.37880000  0.83960000  0.18820000  1.0 0.0812128371
H  H167  1  0.83960000  0.18820000  0.37880000  1.0 0.0812128371
H  H168  1  0.18820000  0.37880000  0.83960000  1.0 0.0812128371
C  C1  1  0.94540000  0.66280000  0.12680000  1.0 0.307106382
C  C2  1  0.66280000  0.12680000  0.94540000  1.0 0.307106382
C  C3  1  0.12680000  0.94540000  0.66280000  1.0 0.307106382
C  C4  1  0.26220000  0.52290000  0.06610000  1.0 0.2489844475
C  C5  1  0.52290000  0.06610000  0.26220000  1.0 0.2489844475
C  C6  1  0.06610000  0.26220000  0.52290000  1.0 0.2489844475
C  C7  1  0.52780000  0.25490000  0.06670000  1.0 0.2987769905
C  C8  1  0.25490000  0.06670000  0.52780000  1.0 0.2987769905
C  C9  1  0.06670000  0.52780000  0.25490000  1.0 0.2987769905
C  C10  1  0.67250000  0.92360000  0.13650000  1.0 0.2607577208
C  C11  1  0.92360000  0.13650000  0.67250000  1.0 0.2607577208
C  C12  1  0.13650000  0.67250000  0.92360000  1.0 0.2607577208
C  C13  1  0.35040000  0.47180000  0.07220000  1.0 0.0096286315
C  C14  1  0.47180000  0.07220000  0.35040000  1.0 0.0096286315
C  C15  1  0.07220000  0.35040000  0.47180000  1.0 0.0096286315
C  C16  1  0.38390000  0.50350000  0.08620000  1.0 -0.0962458339
C  C17  1  0.50350000  0.08620000  0.38390000  1.0 -0.0962458339
C  C18  1  0.08620000  0.38390000  0.50350000  1.0 -0.0962458339
C  C19  1  0.39795000  0.39085000  0.06525000  1.0 -0.1079471391
C  C20  1  0.39085000  0.06525000  0.39795000  1.0 -0.1079471391
C  C21  1  0.06525000  0.39795000  0.39085000  1.0 -0.1079471391
C  C22  1  0.46496000  0.45426000  0.09326000  1.0 0.0154187463
C  C23  1  0.45426000  0.09326000  0.46496000  1.0 0.0154187463
C  C24  1  0.09326000  0.46496000  0.45426000  1.0 0.0154187463
C  C25  1  0.47900000  0.34160000  0.07230000  1.0 -0.0299365499
C  C26  1  0.34160000  0.07230000  0.47900000  1.0 -0.0299365499
C  C27  1  0.07230000  0.47900000  0.34160000  1.0 -0.0299365499
C  C28  1  0.50501000  0.49061000  0.10551000  1.0 0.0096286315
C  C29  1  0.49061000  0.10551000  0.50501000  1.0 0.0096286315
C  C30  1  0.10551000  0.50501000  0.49061000  1.0 0.0096286315
C  C31  1  0.51240000  0.37340000  0.08630000  1.0 -0.1298862638
C  C32  1  0.37340000  0.08630000  0.51240000  1.0 -0.1298862638
C  C33  1  0.08630000  0.51240000  0.37340000  1.0 -0.1298862638
C  C34  1  0.45735000  0.57065000  0.11435000  1.0 -0.0712369767
C  C35  1  0.57065000  0.11435000  0.45735000  1.0 -0.0712369767
C  C36  1  0.11435000  0.45735000  0.57065000  1.0 -0.0712369767
C  C37  1  0.58540000  0.44010000  0.11400000  1.0 -0.0913595672
C  C38  1  0.44010000  0.11400000  0.58540000  1.0 -0.0913595672
C  C39  1  0.11400000  0.58540000  0.44010000  1.0 -0.0913595672
C  C40  1  0.48998000  0.60018000  0.13178000  1.0 -0.0504317078
C  C41  1  0.60018000  0.13178000  0.48998000  1.0 -0.0504317078
C  C42  1  0.13178000  0.48998000  0.60018000  1.0 -0.0504317078
C  C43  1  0.61803000  0.46963000  0.13143000  1.0 -0.0913595672
C  C44  1  0.46963000  0.13143000  0.61803000  1.0 -0.0913595672
C  C45  1  0.13143000  0.61803000  0.46963000  1.0 -0.0913595672
C  C46  1  0.57027000  0.54977000  0.14027000  1.0 0.0407621431
C  C47  1  0.54977000  0.14027000  0.57027000  1.0 0.0407621431
C  C48  1  0.14027000  0.57027000  0.54977000  1.0 0.0407621431
C  C49  1  0.60408000  0.59278000  0.14748000  1.0 0.0342363887
C  C50  1  0.59278000  0.14748000  0.60408000  1.0 0.0342363887
C  C51  1  0.14748000  0.60408000  0.59278000  1.0 0.0342363887
C  C52  1  0.69359000  0.57029000  0.11109000  1.0 -0.1983715382
C  C53  1  0.57029000  0.11109000  0.69359000  1.0 -0.1983715382
C  C54  1  0.11109000  0.69359000  0.57029000  1.0 -0.1983715382
C  C55  1  0.55070000  0.65250000  0.18800000  1.0 -0.0088771863
C  C56  1  0.65250000  0.18800000  0.55070000  1.0 -0.0088771863
C  C57  1  0.18800000  0.55070000  0.65250000  1.0 -0.0088771863
C  C58  1  0.72962000  0.60762000  0.11522000  1.0 -0.1298862638
C  C59  1  0.60762000  0.11522000  0.72962000  1.0 -0.1298862638
C  C60  1  0.11522000  0.72962000  0.60762000  1.0 -0.1298862638
C  C61  1  0.58670000  0.68980000  0.19210000  1.0 -0.0215298514
C  C62  1  0.68980000  0.19210000  0.58670000  1.0 -0.0215298514
C  C63  1  0.19210000  0.58670000  0.68980000  1.0 -0.0215298514
C  C64  1  0.67624000  0.66734000  0.15574000  1.0 0.0407621431
C  C65  1  0.66734000  0.15574000  0.67624000  1.0 0.0407621431
C  C66  1  0.15574000  0.67624000  0.66734000  1.0 0.0407621431
C  C67  1  0.73049000  0.70099000  0.15289000  1.0 0.0494709013
C  C68  1  0.70099000  0.15289000  0.73049000  1.0 0.0494709013
C  C69  1  0.15289000  0.73049000  0.70099000  1.0 0.0494709013
C  C70  1  0.81560000  0.66010000  0.14830000  1.0 -0.1079471391
C  C71  1  0.66010000  0.14830000  0.81560000  1.0 -0.1079471391
C  C72  1  0.14830000  0.81560000  0.66010000  1.0 -0.1079471391
C  C73  1  0.68280000  0.78580000  0.15060000  1.0 -0.0504317078
C  C74  1  0.78580000  0.15060000  0.68280000  1.0 -0.0504317078
C  C75  1  0.15060000  0.68280000  0.78580000  1.0 -0.0504317078
C  C76  1  0.85300000  0.70380000  0.14160000  1.0 0.0096286315
C  C77  1  0.70380000  0.14160000  0.85300000  1.0 0.0096286315
C  C78  1  0.14160000  0.85300000  0.70380000  1.0 0.0096286315
C  C79  1  0.72020000  0.82950000  0.14390000  1.0 0.0015447669
C  C80  1  0.82950000  0.14390000  0.72020000  1.0 0.0015447669
C  C81  1  0.14390000  0.72020000  0.82950000  1.0 0.0015447669
C  C82  1  0.80530000  0.78860000  0.13930000  1.0 -0.1696588036
C  C83  1  0.78860000  0.13930000  0.80530000  1.0 -0.1696588036
C  C84  1  0.13930000  0.80530000  0.78860000  1.0 -0.1696588036
C  C85  1  0.52050000  0.09360000  0.23980000  1.0 0.2607577208
C  C86  1  0.09360000  0.23980000  0.52050000  1.0 0.2607577208
C  C87  1  0.23980000  0.52050000  0.09360000  1.0 0.2607577208
C  C88  1  0.46740000  0.09960000  0.32890000  1.0 0.0096286315
C  C89  1  0.09960000  0.32890000  0.46740000  1.0 0.0096286315
C  C90  1  0.32890000  0.46740000  0.09960000  1.0 0.0096286315
C  C91  1  0.38709000  0.09089000  0.37889000  1.0 -0.0913595672
C  C92  1  0.09089000  0.37889000  0.38709000  1.0 -0.0913595672
C  C93  1  0.37889000  0.38709000  0.09089000  1.0 -0.0913595672
C  C94  1  0.34020000  0.09660000  0.46030000  1.0 0.0096286315
C  C95  1  0.09660000  0.46030000  0.34020000  1.0 0.0096286315
C  C96  1  0.46030000  0.34020000  0.09660000  1.0 0.0096286315
C  C97  1  0.37340000  0.11120000  0.49170000  1.0 -0.0962458339
C  C98  1  0.11120000  0.49170000  0.37340000  1.0 -0.0962458339
C  C99  1  0.49170000  0.37340000  0.11120000  1.0 -0.0962458339
C  C100  1  0.45355000  0.12005000  0.44185000  1.0 0.0342363887
C  C101  1  0.12005000  0.44185000  0.45355000  1.0 0.0342363887
C  C102  1  0.44185000  0.45355000  0.12005000  1.0 0.0342363887
C  C103  1  0.50060000  0.11420000  0.36030000  1.0 -0.0823638376
C  C104  1  0.11420000  0.36030000  0.50060000  1.0 -0.0823638376
C  C105  1  0.36030000  0.50060000  0.11420000  1.0 -0.0823638376
C  C106  1  0.25020000  0.09260000  0.51470000  1.0 0.271625689
C  C107  1  0.09260000  0.51470000  0.25020000  1.0 0.271625689
C  C108  1  0.51470000  0.25020000  0.09260000  1.0 0.271625689
C  C109  1  0.49158000  0.13578000  0.47788000  1.0 0.0407621431
C  C110  1  0.13578000  0.47788000  0.49158000  1.0 0.0407621431
C  C111  1  0.47788000  0.49158000  0.13578000  1.0 0.0407621431
C  C112  1  0.44544000  0.14204000  0.55904000  1.0 -0.0712369767
C  C113  1  0.14204000  0.55904000  0.44544000  1.0 -0.0712369767
C  C114  1  0.55904000  0.44544000  0.14204000  1.0 -0.0712369767
C  C115  1  0.47994000  0.15624000  0.58954000  1.0 -0.0299365499
C  C116  1  0.15624000  0.58954000  0.47994000  1.0 -0.0299365499
C  C117  1  0.58954000  0.47994000  0.15624000  1.0 -0.0299365499
C  C118  1  0.56060000  0.16410000  0.53900000  1.0 0.0407621431
C  C119  1  0.16410000  0.53900000  0.56060000  1.0 0.0407621431
C  C120  1  0.53900000  0.56060000  0.16410000  1.0 0.0407621431
C  C121  1  0.60674000  0.15784000  0.45784000  1.0 -0.0913595672
C  C122  1  0.15784000  0.45784000  0.60674000  1.0 -0.0913595672
C  C123  1  0.45784000  0.60674000  0.15784000  1.0 -0.0913595672
C  C124  1  0.57233000  0.14363000  0.42723000  1.0 -0.0712369767
C  C125  1  0.14363000  0.42723000  0.57233000  1.0 -0.0712369767
C  C126  1  0.42723000  0.57233000  0.14363000  1.0 -0.0712369767
C  C127  1  0.59677000  0.16717000  0.58367000  1.0 0.0342363887
C  C128  1  0.16717000  0.58367000  0.59677000  1.0 0.0342363887
C  C129  1  0.58367000  0.59677000  0.16717000  1.0 0.0342363887
C  C130  1  0.54710000  0.21510000  0.63620000  1.0 -0.1079471391
C  C131  1  0.21510000  0.63620000  0.54710000  1.0 -0.1079471391
C  C132  1  0.63620000  0.54710000  0.21510000  1.0 -0.1079471391
C  C133  1  0.58513000  0.21463000  0.67493000  1.0 -0.0913595672
C  C134  1  0.21463000  0.67493000  0.58513000  1.0 -0.0913595672
C  C135  1  0.67493000  0.58513000  0.21463000  1.0 -0.0913595672
C  C136  1  0.67277000  0.16617000  0.66137000  1.0 0.0407621431
C  C137  1  0.16617000  0.66137000  0.67277000  1.0 0.0407621431
C  C138  1  0.66137000  0.67277000  0.16617000  1.0 0.0407621431
C  C139  1  0.72260000  0.11820000  0.60890000  1.0 -0.0712369767
C  C140  1  0.11820000  0.60890000  0.72260000  1.0 -0.0712369767
C  C141  1  0.60890000  0.72260000  0.11820000  1.0 -0.0712369767
C  C142  1  0.68451000  0.11871000  0.57001000  1.0 -0.0913595672
C  C143  1  0.11871000  0.57001000  0.68451000  1.0 -0.0913595672
C  C144  1  0.57001000  0.68451000  0.11871000  1.0 -0.0913595672
C  C145  1  0.72713000  0.15743000  0.69933000  1.0 0.0494709013
C  C146  1  0.15743000  0.69933000  0.72713000  1.0 0.0494709013
C  C147  1  0.69933000  0.72713000  0.15743000  1.0 0.0494709013
C  C148  1  0.81360000  0.14890000  0.65910000  1.0 -0.1176162386
C  C149  1  0.14890000  0.65910000  0.81360000  1.0 -0.1176162386
C  C150  1  0.65910000  0.81360000  0.14890000  1.0 -0.1176162386
C  C151  1  0.85320000  0.13730000  0.70370000  1.0 -0.0215298514
C  C152  1  0.13730000  0.70370000  0.85320000  1.0 -0.0215298514
C  C153  1  0.70370000  0.85320000  0.13730000  1.0 -0.0215298514
C  C154  1  0.80640000  0.13450000  0.78870000  1.0 -0.1613627435
C  C155  1  0.13450000  0.78870000  0.80640000  1.0 -0.1613627435
C  C156  1  0.78870000  0.80640000  0.13450000  1.0 -0.1613627435
C  C157  1  0.71990000  0.14300000  0.82890000  1.0 -0.0088771863
C  C158  1  0.14300000  0.82890000  0.71990000  1.0 -0.0088771863
C  C159  1  0.82890000  0.71990000  0.14300000  1.0 -0.0088771863
C  C160  1  0.68030000  0.15460000  0.78430000  1.0 -0.0430321249
C  C161  1  0.15460000  0.78430000  0.68030000  1.0 -0.0430321249
C  C162  1  0.78430000  0.68030000  0.15460000  1.0 -0.0430321249
C  C163  1  0.94890000  0.12150000  0.66250000  1.0 0.2987769905
C  C164  1  0.12150000  0.66250000  0.94890000  1.0 0.2987769905
C  C165  1  0.66250000  0.94890000  0.12150000  1.0 0.2987769905
C  C166  1  0.67440000  0.13730000  0.91880000  1.0 0.2489844475
C  C167  1  0.13730000  0.91880000  0.67440000  1.0 0.2489844475
C  C168  1  0.91880000  0.67440000  0.13730000  1.0 0.2489844475
C  C169  1  0.05460000  0.33720000  0.87320000  1.0 0.307106382
C  C170  1  0.33720000  0.87320000  0.05460000  1.0 0.307106382
C  C171  1  0.87320000  0.05460000  0.33720000  1.0 0.307106382
C  C172  1  0.73780000  0.47710000  0.93390000  1.0 0.2489844475
C  C173  1  0.47710000  0.93390000  0.73780000  1.0 0.2489844475
C  C174  1  0.93390000  0.73780000  0.47710000  1.0 0.2489844475
C  C175  1  0.47220000  0.74510000  0.93330000  1.0 0.2987769905
C  C176  1  0.74510000  0.93330000  0.47220000  1.0 0.2987769905
C  C177  1  0.93330000  0.47220000  0.74510000  1.0 0.2987769905
C  C178  1  0.32750000  0.07640000  0.86350000  1.0 0.2607577208
C  C179  1  0.07640000  0.86350000  0.32750000  1.0 0.2607577208
C  C180  1  0.86350000  0.32750000  0.07640000  1.0 0.2607577208
C  C181  1  0.64960000  0.52820000  0.92780000  1.0 0.0096286315
C  C182  1  0.52820000  0.92780000  0.64960000  1.0 0.0096286315
C  C183  1  0.92780000  0.64960000  0.52820000  1.0 0.0096286315
C  C184  1  0.61610000  0.49650000  0.91380000  1.0 -0.0962458339
C  C185  1  0.49650000  0.91380000  0.61610000  1.0 -0.0962458339
C  C186  1  0.91380000  0.61610000  0.49650000  1.0 -0.0962458339
C  C187  1  0.60205000  0.60915000  0.93475000  1.0 -0.1079471391
C  C188  1  0.60915000  0.93475000  0.60205000  1.0 -0.1079471391
C  C189  1  0.93475000  0.60205000  0.60915000  1.0 -0.1079471391
C  C190  1  0.53504000  0.54574000  0.90674000  1.0 0.0154187463
C  C191  1  0.54574000  0.90674000  0.53504000  1.0 0.0154187463
C  C192  1  0.90674000  0.53504000  0.54574000  1.0 0.0154187463
C  C193  1  0.52100000  0.65840000  0.92770000  1.0 -0.0299365499
C  C194  1  0.65840000  0.92770000  0.52100000  1.0 -0.0299365499
C  C195  1  0.92770000  0.52100000  0.65840000  1.0 -0.0299365499
C  C196  1  0.49499000  0.50939000  0.89449000  1.0 0.0096286315
C  C197  1  0.50939000  0.89449000  0.49499000  1.0 0.0096286315
C  C198  1  0.89449000  0.49499000  0.50939000  1.0 0.0096286315
C  C199  1  0.48760000  0.62660000  0.91370000  1.0 -0.1298862638
C  C200  1  0.62660000  0.91370000  0.48760000  1.0 -0.1298862638
C  C201  1  0.91370000  0.48760000  0.62660000  1.0 -0.1298862638
C  C202  1  0.54265000  0.42935000  0.88565000  1.0 -0.0712369767
C  C203  1  0.42935000  0.88565000  0.54265000  1.0 -0.0712369767
C  C204  1  0.88565000  0.54265000  0.42935000  1.0 -0.0712369767
C  C205  1  0.41460000  0.55990000  0.88600000  1.0 -0.0913595672
C  C206  1  0.55990000  0.88600000  0.41460000  1.0 -0.0913595672
C  C207  1  0.88600000  0.41460000  0.55990000  1.0 -0.0913595672
C  C208  1  0.51002000  0.39982000  0.86822000  1.0 -0.0504317078
C  C209  1  0.39982000  0.86822000  0.51002000  1.0 -0.0504317078
C  C210  1  0.86822000  0.51002000  0.39982000  1.0 -0.0504317078
C  C211  1  0.38197000  0.53037000  0.86857000  1.0 -0.0913595672
C  C212  1  0.53037000  0.86857000  0.38197000  1.0 -0.0913595672
C  C213  1  0.86857000  0.38197000  0.53037000  1.0 -0.0913595672
C  C214  1  0.42973000  0.45023000  0.85973000  1.0 0.0407621431
C  C215  1  0.45023000  0.85973000  0.42973000  1.0 0.0407621431
C  C216  1  0.85973000  0.42973000  0.45023000  1.0 0.0407621431
C  C217  1  0.39592000  0.40722000  0.85252000  1.0 0.0342363887
C  C218  1  0.40722000  0.85252000  0.39592000  1.0 0.0342363887
C  C219  1  0.85252000  0.39592000  0.40722000  1.0 0.0342363887
C  C220  1  0.30641000  0.42971000  0.88891000  1.0 -0.1983715382
C  C221  1  0.42971000  0.88891000  0.30641000  1.0 -0.1983715382
C  C222  1  0.88891000  0.30641000  0.42971000  1.0 -0.1983715382
C  C223  1  0.44930000  0.34750000  0.81200000  1.0 -0.0088771863
C  C224  1  0.34750000  0.81200000  0.44930000  1.0 -0.0088771863
C  C225  1  0.81200000  0.44930000  0.34750000  1.0 -0.0088771863
C  C226  1  0.27038000  0.39238000  0.88478000  1.0 -0.1298862638
C  C227  1  0.39238000  0.88478000  0.27038000  1.0 -0.1298862638
C  C228  1  0.88478000  0.27038000  0.39238000  1.0 -0.1298862638
C  C229  1  0.41330000  0.31020000  0.80790000  1.0 -0.0215298514
C  C230  1  0.31020000  0.80790000  0.41330000  1.0 -0.0215298514
C  C231  1  0.80790000  0.41330000  0.31020000  1.0 -0.0215298514
C  C232  1  0.32376000  0.33266000  0.84426000  1.0 0.0407621431
C  C233  1  0.33266000  0.84426000  0.32376000  1.0 0.0407621431
C  C234  1  0.84426000  0.32376000  0.33266000  1.0 0.0407621431
C  C235  1  0.26951000  0.29901000  0.84711000  1.0 0.0494709013
C  C236  1  0.29901000  0.84711000  0.26951000  1.0 0.0494709013
C  C237  1  0.84711000  0.26951000  0.29901000  1.0 0.0494709013
C  C238  1  0.18440000  0.33990000  0.85170000  1.0 -0.1079471391
C  C239  1  0.33990000  0.85170000  0.18440000  1.0 -0.1079471391
C  C240  1  0.85170000  0.18440000  0.33990000  1.0 -0.1079471391
C  C241  1  0.31720000  0.21420000  0.84940000  1.0 -0.0504317078
C  C242  1  0.21420000  0.84940000  0.31720000  1.0 -0.0504317078
C  C243  1  0.84940000  0.31720000  0.21420000  1.0 -0.0504317078
C  C244  1  0.14700000  0.29620000  0.85840000  1.0 0.0096286315
C  C245  1  0.29620000  0.85840000  0.14700000  1.0 0.0096286315
C  C246  1  0.85840000  0.14700000  0.29620000  1.0 0.0096286315
C  C247  1  0.27980000  0.17050000  0.85610000  1.0 0.0015447669
C  C248  1  0.17050000  0.85610000  0.27980000  1.0 0.0015447669
C  C249  1  0.85610000  0.27980000  0.17050000  1.0 0.0015447669
C  C250  1  0.19470000  0.21140000  0.86070000  1.0 -0.1696588036
C  C251  1  0.21140000  0.86070000  0.19470000  1.0 -0.1696588036
C  C252  1  0.86070000  0.19470000  0.21140000  1.0 -0.1696588036
C  C253  1  0.47950000  0.90640000  0.76020000  1.0 0.2607577208
C  C254  1  0.90640000  0.76020000  0.47950000  1.0 0.2607577208
C  C255  1  0.76020000  0.47950000  0.90640000  1.0 0.2607577208
C  C256  1  0.53260000  0.90040000  0.67110000  1.0 0.0096286315
C  C257  1  0.90040000  0.67110000  0.53260000  1.0 0.0096286315
C  C258  1  0.67110000  0.53260000  0.90040000  1.0 0.0096286315
C  C259  1  0.61291000  0.90911000  0.62111000  1.0 -0.0913595672
C  C260  1  0.90911000  0.62111000  0.61291000  1.0 -0.0913595672
C  C261  1  0.62111000  0.61291000  0.90911000  1.0 -0.0913595672
C  C262  1  0.65980000  0.90340000  0.53970000  1.0 0.0096286315
C  C263  1  0.90340000  0.53970000  0.65980000  1.0 0.0096286315
C  C264  1  0.53970000  0.65980000  0.90340000  1.0 0.0096286315
C  C265  1  0.62660000  0.88880000  0.50830000  1.0 -0.0962458339
C  C266  1  0.88880000  0.50830000  0.62660000  1.0 -0.0962458339
C  C267  1  0.50830000  0.62660000  0.88880000  1.0 -0.0962458339
C  C268  1  0.54645000  0.87995000  0.55815000  1.0 0.0342363887
C  C269  1  0.87995000  0.55815000  0.54645000  1.0 0.0342363887
C  C270  1  0.55815000  0.54645000  0.87995000  1.0 0.0342363887
C  C271  1  0.49940000  0.88580000  0.63970000  1.0 -0.0823638376
C  C272  1  0.88580000  0.63970000  0.49940000  1.0 -0.0823638376
C  C273  1  0.63970000  0.49940000  0.88580000  1.0 -0.0823638376
C  C274  1  0.74980000  0.90740000  0.48530000  1.0 0.271625689
C  C275  1  0.90740000  0.48530000  0.74980000  1.0 0.271625689
C  C276  1  0.48530000  0.74980000  0.90740000  1.0 0.271625689
C  C277  1  0.50842000  0.86422000  0.52212000  1.0 0.0407621431
C  C278  1  0.86422000  0.52212000  0.50842000  1.0 0.0407621431
C  C279  1  0.52212000  0.50842000  0.86422000  1.0 0.0407621431
C  C280  1  0.55456000  0.85796000  0.44096000  1.0 -0.0712369767
C  C281  1  0.85796000  0.44096000  0.55456000  1.0 -0.0712369767
C  C282  1  0.44096000  0.55456000  0.85796000  1.0 -0.0712369767
C  C283  1  0.52006000  0.84376000  0.41046000  1.0 -0.0299365499
C  C284  1  0.84376000  0.41046000  0.52006000  1.0 -0.0299365499
C  C285  1  0.41046000  0.52006000  0.84376000  1.0 -0.0299365499
C  C286  1  0.43940000  0.83590000  0.46100000  1.0 0.0407621431
C  C287  1  0.83590000  0.46100000  0.43940000  1.0 0.0407621431
C  C288  1  0.46100000  0.43940000  0.83590000  1.0 0.0407621431
C  C289  1  0.39326000  0.84216000  0.54216000  1.0 -0.0913595672
C  C290  1  0.84216000  0.54216000  0.39326000  1.0 -0.0913595672
C  C291  1  0.54216000  0.39326000  0.84216000  1.0 -0.0913595672
C  C292  1  0.42767000  0.85637000  0.57277000  1.0 -0.0712369767
C  C293  1  0.85637000  0.57277000  0.42767000  1.0 -0.0712369767
C  C294  1  0.57277000  0.42767000  0.85637000  1.0 -0.0712369767
C  C295  1  0.40323000  0.83283000  0.41633000  1.0 0.0342363887
C  C296  1  0.83283000  0.41633000  0.40323000  1.0 0.0342363887
C  C297  1  0.41633000  0.40323000  0.83283000  1.0 0.0342363887
C  C298  1  0.45290000  0.78490000  0.36380000  1.0 -0.1079471391
C  C299  1  0.78490000  0.36380000  0.45290000  1.0 -0.1079471391
C  C300  1  0.36380000  0.45290000  0.78490000  1.0 -0.1079471391
C  C301  1  0.41487000  0.78537000  0.32507000  1.0 -0.0913595672
C  C302  1  0.78537000  0.32507000  0.41487000  1.0 -0.0913595672
C  C303  1  0.32507000  0.41487000  0.78537000  1.0 -0.0913595672
C  C304  1  0.32723000  0.83383000  0.33863000  1.0 0.0407621431
C  C305  1  0.83383000  0.33863000  0.32723000  1.0 0.0407621431
C  C306  1  0.33863000  0.32723000  0.83383000  1.0 0.0407621431
C  C307  1  0.27740000  0.88180000  0.39110000  1.0 -0.0712369767
C  C308  1  0.88180000  0.39110000  0.27740000  1.0 -0.0712369767
C  C309  1  0.39110000  0.27740000  0.88180000  1.0 -0.0712369767
C  C310  1  0.31549000  0.88129000  0.42999000  1.0 -0.0913595672
C  C311  1  0.88129000  0.42999000  0.31549000  1.0 -0.0913595672
C  C312  1  0.42999000  0.31549000  0.88129000  1.0 -0.0913595672
C  C313  1  0.27287000  0.84257000  0.30067000  1.0 0.0494709013
C  C314  1  0.84257000  0.30067000  0.27287000  1.0 0.0494709013
C  C315  1  0.30067000  0.27287000  0.84257000  1.0 0.0494709013
C  C316  1  0.18640000  0.85110000  0.34090000  1.0 -0.1176162386
C  C317  1  0.85110000  0.34090000  0.18640000  1.0 -0.1176162386
C  C318  1  0.34090000  0.18640000  0.85110000  1.0 -0.1176162386
C  C319  1  0.14680000  0.86270000  0.29630000  1.0 -0.0215298514
C  C320  1  0.86270000  0.29630000  0.14680000  1.0 -0.0215298514
C  C321  1  0.29630000  0.14680000  0.86270000  1.0 -0.0215298514
C  C322  1  0.19360000  0.86550000  0.21130000  1.0 -0.1613627435
C  C323  1  0.86550000  0.21130000  0.19360000  1.0 -0.1613627435
C  C324  1  0.21130000  0.19360000  0.86550000  1.0 -0.1613627435
C  C325  1  0.28010000  0.85700000  0.17110000  1.0 -0.0088771863
C  C326  1  0.85700000  0.17110000  0.28010000  1.0 -0.0088771863
C  C327  1  0.17110000  0.28010000  0.85700000  1.0 -0.0088771863
C  C328  1  0.31970000  0.84540000  0.21570000  1.0 -0.0430321249
C  C329  1  0.84540000  0.21570000  0.31970000  1.0 -0.0430321249
C  C330  1  0.21570000  0.31970000  0.84540000  1.0 -0.0430321249
C  C331  1  0.05110000  0.87850000  0.33750000  1.0 0.2987769905
C  C332  1  0.87850000  0.33750000  0.05110000  1.0 0.2987769905
C  C333  1  0.33750000  0.05110000  0.87850000  1.0 0.2987769905
C  C334  1  0.32560000  0.86270000  0.08120000  1.0 0.2489844475
C  C335  1  0.86270000  0.08120000  0.32560000  1.0 0.2489844475
C  C336  1  0.08120000  0.32560000  0.86270000  1.0 0.2489844475
O  O1  1  0.98220000  0.70400000  0.11510000  1.0 -0.3251347031
O  O2  1  0.70400000  0.11510000  0.98220000  1.0 -0.3242707636
O  O3  1  0.11510000  0.98220000  0.70400000  1.0 -0.3251347031
O  O4  1  0.10370000  0.77140000  0.07420000  1.0 -0.0299365499
O  O5  1  0.77140000  0.07420000  0.10370000  1.0 -0.0299365499
O  O6  1  0.07420000  0.10370000  0.77140000  1.0 -0.0299365499
O  O7  1  0.22910000  0.60030000  0.05750000  1.0 -0.2192993125
O  O8  1  0.60030000  0.05750000  0.22910000  1.0 -0.2192993125
O  O9  1  0.05750000  0.22910000  0.60030000  1.0 -0.2192993125
O  O10  1  0.60530000  0.21310000  0.06640000  1.0 -0.2192993125
O  O11  1  0.21310000  0.06640000  0.60530000  1.0 -0.2192993125
O  O12  1  0.06640000  0.60530000  0.21310000  1.0 -0.2192993125
O  O13  1  0.71250000  0.95850000  0.12970000  1.0 -0.2440935757
O  O14  1  0.95850000  0.12970000  0.71250000  1.0 -0.2440935757
O  O15  1  0.12970000  0.71250000  0.95850000  1.0 -0.2440935757
O  O16  1  0.98670000  0.59040000  0.11500000  1.0 -0.314462109
O  O17  1  0.59040000  0.11500000  0.98670000  1.0 -0.314462109
O  O18  1  0.11500000  0.98670000  0.59040000  1.0 -0.314462109
O  O19  1  0.10800000  0.42200000  0.08900000  1.0 -0.0555556825
O  O20  1  0.42200000  0.08900000  0.10800000  1.0 -0.0555556825
O  O21  1  0.08900000  0.10800000  0.42200000  1.0 -0.0555556825
O  O22  1  0.23340000  0.48740000  0.06350000  1.0 -0.1983715382
O  O23  1  0.48740000  0.06350000  0.23340000  1.0 -0.1983715382
O  O24  1  0.06350000  0.23340000  0.48740000  1.0 -0.1983715382
O  O25  1  0.49410000  0.22730000  0.05960000  1.0 -0.2634726302
O  O26  1  0.22730000  0.05960000  0.49410000  1.0 -0.2634726302
O  O27  1  0.05960000  0.49410000  0.22730000  1.0 -0.2634726302
O  O28  1  0.59940000  0.96200000  0.13430000  1.0 -0.2192993125
O  O29  1  0.96200000  0.13430000  0.59940000  1.0 -0.2192993125
O  O30  1  0.13430000  0.59940000  0.96200000  1.0 -0.2192993125
O  O31  1  0.41850000  0.11750000  0.08750000  1.0 -0.0712369767
O  O32  1  0.11750000  0.08750000  0.41850000  1.0 -0.0712369767
O  O33  1  0.08750000  0.41850000  0.11750000  1.0 -0.0712369767
O  O34  1  0.76750000  0.10800000  0.07890000  1.0 -0.0215298514
O  O35  1  0.10800000  0.07890000  0.76750000  1.0 -0.0215298514
O  O36  1  0.07890000  0.76750000  0.10800000  1.0 -0.0215298514
O  O37  1  0.59650000  0.08930000  0.20680000  1.0 -0.1922649852
O  O38  1  0.08930000  0.20680000  0.59650000  1.0 -0.1922649852
O  O39  1  0.20680000  0.59650000  0.08930000  1.0 -0.1922649852
O  O40  1  0.48180000  0.09480000  0.21130000  1.0 -0.1922649852
O  O41  1  0.09480000  0.21130000  0.48180000  1.0 -0.1922649852
O  O42  1  0.21130000  0.48180000  0.09480000  1.0 -0.1922649852
O  O43  1  0.22360000  0.08720000  0.47830000  1.0 -0.2440935757
O  O44  1  0.08720000  0.47830000  0.22360000  1.0 -0.2440935757
O  O45  1  0.47830000  0.22360000  0.08720000  1.0 -0.2440935757
O  O46  1  0.21690000  0.09340000  0.59010000  1.0 -0.2336313313
O  O47  1  0.09340000  0.59010000  0.21690000  1.0 -0.2336313313
O  O48  1  0.59010000  0.21690000  0.09340000  1.0 -0.2336313313
O  O49  1  0.98510000  0.11550000  0.59060000  1.0 -0.2780723359
O  O50  1  0.11550000  0.59060000  0.98510000  1.0 -0.2780723359
O  O51  1  0.59060000  0.98510000  0.11550000  1.0 -0.2780723359
O  O52  1  0.98390000  0.10910000  0.70470000  1.0 -0.2192993125
O  O53  1  0.10910000  0.70470000  0.98390000  1.0 -0.2192993125
O  O54  1  0.70470000  0.98390000  0.10910000  1.0 -0.2192993125
O  O55  1  0.71020000  0.13120000  0.95810000  1.0 -0.3026527054
O  O56  1  0.13120000  0.95810000  0.71020000  1.0 -0.3026527054
O  O57  1  0.95810000  0.71020000  0.13120000  1.0 -0.3026527054
O  O58  1  0.59880000  0.13110000  0.96220000  1.0 -0.2512550291
O  O59  1  0.13110000  0.96220000  0.59880000  1.0 -0.2512550291
O  O60  1  0.96220000  0.59880000  0.13110000  1.0 -0.2512550291
O  O61  1  0.01780000  0.29600000  0.88490000  1.0 -0.3242707636
O  O62  1  0.29600000  0.88490000  0.01780000  1.0 -0.3251347031
O  O63  1  0.88490000  0.01780000  0.29600000  1.0 -0.3242707636
O  O64  1  0.89630000  0.22860000  0.92580000  1.0 -0.0299365499
O  O65  1  0.22860000  0.92580000  0.89630000  1.0 -0.0299365499
O  O66  1  0.92580000  0.89630000  0.22860000  1.0 -0.0299365499
O  O67  1  0.77090000  0.39970000  0.94250000  1.0 -0.2192993125
O  O68  1  0.39970000  0.94250000  0.77090000  1.0 -0.2192993125
O  O69  1  0.94250000  0.77090000  0.39970000  1.0 -0.2192993125
O  O70  1  0.39470000  0.78690000  0.93360000  1.0 -0.2192993125
O  O71  1  0.78690000  0.93360000  0.39470000  1.0 -0.2192993125
O  O72  1  0.93360000  0.39470000  0.78690000  1.0 -0.2192993125
O  O73  1  0.28750000  0.04150000  0.87030000  1.0 -0.2440935757
O  O74  1  0.04150000  0.87030000  0.28750000  1.0 -0.2440935757
O  O75  1  0.87030000  0.28750000  0.04150000  1.0 -0.2440935757
O  O76  1  0.01330000  0.40960000  0.88500000  1.0 -0.314462109
O  O77  1  0.40960000  0.88500000  0.01330000  1.0 -0.314462109
O  O78  1  0.88500000  0.01330000  0.40960000  1.0 -0.314462109
O  O79  1  0.89200000  0.57800000  0.91100000  1.0 -0.0555556825
O  O80  1  0.57800000  0.91100000  0.89200000  1.0 -0.0555556825
O  O81  1  0.91100000  0.89200000  0.57800000  1.0 -0.0555556825
O  O82  1  0.76660000  0.51260000  0.93650000  1.0 -0.1983715382
O  O83  1  0.51260000  0.93650000  0.76660000  1.0 -0.1983715382
O  O84  1  0.93650000  0.76660000  0.51260000  1.0 -0.1983715382
O  O85  1  0.50590000  0.77270000  0.94040000  1.0 -0.2634726302
O  O86  1  0.77270000  0.94040000  0.50590000  1.0 -0.2634726302
O  O87  1  0.94040000  0.50590000  0.77270000  1.0 -0.2634726302
O  O88  1  0.40060000  0.03800000  0.86570000  1.0 -0.2192993125
O  O89  1  0.03800000  0.86570000  0.40060000  1.0 -0.2192993125
O  O90  1  0.86570000  0.40060000  0.03800000  1.0 -0.2192993125
O  O91  1  0.58150000  0.88250000  0.91250000  1.0 -0.0712369767
O  O92  1  0.88250000  0.91250000  0.58150000  1.0 -0.0712369767
O  O93  1  0.91250000  0.58150000  0.88250000  1.0 -0.0712369767
O  O94  1  0.23250000  0.89200000  0.92110000  1.0 -0.0215298514
O  O95  1  0.89200000  0.92110000  0.23250000  1.0 -0.0215298514
O  O96  1  0.92110000  0.23250000  0.89200000  1.0 -0.0215298514
O  O97  1  0.40350000  0.91070000  0.79320000  1.0 -0.1922649852
O  O98  1  0.91070000  0.79320000  0.40350000  1.0 -0.1922649852
O  O99  1  0.79320000  0.40350000  0.91070000  1.0 -0.1922649852
O  O100  1  0.51820000  0.90520000  0.78870000  1.0 -0.1922649852
O  O101  1  0.90520000  0.78870000  0.51820000  1.0 -0.1922649852
O  O102  1  0.78870000  0.51820000  0.90520000  1.0 -0.1922649852
O  O103  1  0.77640000  0.91280000  0.52170000  1.0 -0.2440935757
O  O104  1  0.91280000  0.52170000  0.77640000  1.0 -0.2440935757
O  O105  1  0.52170000  0.77640000  0.91280000  1.0 -0.2440935757
O  O106  1  0.78310000  0.90660000  0.40990000  1.0 -0.2336313313
O  O107  1  0.90660000  0.40990000  0.78310000  1.0 -0.2336313313
O  O108  1  0.40990000  0.78310000  0.90660000  1.0 -0.2336313313
O  O109  1  0.01490000  0.88450000  0.40940000  1.0 -0.2780723359
O  O110  1  0.88450000  0.40940000  0.01490000  1.0 -0.2780723359
O  O111  1  0.40940000  0.01490000  0.88450000  1.0 -0.2780723359
O  O112  1  0.01610000  0.89090000  0.29530000  1.0 -0.2192993125
O  O113  1  0.89090000  0.29530000  0.01610000  1.0 -0.2192993125
O  O114  1  0.29530000  0.01610000  0.89090000  1.0 -0.2192993125
O  O115  1  0.28980000  0.86880000  0.04190000  1.0 -0.3026527054
O  O116  1  0.86880000  0.04190000  0.28980000  1.0 -0.3026527054
O  O117  1  0.04190000  0.28980000  0.86880000  1.0 -0.3026527054
O  O118  1  0.40120000  0.86890000  0.03780000  1.0 -0.2512550291
O  O119  1  0.86890000  0.03780000  0.40120000  1.0 -0.2512550291
O  O120  1  0.03780000  0.40120000  0.86890000  1.0 -0.2512550291
