# DDEC6 charges by PACMAN v1.1 (https://github.com/mtap-research/PACMAN-charge/)
data_EYOCIG_ASR_pacman
_symmetry_space_group_name_H-M   'P 1'
_cell_length_a   18.38240000
_cell_length_b   18.38240000
_cell_length_c   19.59430000
_cell_angle_alpha   86.84230000
_cell_angle_beta   93.15770000
_cell_angle_gamma   109.40300000
_symmetry_Int_Tables_number   1
_chemical_formula_structural   Eu2H16C33NO13
_chemical_formula_sum   'Eu8 H64 C132 N4 O52'
_cell_volume   6230.87401218
_cell_formula_units_Z   4
loop_
 _symmetry_equiv_pos_site_id
 _symmetry_equiv_pos_as_xyz
  1  'x, y, z'
loop_
 _atom_site_type_symbol
 _atom_site_label
 _atom_site_symmetry_multiplicity
 _atom_site_fract_x
 _atom_site_fract_y
 _atom_site_fract_z
 _atom_site_occupancy
 _atom_site_charge
Eu  Eu1  1  0.39792000  0.95018000  0.44198000  1.0 2.0888382602
Eu  Eu2  1  0.95018000  0.39792000  0.05802000  1.0 2.0888382602
Eu  Eu3  1  0.60208000  0.04982000  0.55802000  1.0 2.0888382602
Eu  Eu4  1  0.04982000  0.60208000  0.94198000  1.0 2.0888382602
Eu  Eu5  1  0.15077000  0.51243000  0.53757000  1.0 2.0231044698
Eu  Eu6  1  0.51243000  0.15077000  0.96243000  1.0 2.0231044698
Eu  Eu7  1  0.84923000  0.48757000  0.46243000  1.0 2.0231044698
Eu  Eu8  1  0.48757000  0.84923000  0.03757000  1.0 2.0231044698
H  H1  1  0.11620000  0.90440000  0.40420000  1.0 0.1310614201
H  H2  1  0.90440000  0.11620000  0.09580000  1.0 0.1310614201
H  H3  1  0.88380000  0.09560000  0.59580000  1.0 0.1310614201
H  H4  1  0.09560000  0.88380000  0.90420000  1.0 0.1310614201
H  H5  1  0.94980000  0.70120000  0.44160000  1.0 0.1130214826
H  H6  1  0.70120000  0.94980000  0.05840000  1.0 0.1130214826
H  H7  1  0.05020000  0.29880000  0.55840000  1.0 0.1130214826
H  H8  1  0.29880000  0.05020000  0.94160000  1.0 0.1130214826
H  H9  1  0.16910000  0.72930000  0.50150000  1.0 0.142157082
H  H10  1  0.72930000  0.16910000  0.99850000  1.0 0.142157082
H  H11  1  0.83090000  0.27070000  0.49850000  1.0 0.142157082
H  H12  1  0.27070000  0.83090000  0.00150000  1.0 0.142157082
H  H13  1  0.71580000  0.94820000  0.40060000  1.0 0.1310614201
H  H14  1  0.94820000  0.71580000  0.09940000  1.0 0.1310614201
H  H15  1  0.28420000  0.05180000  0.59940000  1.0 0.1310614201
H  H16  1  0.05180000  0.28420000  0.90060000  1.0 0.1310614201
H  H17  1  0.53500000  0.93960000  0.27290000  1.0 0.1310614201
H  H18  1  0.93960000  0.53500000  0.22710000  1.0 0.1310614201
H  H19  1  0.46500000  0.06040000  0.72710000  1.0 0.1310614201
H  H20  1  0.06040000  0.46500000  0.77290000  1.0 0.1310614201
H  H21  1  0.70540000  0.87060000  0.20990000  1.0 0.1204954447
H  H22  1  0.87060000  0.70540000  0.29010000  1.0 0.1204954447
H  H23  1  0.29460000  0.12940000  0.79010000  1.0 0.1204954447
H  H24  1  0.12940000  0.29460000  0.70990000  1.0 0.1204954447
H  H25  1  0.37180000  0.76880000  0.54240000  1.0 0.142157082
H  H26  1  0.76880000  0.37180000  0.95760000  1.0 0.142157082
H  H27  1  0.62820000  0.23120000  0.45760000  1.0 0.142157082
H  H28  1  0.23120000  0.62820000  0.04240000  1.0 0.142157082
H  H29  1  0.57660000  0.79100000  0.63900000  1.0 0.1204954447
H  H30  1  0.79100000  0.57660000  0.86100000  1.0 0.1204954447
H  H31  1  0.42340000  0.20900000  0.36100000  1.0 0.1204954447
H  H32  1  0.20900000  0.42340000  0.13900000  1.0 0.1204954447
H  H33  1  0.40110000  0.58830000  0.65210000  1.0 0.1310614201
H  H34  1  0.58830000  0.40110000  0.84790000  1.0 0.1310614201
H  H35  1  0.59890000  0.41170000  0.34790000  1.0 0.1310614201
H  H36  1  0.41170000  0.59890000  0.15210000  1.0 0.1310614201
H  H37  1  0.22490000  0.38150000  0.56010000  1.0 0.1204954447
H  H38  1  0.38150000  0.22490000  0.93990000  1.0 0.1204954447
H  H39  1  0.77510000  0.61850000  0.43990000  1.0 0.1204954447
H  H40  1  0.61850000  0.77510000  0.06010000  1.0 0.1204954447
H  H41  1  0.28750000  0.28330000  0.55510000  1.0 0.142157082
H  H42  1  0.28330000  0.28750000  0.94490000  1.0 0.142157082
H  H43  1  0.71250000  0.71670000  0.44490000  1.0 0.142157082
H  H44  1  0.71670000  0.71250000  0.05510000  1.0 0.142157082
H  H45  1  0.22350000  0.25030000  0.49800000  1.0 0.142157082
H  H46  1  0.25030000  0.22350000  0.00200000  1.0 0.142157082
H  H47  1  0.77650000  0.74970000  0.50200000  1.0 0.142157082
H  H48  1  0.74970000  0.77650000  0.99800000  1.0 0.142157082
H  H49  1  0.31050000  0.26670000  0.48320000  1.0 0.1504001129
H  H50  1  0.26670000  0.31050000  0.01680000  1.0 0.1504001129
H  H51  1  0.68950000  0.73330000  0.51680000  1.0 0.1504001129
H  H52  1  0.73330000  0.68950000  0.98320000  1.0 0.1504001129
H  H53  1  0.30690000  0.42050000  0.39240000  1.0 0.1504001129
H  H54  1  0.42050000  0.30690000  0.10760000  1.0 0.1504001129
H  H55  1  0.69310000  0.57950000  0.60760000  1.0 0.1504001129
H  H56  1  0.57950000  0.69310000  0.89240000  1.0 0.1504001129
H  H57  1  0.25980000  0.33280000  0.38460000  1.0 0.1310614201
H  H58  1  0.33280000  0.25980000  0.11540000  1.0 0.1310614201
H  H59  1  0.74020000  0.66720000  0.61540000  1.0 0.1310614201
H  H60  1  0.66720000  0.74020000  0.88460000  1.0 0.1310614201
H  H61  1  0.21830000  0.38970000  0.40530000  1.0 0.1737990437
H  H62  1  0.38970000  0.21830000  0.09470000  1.0 0.1737990437
H  H63  1  0.78170000  0.61030000  0.59470000  1.0 0.1737990437
H  H64  1  0.61030000  0.78170000  0.90530000  1.0 0.1761035281
C  C1  1  0.23840000  0.87402000  0.45710000  1.0 0.5728292125
C  C2  1  0.87402000  0.23840000  0.04290000  1.0 0.5728292125
C  C3  1  0.76160000  0.12598000  0.54290000  1.0 0.5728292125
C  C4  1  0.12598000  0.76160000  0.95710000  1.0 0.5728292125
C  C5  1  0.15563000  0.82523000  0.45370000  1.0 -0.0188297797
C  C6  1  0.82523000  0.15563000  0.04630000  1.0 -0.0188297797
C  C7  1  0.84437000  0.17477000  0.54630000  1.0 -0.0188297797
C  C8  1  0.17477000  0.84437000  0.95370000  1.0 -0.0188297797
C  C9  1  0.10102000  0.85418000  0.42260000  1.0 -0.1176379871
C  C10  1  0.85418000  0.10102000  0.07740000  1.0 -0.1176379871
C  C11  1  0.89898000  0.14582000  0.57740000  1.0 -0.1176379871
C  C12  1  0.14582000  0.89898000  0.92260000  1.0 -0.1176379871
C  C13  1  0.02282000  0.80814000  0.41860000  1.0 0.1130214826
C  C14  1  0.80814000  0.02282000  0.08140000  1.0 0.1130214826
C  C15  1  0.97718000  0.19186000  0.58140000  1.0 0.1130214826
C  C16  1  0.19186000  0.97718000  0.91860000  1.0 0.1130214826
C  C17  1  0.00130000  0.73230000  0.44490000  1.0 -0.141121971
C  C18  1  0.73230000  0.00130000  0.05510000  1.0 -0.141121971
C  C19  1  0.99870000  0.26770000  0.55510000  1.0 -0.141121971
C  C20  1  0.26770000  0.99870000  0.94490000  1.0 -0.141121971
C  C21  1  0.05598000  0.70250000  0.47620000  1.0 -0.0442566462
C  C22  1  0.70250000  0.05598000  0.02380000  1.0 -0.0442566462
C  C23  1  0.94402000  0.29750000  0.52380000  1.0 -0.0442566462
C  C24  1  0.29750000  0.94402000  0.97620000  1.0 -0.0442566462
C  C25  1  0.13251000  0.74881000  0.48060000  1.0 -0.0916741644
C  C26  1  0.74881000  0.13251000  0.01940000  1.0 -0.0916741644
C  C27  1  0.86749000  0.25119000  0.51940000  1.0 -0.0916741644
C  C28  1  0.25119000  0.86749000  0.98060000  1.0 -0.0916741644
C  C29  1  0.03064000  0.62136000  0.50470000  1.0 0.6768862564
C  C30  1  0.62136000  0.03064000  0.99530000  1.0 0.6768862564
C  C31  1  0.96936000  0.37864000  0.49530000  1.0 0.6768862564
C  C32  1  0.37864000  0.96936000  0.00470000  1.0 0.6768862564
C  C33  1  0.96548000  0.83712000  0.38720000  1.0 -0.0801629801
C  C34  1  0.83712000  0.96548000  0.11280000  1.0 -0.0801629801
C  C35  1  0.03452000  0.16288000  0.61280000  1.0 -0.0801629801
C  C36  1  0.16288000  0.03452000  0.88720000  1.0 -0.0801629801
C  C37  1  0.91272000  0.85648000  0.36380000  1.0 -0.0508722325
C  C38  1  0.85648000  0.91272000  0.13620000  1.0 -0.0508722325
C  C39  1  0.08728000  0.14352000  0.63620000  1.0 -0.0508722325
C  C40  1  0.14352000  0.08728000  0.86380000  1.0 -0.0601119105
C  C41  1  0.85074000  0.87766000  0.34100000  1.0 -0.0442566462
C  C42  1  0.87766000  0.85074000  0.15900000  1.0 -0.0508722325
C  C43  1  0.14926000  0.12234000  0.65900000  1.0 -0.0508722325
C  C44  1  0.12234000  0.14926000  0.84100000  1.0 -0.0442566462
C  C45  1  0.79374000  0.89366000  0.32200000  1.0 -0.0801629801
C  C46  1  0.89366000  0.79374000  0.17800000  1.0 -0.0801629801
C  C47  1  0.20626000  0.10634000  0.67800000  1.0 -0.0801629801
C  C48  1  0.10634000  0.20626000  0.82200000  1.0 -0.0801629801
C  C49  1  0.72325000  0.90795000  0.30650000  1.0 0.1204954447
C  C50  1  0.90795000  0.72325000  0.19350000  1.0 0.1204954447
C  C51  1  0.27675000  0.09205000  0.69350000  1.0 0.1204954447
C  C52  1  0.09205000  0.27675000  0.80650000  1.0 0.1204954447
C  C53  1  0.69014000  0.93666000  0.35830000  1.0 -0.1277979718
C  C54  1  0.93666000  0.69014000  0.14170000  1.0 -0.1176379871
C  C55  1  0.30986000  0.06334000  0.64170000  1.0 -0.1277979718
C  C56  1  0.06334000  0.30986000  0.85830000  1.0 -0.1277979718
C  C57  1  0.61885000  0.94735000  0.34520000  1.0 -0.0442566462
C  C58  1  0.94735000  0.61885000  0.15480000  1.0 -0.0442566462
C  C59  1  0.38115000  0.05265000  0.65480000  1.0 -0.0442566462
C  C60  1  0.05265000  0.38115000  0.84520000  1.0 -0.0442566462
C  C61  1  0.58159000  0.93081000  0.28180000  1.0 -0.0916741644
C  C62  1  0.93081000  0.58159000  0.21820000  1.0 -0.0916741644
C  C63  1  0.41841000  0.06919000  0.71820000  1.0 -0.0916741644
C  C64  1  0.06919000  0.41841000  0.78180000  1.0 -0.0916741644
C  C65  1  0.61305000  0.90095000  0.23050000  1.0 -0.0122474498
C  C66  1  0.90095000  0.61305000  0.26950000  1.0 -0.0122474498
C  C67  1  0.38695000  0.09905000  0.76950000  1.0 -0.0122474498
C  C68  1  0.09905000  0.38695000  0.73050000  1.0 -0.0122474498
C  C69  1  0.68395000  0.89005000  0.24360000  1.0 -0.1277979718
C  C70  1  0.89005000  0.68395000  0.25640000  1.0 -0.1277979718
C  C71  1  0.31605000  0.10995000  0.75640000  1.0 -0.1277979718
C  C72  1  0.10995000  0.31605000  0.74360000  1.0 -0.1277979718
C  C73  1  0.58256000  0.97640000  0.39900000  1.0 0.6581712622
C  C74  1  0.97640000  0.58256000  0.10100000  1.0 0.6581712622
C  C75  1  0.41744000  0.02360000  0.60100000  1.0 0.6581712622
C  C76  1  0.02360000  0.41744000  0.89900000  1.0 0.6581712622
C  C77  1  0.57135000  0.88325000  0.16320000  1.0 0.5728292125
C  C78  1  0.88325000  0.57135000  0.33680000  1.0 0.5728292125
C  C79  1  0.42865000  0.11675000  0.83680000  1.0 0.5728292125
C  C80  1  0.11675000  0.42865000  0.66320000  1.0 0.5728292125
C  C81  1  0.29497000  0.62003000  0.57540000  1.0 0.5578962374
C  C82  1  0.62003000  0.29497000  0.92460000  1.0 0.5578962374
C  C83  1  0.70503000  0.37997000  0.42460000  1.0 0.5578962374
C  C84  1  0.37997000  0.70503000  0.07540000  1.0 0.5578962374
C  C85  1  0.37461000  0.67099000  0.59380000  1.0 -0.0122474498
C  C86  1  0.67099000  0.37461000  0.90620000  1.0 -0.0122474498
C  C87  1  0.62539000  0.32901000  0.40620000  1.0 -0.0122474498
C  C88  1  0.32901000  0.62539000  0.09380000  1.0 -0.0122474498
C  C89  1  0.40310000  0.74750000  0.56980000  1.0 -0.0916741644
C  C90  1  0.74750000  0.40310000  0.93020000  1.0 -0.0916741644
C  C91  1  0.59690000  0.25250000  0.43020000  1.0 -0.0916741644
C  C92  1  0.25250000  0.59690000  0.06980000  1.0 -0.0916741644
C  C93  1  0.47883000  0.79231000  0.58690000  1.0 -0.0188297797
C  C94  1  0.79231000  0.47883000  0.91310000  1.0 -0.0188297797
C  C95  1  0.52117000  0.20769000  0.41310000  1.0 -0.0188297797
C  C96  1  0.20769000  0.52117000  0.08690000  1.0 -0.0188297797
C  C97  1  0.52612000  0.76100000  0.62770000  1.0 -0.14951307
C  C98  1  0.76100000  0.52612000  0.87230000  1.0 -0.14951307
C  C99  1  0.47388000  0.23900000  0.37230000  1.0 -0.14951307
C  C100  1  0.23900000  0.47388000  0.12770000  1.0 -0.14951307
C  C101  1  0.49735000  0.68425000  0.65140000  1.0 0.1130214826
C  C102  1  0.68425000  0.49735000  0.84860000  1.0 0.1130214826
C  C103  1  0.50265000  0.31575000  0.34860000  1.0 0.1130214826
C  C104  1  0.31575000  0.50265000  0.15140000  1.0 0.1130214826
C  C105  1  0.42070000  0.63910000  0.63520000  1.0 -0.141121971
C  C106  1  0.63910000  0.42070000  0.86480000  1.0 -0.141121971
C  C107  1  0.57930000  0.36090000  0.36480000  1.0 -0.141121971
C  C108  1  0.36090000  0.57930000  0.13520000  1.0 -0.141121971
C  C109  1  0.51117000  0.87563000  0.56340000  1.0 0.639732014
C  C110  1  0.87563000  0.51117000  0.93660000  1.0 0.639732014
C  C111  1  0.48883000  0.12437000  0.43660000  1.0 0.639732014
C  C112  1  0.12437000  0.48883000  0.06340000  1.0 0.639732014
C  C113  1  0.54400000  0.65060000  0.69580000  1.0 -0.0967523609
C  C114  1  0.65060000  0.54400000  0.80420000  1.0 -0.0967523609
C  C115  1  0.45600000  0.34940000  0.30420000  1.0 -0.0967523609
C  C116  1  0.34940000  0.45600000  0.19580000  1.0 -0.0967523609
C  C117  1  0.57993000  0.61927000  0.72960000  1.0 -0.0601119105
C  C118  1  0.61927000  0.57993000  0.77040000  1.0 -0.0601119105
C  C119  1  0.42007000  0.38073000  0.27040000  1.0 -0.0601119105
C  C120  1  0.38073000  0.42007000  0.22960000  1.0 -0.0601119105
C  C121  1  0.23930000  0.39570000  0.51530000  1.0 0.2736080992
C  C122  1  0.39570000  0.23930000  0.98470000  1.0 0.2736080992
C  C123  1  0.76070000  0.60430000  0.48470000  1.0 0.2736080992
C  C124  1  0.60430000  0.76070000  0.01530000  1.0 0.2736080992
C  C125  1  0.27530000  0.28390000  0.50680000  1.0 -0.3295183223
C  C126  1  0.28390000  0.27530000  0.99320000  1.0 -0.3295183223
C  C127  1  0.72470000  0.71610000  0.49320000  1.0 -0.3295183223
C  C128  1  0.71610000  0.72470000  0.00680000  1.0 -0.3295183223
C  C129  1  0.26530000  0.37770000  0.40990000  1.0 -0.3419814598
C  C130  1  0.37770000  0.26530000  0.09010000  1.0 -0.3419814598
C  C131  1  0.73470000  0.62230000  0.59010000  1.0 -0.3419814598
C  C132  1  0.62230000  0.73470000  0.90990000  1.0 -0.3419814598
N  N1  1  0.28200000  0.36220000  0.48290000  1.0 0.0413415409
N  N2  1  0.36220000  0.28200000  0.01710000  1.0 0.0413415409
N  N3  1  0.71800000  0.63780000  0.51710000  1.0 0.0413415409
N  N4  1  0.63780000  0.71800000  0.98290000  1.0 0.0413415409
O  O1  1  0.25910000  0.94008000  0.42876000  1.0 -0.6380675924
O  O2  1  0.94008000  0.25910000  0.07124000  1.0 -0.6380675924
O  O3  1  0.74090000  0.05992000  0.57124000  1.0 -0.6380675924
O  O4  1  0.05992000  0.74090000  0.92876000  1.0 -0.6380675924
O  O5  1  0.28709000  0.84687000  0.48690000  1.0 -0.6380675924
O  O6  1  0.84687000  0.28709000  0.01310000  1.0 -0.6380675924
O  O7  1  0.71291000  0.15313000  0.51310000  1.0 -0.6380675924
O  O8  1  0.15313000  0.71291000  0.98690000  1.0 -0.6380675924
O  O9  1  0.08118000  0.59636000  0.53180000  1.0 -0.658265416
O  O10  1  0.59636000  0.08118000  0.96820000  1.0 -0.658265416
O  O11  1  0.91882000  0.40364000  0.46820000  1.0 -0.658265416
O  O12  1  0.40364000  0.91882000  0.03180000  1.0 -0.658265416
O  O13  1  0.96031000  0.58127000  0.49863000  1.0 -0.6967166108
O  O14  1  0.58127000  0.96031000  0.00137000  1.0 -0.6967166108
O  O15  1  0.03969000  0.41873000  0.50137000  1.0 -0.6967166108
O  O16  1  0.41873000  0.03969000  0.99863000  1.0 -0.6967166108
O  O17  1  0.62120000  0.99738000  0.45420000  1.0 -0.6501700026
O  O18  1  0.99738000  0.62120000  0.04580000  1.0 -0.6501700026
O  O19  1  0.37880000  0.00262000  0.54580000  1.0 -0.6501700026
O  O20  1  0.00262000  0.37880000  0.95420000  1.0 -0.6501700026
O  O21  1  0.51532000  0.97664000  0.38624000  1.0 -0.6882950407
O  O22  1  0.97664000  0.51532000  0.11376000  1.0 -0.6882950407
O  O23  1  0.48468000  0.02336000  0.61376000  1.0 -0.6882950407
O  O24  1  0.02336000  0.48468000  0.88624000  1.0 -0.6882950407
O  O25  1  0.59574000  0.85010000  0.12005000  1.0 -0.6293681753
O  O26  1  0.85010000  0.59574000  0.37995000  1.0 -0.6293681753
O  O27  1  0.40426000  0.14990000  0.87995000  1.0 -0.6293681753
O  O28  1  0.14990000  0.40426000  0.62005000  1.0 -0.6293681753
O  O29  1  0.51248000  0.90294000  0.14981000  1.0 -0.6068250877
O  O30  1  0.90294000  0.51248000  0.35019000  1.0 -0.6068250877
O  O31  1  0.48752000  0.09706000  0.85019000  1.0 -0.6068250877
O  O32  1  0.09706000  0.48752000  0.64981000  1.0 -0.6068250877
O  O33  1  0.25559000  0.63941000  0.52950000  1.0 -0.5942442608
O  O34  1  0.63941000  0.25559000  0.97050000  1.0 -0.5951868486
O  O35  1  0.74441000  0.36059000  0.47050000  1.0 -0.5951868486
O  O36  1  0.36059000  0.74441000  0.02950000  1.0 -0.5951868486
O  O37  1  0.26695000  0.55885000  0.60880000  1.0 -0.6068250877
O  O38  1  0.55885000  0.26695000  0.89120000  1.0 -0.6068250877
O  O39  1  0.73305000  0.44115000  0.39120000  1.0 -0.6068250877
O  O40  1  0.44115000  0.73305000  0.10880000  1.0 -0.6068250877
O  O41  1  0.47180000  0.90236000  0.52123000  1.0 -0.7246085596
O  O42  1  0.90236000  0.47180000  0.97877000  1.0 -0.7246085596
O  O43  1  0.52820000  0.09764000  0.47877000  1.0 -0.7246085596
O  O44  1  0.09764000  0.52820000  0.02123000  1.0 -0.7246085596
O  O45  1  0.57515000  0.91515000  0.58867000  1.0 -0.6293681753
O  O46  1  0.91515000  0.57515000  0.91133000  1.0 -0.6293681753
O  O47  1  0.42485000  0.08485000  0.41133000  1.0 -0.6293681753
O  O48  1  0.08485000  0.42485000  0.08867000  1.0 -0.6293681753
O  O49  1  0.22040000  0.44560000  0.48260000  1.0 -0.5462872725
O  O50  1  0.44560000  0.22040000  0.01740000  1.0 -0.5462872725
O  O51  1  0.77960000  0.55440000  0.51740000  1.0 -0.5462872725
O  O52  1  0.55440000  0.77960000  0.98260000  1.0 -0.5462872725
