# DDEC6 charges by PACMAN v1.1 (https://github.com/mtap-research/PACMAN-charge/)
data_EYOCUS_ASR_pacman
_symmetry_space_group_name_H-M   'P 1'
_cell_length_a   18.32900000
_cell_length_b   18.32900000
_cell_length_c   19.51480000
_cell_angle_alpha   86.78760000
_cell_angle_beta   93.21240000
_cell_angle_gamma   109.48800000
_symmetry_Int_Tables_number   1
_chemical_formula_structural   Tb2H37C43(N2O9)2
_chemical_formula_sum   'Tb8 H148 C172 N16 O72'
_cell_volume   6165.88417177
_cell_formula_units_Z   4
loop_
 _symmetry_equiv_pos_site_id
 _symmetry_equiv_pos_as_xyz
  1  'x, y, z'
loop_
 _atom_site_type_symbol
 _atom_site_label
 _atom_site_symmetry_multiplicity
 _atom_site_fract_x
 _atom_site_fract_y
 _atom_site_fract_z
 _atom_site_occupancy
 _atom_site_charge
Tb  Tb1  1  0.60210000  0.04946000  0.55820000  1.0 1.9568708471
Tb  Tb2  1  0.04946000  0.60210000  0.94180000  1.0 1.9568708471
Tb  Tb3  1  0.39790000  0.95054000  0.44180000  1.0 1.9568708471
Tb  Tb4  1  0.95054000  0.39790000  0.05820000  1.0 1.9568708471
Tb  Tb5  1  0.85029000  0.48799000  0.46243000  1.0 1.5091381005
Tb  Tb6  1  0.48799000  0.85029000  0.03757000  1.0 1.5091381005
Tb  Tb7  1  0.14971000  0.51201000  0.53757000  1.0 1.5091381005
Tb  Tb8  1  0.51201000  0.14971000  0.96243000  1.0 1.5091381005
H  H1  1  0.88370000  0.09490000  0.59470000  1.0 0.1283314291
H  H2  1  0.09490000  0.88370000  0.90530000  1.0 0.1283314291
H  H3  1  0.11630000  0.90510000  0.40530000  1.0 0.1283314291
H  H4  1  0.90510000  0.11630000  0.09470000  1.0 0.1283314291
H  H5  1  0.05040000  0.29780000  0.55600000  1.0 0.1086890361
H  H6  1  0.29780000  0.05040000  0.94400000  1.0 0.1086890361
H  H7  1  0.94960000  0.70220000  0.44400000  1.0 0.1086890361
H  H8  1  0.70220000  0.94960000  0.05600000  1.0 0.1086890361
H  H9  1  0.83000000  0.27040000  0.49780000  1.0 0.1086890361
H  H10  1  0.27040000  0.83000000  0.00220000  1.0 0.1086890361
H  H11  1  0.17000000  0.72960000  0.50220000  1.0 0.1086890361
H  H12  1  0.72960000  0.17000000  0.99780000  1.0 0.1086890361
H  H13  1  0.29550000  0.12810000  0.78990000  1.0 0.1283314291
H  H14  1  0.12810000  0.29550000  0.71010000  1.0 0.1283314291
H  H15  1  0.70450000  0.87190000  0.21010000  1.0 0.1283314291
H  H16  1  0.87190000  0.70450000  0.28990000  1.0 0.1283314291
H  H17  1  0.46640000  0.06160000  0.72750000  1.0 0.1086890361
H  H18  1  0.06160000  0.46640000  0.77250000  1.0 0.1086890361
H  H19  1  0.53360000  0.93840000  0.27250000  1.0 0.1086890361
H  H20  1  0.93840000  0.53360000  0.22750000  1.0 0.1086890361
H  H21  1  0.28620000  0.05280000  0.59830000  1.0 0.1283314291
H  H22  1  0.05280000  0.28620000  0.90170000  1.0 0.1283314291
H  H23  1  0.71380000  0.94720000  0.40170000  1.0 0.1283314291
H  H24  1  0.94720000  0.71380000  0.09830000  1.0 0.1283314291
H  H25  1  0.59910000  0.41170000  0.34690000  1.0 0.1000204324
H  H26  1  0.41170000  0.59910000  0.15310000  1.0 0.1000204324
H  H27  1  0.40090000  0.58830000  0.65310000  1.0 0.1000204324
H  H28  1  0.58830000  0.40090000  0.84690000  1.0 0.1000204324
H  H29  1  0.42470000  0.20830000  0.36140000  1.0 0.1385401736
H  H30  1  0.20830000  0.42470000  0.13860000  1.0 0.1385401736
H  H31  1  0.57530000  0.79170000  0.63860000  1.0 0.1385401736
H  H32  1  0.79170000  0.57530000  0.86140000  1.0 0.1385401736
H  H33  1  0.62950000  0.23230000  0.45830000  1.0 0.0881195552
H  H34  1  0.23230000  0.62950000  0.04170000  1.0 0.0881195552
H  H35  1  0.37050000  0.76770000  0.54170000  1.0 0.0881195552
H  H36  1  0.76770000  0.37050000  0.95830000  1.0 0.0881195552
H  H37  1  0.77010000  0.62570000  0.44850000  1.0 0.1283314291
H  H38  1  0.62570000  0.77010000  0.05150000  1.0 0.1283314291
H  H39  1  0.22990000  0.37430000  0.55150000  1.0 0.1283314291
H  H40  1  0.37430000  0.22990000  0.94850000  1.0 0.1283314291
H  H41  1  0.69000000  0.55880000  0.60250000  1.0 0.0881195552
H  H42  1  0.55880000  0.69000000  0.89750000  1.0 0.0788304408
H  H43  1  0.31000000  0.44120000  0.39750000  1.0 0.0788304408
H  H44  1  0.44120000  0.31000000  0.10250000  1.0 0.0881195552
H  H45  1  0.75700000  0.63140000  0.62880000  1.0 0.0679458478
H  H46  1  0.63140000  0.75700000  0.87120000  1.0 0.0679458478
H  H47  1  0.24300000  0.36860000  0.37120000  1.0 0.0679458478
H  H48  1  0.36860000  0.24300000  0.12880000  1.0 0.0679458478
H  H49  1  0.67210000  0.63350000  0.62000000  1.0 0.0788304408
H  H50  1  0.63350000  0.67210000  0.88000000  1.0 0.0788304408
H  H51  1  0.32790000  0.36650000  0.38000000  1.0 0.0788304408
H  H52  1  0.36650000  0.32790000  0.12000000  1.0 0.0788304408
H  H53  1  0.72860000  0.72500000  0.45810000  1.0 0.1086890361
H  H54  1  0.72500000  0.72860000  0.04190000  1.0 0.1086890361
H  H55  1  0.27140000  0.27500000  0.54190000  1.0 0.1086890361
H  H56  1  0.27500000  0.27140000  0.95810000  1.0 0.1086890361
H  H57  1  0.66590000  0.71710000  0.51200000  1.0 0.1000204324
H  H58  1  0.71710000  0.66590000  0.98800000  1.0 0.1086890361
H  H59  1  0.33410000  0.28290000  0.48800000  1.0 0.1000204324
H  H60  1  0.28290000  0.33410000  0.01200000  1.0 0.1086890361
H  H61  1  0.75380000  0.75820000  0.53130000  1.0 0.118496405
H  H62  1  0.75820000  0.75380000  0.96870000  1.0 0.118496405
H  H63  1  0.24620000  0.24180000  0.46870000  1.0 0.118496405
H  H64  1  0.24180000  0.24620000  0.03130000  1.0 0.118496405
H  H65  1  0.57950000  0.16210000  0.69140000  1.0 0.1000204324
H  H66  1  0.16210000  0.57950000  0.80860000  1.0 0.1086890361
H  H67  1  0.42050000  0.83790000  0.30860000  1.0 0.1000204324
H  H68  1  0.83790000  0.42050000  0.19140000  1.0 0.1000204324
H  H69  1  0.59820000  0.27180000  0.76630000  1.0 0.0788304408
H  H70  1  0.27180000  0.59820000  0.73370000  1.0 0.0788304408
H  H71  1  0.40180000  0.72820000  0.23370000  1.0 0.0788304408
H  H72  1  0.72820000  0.40180000  0.26630000  1.0 0.0788304408
H  H73  1  0.59030000  0.34430000  0.72420000  1.0 0.0679458478
H  H74  1  0.34430000  0.59030000  0.77580000  1.0 0.0679458478
H  H75  1  0.40970000  0.65570000  0.27580000  1.0 0.0679458478
H  H76  1  0.65570000  0.40970000  0.22420000  1.0 0.0679458478
H  H77  1  0.52730000  0.26270000  0.71480000  1.0 0.0788304408
H  H78  1  0.26270000  0.52730000  0.78520000  1.0 0.0788304408
H  H79  1  0.47270000  0.73730000  0.28520000  1.0 0.0788304408
H  H80  1  0.73730000  0.47270000  0.21480000  1.0 0.0788304408
H  H81  1  0.61940000  0.30040000  0.56300000  1.0 0.0483758354
H  H82  1  0.30040000  0.61940000  0.93700000  1.0 0.0483758354
H  H83  1  0.38060000  0.69960000  0.43700000  1.0 0.0483758354
H  H84  1  0.69960000  0.38060000  0.06300000  1.0 0.0483758354
H  H85  1  0.53890000  0.27750000  0.59700000  1.0 0.0610504403
H  H86  1  0.27750000  0.53890000  0.90300000  1.0 0.0610504403
H  H87  1  0.46110000  0.72250000  0.40300000  1.0 0.0610504403
H  H88  1  0.72250000  0.46110000  0.09700000  1.0 0.0610504403
H  H89  1  0.60040000  0.35980000  0.60750000  1.0 0.0679458478
H  H90  1  0.35980000  0.60040000  0.89250000  1.0 0.0788304408
H  H91  1  0.39960000  0.64020000  0.39250000  1.0 0.0788304408
H  H92  1  0.64020000  0.39960000  0.10750000  1.0 0.0788304408
H  H93  1  0.70090000  0.50670000  0.48240000  1.0 0.118496405
H  H94  1  0.50670000  0.70090000  0.01760000  1.0 0.118496405
H  H95  1  0.29910000  0.49330000  0.51760000  1.0 0.118496405
H  H96  1  0.49330000  0.29910000  0.98240000  1.0 0.118496405
H  H97  1  0.74730000  0.67270000  0.61570000  1.0 0.0610504403
H  H98  1  0.67270000  0.74730000  0.88430000  1.0 0.0610504403
H  H99  1  0.25270000  0.32730000  0.38430000  1.0 0.0610504403
H  H100  1  0.32730000  0.25270000  0.11570000  1.0 0.0610504403
H  H101  1  0.79530000  0.61730000  0.60740000  1.0 0.0788304408
H  H102  1  0.61730000  0.79530000  0.89260000  1.0 0.0788304408
H  H103  1  0.20470000  0.38270000  0.39260000  1.0 0.0788304408
H  H104  1  0.38270000  0.20470000  0.10740000  1.0 0.0788304408
H  H105  1  0.79570000  0.68110000  0.55020000  1.0 0.0881195552
H  H106  1  0.68110000  0.79570000  0.94980000  1.0 0.0881195552
H  H107  1  0.20430000  0.31890000  0.44980000  1.0 0.0881195552
H  H108  1  0.31890000  0.20430000  0.05020000  1.0 0.0881195552
H  H109  1  0.60360000  0.57360000  0.50340000  1.0 0.0610504403
H  H110  1  0.57360000  0.60360000  0.99660000  1.0 0.0610504403
H  H111  1  0.39640000  0.42640000  0.49660000  1.0 0.0610504403
H  H112  1  0.42640000  0.39640000  0.00340000  1.0 0.0610504403
H  H113  1  0.61180000  0.60520000  0.57750000  1.0 0.0788304408
H  H114  1  0.60520000  0.61180000  0.92250000  1.0 0.0788304408
H  H115  1  0.38820000  0.39480000  0.42250000  1.0 0.0788304408
H  H116  1  0.39480000  0.38820000  0.07750000  1.0 0.0788304408
H  H117  1  0.65300000  0.66000000  0.51650000  1.0 0.1000204324
H  H118  1  0.66000000  0.65300000  0.98350000  1.0 0.1000204324
H  H119  1  0.34700000  0.34000000  0.48350000  1.0 0.1000204324
H  H120  1  0.34000000  0.34700000  0.01650000  1.0 0.1000204324
H  H121  1  0.65500000  0.26260000  0.57550000  1.0 0.1000204324
H  H122  1  0.26260000  0.65500000  0.92450000  1.0 0.1000204324
H  H123  1  0.34500000  0.73740000  0.42450000  1.0 0.1000204324
H  H124  1  0.73740000  0.34500000  0.07550000  1.0 0.1000204324
H  H125  1  0.56590000  0.18870000  0.72700000  1.0 0.0679458478
H  H126  1  0.18870000  0.56590000  0.77300000  1.0 0.0679458478
H  H127  1  0.43410000  0.81130000  0.27300000  1.0 0.0679458478
H  H128  1  0.81130000  0.43410000  0.22700000  1.0 0.0679458478
H  H129  1  0.64860000  0.25000000  0.73770000  1.0 0.0788304408
H  H130  1  0.25000000  0.64860000  0.76230000  1.0 0.0788304408
H  H131  1  0.35140000  0.75000000  0.26230000  1.0 0.0788304408
H  H132  1  0.75000000  0.35140000  0.23770000  1.0 0.0788304408
H  H133  1  0.57480000  0.27060000  0.75330000  1.0 0.0788304408
H  H134  1  0.27060000  0.57480000  0.74670000  1.0 0.0788304408
H  H135  1  0.42520000  0.72940000  0.24670000  1.0 0.0788304408
H  H136  1  0.72940000  0.42520000  0.25330000  1.0 0.0788304408
H  H137  1  0.63040000  0.37660000  0.60080000  1.0 0.0483758354
H  H138  1  0.37660000  0.63040000  0.89920000  1.0 0.0483758354
H  H139  1  0.36960000  0.62340000  0.39920000  1.0 0.0483758354
H  H140  1  0.62340000  0.36960000  0.10080000  1.0 0.0483758354
H  H141  1  0.61320000  0.38340000  0.67760000  1.0 0.0610504403
H  H142  1  0.38340000  0.61320000  0.82240000  1.0 0.0610504403
H  H143  1  0.38680000  0.61660000  0.32240000  1.0 0.0610504403
H  H144  1  0.61660000  0.38680000  0.17760000  1.0 0.0610504403
H  H145  1  0.68830000  0.36670000  0.65980000  1.0 0.0788304408
H  H146  1  0.36670000  0.68830000  0.84020000  1.0 0.0788304408
H  H147  1  0.31170000  0.63330000  0.34020000  1.0 0.0788304408
H  H148  1  0.63330000  0.31170000  0.15980000  1.0 0.0788304408
C  C1  1  0.76040000  0.12520000  0.54340000  1.0 0.5554397634
C  C2  1  0.12520000  0.76040000  0.95660000  1.0 0.5554397634
C  C3  1  0.23960000  0.87480000  0.45660000  1.0 0.5554397634
C  C4  1  0.87480000  0.23960000  0.04340000  1.0 0.5554397634
C  C5  1  0.84350000  0.17490000  0.54620000  1.0 -0.0227225623
C  C6  1  0.17490000  0.84350000  0.95380000  1.0 -0.0227225623
C  C7  1  0.15650000  0.82510000  0.45380000  1.0 -0.0227225623
C  C8  1  0.82510000  0.15650000  0.04620000  1.0 -0.0227225623
C  C9  1  0.89880000  0.14560000  0.57690000  1.0 -0.140247288
C  C10  1  0.14560000  0.89880000  0.92310000  1.0 -0.140247288
C  C11  1  0.10120000  0.85440000  0.42310000  1.0 -0.140247288
C  C12  1  0.85440000  0.10120000  0.07690000  1.0 -0.140247288
C  C13  1  0.97580000  0.19100000  0.58110000  1.0 0.1086890361
C  C14  1  0.19100000  0.97580000  0.91890000  1.0 0.1086890361
C  C15  1  0.02420000  0.80900000  0.41890000  1.0 0.1086890361
C  C16  1  0.80900000  0.02420000  0.08110000  1.0 0.1086890361
C  C17  1  0.99840000  0.26720000  0.55370000  1.0 -0.1589549609
C  C18  1  0.26720000  0.99840000  0.94630000  1.0 -0.1589549609
C  C19  1  0.00160000  0.73280000  0.44630000  1.0 -0.1589549609
C  C20  1  0.73280000  0.00160000  0.05370000  1.0 -0.1589549609
C  C21  1  0.94450000  0.29730000  0.52350000  1.0 -0.0375379547
C  C22  1  0.29730000  0.94450000  0.97650000  1.0 -0.0375379547
C  C23  1  0.05550000  0.70270000  0.47650000  1.0 -0.0375379547
C  C24  1  0.70270000  0.05550000  0.02350000  1.0 -0.0375379547
C  C25  1  0.86660000  0.25080000  0.51900000  1.0 -0.140247288
C  C26  1  0.25080000  0.86660000  0.98100000  1.0 -0.140247288
C  C27  1  0.13340000  0.74920000  0.48100000  1.0 -0.140247288
C  C28  1  0.74920000  0.13340000  0.01900000  1.0 -0.140247288
C  C29  1  0.96910000  0.37910000  0.49580000  1.0 0.6559531769
C  C30  1  0.37910000  0.96910000  0.00420000  1.0 0.6559531769
C  C31  1  0.03090000  0.62090000  0.50420000  1.0 0.6559531769
C  C32  1  0.62090000  0.03090000  0.99580000  1.0 0.6559531769
C  C33  1  0.03450000  0.16210000  0.61190000  1.0 -0.0807018104
C  C34  1  0.16210000  0.03450000  0.88810000  1.0 -0.0807018104
C  C35  1  0.96550000  0.83790000  0.38810000  1.0 -0.0807018104
C  C36  1  0.83790000  0.96550000  0.11190000  1.0 -0.0807018104
C  C37  1  0.08760000  0.14340000  0.63580000  1.0 -0.0739480355
C  C38  1  0.14340000  0.08760000  0.86420000  1.0 -0.0807018104
C  C39  1  0.91240000  0.85660000  0.36420000  1.0 -0.0807018104
C  C40  1  0.85660000  0.91240000  0.13580000  1.0 -0.0807018104
C  C41  1  0.14990000  0.12270000  0.65870000  1.0 -0.0615562278
C  C42  1  0.12270000  0.14990000  0.84130000  1.0 -0.0615562278
C  C43  1  0.85010000  0.87730000  0.34130000  1.0 -0.0615562278
C  C44  1  0.87730000  0.85010000  0.15870000  1.0 -0.0615562278
C  C45  1  0.20680000  0.10680000  0.67680000  1.0 -0.0807018104
C  C46  1  0.10680000  0.20680000  0.82320000  1.0 -0.0807018104
C  C47  1  0.79320000  0.89320000  0.32320000  1.0 -0.0807018104
C  C48  1  0.89320000  0.79320000  0.17680000  1.0 -0.0807018104
C  C49  1  0.27810000  0.09230000  0.69330000  1.0 0.1283314291
C  C50  1  0.09230000  0.27810000  0.80670000  1.0 0.1283314291
C  C51  1  0.72190000  0.90770000  0.30670000  1.0 0.1283314291
C  C52  1  0.90770000  0.72190000  0.19330000  1.0 0.1283314291
C  C53  1  0.31690000  0.10890000  0.75590000  1.0 -0.1589549609
C  C54  1  0.10890000  0.31690000  0.74410000  1.0 -0.1589549609
C  C55  1  0.68310000  0.89110000  0.24410000  1.0 -0.1589549609
C  C56  1  0.89110000  0.68310000  0.25590000  1.0 -0.1589549609
C  C57  1  0.38670000  0.09730000  0.76900000  1.0 -0.0007214106
C  C58  1  0.09730000  0.38670000  0.73100000  1.0 -0.0007214106
C  C59  1  0.61330000  0.90270000  0.23100000  1.0 -0.0007214106
C  C60  1  0.90270000  0.61330000  0.26900000  1.0 -0.0007214106
C  C61  1  0.41900000  0.06920000  0.71860000  1.0 -0.1700717167
C  C62  1  0.06920000  0.41900000  0.78140000  1.0 -0.1700717167
C  C63  1  0.58100000  0.93080000  0.28140000  1.0 -0.1700717167
C  C64  1  0.93080000  0.58100000  0.21860000  1.0 -0.1700717167
C  C65  1  0.38130000  0.05210000  0.65460000  1.0 -0.0340513869
C  C66  1  0.05210000  0.38130000  0.84540000  1.0 -0.0340513869
C  C67  1  0.61870000  0.94790000  0.34540000  1.0 -0.0340513869
C  C68  1  0.94790000  0.61870000  0.15460000  1.0 -0.0340513869
C  C69  1  0.31150000  0.06370000  0.64110000  1.0 -0.1589549609
C  C70  1  0.06370000  0.31150000  0.85890000  1.0 -0.1516144343
C  C71  1  0.68850000  0.93630000  0.35890000  1.0 -0.1589549609
C  C72  1  0.93630000  0.68850000  0.14110000  1.0 -0.1516144343
C  C73  1  0.42940000  0.11580000  0.83730000  1.0 0.5325185738
C  C74  1  0.11580000  0.42940000  0.66270000  1.0 0.5325185738
C  C75  1  0.57060000  0.88420000  0.16270000  1.0 0.5325185738
C  C76  1  0.88420000  0.57060000  0.33730000  1.0 0.5325185738
C  C77  1  0.41780000  0.02360000  0.60010000  1.0 0.6293962754
C  C78  1  0.02360000  0.41780000  0.89990000  1.0 0.6293962754
C  C79  1  0.58220000  0.97640000  0.39990000  1.0 0.6293962754
C  C80  1  0.97640000  0.58220000  0.10010000  1.0 0.6293962754
C  C81  1  0.70690000  0.38030000  0.42470000  1.0 0.4267570607
C  C82  1  0.38030000  0.70690000  0.07530000  1.0 0.4228495788
C  C83  1  0.29310000  0.61970000  0.57530000  1.0 0.4228495788
C  C84  1  0.61970000  0.29310000  0.92470000  1.0 0.4267570607
C  C85  1  0.62690000  0.33010000  0.40650000  1.0 -0.1161769353
C  C86  1  0.33010000  0.62690000  0.09350000  1.0 -0.1161769353
C  C87  1  0.37310000  0.66990000  0.59350000  1.0 -0.1161769353
C  C88  1  0.66990000  0.37310000  0.90650000  1.0 -0.1161769353
C  C89  1  0.57980000  0.36080000  0.36430000  1.0 -0.2677868706
C  C90  1  0.36080000  0.57980000  0.13570000  1.0 -0.2677868706
C  C91  1  0.42020000  0.63920000  0.63570000  1.0 -0.2677868706
C  C92  1  0.63920000  0.42020000  0.86430000  1.0 -0.2677868706
C  C93  1  0.50330000  0.31510000  0.34790000  1.0 0.1000204324
C  C94  1  0.31510000  0.50330000  0.15210000  1.0 0.1000204324
C  C95  1  0.49670000  0.68490000  0.65210000  1.0 0.1000204324
C  C96  1  0.68490000  0.49670000  0.84790000  1.0 0.1000204324
C  C97  1  0.47540000  0.23880000  0.37250000  1.0 -0.127412706
C  C98  1  0.23880000  0.47540000  0.12750000  1.0 -0.127412706
C  C99  1  0.52460000  0.76120000  0.62750000  1.0 -0.127412706
C  C100  1  0.76120000  0.52460000  0.87250000  1.0 -0.127412706
C  C101  1  0.52240000  0.20780000  0.41320000  1.0 -0.0100640554
C  C102  1  0.20780000  0.52240000  0.08680000  1.0 -0.0100640554
C  C103  1  0.47760000  0.79220000  0.58680000  1.0 -0.0100640554
C  C104  1  0.79220000  0.47760000  0.91320000  1.0 -0.0100640554
C  C105  1  0.59810000  0.25330000  0.43050000  1.0 -0.2612329715
C  C106  1  0.25330000  0.59810000  0.06950000  1.0 -0.2612329715
C  C107  1  0.40190000  0.74670000  0.56950000  1.0 -0.2612329715
C  C108  1  0.74670000  0.40190000  0.93050000  1.0 -0.2491076358
C  C109  1  0.49100000  0.12460000  0.43700000  1.0 0.6293962754
C  C110  1  0.12460000  0.49100000  0.06300000  1.0 0.6293962754
C  C111  1  0.50900000  0.87540000  0.56300000  1.0 0.6293962754
C  C112  1  0.87540000  0.50900000  0.93700000  1.0 0.6293962754
C  C113  1  0.45710000  0.34850000  0.30340000  1.0 -0.2301200994
C  C114  1  0.34850000  0.45710000  0.19660000  1.0 -0.2301200994
C  C115  1  0.54290000  0.65150000  0.69660000  1.0 -0.2301200994
C  C116  1  0.65150000  0.54290000  0.80340000  1.0 -0.2366768637
C  C117  1  0.42050000  0.38090000  0.26960000  1.0 -0.2301200994
C  C118  1  0.38090000  0.42050000  0.23040000  1.0 -0.2238362947
C  C119  1  0.57950000  0.61910000  0.73040000  1.0 -0.2301200994
C  C120  1  0.61910000  0.57950000  0.76960000  1.0 -0.2238362947
C  C121  1  0.75700000  0.60560000  0.49270000  1.0 0.1385401736
C  C122  1  0.60560000  0.75700000  0.00730000  1.0 0.1385401736
C  C123  1  0.24300000  0.39440000  0.50730000  1.0 0.1385401736
C  C124  1  0.39440000  0.24300000  0.99270000  1.0 0.1385401736
C  C125  1  0.70950000  0.61430000  0.60160000  1.0 -0.0615562278
C  C126  1  0.61430000  0.70950000  0.89840000  1.0 -0.0615562278
C  C127  1  0.29050000  0.38570000  0.39840000  1.0 -0.0615562278
C  C128  1  0.38570000  0.29050000  0.10160000  1.0 -0.0615562278
C  C129  1  0.71750000  0.71710000  0.50600000  1.0 -0.4389859878
C  C130  1  0.71710000  0.71750000  0.99400000  1.0 -0.4389859878
C  C131  1  0.28250000  0.28290000  0.49400000  1.0 -0.4389859878
C  C132  1  0.28290000  0.28250000  0.00600000  1.0 -0.4389859878
C  C133  1  0.60210000  0.19710000  0.65600000  1.0 0.1647459499
C  C134  1  0.19710000  0.60210000  0.84400000  1.0 0.1647459499
C  C135  1  0.39790000  0.80290000  0.34400000  1.0 0.1654470644
C  C136  1  0.80290000  0.39790000  0.15600000  1.0 0.1647459499
C  C137  1  0.58150000  0.28970000  0.72310000  1.0 -0.1516144343
C  C138  1  0.28970000  0.58150000  0.77690000  1.0 -0.1516144343
C  C139  1  0.41850000  0.71030000  0.27690000  1.0 -0.1516144343
C  C140  1  0.71030000  0.41850000  0.22310000  1.0 -0.1516144343
C  C141  1  0.59320000  0.30600000  0.60260000  1.0 -0.0807018104
C  C142  1  0.30600000  0.59320000  0.89740000  1.0 -0.0807018104
C  C143  1  0.40680000  0.69400000  0.39740000  1.0 -0.0807018104
C  C144  1  0.69400000  0.40680000  0.10260000  1.0 -0.0807018104
C  C145  1  0.70590000  0.38270000  0.42490000  1.0 0.4228495788
C  C146  1  0.38270000  0.70590000  0.07510000  1.0 0.4228495788
C  C147  1  0.29410000  0.61730000  0.57510000  1.0 0.4228495788
C  C148  1  0.61730000  0.29410000  0.92490000  1.0 0.4228495788
C  C149  1  0.72900000  0.54560000  0.51150000  1.0 -0.0340513869
C  C150  1  0.54560000  0.72900000  0.98850000  1.0 -0.0340513869
C  C151  1  0.27100000  0.45440000  0.48850000  1.0 -0.0375379547
C  C152  1  0.45440000  0.27100000  0.01150000  1.0 -0.0375379547
C  C153  1  0.76480000  0.64500000  0.58350000  1.0 -0.140247288
C  C154  1  0.64500000  0.76480000  0.91650000  1.0 -0.140247288
C  C155  1  0.23520000  0.35500000  0.41650000  1.0 -0.140247288
C  C156  1  0.35500000  0.23520000  0.08350000  1.0 -0.140247288
C  C157  1  0.63790000  0.60790000  0.53560000  1.0 -0.1700717167
C  C158  1  0.60790000  0.63790000  0.96440000  1.0 -0.1700717167
C  C159  1  0.36210000  0.39210000  0.46440000  1.0 -0.1700717167
C  C160  1  0.39210000  0.36210000  0.03560000  1.0 -0.1700717167
C  C161  1  0.62410000  0.23430000  0.61060000  1.0 0.1784799255
C  C162  1  0.23430000  0.62410000  0.88940000  1.0 0.1784799255
C  C163  1  0.37590000  0.76570000  0.38940000  1.0 0.1784799255
C  C164  1  0.76570000  0.37590000  0.11060000  1.0 0.1784799255
C  C165  1  0.59560000  0.24280000  0.72380000  1.0 -0.096392113
C  C166  1  0.24280000  0.59560000  0.77620000  1.0 -0.096392113
C  C167  1  0.40440000  0.75720000  0.27620000  1.0 -0.096392113
C  C168  1  0.75720000  0.40440000  0.22380000  1.0 -0.096392113
C  C169  1  0.63480000  0.35740000  0.64710000  1.0 -0.2088403919
C  C170  1  0.35740000  0.63480000  0.85290000  1.0 -0.2088403919
C  C171  1  0.36520000  0.64260000  0.35290000  1.0 -0.2088403919
C  C172  1  0.64260000  0.36520000  0.14710000  1.0 -0.2088403919
N  N1  1  0.72400000  0.64400000  0.53090000  1.0 0.1647459499
N  N2  1  0.64400000  0.72400000  0.96910000  1.0 0.1654470644
N  N3  1  0.27600000  0.35600000  0.46910000  1.0 0.1654470644
N  N4  1  0.35600000  0.27600000  0.03090000  1.0 0.1654470644
N  N5  1  0.62650000  0.27470000  0.66650000  1.0 0.0610504403
N  N6  1  0.27470000  0.62650000  0.83350000  1.0 0.0610504403
N  N7  1  0.37350000  0.72530000  0.33350000  1.0 0.0610504403
N  N8  1  0.72530000  0.37350000  0.16650000  1.0 0.0610504403
N  N9  1  0.69610000  0.58870000  0.54770000  1.0 0.1283314291
N  N10  1  0.58870000  0.69610000  0.95230000  1.0 0.1283314291
N  N11  1  0.30390000  0.41130000  0.45230000  1.0 0.1283314291
N  N12  1  0.41130000  0.30390000  0.04770000  1.0 0.1283314291
N  N13  1  0.59180000  0.27240000  0.65180000  1.0 0.118496405
N  N14  1  0.27240000  0.59180000  0.84820000  1.0 0.118496405
N  N15  1  0.40820000  0.72760000  0.34820000  1.0 0.118496405
N  N16  1  0.72760000  0.40820000  0.15180000  1.0 0.118496405
O  O1  1  0.71202000  0.15218000  0.51310000  1.0 -0.6435058036
O  O2  1  0.15218000  0.71202000  0.98690000  1.0 -0.6435058036
O  O3  1  0.28798000  0.84782000  0.48690000  1.0 -0.6435058036
O  O4  1  0.84782000  0.28798000  0.01310000  1.0 -0.6435058036
O  O5  1  0.73944000  0.05916000  0.57210000  1.0 -0.6202335872
O  O6  1  0.05916000  0.73944000  0.92790000  1.0 -0.6202335872
O  O7  1  0.26056000  0.94084000  0.42790000  1.0 -0.6202335872
O  O8  1  0.94084000  0.26056000  0.07210000  1.0 -0.6202335872
O  O9  1  0.91859000  0.40361000  0.46790000  1.0 -0.6722440191
O  O10  1  0.40361000  0.91859000  0.03210000  1.0 -0.6722440191
O  O11  1  0.08141000  0.59639000  0.53210000  1.0 -0.6722440191
O  O12  1  0.59639000  0.08141000  0.96790000  1.0 -0.6722440191
O  O13  1  0.03895000  0.41885000  0.50180000  1.0 -0.6627480903
O  O14  1  0.41885000  0.03895000  0.99820000  1.0 -0.6627480903
O  O15  1  0.96105000  0.58115000  0.49820000  1.0 -0.6627480903
O  O16  1  0.58115000  0.96105000  0.00180000  1.0 -0.6627480903
O  O17  1  0.40442000  0.14958000  0.88020000  1.0 -0.6319730424
O  O18  1  0.14958000  0.40442000  0.61980000  1.0 -0.6319730424
O  O19  1  0.59558000  0.85042000  0.11980000  1.0 -0.6319730424
O  O20  1  0.85042000  0.59558000  0.38020000  1.0 -0.6319730424
O  O21  1  0.48774000  0.09646000  0.85040000  1.0 -0.5963469663
O  O22  1  0.09646000  0.48774000  0.64960000  1.0 -0.5963469663
O  O23  1  0.51226000  0.90354000  0.14960000  1.0 -0.5963469663
O  O24  1  0.90354000  0.51226000  0.35040000  1.0 -0.5963469663
O  O25  1  0.37907000  0.00233000  0.54490000  1.0 -0.6435058036
O  O26  1  0.00233000  0.37907000  0.95510000  1.0 -0.6435058036
O  O27  1  0.62093000  0.99767000  0.45510000  1.0 -0.6435058036
O  O28  1  0.99767000  0.62093000  0.04490000  1.0 -0.6435058036
O  O29  1  0.48601000  0.02319000  0.61290000  1.0 -0.7040845343
O  O30  1  0.02319000  0.48601000  0.88710000  1.0 -0.705975281
O  O31  1  0.51399000  0.97681000  0.38710000  1.0 -0.7040845343
O  O32  1  0.97681000  0.51399000  0.11290000  1.0 -0.7040845343
O  O33  1  0.74310000  0.43510000  0.38570000  1.0 -0.203708052
O  O34  1  0.43510000  0.74310000  0.11430000  1.0 -0.203708052
O  O35  1  0.25690000  0.56490000  0.61430000  1.0 -0.203708052
O  O36  1  0.56490000  0.25690000  0.88570000  1.0 -0.203708052
O  O37  1  0.74230000  0.36810000  0.47800000  1.0 -0.1700717167
O  O38  1  0.36810000  0.74230000  0.02200000  1.0 -0.1700717167
O  O39  1  0.25770000  0.63190000  0.52200000  1.0 -0.1700717167
O  O40  1  0.63190000  0.25770000  0.97800000  1.0 -0.1700717167
O  O41  1  0.53013000  0.09827000  0.47990000  1.0 -0.7040845343
O  O42  1  0.09827000  0.53013000  0.02010000  1.0 -0.705975281
O  O43  1  0.46987000  0.90173000  0.52010000  1.0 -0.705975281
O  O44  1  0.90173000  0.46987000  0.97990000  1.0 -0.7040845343
O  O45  1  0.42628000  0.08412000  0.41250000  1.0 -0.6319730424
O  O46  1  0.08412000  0.42628000  0.08750000  1.0 -0.6319730424
O  O47  1  0.57372000  0.91588000  0.58750000  1.0 -0.6319730424
O  O48  1  0.91588000  0.57372000  0.91250000  1.0 -0.6319730424
O  O49  1  0.77170000  0.54510000  0.51140000  1.0 -0.0739480355
O  O50  1  0.54510000  0.77170000  0.98860000  1.0 -0.0739480355
O  O51  1  0.22830000  0.45490000  0.48860000  1.0 -0.0739480355
O  O52  1  0.45490000  0.22830000  0.01140000  1.0 -0.0739480355
O  O53  1  0.61000000  0.17280000  0.59950000  1.0 -0.2612329715
O  O54  1  0.17280000  0.61000000  0.90050000  1.0 -0.2612329715
O  O55  1  0.39000000  0.82720000  0.40050000  1.0 -0.2612329715
O  O56  1  0.82720000  0.39000000  0.09950000  1.0 -0.2612329715
O  O57  1  0.72160000  0.45280000  0.40700000  1.0 -0.2677868706
O  O58  1  0.45280000  0.72160000  0.09300000  1.0 -0.2677868706
O  O59  1  0.27840000  0.54720000  0.59300000  1.0 -0.2612329715
O  O60  1  0.54720000  0.27840000  0.90700000  1.0 -0.2677868706
O  O61  1  0.75140000  0.35460000  0.45700000  1.0 -0.114126247
O  O62  1  0.35460000  0.75140000  0.04300000  1.0 -0.114126247
O  O63  1  0.24860000  0.64540000  0.54300000  1.0 -0.114126247
O  O64  1  0.64540000  0.24860000  0.95700000  1.0 -0.1161769353
O  O65  1  0.80150000  0.56510000  0.52250000  1.0 -0.140247288
O  O66  1  0.56510000  0.80150000  0.97750000  1.0 -0.140247288
O  O67  1  0.19850000  0.43490000  0.47750000  1.0 -0.140247288
O  O68  1  0.43490000  0.19850000  0.02250000  1.0 -0.140247288
O  O69  1  0.61460000  0.16440000  0.61770000  1.0 -0.2612329715
O  O70  1  0.16440000  0.61460000  0.88230000  1.0 -0.2612329715
O  O71  1  0.38540000  0.83560000  0.38230000  1.0 -0.2677868706
O  O72  1  0.83560000  0.38540000  0.11770000  1.0 -0.2677868706
