# DDEC6 charges by PACMAN v1.1 (https://github.com/mtap-research/PACMAN-charge/)
data_EZESAF_ASR_pacman
_symmetry_space_group_name_H-M   'P 1'
_cell_length_a   9.92840000
_cell_length_b   20.57090000
_cell_length_c   14.13900000
_cell_angle_alpha   90.00000000
_cell_angle_beta   95.78600000
_cell_angle_gamma   90.00000000
_symmetry_Int_Tables_number   1
_chemical_formula_structural   CuH23C25(N2O3)2
_chemical_formula_sum   'Cu4 H92 C100 N16 O24'
_cell_volume   2872.98282104
_cell_formula_units_Z   4
loop_
 _symmetry_equiv_pos_site_id
 _symmetry_equiv_pos_as_xyz
  1  'x, y, z'
loop_
 _atom_site_type_symbol
 _atom_site_label
 _atom_site_symmetry_multiplicity
 _atom_site_fract_x
 _atom_site_fract_y
 _atom_site_fract_z
 _atom_site_occupancy
 _atom_site_charge
Cu  Cu1  1  0.30468000  0.26436000  0.81017000  1.0 0.7727024585
Cu  Cu2  1  0.19532000  0.76436000  0.18984000  1.0 0.7727024585
Cu  Cu3  1  0.69532000  0.73564000  0.18984000  1.0 0.7727024585
Cu  Cu4  1  0.80468000  0.23564000  0.81017000  1.0 0.7727024585
H  H1  1  0.51850000  0.16520000  0.00161000  1.0 0.1193941022
H  H2  1  0.98150000  0.66520000  0.99840000  1.0 0.1193941022
H  H3  1  0.48150000  0.83480000  0.99840000  1.0 0.1193941022
H  H4  1  0.01850000  0.33480000  0.00161000  1.0 0.1193941022
H  H5  1  0.41160000  0.11100000  0.11601000  1.0 0.1302310817
H  H6  1  0.08840000  0.61100000  0.88400000  1.0 0.1302310817
H  H7  1  0.58840000  0.88900000  0.88400000  1.0 0.1302310817
H  H8  1  0.91160000  0.38900000  0.11601000  1.0 0.1302310817
H  H9  1  0.77060000  0.07140000  0.25871000  1.0 0.1193941022
H  H10  1  0.72940000  0.57140000  0.74130000  1.0 0.1193941022
H  H11  1  0.22940000  0.92860000  0.74130000  1.0 0.1193941022
H  H12  1  0.27060000  0.42860000  0.25871000  1.0 0.1193941022
H  H13  1  0.87670000  0.12540000  0.14380000  1.0 0.1193941022
H  H14  1  0.62330000  0.62540000  0.85620000  1.0 0.1193941022
H  H15  1  0.12330000  0.87460000  0.85620000  1.0 0.1193941022
H  H16  1  0.37670000  0.37460000  0.14380000  1.0 0.1193941022
H  H17  1  0.42340000  0.11960000  0.80441000  1.0 0.1193941022
H  H18  1  0.07660000  0.61960000  0.19559000  1.0 0.1193941022
H  H19  1  0.57660000  0.88040000  0.19559000  1.0 0.1193941022
H  H20  1  0.92340000  0.38040000  0.80441000  1.0 0.1193941022
H  H21  1  0.34760000  0.03020000  0.89981000  1.0 0.1193941022
H  H22  1  0.15240000  0.53020000  0.10020000  1.0 0.1193941022
H  H23  1  0.65240000  0.96980000  0.10020000  1.0 0.1193941022
H  H24  1  0.84760000  0.46980000  0.89981000  1.0 0.1193941022
H  H25  1  0.13640000  0.18700000  0.94841000  1.0 0.1302310817
H  H26  1  0.36360000  0.68700000  0.05160000  1.0 0.1302310817
H  H27  1  0.86360000  0.81300000  0.05160000  1.0 0.1302310817
H  H28  1  0.63640000  0.31300000  0.94841000  1.0 0.1302310817
H  H29  1  0.20410000  0.03240000  0.05471000  1.0 0.1193941022
H  H30  1  0.29590000  0.53240000  0.94530000  1.0 0.1193941022
H  H31  1  0.79590000  0.96760000  0.94530000  1.0 0.1193941022
H  H32  1  0.70410000  0.46760000  0.05471000  1.0 0.1193941022
H  H33  1  0.10230000  0.09050000  0.05820000  1.0 0.1302310817
H  H34  1  0.39770000  0.59050000  0.94180000  1.0 0.1302310817
H  H35  1  0.89770000  0.90950000  0.94180000  1.0 0.1302310817
H  H36  1  0.60230000  0.40950000  0.05820000  1.0 0.1302310817
H  H37  1  0.07440000  0.99340000  0.91941000  1.0 0.1034412197
H  H38  1  0.42560000  0.49340000  0.08059000  1.0 0.1034412197
H  H39  1  0.92560000  0.00660000  0.08059000  1.0 0.1034412197
H  H40  1  0.57440000  0.50660000  0.91941000  1.0 0.1034412197
H  H41  1  0.96960000  0.04940000  0.93031000  1.0 0.1128155023
H  H42  1  0.53040000  0.54940000  0.06970000  1.0 0.1128155023
H  H43  1  0.03040000  0.95060000  0.06970000  1.0 0.1128155023
H  H44  1  0.46960000  0.45060000  0.93031000  1.0 0.1128155023
H  H45  1  0.49500000  0.33720000  0.68461000  1.0 0.1302310817
H  H46  1  0.00500000  0.83720000  0.31540000  1.0 0.1302310817
H  H47  1  0.50500000  0.66280000  0.31540000  1.0 0.1302310817
H  H48  1  0.99500000  0.16280000  0.68461000  1.0 0.1302310817
H  H49  1  0.19920000  0.41360000  0.81171000  1.0 0.1302310817
H  H50  1  0.30080000  0.91360000  0.18830000  1.0 0.1302310817
H  H51  1  0.80080000  0.58640000  0.18830000  1.0 0.1302310817
H  H52  1  0.69920000  0.08640000  0.81171000  1.0 0.1302310817
H  H53  1  0.37260000  0.50500000  0.53631000  1.0 0.1128155023
H  H54  1  0.12740000  0.00500000  0.46370000  1.0 0.1128155023
H  H55  1  0.62740000  0.49500000  0.46370000  1.0 0.1128155023
H  H56  1  0.87260000  0.99500000  0.53631000  1.0 0.1128155023
H  H57  1  0.42830000  0.44040000  0.49601000  1.0 0.1193941022
H  H58  1  0.07170000  0.94040000  0.50399000  1.0 0.1193941022
H  H59  1  0.57170000  0.55960000  0.50399000  1.0 0.1193941022
H  H60  1  0.92830000  0.05960000  0.49601000  1.0 0.1193941022
H  H61  1  0.60130000  0.43690000  0.61930000  1.0 0.1193941022
H  H62  1  0.89870000  0.93690000  0.38070000  1.0 0.1193941022
H  H63  1  0.39870000  0.56310000  0.38070000  1.0 0.1193941022
H  H64  1  0.10130000  0.06310000  0.61930000  1.0 0.1193941022
H  H65  1  0.55580000  0.50420000  0.65760000  1.0 0.1128155023
H  H66  1  0.94420000  0.00420000  0.34240000  1.0 0.1128155023
H  H67  1  0.44420000  0.49580000  0.34240000  1.0 0.1128155023
H  H68  1  0.05580000  0.99580000  0.65760000  1.0 0.1128155023
H  H69  1  0.25030000  0.11950000  0.50030000  1.0 0.1193941022
H  H70  1  0.24970000  0.61950000  0.49970000  1.0 0.1193941022
H  H71  1  0.74970000  0.88050000  0.49970000  1.0 0.1193941022
H  H72  1  0.75030000  0.38050000  0.50030000  1.0 0.1193941022
H  H73  1  0.37050000  0.05980000  0.39921000  1.0 0.1302310817
H  H74  1  0.12950000  0.55980000  0.60080000  1.0 0.1302310817
H  H75  1  0.62950000  0.94020000  0.60080000  1.0 0.1302310817
H  H76  1  0.87050000  0.44020000  0.39921000  1.0 0.1302310817
H  H77  1  0.71680000  0.12580000  0.53531000  1.0 0.1302310817
H  H78  1  0.78320000  0.62580000  0.46470000  1.0 0.1302310817
H  H79  1  0.28320000  0.87420000  0.46470000  1.0 0.1302310817
H  H80  1  0.21680000  0.37420000  0.53531000  1.0 0.1302310817
H  H81  1  0.59600000  0.18620000  0.63461000  1.0 0.1302310817
H  H82  1  0.90400000  0.68620000  0.36540000  1.0 0.1302310817
H  H83  1  0.40400000  0.81380000  0.36540000  1.0 0.1302310817
H  H84  1  0.09600000  0.31380000  0.63461000  1.0 0.1302310817
H  H85  1  0.64510000  0.98580000  0.30501000  1.0 0.1034412197
H  H86  1  0.85490000  0.48580000  0.69500000  1.0 0.1034412197
H  H87  1  0.35490000  0.01420000  0.69500000  1.0 0.1034412197
H  H88  1  0.14510000  0.51420000  0.30501000  1.0 0.1034412197
H  H89  1  0.51350000  0.98360000  0.35761000  1.0 0.1128155023
H  H90  1  0.98650000  0.48360000  0.64240000  1.0 0.1128155023
H  H91  1  0.48650000  0.01640000  0.64240000  1.0 0.1128155023
H  H92  1  0.01350000  0.51640000  0.35761000  1.0 0.1128155023
C  C1  1  0.78070000  0.18217000  0.98282000  1.0 0.5411572785
C  C2  1  0.71930000  0.68217000  0.01719000  1.0 0.5411572785
C  C3  1  0.21930000  0.81783000  0.01719000  1.0 0.5411572785
C  C4  1  0.28070000  0.31783000  0.98282000  1.0 0.5411572785
C  C5  1  0.70970000  0.14978000  0.05951000  1.0 -0.0319319822
C  C6  1  0.79030000  0.64978000  0.94050000  1.0 -0.0319319822
C  C7  1  0.29030000  0.85022000  0.94050000  1.0 -0.0319319822
C  C8  1  0.20970000  0.35022000  0.05951000  1.0 -0.0319319822
C  C9  1  0.56980000  0.14567000  0.05252000  1.0 -0.0731308691
C  C10  1  0.93020000  0.64567000  0.94749000  1.0 -0.0731308691
C  C11  1  0.43020000  0.85433000  0.94749000  1.0 -0.0731308691
C  C12  1  0.06980000  0.35433000  0.05252000  1.0 -0.0731308691
C  C13  1  0.50560000  0.11279000  0.12067000  1.0 -0.2085330953
C  C14  1  0.99440000  0.61279000  0.87934000  1.0 -0.2085330953
C  C15  1  0.49440000  0.88721000  0.87934000  1.0 -0.2085330953
C  C16  1  0.00560000  0.38721000  0.12067000  1.0 -0.2085330953
C  C17  1  0.58100000  0.08259000  0.19559000  1.0 0.2423777312
C  C18  1  0.91900000  0.58259000  0.80441000  1.0 0.2423777312
C  C19  1  0.41900000  0.91741000  0.80441000  1.0 0.2423777312
C  C20  1  0.08100000  0.41741000  0.19559000  1.0 0.2423777312
C  C21  1  0.71970000  0.08903000  0.20606000  1.0 -0.2374047309
C  C22  1  0.78030000  0.58903000  0.79395000  1.0 -0.2374047309
C  C23  1  0.28030000  0.91097000  0.79395000  1.0 -0.2374047309
C  C24  1  0.21970000  0.41097000  0.20606000  1.0 -0.2374047309
C  C25  1  0.78280000  0.12196000  0.13736000  1.0 -0.089429219
C  C26  1  0.71720000  0.62196000  0.86265000  1.0 -0.089429219
C  C27  1  0.21720000  0.87804000  0.86265000  1.0 -0.089429219
C  C28  1  0.28280000  0.37804000  0.13736000  1.0 -0.089429219
C  C29  1  0.35620000  0.12208000  0.84561000  1.0 -0.039622864
C  C30  1  0.14380000  0.62208000  0.15440000  1.0 -0.039622864
C  C31  1  0.64380000  0.87792000  0.15440000  1.0 -0.039622864
C  C32  1  0.85620000  0.37792000  0.84561000  1.0 -0.039622864
C  C33  1  0.31540000  0.07268000  0.89850000  1.0 -0.1134805401
C  C34  1  0.18460000  0.57268000  0.10150000  1.0 -0.1134805401
C  C35  1  0.68460000  0.92732000  0.10150000  1.0 -0.1134805401
C  C36  1  0.81540000  0.42732000  0.89850000  1.0 -0.1134805401
C  C37  1  0.19940000  0.15956000  0.92470000  1.0 0.1193941022
C  C38  1  0.30060000  0.65956000  0.07530000  1.0 0.1193941022
C  C39  1  0.80060000  0.84044000  0.07530000  1.0 0.1193941022
C  C40  1  0.69940000  0.34044000  0.92470000  1.0 0.1193941022
C  C41  1  0.14240000  0.06050000  0.01611000  1.0 -0.1186933388
C  C42  1  0.35760000  0.56050000  0.98390000  1.0 -0.1134805401
C  C43  1  0.85760000  0.93950000  0.98390000  1.0 -0.1134805401
C  C44  1  0.64240000  0.43950000  0.01611000  1.0 -0.1186933388
C  C45  1  0.03540000  0.02109000  0.96501000  1.0 -0.1811779149
C  C46  1  0.46460000  0.52109000  0.03500000  1.0 -0.1811779149
C  C47  1  0.96460000  0.97891000  0.03500000  1.0 -0.1811779149
C  C48  1  0.53540000  0.47891000  0.96501000  1.0 -0.1811779149
C  C49  1  0.43430000  0.36689000  0.70612000  1.0 0.1034412197
C  C50  1  0.06570000  0.86689000  0.29389000  1.0 0.1034412197
C  C51  1  0.56570000  0.63311000  0.29389000  1.0 0.1034412197
C  C52  1  0.93430000  0.13311000  0.70612000  1.0 0.1034412197
C  C53  1  0.27180000  0.40935000  0.77550000  1.0 -0.089429219
C  C54  1  0.22820000  0.90935000  0.22451000  1.0 -0.089429219
C  C55  1  0.72820000  0.59065000  0.22451000  1.0 -0.089429219
C  C56  1  0.77180000  0.09065000  0.77550000  1.0 -0.089429219
C  C57  1  0.32870000  0.45872000  0.73003000  1.0 -0.2171328895
C  C58  1  0.17130000  0.95872000  0.26998000  1.0 -0.2171328895
C  C59  1  0.67130000  0.54128000  0.26998000  1.0 -0.2171328895
C  C60  1  0.82870000  0.04128000  0.73003000  1.0 -0.2171328895
C  C61  1  0.45430000  0.48040000  0.52931000  1.0 -0.1811779149
C  C62  1  0.04570000  0.98040000  0.47069000  1.0 -0.1811779149
C  C63  1  0.54570000  0.51960000  0.47069000  1.0 -0.1811779149
C  C64  1  0.95430000  0.01960000  0.52931000  1.0 -0.1811779149
C  C65  1  0.52340000  0.46431000  0.62645000  1.0 -0.1186933388
C  C66  1  0.97660000  0.96431000  0.37356000  1.0 -0.1186933388
C  C67  1  0.47660000  0.53569000  0.37356000  1.0 -0.1186933388
C  C68  1  0.02340000  0.03569000  0.62645000  1.0 -0.1186933388
C  C69  1  0.32950000  0.19651000  0.64510000  1.0 0.5411572785
C  C70  1  0.17050000  0.69651000  0.35491000  1.0 0.5411572785
C  C71  1  0.67050000  0.80349000  0.35491000  1.0 0.5411572785
C  C72  1  0.82950000  0.30349000  0.64510000  1.0 0.5411572785
C  C73  1  0.40960000  0.15897000  0.57844000  1.0 -0.039622864
C  C74  1  0.09040000  0.65897000  0.42157000  1.0 -0.039622864
C  C75  1  0.59040000  0.84103000  0.42157000  1.0 -0.039622864
C  C76  1  0.90960000  0.34103000  0.57844000  1.0 -0.039622864
C  C77  1  0.34440000  0.12096000  0.50747000  1.0 -0.1027780518
C  C78  1  0.15560000  0.62096000  0.49254000  1.0 -0.1027780518
C  C79  1  0.65560000  0.87904000  0.49254000  1.0 -0.1027780518
C  C80  1  0.84440000  0.37904000  0.50747000  1.0 -0.1027780518
C  C81  1  0.41600000  0.08503000  0.44681000  1.0 -0.2298634171
C  C82  1  0.08400000  0.58503000  0.55319000  1.0 -0.2298634171
C  C83  1  0.58400000  0.91497000  0.55319000  1.0 -0.2298634171
C  C84  1  0.91600000  0.41497000  0.44681000  1.0 -0.2298634171
C  C85  1  0.55540000  0.08692000  0.45737000  1.0 0.2423777312
C  C86  1  0.94460000  0.58692000  0.54263000  1.0 0.2423777312
C  C87  1  0.44460000  0.91308000  0.54263000  1.0 0.2423777312
C  C88  1  0.05540000  0.41308000  0.45737000  1.0 0.2423777312
C  C89  1  0.62270000  0.12465000  0.52807000  1.0 -0.2085330953
C  C90  1  0.87730000  0.62465000  0.47193000  1.0 -0.2085330953
C  C91  1  0.37730000  0.87535000  0.47193000  1.0 -0.2085330953
C  C92  1  0.12270000  0.37535000  0.52807000  1.0 -0.2085330953
C  C93  1  0.55030000  0.16056000  0.58764000  1.0 -0.0731308691
C  C94  1  0.94970000  0.66056000  0.41236000  1.0 -0.0731308691
C  C95  1  0.44970000  0.83944000  0.41236000  1.0 -0.0731308691
C  C96  1  0.05030000  0.33944000  0.58764000  1.0 -0.0731308691
C  C97  1  0.57630000  0.01243000  0.33005000  1.0 0.0872806229
C  C98  1  0.92370000  0.51243000  0.66995000  1.0 0.0872806229
C  C99  1  0.42370000  0.98757000  0.66995000  1.0 0.0872806229
C  C100  1  0.07630000  0.48757000  0.33005000  1.0 0.0872806229
N  N1  1  0.28250000  0.17677000  0.86240000  1.0 -0.2869823247
N  N2  1  0.21750000  0.67677000  0.13761000  1.0 -0.2869823247
N  N3  1  0.71750000  0.82323000  0.13761000  1.0 -0.2869823247
N  N4  1  0.78250000  0.32323000  0.86240000  1.0 -0.2869823247
N  N5  1  0.21790000  0.09720000  0.94959000  1.0 0.0452282682
N  N6  1  0.28210000  0.59720000  0.05042000  1.0 0.0452282682
N  N7  1  0.78210000  0.90280000  0.05042000  1.0 0.0452282682
N  N8  1  0.71790000  0.40280000  0.94959000  1.0 0.0452282682
N  N9  1  0.33740000  0.35204000  0.76013000  1.0 -0.2869823247
N  N10  1  0.16260000  0.85204000  0.23988000  1.0 -0.2869823247
N  N11  1  0.66260000  0.64796000  0.23988000  1.0 -0.2869823247
N  N12  1  0.83740000  0.14796000  0.76013000  1.0 -0.2869823247
N  N13  1  0.43290000  0.43076000  0.68663000  1.0 0.0407762148
N  N14  1  0.06710000  0.93076000  0.31338000  1.0 0.0407762148
N  N15  1  0.56710000  0.56924000  0.31338000  1.0 0.0407762148
N  N16  1  0.93290000  0.06924000  0.68663000  1.0 0.0407762148
O  O1  1  0.70403000  0.19865000  0.90830000  1.0 -0.5331721276
O  O2  1  0.79597000  0.69865000  0.09170000  1.0 -0.5331721276
O  O3  1  0.29597000  0.80135000  0.09170000  1.0 -0.5331721276
O  O4  1  0.20403000  0.30135000  0.90830000  1.0 -0.5331721276
O  O5  1  0.90390000  0.19003000  0.99325000  1.0 -0.5600308746
O  O6  1  0.59610000  0.69003000  0.00676000  1.0 -0.5600308746
O  O7  1  0.09610000  0.80997000  0.00676000  1.0 -0.5600308746
O  O8  1  0.40390000  0.30997000  0.99325000  1.0 -0.5600308746
O  O9  1  0.50659000  0.04761000  0.25537000  1.0 -0.1903693646
O  O10  1  0.99341000  0.54761000  0.74464000  1.0 -0.1903693646
O  O11  1  0.49341000  0.95239000  0.74464000  1.0 -0.1903693646
O  O12  1  0.00659000  0.45239000  0.25537000  1.0 -0.1903693646
O  O13  1  0.20530000  0.19438000  0.63530000  1.0 -0.5600308746
O  O14  1  0.29470000  0.69438000  0.36471000  1.0 -0.5600308746
O  O15  1  0.79470000  0.80562000  0.36471000  1.0 -0.5600308746
O  O16  1  0.70530000  0.30562000  0.63530000  1.0 -0.5600308746
O  O17  1  0.40100000  0.22740000  0.71049000  1.0 -0.5331721276
O  O18  1  0.09900000  0.72740000  0.28952000  1.0 -0.5331721276
O  O19  1  0.59900000  0.77260000  0.28952000  1.0 -0.5331721276
O  O20  1  0.90100000  0.27260000  0.71049000  1.0 -0.5331721276
O  O21  1  0.63797000  0.05331000  0.40151000  1.0 -0.2085330953
O  O22  1  0.86203000  0.55331000  0.59849000  1.0 -0.2085330953
O  O23  1  0.36203000  0.94669000  0.59849000  1.0 -0.2085330953
O  O24  1  0.13797000  0.44669000  0.40151000  1.0 -0.2085330953
