# DDEC6 charges by PACMAN v1.1 (https://github.com/mtap-research/PACMAN-charge/)
data_EZEWOY_ASR_pacman
_symmetry_space_group_name_H-M   'P 1'
_cell_length_a   17.78860000
_cell_length_b   17.78860000
_cell_length_c   31.34380000
_cell_angle_alpha   80.62730000
_cell_angle_beta   99.37270000
_cell_angle_gamma   132.32100000
_symmetry_Int_Tables_number   1
_chemical_formula_structural   Zn5H70C69N12Cl10O9
_chemical_formula_sum   'Zn20 H280 C276 N48 Cl40 O36'
_cell_volume   7216.22870800
_cell_formula_units_Z   4
loop_
 _symmetry_equiv_pos_site_id
 _symmetry_equiv_pos_as_xyz
  1  'x, y, z'
loop_
 _atom_site_type_symbol
 _atom_site_label
 _atom_site_symmetry_multiplicity
 _atom_site_fract_x
 _atom_site_fract_y
 _atom_site_fract_z
 _atom_site_occupancy
 _atom_site_charge
Zn  Zn1  1  0.25259000  0.00685000  0.05567000  1.0 0.642174909
Zn  Zn2  1  0.64925000  0.05267000  0.20671000  1.0 0.2730496321
Zn  Zn3  1  0.56510000  0.71670000  0.39990000  1.0 0.5576862787
Zn  Zn4  1  0.56210000  0.72310000  0.40560000  1.0 0.5576862787
Zn  Zn5  1  0.67251000  0.03251000  0.22880000  1.0 0.2570133117
Zn  Zn6  1  0.99315000  0.74741000  0.55567000  1.0 0.642174909
Zn  Zn7  1  0.94733000  0.35075000  0.70671000  1.0 0.2730496321
Zn  Zn8  1  0.28330000  0.43490000  0.89990000  1.0 0.5576862787
Zn  Zn9  1  0.27690000  0.43790000  0.90560000  1.0 0.5576862787
Zn  Zn10  1  0.96749000  0.32749000  0.72880000  1.0 0.2570133117
Zn  Zn11  1  0.00685000  0.25259000  0.44433000  1.0 0.642174909
Zn  Zn12  1  0.05267000  0.64925000  0.29329000  1.0 0.2730496321
Zn  Zn13  1  0.71670000  0.56510000  0.10010000  1.0 0.5576862787
Zn  Zn14  1  0.72310000  0.56210000  0.09440000  1.0 0.5576862787
Zn  Zn15  1  0.03251000  0.67251000  0.27120000  1.0 0.2570133117
Zn  Zn16  1  0.74741000  0.99315000  0.94433000  1.0 0.642174909
Zn  Zn17  1  0.35075000  0.94733000  0.79329000  1.0 0.2730496321
Zn  Zn18  1  0.43490000  0.28330000  0.60010000  1.0 0.5576862787
Zn  Zn19  1  0.43790000  0.27690000  0.59440000  1.0 0.5576862787
Zn  Zn20  1  0.32749000  0.96749000  0.77120000  1.0 0.2570133117
H  H1  1  0.69596000  0.82774000  0.80988000  1.0 0.1693280452
H  H2  1  0.26025000  0.28535000  0.74890000  1.0 0.1020567412
H  H3  1  0.19560000  0.30490000  0.80126000  1.0 0.1020567412
H  H4  1  0.02137000  0.18277000  0.81205000  1.0 0.0799702602
H  H5  1  0.30401000  0.45523000  0.65980000  1.0 0.0902301309
H  H6  1  0.40893000  0.48019000  0.67484000  1.0 0.1020567412
H  H7  1  0.63366000  0.68694000  0.62584000  1.0 0.3068336938
H  H8  1  0.37257000  0.66711000  0.68956000  1.0 0.3385477532
H  H9  1  0.46752000  0.61752000  0.63804000  1.0 0.0109416326
H  H10  1  0.54770000  0.73874000  0.64403000  1.0 0.0601284289
H  H11  1  0.51381000  0.72609000  0.75319000  1.0 0.1105254233
H  H12  1  0.51705000  0.63729000  0.76016000  1.0 0.1693280452
H  H13  1  0.18720000  0.06994000  0.66958000  1.0 0.0799702602
H  H14  1  0.21311000  0.07529000  0.72093000  1.0 0.0799702602
H  H15  1  0.09730000  0.99528000  0.70166000  1.0 0.0694672537
H  H16  1  0.78453000  0.75323000  0.66436000  1.0 0.2730496321
H  H17  1  0.24275000  0.32301000  0.69416000  1.0 0.3256002013
H  H18  1  0.56108000  0.60470000  0.70198000  1.0 0.1105254233
H  H19  1  0.61666000  0.81356000  0.79479000  1.0 0.2570133117
H  H20  1  0.60807000  0.92409000  0.58724000  1.0 0.0799702602
H  H21  1  0.70497000  0.95289000  0.57019000  1.0 0.0902301309
H  H22  1  0.75531000  0.06621000  0.61819000  1.0 0.1208880759
H  H23  1  0.69328000  0.97554000  0.65498000  1.0 0.1279073447
H  H24  1  0.79055000  0.00445000  0.63786000  1.0 0.1693280452
H  H25  1  0.67721000  0.82147000  0.62098000  1.0 0.1208880759
H  H26  1  0.59328000  0.78344000  0.58081000  1.0 0.1020567412
H  H27  1  0.38510000  0.53252000  0.61373000  1.0 0.0902301309
H  H28  1  0.49962000  0.62258000  0.60022000  1.0 0.0799702602
H  H29  1  0.47775000  0.58577000  0.65026000  1.0 0.051627442
H  H30  1  0.56693000  0.75869000  0.66649000  1.0 0.1020567412
H  H31  1  0.53359000  0.81887000  0.64135000  1.0 0.1020567412
H  H32  1  0.41607000  0.68521000  0.59703000  1.0 0.0902301309
H  H33  1  0.39415000  0.64833000  0.64717000  1.0 0.1279073447
H  H34  1  0.09927000  0.07387000  0.75659000  1.0 0.051627442
H  H35  1  0.04994000  0.10872000  0.72201000  1.0 0.0902301309
H  H36  1  0.94861000  0.96419000  0.69656000  1.0 0.1208880759
H  H37  1  0.00075000  0.93083000  0.72993000  1.0 0.003408182
H  H38  1  0.80897000  0.83855000  0.72204000  1.0 0.0601284289
H  H39  1  0.86350000  0.81382000  0.75904000  1.0 0.0601284289
H  H40  1  0.84443000  0.95063000  0.77445000  1.0 0.0694672537
H  H41  1  0.85657000  0.88263000  0.80898000  1.0 0.149229522
H  H42  1  0.05578000  0.14488000  0.79095000  1.0 0.0694672537
H  H43  1  0.93924000  0.06236000  0.77298000  1.0 0.0694672537
H  H44  1  0.67202000  0.80716000  0.75957000  1.0 0.1279073447
H  H45  1  0.02733000  0.98883000  0.69224000  1.0 0.1020567412
H  H46  1  0.68423000  0.73875000  0.79431000  1.0 0.1020567412
H  H47  1  0.82774000  0.69596000  0.69012000  1.0 0.1693280452
H  H48  1  0.28535000  0.26025000  0.75110000  1.0 0.1020567412
H  H49  1  0.30490000  0.19560000  0.69874000  1.0 0.1020567412
H  H50  1  0.18277000  0.02137000  0.68795000  1.0 0.0799702602
H  H51  1  0.45523000  0.30401000  0.84020000  1.0 0.0902301309
H  H52  1  0.48019000  0.40893000  0.82516000  1.0 0.1020567412
H  H53  1  0.68694000  0.63366000  0.87416000  1.0 0.3068336938
H  H54  1  0.66711000  0.37257000  0.81044000  1.0 0.3385477532
H  H55  1  0.61752000  0.46752000  0.86196000  1.0 0.0109416326
H  H56  1  0.73874000  0.54770000  0.85597000  1.0 0.0601284289
H  H57  1  0.72609000  0.51381000  0.74681000  1.0 0.1105254233
H  H58  1  0.63729000  0.51705000  0.73984000  1.0 0.1693280452
H  H59  1  0.06994000  0.18720000  0.83042000  1.0 0.0799702602
H  H60  1  0.07529000  0.21311000  0.77907000  1.0 0.0799702602
H  H61  1  0.99528000  0.09730000  0.79834000  1.0 0.0694672537
H  H62  1  0.75323000  0.78453000  0.83564000  1.0 0.2730496321
H  H63  1  0.32301000  0.24275000  0.80584000  1.0 0.3256002013
H  H64  1  0.60470000  0.56108000  0.79802000  1.0 0.1105254233
H  H65  1  0.81356000  0.61666000  0.70521000  1.0 0.2570133117
H  H66  1  0.92409000  0.60807000  0.91276000  1.0 0.0799702602
H  H67  1  0.95289000  0.70497000  0.92981000  1.0 0.0902301309
H  H68  1  0.06621000  0.75531000  0.88181000  1.0 0.1208880759
H  H69  1  0.97554000  0.69328000  0.84502000  1.0 0.1279073447
H  H70  1  0.00445000  0.79055000  0.86214000  1.0 0.1693280452
H  H71  1  0.82147000  0.67721000  0.87902000  1.0 0.1208880759
H  H72  1  0.78344000  0.59328000  0.91919000  1.0 0.1020567412
H  H73  1  0.53252000  0.38510000  0.88627000  1.0 0.0902301309
H  H74  1  0.62258000  0.49962000  0.89978000  1.0 0.0799702602
H  H75  1  0.58577000  0.47775000  0.84974000  1.0 0.051627442
H  H76  1  0.75869000  0.56693000  0.83351000  1.0 0.1020567412
H  H77  1  0.81887000  0.53359000  0.85865000  1.0 0.1020567412
H  H78  1  0.68521000  0.41607000  0.90297000  1.0 0.0902301309
H  H79  1  0.64833000  0.39415000  0.85283000  1.0 0.1279073447
H  H80  1  0.07387000  0.09927000  0.74341000  1.0 0.051627442
H  H81  1  0.10872000  0.04994000  0.77799000  1.0 0.0902301309
H  H82  1  0.96419000  0.94861000  0.80344000  1.0 0.1208880759
H  H83  1  0.93083000  0.00075000  0.77007000  1.0 0.003408182
H  H84  1  0.83855000  0.80897000  0.77796000  1.0 0.0601284289
H  H85  1  0.81382000  0.86350000  0.74096000  1.0 0.0601284289
H  H86  1  0.95063000  0.84443000  0.72555000  1.0 0.0694672537
H  H87  1  0.88263000  0.85657000  0.69102000  1.0 0.149229522
H  H88  1  0.14488000  0.05578000  0.70905000  1.0 0.0694672537
H  H89  1  0.06236000  0.93924000  0.72702000  1.0 0.0694672537
H  H90  1  0.80716000  0.67202000  0.74043000  1.0 0.1279073447
H  H91  1  0.98883000  0.02733000  0.80776000  1.0 0.1020567412
H  H92  1  0.73875000  0.68423000  0.70569000  1.0 0.1020567412
H  H93  1  0.30404000  0.17226000  0.19012000  1.0 0.1693280452
H  H94  1  0.73975000  0.71465000  0.25110000  1.0 0.1020567412
H  H95  1  0.80440000  0.69510000  0.19874000  1.0 0.1020567412
H  H96  1  0.97863000  0.81723000  0.18795000  1.0 0.0799702602
H  H97  1  0.69599000  0.54477000  0.34020000  1.0 0.0902301309
H  H98  1  0.59107000  0.51981000  0.32516000  1.0 0.1020567412
H  H99  1  0.36634000  0.31306000  0.37416000  1.0 0.3068336938
H  H100  1  0.62743000  0.33289000  0.31044000  1.0 0.3385477532
H  H101  1  0.53248000  0.38248000  0.36196000  1.0 0.0109416326
H  H102  1  0.45230000  0.26126000  0.35597000  1.0 0.0601284289
H  H103  1  0.48619000  0.27391000  0.24681000  1.0 0.1105254233
H  H104  1  0.48295000  0.36271000  0.23984000  1.0 0.1693280452
H  H105  1  0.81280000  0.93006000  0.33042000  1.0 0.0799702602
H  H106  1  0.78689000  0.92471000  0.27907000  1.0 0.0799702602
H  H107  1  0.90270000  0.00472000  0.29834000  1.0 0.0694672537
H  H108  1  0.21547000  0.24677000  0.33564000  1.0 0.2730496321
H  H109  1  0.75725000  0.67699000  0.30584000  1.0 0.3256002013
H  H110  1  0.43892000  0.39530000  0.29802000  1.0 0.1105254233
H  H111  1  0.38334000  0.18644000  0.20521000  1.0 0.2570133117
H  H112  1  0.39193000  0.07591000  0.41276000  1.0 0.0799702602
H  H113  1  0.29503000  0.04711000  0.42981000  1.0 0.0902301309
H  H114  1  0.24469000  0.93379000  0.38181000  1.0 0.1208880759
H  H115  1  0.30672000  0.02446000  0.34502000  1.0 0.1279073447
H  H116  1  0.20945000  0.99555000  0.36214000  1.0 0.1693280452
H  H117  1  0.32279000  0.17853000  0.37902000  1.0 0.1208880759
H  H118  1  0.40672000  0.21656000  0.41919000  1.0 0.1020567412
H  H119  1  0.61490000  0.46748000  0.38627000  1.0 0.0902301309
H  H120  1  0.50038000  0.37742000  0.39978000  1.0 0.0799702602
H  H121  1  0.52225000  0.41423000  0.34974000  1.0 0.051627442
H  H122  1  0.43307000  0.24131000  0.33351000  1.0 0.1020567412
H  H123  1  0.46641000  0.18113000  0.35865000  1.0 0.1020567412
H  H124  1  0.58393000  0.31479000  0.40297000  1.0 0.0902301309
H  H125  1  0.60585000  0.35167000  0.35283000  1.0 0.1279073447
H  H126  1  0.90073000  0.92613000  0.24341000  1.0 0.051627442
H  H127  1  0.95006000  0.89128000  0.27799000  1.0 0.0902301309
H  H128  1  0.05139000  0.03581000  0.30344000  1.0 0.1208880759
H  H129  1  0.99925000  0.06917000  0.27007000  1.0 0.003408182
H  H130  1  0.19103000  0.16145000  0.27796000  1.0 0.0601284289
H  H131  1  0.13650000  0.18618000  0.24096000  1.0 0.0601284289
H  H132  1  0.15557000  0.04937000  0.22555000  1.0 0.0694672537
H  H133  1  0.14343000  0.11737000  0.19102000  1.0 0.149229522
H  H134  1  0.94422000  0.85512000  0.20905000  1.0 0.0694672537
H  H135  1  0.06076000  0.93764000  0.22702000  1.0 0.0694672537
H  H136  1  0.32798000  0.19284000  0.24043000  1.0 0.1279073447
H  H137  1  0.97267000  0.01117000  0.30776000  1.0 0.1020567412
H  H138  1  0.31577000  0.26125000  0.20569000  1.0 0.1020567412
H  H139  1  0.17226000  0.30404000  0.30988000  1.0 0.1693280452
H  H140  1  0.71465000  0.73975000  0.24890000  1.0 0.1020567412
H  H141  1  0.69510000  0.80440000  0.30126000  1.0 0.1020567412
H  H142  1  0.81723000  0.97863000  0.31205000  1.0 0.0799702602
H  H143  1  0.54477000  0.69599000  0.15980000  1.0 0.0902301309
H  H144  1  0.51981000  0.59107000  0.17484000  1.0 0.1020567412
H  H145  1  0.31306000  0.36634000  0.12584000  1.0 0.3068336938
H  H146  1  0.33289000  0.62743000  0.18956000  1.0 0.3385477532
H  H147  1  0.38248000  0.53248000  0.13804000  1.0 0.0109416326
H  H148  1  0.26126000  0.45230000  0.14403000  1.0 0.0601284289
H  H149  1  0.27391000  0.48619000  0.25319000  1.0 0.1105254233
H  H150  1  0.36271000  0.48295000  0.26016000  1.0 0.1693280452
H  H151  1  0.93006000  0.81280000  0.16958000  1.0 0.0799702602
H  H152  1  0.92471000  0.78689000  0.22093000  1.0 0.0799702602
H  H153  1  0.00472000  0.90270000  0.20166000  1.0 0.0694672537
H  H154  1  0.24677000  0.21547000  0.16436000  1.0 0.2730496321
H  H155  1  0.67699000  0.75725000  0.19416000  1.0 0.3256002013
H  H156  1  0.39530000  0.43892000  0.20198000  1.0 0.1105254233
H  H157  1  0.18644000  0.38334000  0.29479000  1.0 0.2570133117
H  H158  1  0.07591000  0.39193000  0.08724000  1.0 0.0799702602
H  H159  1  0.04711000  0.29503000  0.07019000  1.0 0.0902301309
H  H160  1  0.93379000  0.24469000  0.11819000  1.0 0.1208880759
H  H161  1  0.02446000  0.30672000  0.15498000  1.0 0.1279073447
H  H162  1  0.99555000  0.20945000  0.13786000  1.0 0.1693280452
H  H163  1  0.17853000  0.32279000  0.12098000  1.0 0.1208880759
H  H164  1  0.21656000  0.40672000  0.08081000  1.0 0.1020567412
H  H165  1  0.46748000  0.61490000  0.11373000  1.0 0.0902301309
H  H166  1  0.37742000  0.50038000  0.10022000  1.0 0.0799702602
H  H167  1  0.41423000  0.52225000  0.15026000  1.0 0.051627442
H  H168  1  0.24131000  0.43307000  0.16649000  1.0 0.1020567412
H  H169  1  0.18113000  0.46641000  0.14135000  1.0 0.1020567412
H  H170  1  0.31479000  0.58393000  0.09703000  1.0 0.0902301309
H  H171  1  0.35167000  0.60585000  0.14717000  1.0 0.1279073447
H  H172  1  0.92613000  0.90073000  0.25659000  1.0 0.051627442
H  H173  1  0.89128000  0.95006000  0.22201000  1.0 0.0902301309
H  H174  1  0.03581000  0.05139000  0.19656000  1.0 0.1208880759
H  H175  1  0.06917000  0.99925000  0.22993000  1.0 0.003408182
H  H176  1  0.16145000  0.19103000  0.22204000  1.0 0.0601284289
H  H177  1  0.18618000  0.13650000  0.25904000  1.0 0.0601284289
H  H178  1  0.04937000  0.15557000  0.27445000  1.0 0.0694672537
H  H179  1  0.11737000  0.14343000  0.30898000  1.0 0.149229522
H  H180  1  0.85512000  0.94422000  0.29095000  1.0 0.0694672537
H  H181  1  0.93764000  0.06076000  0.27298000  1.0 0.0694672537
H  H182  1  0.19284000  0.32798000  0.25957000  1.0 0.1279073447
H  H183  1  0.01117000  0.97267000  0.19224000  1.0 0.1020567412
H  H184  1  0.26125000  0.31577000  0.29431000  1.0 0.1020567412
H  H185  1  0.63745000  0.65131000  0.97010000  1.0 0.149229522
H  H186  1  0.53723000  0.81951000  0.32468000  1.0 0.0799702602
H  H187  1  0.34087000  0.86101000  0.18143000  1.0 0.1105254233
H  H188  1  0.88709000  0.81039000  0.00277000  1.0 0.1279073447
H  H189  1  0.42173000  0.78657000  0.26768000  1.0 0.1208880759
H  H190  1  0.36060000  0.98392000  0.13265000  1.0 0.0902301309
H  H191  1  0.49660000  0.52642000  0.92758000  1.0 0.1105254233
H  H192  1  0.08244000  0.78164000  0.07989000  1.0 0.1020567412
H  H193  1  0.05302000  0.65342000  0.12852000  1.0 0.1279073447
H  H194  1  0.05065000  0.87319000  0.00308000  1.0 0.1105254233
H  H195  1  0.21880000  0.49884000  0.31985000  1.0 0.1208880759
H  H196  1  0.33993000  0.53997000  0.37592000  1.0 0.1105254233
H  H197  1  0.45225000  0.65949000  0.02525000  1.0 0.149229522
H  H198  1  0.01464000  0.32804000  0.26318000  1.0 0.149229522
H  H199  1  0.15112000  0.06218000  0.09033000  1.0 0.1279073447
H  H200  1  0.56282000  0.86368000  0.08136000  1.0 0.1279073447
H  H201  1  0.91340000  0.41904000  0.16194000  1.0 0.1279073447
H  H202  1  0.31914000  0.54024000  0.97950000  1.0 0.1105254233
H  H203  1  0.85396000  0.16552000  0.26147000  1.0 0.1105254233
H  H204  1  0.99336000  0.01108000  0.09031000  1.0 0.1693280452
H  H205  1  0.75877000  0.25261000  0.16132000  1.0 0.0902301309
H  H206  1  0.54632000  0.93746000  0.12908000  1.0 0.0799702602
H  H207  1  0.81801000  0.95041000  0.15342000  1.0 0.1792892014
H  H208  1  0.78671000  0.01157000  0.20031000  1.0 0.1208880759
H  H209  1  0.34869000  0.36255000  0.47010000  1.0 0.149229522
H  H210  1  0.18049000  0.46277000  0.82468000  1.0 0.0799702602
H  H211  1  0.13899000  0.65913000  0.68143000  1.0 0.1105254233
H  H212  1  0.18961000  0.11291000  0.50277000  1.0 0.1279073447
H  H213  1  0.21343000  0.57827000  0.76768000  1.0 0.1208880759
H  H214  1  0.01608000  0.63940000  0.63265000  1.0 0.0902301309
H  H215  1  0.47358000  0.50340000  0.42758000  1.0 0.1105254233
H  H216  1  0.21836000  0.91756000  0.57989000  1.0 0.1020567412
H  H217  1  0.34658000  0.94698000  0.62852000  1.0 0.1279073447
H  H218  1  0.12681000  0.94935000  0.50308000  1.0 0.1105254233
H  H219  1  0.50116000  0.78120000  0.81985000  1.0 0.1208880759
H  H220  1  0.46003000  0.66007000  0.87592000  1.0 0.1105254233
H  H221  1  0.34051000  0.54775000  0.52525000  1.0 0.149229522
H  H222  1  0.67196000  0.98536000  0.76318000  1.0 0.149229522
H  H223  1  0.93782000  0.84888000  0.59033000  1.0 0.1279073447
H  H224  1  0.13632000  0.43718000  0.58136000  1.0 0.1279073447
H  H225  1  0.58096000  0.08660000  0.66194000  1.0 0.1279073447
H  H226  1  0.45976000  0.68086000  0.47950000  1.0 0.1105254233
H  H227  1  0.83448000  0.14604000  0.76147000  1.0 0.1105254233
H  H228  1  0.98892000  0.00664000  0.59031000  1.0 0.1693280452
H  H229  1  0.74739000  0.24123000  0.66132000  1.0 0.0902301309
H  H230  1  0.06254000  0.45368000  0.62908000  1.0 0.0799702602
H  H231  1  0.04959000  0.18199000  0.65342000  1.0 0.1792892014
H  H232  1  0.98843000  0.21329000  0.70031000  1.0 0.1208880759
H  H233  1  0.65131000  0.63745000  0.52990000  1.0 0.149229522
H  H234  1  0.81951000  0.53723000  0.17532000  1.0 0.0799702602
H  H235  1  0.86101000  0.34087000  0.31857000  1.0 0.1105254233
H  H236  1  0.81039000  0.88709000  0.49723000  1.0 0.1279073447
H  H237  1  0.78657000  0.42173000  0.23232000  1.0 0.1208880759
H  H238  1  0.98392000  0.36060000  0.36735000  1.0 0.0902301309
H  H239  1  0.52642000  0.49660000  0.57242000  1.0 0.1105254233
H  H240  1  0.78164000  0.08244000  0.42011000  1.0 0.1020567412
H  H241  1  0.65342000  0.05302000  0.37148000  1.0 0.1279073447
H  H242  1  0.87319000  0.05065000  0.49692000  1.0 0.1105254233
H  H243  1  0.49884000  0.21880000  0.18015000  1.0 0.1208880759
H  H244  1  0.53997000  0.33993000  0.12408000  1.0 0.1105254233
H  H245  1  0.65949000  0.45225000  0.47475000  1.0 0.149229522
H  H246  1  0.32804000  0.01464000  0.23682000  1.0 0.149229522
H  H247  1  0.06218000  0.15112000  0.40967000  1.0 0.1279073447
H  H248  1  0.86368000  0.56282000  0.41864000  1.0 0.1279073447
H  H249  1  0.41904000  0.91340000  0.33806000  1.0 0.1279073447
H  H250  1  0.54024000  0.31914000  0.52050000  1.0 0.1105254233
H  H251  1  0.16552000  0.85396000  0.23853000  1.0 0.1105254233
H  H252  1  0.01108000  0.99336000  0.40969000  1.0 0.1693280452
H  H253  1  0.25261000  0.75877000  0.33868000  1.0 0.0902301309
H  H254  1  0.93746000  0.54632000  0.37092000  1.0 0.0799702602
H  H255  1  0.95041000  0.81801000  0.34658000  1.0 0.1792892014
H  H256  1  0.01157000  0.78671000  0.29969000  1.0 0.1279073447
H  H257  1  0.36255000  0.34869000  0.02990000  1.0 0.149229522
H  H258  1  0.46277000  0.18049000  0.67532000  1.0 0.0799702602
H  H259  1  0.65913000  0.13899000  0.81857000  1.0 0.1105254233
H  H260  1  0.11291000  0.18961000  0.99723000  1.0 0.1279073447
H  H261  1  0.57827000  0.21343000  0.73232000  1.0 0.1208880759
H  H262  1  0.63940000  0.01608000  0.86735000  1.0 0.0902301309
H  H263  1  0.50340000  0.47358000  0.07242000  1.0 0.1105254233
H  H264  1  0.91756000  0.21836000  0.92011000  1.0 0.1020567412
H  H265  1  0.94698000  0.34658000  0.87148000  1.0 0.1279073447
H  H266  1  0.94935000  0.12681000  0.99692000  1.0 0.1105254233
H  H267  1  0.78120000  0.50116000  0.68015000  1.0 0.1208880759
H  H268  1  0.66007000  0.46003000  0.62408000  1.0 0.1105254233
H  H269  1  0.54775000  0.34051000  0.97475000  1.0 0.149229522
H  H270  1  0.98536000  0.67196000  0.73682000  1.0 0.149229522
H  H271  1  0.84888000  0.93782000  0.90967000  1.0 0.1279073447
H  H272  1  0.43718000  0.13632000  0.91864000  1.0 0.1279073447
H  H273  1  0.08660000  0.58096000  0.83806000  1.0 0.1279073447
H  H274  1  0.68086000  0.45976000  0.02050000  1.0 0.1105254233
H  H275  1  0.14604000  0.83448000  0.73853000  1.0 0.1105254233
H  H276  1  0.00664000  0.98892000  0.90969000  1.0 0.1693280452
H  H277  1  0.24123000  0.74739000  0.83868000  1.0 0.0902301309
H  H278  1  0.45368000  0.06254000  0.87092000  1.0 0.0799702602
H  H279  1  0.18199000  0.04959000  0.84658000  1.0 0.1792892014
H  H280  1  0.21329000  0.98843000  0.79969000  1.0 0.1279073447
C  C1  1  0.16400000  0.06400000  0.69720000  1.0 -0.0725826155
C  C2  1  0.59320000  0.66480000  0.68020000  1.0 0.0217246368
C  C3  1  0.71100000  0.85700000  0.75800000  1.0 0.0694672537
C  C4  1  0.64400000  0.77100000  0.73440000  1.0 -0.0725826155
C  C5  1  0.67860000  0.75980000  0.70140000  1.0 -0.170964557
C  C6  1  0.77990000  0.83410000  0.69200000  1.0 -0.0282407402
C  C7  1  0.84720000  0.92060000  0.71560000  1.0 -0.0992109073
C  C8  1  0.81250000  0.93170000  0.74860000  1.0 -0.1400620098
C  C9  1  0.12440000  0.15160000  0.72860000  1.0 0.003408182
C  C10  1  0.18950000  0.23570000  0.75330000  1.0 -0.1475416272
C  C11  1  0.15110000  0.24730000  0.78440000  1.0 -0.0725826155
C  C12  1  0.04760000  0.17480000  0.79080000  1.0 -0.1193623598
C  C13  1  0.98250000  0.09070000  0.76610000  1.0 -0.0898960358
C  C14  1  0.02090000  0.07910000  0.73500000  1.0 -0.050162468
C  C15  1  0.87640000  0.01340000  0.77960000  1.0 0.0601284289
C  C16  1  0.53210000  0.69390000  0.73980000  1.0 -0.3699687625
C  C17  1  0.46660000  0.65140000  0.69840000  1.0 0.1863280331
C  C18  1  0.51550000  0.67050000  0.65880000  1.0 -0.0622627055
C  C19  1  0.95630000  0.99510000  0.70480000  1.0 -0.0011654063
C  C20  1  0.38040000  0.54160000  0.71260000  1.0 0.2296277826
C  C21  1  0.34800000  0.46000000  0.68540000  1.0 -0.1095446701
C  C22  1  0.66550000  0.92610000  0.59590000  1.0 -0.0898960358
C  C23  1  0.73120000  0.99880000  0.62960000  1.0 -0.3861532378
C  C24  1  0.62280000  0.82120000  0.60730000  1.0 -0.2163521218
C  C25  1  0.45260000  0.59740000  0.62210000  1.0 -0.2393158208
C  C26  1  0.54250000  0.77090000  0.63780000  1.0 -0.1193623598
C  C27  1  0.44320000  0.67480000  0.62530000  1.0 -0.0898960358
C  C28  1  0.00160000  0.07440000  0.78270000  1.0 -0.050162468
C  C29  1  0.03450000  0.05790000  0.74620000  1.0 -0.0282407402
C  C30  1  0.96290000  0.95410000  0.72780000  1.0 0.0109416326
C  C31  1  0.86130000  0.86730000  0.74700000  1.0 -0.0992109073
C  C32  1  0.82200000  0.88200000  0.78070000  1.0 -0.050162468
C  C33  1  0.70900000  0.80700000  0.78700000  1.0 -0.0898960358
C  C34  1  0.06400000  0.16400000  0.80280000  1.0 -0.0725826155
C  C35  1  0.66480000  0.59320000  0.81980000  1.0 0.0217246368
C  C36  1  0.85700000  0.71100000  0.74200000  1.0 0.0694672537
C  C37  1  0.77100000  0.64400000  0.76560000  1.0 -0.0725826155
C  C38  1  0.75980000  0.67860000  0.79860000  1.0 -0.170964557
C  C39  1  0.83410000  0.77990000  0.80800000  1.0 -0.0282407402
C  C40  1  0.92060000  0.84720000  0.78440000  1.0 -0.0992109073
C  C41  1  0.93170000  0.81250000  0.75140000  1.0 -0.1400620098
C  C42  1  0.15160000  0.12440000  0.77140000  1.0 0.003408182
C  C43  1  0.23570000  0.18950000  0.74670000  1.0 -0.1475416272
C  C44  1  0.24730000  0.15110000  0.71560000  1.0 -0.0725826155
C  C45  1  0.17480000  0.04760000  0.70920000  1.0 -0.1193623598
C  C46  1  0.09070000  0.98250000  0.73390000  1.0 -0.0898960358
C  C47  1  0.07910000  0.02090000  0.76500000  1.0 -0.050162468
C  C48  1  0.01340000  0.87640000  0.72040000  1.0 0.0601284289
C  C49  1  0.69390000  0.53210000  0.76020000  1.0 -0.3699687625
C  C50  1  0.65140000  0.46660000  0.80160000  1.0 0.1863280331
C  C51  1  0.67050000  0.51550000  0.84120000  1.0 -0.0622627055
C  C52  1  0.99510000  0.95630000  0.79520000  1.0 -0.0011654063
C  C53  1  0.54160000  0.38040000  0.78740000  1.0 0.2296277826
C  C54  1  0.46000000  0.34800000  0.81460000  1.0 -0.1095446701
C  C55  1  0.92610000  0.66550000  0.90410000  1.0 -0.0898960358
C  C56  1  0.99880000  0.73120000  0.87040000  1.0 -0.3861532378
C  C57  1  0.82120000  0.62280000  0.89270000  1.0 -0.2163521218
C  C58  1  0.59740000  0.45260000  0.87790000  1.0 -0.2393158208
C  C59  1  0.77090000  0.54250000  0.86220000  1.0 -0.1193623598
C  C60  1  0.67480000  0.44320000  0.87470000  1.0 -0.0898960358
C  C61  1  0.07440000  0.00160000  0.71730000  1.0 -0.050162468
C  C62  1  0.05790000  0.03450000  0.75380000  1.0 -0.0282407402
C  C63  1  0.95410000  0.96290000  0.77220000  1.0 0.0109416326
C  C64  1  0.86730000  0.86130000  0.75300000  1.0 -0.0992109073
C  C65  1  0.88200000  0.82200000  0.71930000  1.0 -0.050162468
C  C66  1  0.80700000  0.70900000  0.71300000  1.0 -0.0898960358
C  C67  1  0.83600000  0.93600000  0.30280000  1.0 -0.0725826155
C  C68  1  0.40680000  0.33520000  0.31980000  1.0 0.0217246368
C  C69  1  0.28900000  0.14300000  0.24200000  1.0 0.0694672537
C  C70  1  0.35600000  0.22900000  0.26560000  1.0 -0.0725826155
C  C71  1  0.32140000  0.24020000  0.29860000  1.0 -0.170964557
C  C72  1  0.22010000  0.16590000  0.30800000  1.0 -0.0282407402
C  C73  1  0.15280000  0.07940000  0.28440000  1.0 -0.0992109073
C  C74  1  0.18750000  0.06830000  0.25140000  1.0 -0.1400620098
C  C75  1  0.87560000  0.84840000  0.27140000  1.0 0.003408182
C  C76  1  0.81050000  0.76430000  0.24670000  1.0 -0.1475416272
C  C77  1  0.84890000  0.75270000  0.21560000  1.0 -0.0725826155
C  C78  1  0.95240000  0.82520000  0.20920000  1.0 -0.1193623598
C  C79  1  0.01750000  0.90930000  0.23390000  1.0 -0.0898960358
C  C80  1  0.97910000  0.92090000  0.26500000  1.0 -0.050162468
C  C81  1  0.12360000  0.98660000  0.22040000  1.0 0.0601284289
C  C82  1  0.46790000  0.30610000  0.26020000  1.0 -0.3699687625
C  C83  1  0.53340000  0.34860000  0.30160000  1.0 0.1863280331
C  C84  1  0.48450000  0.32950000  0.34120000  1.0 -0.0622627055
C  C85  1  0.04370000  0.00490000  0.29520000  1.0 -0.0011654063
C  C86  1  0.61960000  0.45840000  0.28740000  1.0 0.2296277826
C  C87  1  0.65200000  0.54000000  0.31460000  1.0 -0.1095446701
C  C88  1  0.33450000  0.07390000  0.40410000  1.0 -0.0898960358
C  C89  1  0.26880000  0.00120000  0.37040000  1.0 -0.3861532378
C  C90  1  0.37720000  0.17880000  0.39270000  1.0 -0.2163521218
C  C91  1  0.54740000  0.40260000  0.37790000  1.0 -0.2393158208
C  C92  1  0.45750000  0.22910000  0.36220000  1.0 -0.1193623598
C  C93  1  0.55680000  0.32520000  0.37470000  1.0 -0.0898960358
C  C94  1  0.99840000  0.92560000  0.21730000  1.0 -0.050162468
C  C95  1  0.96550000  0.94210000  0.25380000  1.0 -0.0282407402
C  C96  1  0.03710000  0.04590000  0.27220000  1.0 0.0109416326
C  C97  1  0.13870000  0.13270000  0.25300000  1.0 -0.0992109073
C  C98  1  0.17800000  0.11800000  0.21930000  1.0 -0.050162468
C  C99  1  0.29100000  0.19300000  0.21300000  1.0 -0.0898960358
C  C100  1  0.93600000  0.83600000  0.19720000  1.0 -0.0725826155
C  C101  1  0.33520000  0.40680000  0.18020000  1.0 0.0217246368
C  C102  1  0.14300000  0.28900000  0.25800000  1.0 0.0694672537
C  C103  1  0.22900000  0.35600000  0.23440000  1.0 -0.0725826155
C  C104  1  0.24020000  0.32140000  0.20140000  1.0 -0.170964557
C  C105  1  0.16590000  0.22010000  0.19200000  1.0 -0.0282407402
C  C106  1  0.07940000  0.15280000  0.21560000  1.0 -0.0992109073
C  C107  1  0.06830000  0.18750000  0.24860000  1.0 -0.1400620098
C  C108  1  0.84840000  0.87560000  0.22860000  1.0 0.003408182
C  C109  1  0.76430000  0.81050000  0.25330000  1.0 -0.1475416272
C  C110  1  0.75270000  0.84890000  0.28440000  1.0 -0.0725826155
C  C111  1  0.82520000  0.95240000  0.29080000  1.0 -0.1193623598
C  C112  1  0.90930000  0.01750000  0.26610000  1.0 -0.0898960358
C  C113  1  0.92090000  0.97910000  0.23500000  1.0 -0.050162468
C  C114  1  0.98660000  0.12360000  0.27960000  1.0 0.0601284289
C  C115  1  0.30610000  0.46790000  0.23980000  1.0 -0.3699687625
C  C116  1  0.34860000  0.53340000  0.19840000  1.0 0.1863280331
C  C117  1  0.32950000  0.48450000  0.15880000  1.0 -0.0622627055
C  C118  1  0.00490000  0.04370000  0.20480000  1.0 -0.0011654063
C  C119  1  0.45840000  0.61960000  0.21260000  1.0 0.2296277826
C  C120  1  0.54000000  0.65200000  0.18540000  1.0 -0.1095446701
C  C121  1  0.07390000  0.33450000  0.09590000  1.0 -0.0898960358
C  C122  1  0.00120000  0.26880000  0.12960000  1.0 -0.3861532378
C  C123  1  0.17880000  0.37720000  0.10730000  1.0 -0.2163521218
C  C124  1  0.40260000  0.54740000  0.12210000  1.0 -0.2393158208
C  C125  1  0.22910000  0.45750000  0.13780000  1.0 -0.1193623598
C  C126  1  0.32520000  0.55680000  0.12530000  1.0 -0.0898960358
C  C127  1  0.92560000  0.99840000  0.28270000  1.0 -0.050162468
C  C128  1  0.94210000  0.96550000  0.24620000  1.0 -0.0282407402
C  C129  1  0.04590000  0.03710000  0.22780000  1.0 0.0109416326
C  C130  1  0.13270000  0.13870000  0.24700000  1.0 -0.0992109073
C  C131  1  0.11800000  0.17800000  0.28070000  1.0 -0.050162468
C  C132  1  0.19300000  0.29100000  0.28700000  1.0 -0.0898960358
C  C133  1  0.17867000  0.66213000  0.19159000  1.0 0.3658441436
C  C134  1  0.92005000  0.89895000  0.04792000  1.0 0.0694672537
C  C135  1  0.56086000  0.67134000  0.00142000  1.0 0.0902301309
C  C136  1  0.64891000  0.75389000  0.02885000  1.0 0.3658441436
C  C137  1  0.08004000  0.49636000  0.21497000  1.0 0.3591414784
C  C138  1  0.30835000  0.63805000  0.28659000  1.0 0.0694672537
C  C139  1  0.19426000  0.74274000  0.16011000  1.0 0.0601284289
C  C140  1  0.81536000  0.85944000  0.05018000  1.0 0.3785836083
C  C141  1  0.23206000  0.61314000  0.25014000  1.0 0.3453112637
C  C142  1  0.57265000  0.62955000  0.97248000  1.0 -0.1297669466
C  C143  1  0.47148000  0.75312000  0.32362000  1.0 0.051627442
C  C144  1  0.98107000  0.39053000  0.21311000  1.0 0.0601284289
C  C145  1  0.28649000  0.84311000  0.16086000  1.0 -0.1605111565
C  C146  1  0.93993000  0.86167000  0.02155000  1.0 -0.1475416272
C  C147  1  0.40336000  0.73384000  0.28943000  1.0 -0.1605111565
C  C148  1  0.70921000  0.85799000  0.08078000  1.0 0.3785836083
C  C149  1  0.29771000  0.91549000  0.13161000  1.0 0.0799702602
C  C150  1  0.48887000  0.55593000  0.94721000  1.0 0.003408182
C  C151  1  0.13533000  0.79767000  0.10102000  1.0 0.0902301309
C  C152  1  0.11738000  0.72082000  0.12963000  1.0 -0.1605111565
C  C153  1  0.03749000  0.89891000  0.02220000  1.0 0.0601284289
C  C154  1  0.69290000  0.89890000  0.11213000  1.0 0.0902301309
C  C155  1  0.28441000  0.56539000  0.31995000  1.0 -0.170964557
C  C156  1  0.35688000  0.59072000  0.35332000  1.0 0.0799702602
C  C157  1  0.46343000  0.63477000  0.00463000  1.0 -0.1475416272
C  C158  1  0.96260000  0.31460000  0.24218000  1.0 -0.2343895491
C  C159  1  0.09626000  0.00954000  0.07256000  1.0 0.0694672537
C  C160  1  0.61109000  0.89551000  0.10550000  1.0 -0.1193623598
C  C161  1  0.90327000  0.36773000  0.18240000  1.0 -0.1400620098
C  C162  1  0.38468000  0.56312000  0.97779000  1.0 0.0601284289
C  C163  1  0.86720000  0.21780000  0.24070000  1.0 -0.050162468
C  C164  1  0.00270000  0.97890000  0.07314000  1.0 -0.1907751342
C  C165  1  0.81142000  0.26878000  0.18260000  1.0 0.0799702602
C  C166  1  0.60120000  0.93860000  0.13410000  1.0 0.0601284289
C  C167  1  0.76050000  0.94510000  0.14790000  1.0 -0.2632864322
C  C168  1  0.74210000  0.98270000  0.17500000  1.0 -0.0992109073
C  C169  1  0.33787000  0.82133000  0.69159000  1.0 0.3658441436
C  C170  1  0.10105000  0.07995000  0.54792000  1.0 0.0694672537
C  C171  1  0.32866000  0.43914000  0.50142000  1.0 0.0902301309
C  C172  1  0.24611000  0.35109000  0.52885000  1.0 0.3658441436
C  C173  1  0.50364000  0.91996000  0.71497000  1.0 0.3591414784
C  C174  1  0.36195000  0.69165000  0.78659000  1.0 0.0694672537
C  C175  1  0.25726000  0.80574000  0.66011000  1.0 0.0601284289
C  C176  1  0.14056000  0.18464000  0.55018000  1.0 0.3785836083
C  C177  1  0.38686000  0.76794000  0.75014000  1.0 0.3453112637
C  C178  1  0.37045000  0.42735000  0.47248000  1.0 -0.1297669466
C  C179  1  0.24688000  0.52852000  0.82362000  1.0 0.051627442
C  C180  1  0.60947000  0.01893000  0.71311000  1.0 0.0601284289
C  C181  1  0.15689000  0.71351000  0.66086000  1.0 -0.1605111565
C  C182  1  0.13833000  0.06007000  0.52155000  1.0 -0.1475416272
C  C183  1  0.26616000  0.59664000  0.78943000  1.0 -0.1605111565
C  C184  1  0.14201000  0.29079000  0.58078000  1.0 0.3785836083
C  C185  1  0.08451000  0.70229000  0.63161000  1.0 0.0799702602
C  C186  1  0.44407000  0.51113000  0.44721000  1.0 0.003408182
C  C187  1  0.20233000  0.86467000  0.60102000  1.0 0.0902301309
C  C188  1  0.27918000  0.88262000  0.62963000  1.0 -0.1605111565
C  C189  1  0.10109000  0.96251000  0.52220000  1.0 0.0601284289
C  C190  1  0.10110000  0.30710000  0.61213000  1.0 0.0902301309
C  C191  1  0.43461000  0.71559000  0.81995000  1.0 -0.170964557
C  C192  1  0.40928000  0.64312000  0.85332000  1.0 0.0799702602
C  C193  1  0.36523000  0.53657000  0.50463000  1.0 -0.1475416272
C  C194  1  0.68540000  0.03740000  0.74218000  1.0 -0.2343895491
C  C195  1  0.99046000  0.90374000  0.57256000  1.0 0.0694672537
C  C196  1  0.10449000  0.38891000  0.60550000  1.0 -0.1193623598
C  C197  1  0.63227000  0.09673000  0.68240000  1.0 -0.1400620098
C  C198  1  0.43688000  0.61532000  0.47779000  1.0 0.0601284289
C  C199  1  0.78220000  0.13280000  0.74070000  1.0 -0.050162468
C  C200  1  0.02110000  0.99730000  0.57314000  1.0 -0.1907751342
C  C201  1  0.73122000  0.18858000  0.68260000  1.0 0.0799702602
C  C202  1  0.06140000  0.39880000  0.63410000  1.0 0.0601284289
C  C203  1  0.05490000  0.23950000  0.64790000  1.0 -0.2632864322
C  C204  1  0.01730000  0.25790000  0.67500000  1.0 -0.0992109073
C  C205  1  0.66213000  0.17867000  0.30841000  1.0 0.3658441436
C  C206  1  0.89895000  0.92005000  0.45208000  1.0 0.0694672537
C  C207  1  0.67134000  0.56086000  0.49858000  1.0 0.0902301309
C  C208  1  0.75389000  0.64891000  0.47115000  1.0 0.3658441436
C  C209  1  0.49636000  0.08004000  0.28503000  1.0 0.3591414784
C  C210  1  0.63805000  0.30835000  0.21341000  1.0 0.0694672537
C  C211  1  0.74274000  0.19426000  0.33989000  1.0 0.0601284289
C  C212  1  0.85944000  0.81536000  0.44982000  1.0 0.3785836083
C  C213  1  0.61314000  0.23206000  0.24986000  1.0 0.3453112637
C  C214  1  0.62955000  0.57265000  0.52752000  1.0 -0.1297669466
C  C215  1  0.75312000  0.47148000  0.17638000  1.0 0.051627442
C  C216  1  0.39053000  0.98107000  0.28689000  1.0 0.0601284289
C  C217  1  0.84311000  0.28649000  0.33914000  1.0 -0.1605111565
C  C218  1  0.86167000  0.93993000  0.47845000  1.0 -0.1475416272
C  C219  1  0.73384000  0.40336000  0.21057000  1.0 -0.1605111565
C  C220  1  0.85799000  0.70921000  0.41922000  1.0 0.3785836083
C  C221  1  0.91549000  0.29771000  0.36839000  1.0 0.0799702602
C  C222  1  0.55593000  0.48887000  0.55279000  1.0 0.003408182
C  C223  1  0.79767000  0.13533000  0.39898000  1.0 0.0902301309
C  C224  1  0.72082000  0.11738000  0.37037000  1.0 -0.1605111565
C  C225  1  0.89891000  0.03749000  0.47780000  1.0 0.0694672537
C  C226  1  0.89890000  0.69290000  0.38787000  1.0 0.0902301309
C  C227  1  0.56539000  0.28441000  0.18005000  1.0 -0.170964557
C  C228  1  0.59072000  0.35688000  0.14668000  1.0 0.0799702602
C  C229  1  0.63477000  0.46343000  0.49537000  1.0 -0.1475416272
C  C230  1  0.31460000  0.96260000  0.25782000  1.0 -0.2343895491
C  C231  1  0.00954000  0.09626000  0.42744000  1.0 0.0694672537
C  C232  1  0.89551000  0.61109000  0.39450000  1.0 -0.1193623598
C  C233  1  0.36773000  0.90327000  0.31760000  1.0 -0.1400620098
C  C234  1  0.56312000  0.38468000  0.52221000  1.0 0.0601284289
C  C235  1  0.21780000  0.86720000  0.25930000  1.0 -0.050162468
C  C236  1  0.97890000  0.00270000  0.42686000  1.0 -0.1907751342
C  C237  1  0.26878000  0.81142000  0.31740000  1.0 0.0799702602
C  C238  1  0.93860000  0.60120000  0.36590000  1.0 0.0601284289
C  C239  1  0.94510000  0.76050000  0.35210000  1.0 -0.2632864322
C  C240  1  0.98270000  0.74210000  0.32500000  1.0 -0.0992109073
C  C241  1  0.82133000  0.33787000  0.80841000  1.0 0.3658441436
C  C242  1  0.07995000  0.10105000  0.95208000  1.0 0.0694672537
C  C243  1  0.43914000  0.32866000  0.99858000  1.0 0.0902301309
C  C244  1  0.35109000  0.24611000  0.97115000  1.0 0.3658441436
C  C245  1  0.91996000  0.50364000  0.78503000  1.0 0.3591414784
C  C246  1  0.69165000  0.36195000  0.71341000  1.0 0.0694672537
C  C247  1  0.80574000  0.25726000  0.83989000  1.0 0.0601284289
C  C248  1  0.18464000  0.14056000  0.94982000  1.0 0.3785836083
C  C249  1  0.76794000  0.38686000  0.74986000  1.0 0.3453112637
C  C250  1  0.42735000  0.37045000  0.02752000  1.0 -0.1297669466
C  C251  1  0.52852000  0.24688000  0.67638000  1.0 0.051627442
C  C252  1  0.01893000  0.60947000  0.78689000  1.0 0.0601284289
C  C253  1  0.71351000  0.15689000  0.83914000  1.0 -0.1605111565
C  C254  1  0.06007000  0.13833000  0.97845000  1.0 -0.1475416272
C  C255  1  0.59664000  0.26616000  0.71057000  1.0 -0.1605111565
C  C256  1  0.29079000  0.14201000  0.91922000  1.0 0.3785836083
C  C257  1  0.70229000  0.08451000  0.86839000  1.0 0.0799702602
C  C258  1  0.51113000  0.44407000  0.05279000  1.0 0.003408182
C  C259  1  0.86467000  0.20233000  0.89898000  1.0 0.0902301309
C  C260  1  0.88262000  0.27918000  0.87037000  1.0 -0.1605111565
C  C261  1  0.96251000  0.10109000  0.97780000  1.0 0.0694672537
C  C262  1  0.30710000  0.10110000  0.88787000  1.0 0.0902301309
C  C263  1  0.71559000  0.43461000  0.68005000  1.0 -0.170964557
C  C264  1  0.64312000  0.40928000  0.64668000  1.0 0.0799702602
C  C265  1  0.53657000  0.36523000  0.99537000  1.0 -0.1475416272
C  C266  1  0.03740000  0.68540000  0.75782000  1.0 -0.2343895491
C  C267  1  0.90374000  0.99046000  0.92744000  1.0 0.0694672537
C  C268  1  0.38891000  0.10449000  0.89450000  1.0 -0.1193623598
C  C269  1  0.09673000  0.63227000  0.81760000  1.0 -0.1400620098
C  C270  1  0.61532000  0.43688000  0.02221000  1.0 0.0601284289
C  C271  1  0.13280000  0.78220000  0.75930000  1.0 -0.050162468
C  C272  1  0.99730000  0.02110000  0.92686000  1.0 -0.1907751342
C  C273  1  0.18858000  0.73122000  0.81740000  1.0 0.0799702602
C  C274  1  0.39880000  0.06140000  0.86590000  1.0 0.0601284289
C  C275  1  0.23950000  0.05490000  0.85210000  1.0 -0.2632864322
C  C276  1  0.25790000  0.01730000  0.82500000  1.0 -0.0992109073
N  N1  1  0.25061000  0.68989000  0.22350000  1.0 -0.4317660685
N  N2  1  0.09169000  0.56567000  0.18529000  1.0 -0.4242052267
N  N3  1  0.14840000  0.51418000  0.24676000  1.0 -0.4451646003
N  N4  1  0.74098000  0.78902000  0.02331000  1.0 -0.4095239694
N  N5  1  0.22407000  0.89433000  0.10156000  1.0 -0.1907751342
N  N6  1  0.62876000  0.78584000  0.05676000  1.0 -0.4095239694
N  N7  1  0.11431000  0.96929000  0.04839000  1.0 -0.196619315
N  N8  1  0.44979000  0.68301000  0.35552000  1.0 -0.2393158208
N  N9  1  0.80499000  0.89741000  0.07930000  1.0 -0.4242052267
N  N10  1  0.39564000  0.52396000  0.94936000  1.0 -0.2488941605
N  N11  1  0.79301000  0.19579000  0.21079000  1.0 -0.1770419533
N  N12  1  0.66592000  0.98168000  0.16840000  1.0 -0.170964557
N  N13  1  0.31011000  0.74939000  0.72350000  1.0 -0.4317660685
N  N14  1  0.43433000  0.90831000  0.68529000  1.0 -0.4242052267
N  N15  1  0.48582000  0.85160000  0.74676000  1.0 -0.4451646003
N  N16  1  0.21098000  0.25902000  0.52331000  1.0 -0.4095239694
N  N17  1  0.10567000  0.77593000  0.60156000  1.0 -0.1907751342
N  N18  1  0.21416000  0.37124000  0.55676000  1.0 -0.4095239694
N  N19  1  0.03071000  0.88569000  0.54839000  1.0 -0.196619315
N  N20  1  0.31699000  0.55021000  0.85552000  1.0 -0.2393158208
N  N21  1  0.10259000  0.19501000  0.57930000  1.0 -0.4242052267
N  N22  1  0.47604000  0.60436000  0.44936000  1.0 -0.2488941605
N  N23  1  0.80421000  0.20699000  0.71079000  1.0 -0.1770419533
N  N24  1  0.01832000  0.33408000  0.66840000  1.0 -0.170964557
N  N25  1  0.68989000  0.25061000  0.27650000  1.0 -0.4317660685
N  N26  1  0.56567000  0.09169000  0.31471000  1.0 -0.4242052267
N  N27  1  0.51418000  0.14840000  0.25324000  1.0 -0.4451646003
N  N28  1  0.78902000  0.74098000  0.47669000  1.0 -0.4095239694
N  N29  1  0.89433000  0.22407000  0.39844000  1.0 -0.1907751342
N  N30  1  0.78584000  0.62876000  0.44324000  1.0 -0.4095239694
N  N31  1  0.96929000  0.11431000  0.45161000  1.0 -0.196619315
N  N32  1  0.68301000  0.44979000  0.14448000  1.0 -0.2393158208
N  N33  1  0.89741000  0.80499000  0.42070000  1.0 -0.4242052267
N  N34  1  0.52396000  0.39564000  0.55064000  1.0 -0.2488941605
N  N35  1  0.19579000  0.79301000  0.28921000  1.0 -0.1770419533
N  N36  1  0.98168000  0.66592000  0.33160000  1.0 -0.170964557
N  N37  1  0.74939000  0.31011000  0.77650000  1.0 -0.4317660685
N  N38  1  0.90831000  0.43433000  0.81471000  1.0 -0.4242052267
N  N39  1  0.85160000  0.48582000  0.75324000  1.0 -0.4451646003
N  N40  1  0.25902000  0.21098000  0.97669000  1.0 -0.4095239694
N  N41  1  0.77593000  0.10567000  0.89844000  1.0 -0.1907751342
N  N42  1  0.37124000  0.21416000  0.94324000  1.0 -0.4095239694
N  N43  1  0.88569000  0.03071000  0.95161000  1.0 -0.196619315
N  N44  1  0.55021000  0.31699000  0.64448000  1.0 -0.2393158208
N  N45  1  0.19501000  0.10259000  0.92070000  1.0 -0.4242052267
N  N46  1  0.60436000  0.47604000  0.05064000  1.0 -0.2488941605
N  N47  1  0.20699000  0.80421000  0.78921000  1.0 -0.1770419533
N  N48  1  0.33408000  0.01832000  0.83160000  1.0 -0.170964557
Cl  Cl1  1  0.36107000  0.14997000  0.08917000  1.0 -0.5441109444
Cl  Cl2  1  0.26700000  0.97452000  0.99382000  1.0 -0.4889087583
Cl  Cl3  1  0.54133000  0.06727000  0.17209000  1.0 0.0412712638
Cl  Cl4  1  0.63420000  0.98434000  0.27296000  1.0 -0.0898960358
Cl  Cl5  1  0.63720000  0.86620000  0.42410000  1.0 -0.3065776284
Cl  Cl6  1  0.64600000  0.68040000  0.37540000  1.0 -0.2163521218
Cl  Cl7  1  0.62190000  0.86270000  0.42960000  1.0 -0.322584411
Cl  Cl8  1  0.65460000  0.70240000  0.37990000  1.0 -0.1907751342
Cl  Cl9  1  0.54550000  0.02770000  0.20370000  1.0 0.0217246368
Cl  Cl10  1  0.70000000  0.97860000  0.29210000  1.0 -0.1400620098
Cl  Cl11  1  0.85003000  0.63893000  0.58917000  1.0 -0.5441109444
Cl  Cl12  1  0.02548000  0.73300000  0.49382000  1.0 -0.4889087583
Cl  Cl13  1  0.93273000  0.45867000  0.67209000  1.0 0.0412712638
Cl  Cl14  1  0.01566000  0.36580000  0.77296000  1.0 -0.0840105171
Cl  Cl15  1  0.13380000  0.36280000  0.92410000  1.0 -0.3065776284
Cl  Cl16  1  0.31960000  0.35400000  0.87540000  1.0 -0.2163521218
Cl  Cl17  1  0.13730000  0.37810000  0.92960000  1.0 -0.322584411
Cl  Cl18  1  0.29760000  0.34540000  0.87990000  1.0 -0.1907751342
Cl  Cl19  1  0.97230000  0.45450000  0.70370000  1.0 0.0217246368
Cl  Cl20  1  0.02140000  0.30000000  0.79210000  1.0 -0.1400620098
Cl  Cl21  1  0.14997000  0.36107000  0.41083000  1.0 -0.5441109444
Cl  Cl22  1  0.97452000  0.26700000  0.50618000  1.0 -0.4889087583
Cl  Cl23  1  0.06727000  0.54133000  0.32791000  1.0 0.0412712638
Cl  Cl24  1  0.98434000  0.63420000  0.22704000  1.0 -0.0898960358
Cl  Cl25  1  0.86620000  0.63720000  0.07590000  1.0 -0.3065776284
Cl  Cl26  1  0.68040000  0.64600000  0.12460000  1.0 -0.2163521218
Cl  Cl27  1  0.86270000  0.62190000  0.07040000  1.0 -0.322584411
Cl  Cl28  1  0.70240000  0.65460000  0.12010000  1.0 -0.1907751342
Cl  Cl29  1  0.02770000  0.54550000  0.29630000  1.0 0.0217246368
Cl  Cl30  1  0.97860000  0.70000000  0.20790000  1.0 -0.1400620098
Cl  Cl31  1  0.63893000  0.85003000  0.91083000  1.0 -0.5441109444
Cl  Cl32  1  0.73300000  0.02548000  0.00618000  1.0 -0.4889087583
Cl  Cl33  1  0.45867000  0.93273000  0.82791000  1.0 0.0412712638
Cl  Cl34  1  0.36580000  0.01566000  0.72704000  1.0 -0.0840105171
Cl  Cl35  1  0.36280000  0.13380000  0.57590000  1.0 -0.3065776284
Cl  Cl36  1  0.35400000  0.31960000  0.62460000  1.0 -0.2163521218
Cl  Cl37  1  0.37810000  0.13730000  0.57040000  1.0 -0.322584411
Cl  Cl38  1  0.34540000  0.29760000  0.62010000  1.0 -0.1907751342
Cl  Cl39  1  0.45450000  0.97230000  0.79630000  1.0 0.0217246368
Cl  Cl40  1  0.30000000  0.02140000  0.70790000  1.0 -0.1400620098
O  O1  1  0.63570000  0.65830000  0.64900000  1.0 -0.4963101353
O  O2  1  0.15500000  0.13460000  0.69640000  1.0 -0.1475416272
O  O3  1  0.43400000  0.70400000  0.68500000  1.0 -0.3607333209
O  O4  1  0.38530000  0.52070000  0.75230000  1.0 -0.4451646003
O  O5  1  0.29570000  0.36830000  0.70890000  1.0 -0.4035982396
O  O6  1  0.67810000  0.86590000  0.79170000  1.0 -0.3260506223
O  O7  1  0.83690000  0.01310000  0.80660000  1.0 -0.3260506223
O  O8  1  0.98300000  0.98500000  0.67540000  1.0 -0.2862252201
O  O9  1  0.81810000  0.81590000  0.66370000  1.0 -0.3861532378
O  O10  1  0.65830000  0.63570000  0.85100000  1.0 -0.4963101353
O  O11  1  0.13460000  0.15500000  0.80360000  1.0 -0.1475416272
O  O12  1  0.70400000  0.43400000  0.81500000  1.0 -0.3607333209
O  O13  1  0.52070000  0.38530000  0.74770000  1.0 -0.4451646003
O  O14  1  0.36830000  0.29570000  0.79110000  1.0 -0.4035982396
O  O15  1  0.86590000  0.67810000  0.70830000  1.0 -0.3260506223
O  O16  1  0.01310000  0.83690000  0.69340000  1.0 -0.3260506223
O  O17  1  0.98500000  0.98300000  0.82460000  1.0 -0.2862252201
O  O18  1  0.81590000  0.81810000  0.83630000  1.0 -0.3861532378
O  O19  1  0.36430000  0.34170000  0.35100000  1.0 -0.4963101353
O  O20  1  0.84500000  0.86540000  0.30360000  1.0 -0.1475416272
O  O21  1  0.56600000  0.29600000  0.31500000  1.0 -0.3607333209
O  O22  1  0.61470000  0.47930000  0.24770000  1.0 -0.4451646003
O  O23  1  0.70430000  0.63170000  0.29110000  1.0 -0.4035982396
O  O24  1  0.32190000  0.13410000  0.20830000  1.0 -0.3260506223
O  O25  1  0.16310000  0.98690000  0.19340000  1.0 -0.3260506223
O  O26  1  0.01700000  0.01500000  0.32460000  1.0 -0.2862252201
O  O27  1  0.18190000  0.18410000  0.33630000  1.0 -0.3861532378
O  O28  1  0.34170000  0.36430000  0.14900000  1.0 -0.4963101353
O  O29  1  0.86540000  0.84500000  0.19640000  1.0 -0.1475416272
O  O30  1  0.29600000  0.56600000  0.18500000  1.0 -0.3607333209
O  O31  1  0.47930000  0.61470000  0.25230000  1.0 -0.4451646003
O  O32  1  0.63170000  0.70430000  0.20890000  1.0 -0.4035982396
O  O33  1  0.13410000  0.32190000  0.29170000  1.0 -0.3260506223
O  O34  1  0.98690000  0.16310000  0.30660000  1.0 -0.3260506223
O  O35  1  0.01500000  0.01700000  0.17540000  1.0 -0.2862252201
O  O36  1  0.18410000  0.18190000  0.16370000  1.0 -0.3861532378
