# DDEC6 charges by PACMAN v1.1 (https://github.com/mtap-research/PACMAN-charge/)
data_EZEWUE_ASR_pacman
_symmetry_space_group_name_H-M   'P 1'
_cell_length_a   17.65930000
_cell_length_b   17.65930000
_cell_length_c   30.40990000
_cell_angle_alpha   80.43600000
_cell_angle_beta   99.56400000
_cell_angle_gamma   131.65900000
_symmetry_Int_Tables_number   1
_chemical_formula_structural   Zn6H57C60N15Cl12O5
_chemical_formula_sum   'Zn24 H228 C240 N60 Cl48 O20'
_cell_volume   6966.66344896
_cell_formula_units_Z   4
loop_
 _symmetry_equiv_pos_site_id
 _symmetry_equiv_pos_as_xyz
  1  'x, y, z'
loop_
 _atom_site_type_symbol
 _atom_site_label
 _atom_site_symmetry_multiplicity
 _atom_site_fract_x
 _atom_site_fract_y
 _atom_site_fract_z
 _atom_site_occupancy
 _atom_site_charge
Zn  Zn1  1  0.75486000  0.49542000  0.53965000  1.0 0.2657780056
Zn  Zn2  1  0.44852000  0.84716000  0.21034000  1.0 0.2831761767
Zn  Zn3  1  0.06530000  0.22530000  0.90380000  1.0 0.4302272875
Zn  Zn4  1  0.06170000  0.23710000  0.91000000  1.0 0.42043113
Zn  Zn5  1  0.46893000  0.82083000  0.23081000  1.0 0.2990285237
Zn  Zn6  1  0.73490000  0.45950000  0.52010000  1.0 0.1506624121
Zn  Zn7  1  0.50458000  0.24514000  0.03965000  1.0 0.2657780056
Zn  Zn8  1  0.15284000  0.55148000  0.71034000  1.0 0.2831761767
Zn  Zn9  1  0.77470000  0.93470000  0.40380000  1.0 0.4302272875
Zn  Zn10  1  0.76290000  0.93830000  0.41000000  1.0 0.42043113
Zn  Zn11  1  0.17917000  0.53107000  0.73081000  1.0 0.2990285237
Zn  Zn12  1  0.54050000  0.26510000  0.02010000  1.0 0.1506624121
Zn  Zn13  1  0.49542000  0.75486000  0.96035000  1.0 0.2657780056
Zn  Zn14  1  0.84716000  0.44852000  0.28966000  1.0 0.2831761767
Zn  Zn15  1  0.22530000  0.06530000  0.59620000  1.0 0.4302272875
Zn  Zn16  1  0.23710000  0.06170000  0.59000000  1.0 0.42043113
Zn  Zn17  1  0.82083000  0.46893000  0.26919000  1.0 0.2990285237
Zn  Zn18  1  0.45950000  0.73490000  0.97990000  1.0 0.1506624121
Zn  Zn19  1  0.24514000  0.50458000  0.46035000  1.0 0.2657780056
Zn  Zn20  1  0.55148000  0.15284000  0.78966000  1.0 0.2831761767
Zn  Zn21  1  0.93470000  0.77470000  0.09620000  1.0 0.4302272875
Zn  Zn22  1  0.93830000  0.76290000  0.09000000  1.0 0.42043113
Zn  Zn23  1  0.53107000  0.17917000  0.76919000  1.0 0.2990285237
Zn  Zn24  1  0.26510000  0.54050000  0.47990000  1.0 0.1382842622
H  H1  1  0.84741000  0.86557000  0.96385000  1.0 0.1277714041
H  H2  1  0.96835000  0.01109000  0.92110000  1.0 0.0812231037
H  H3  1  0.83786000  0.35276000  0.67473000  1.0 0.1001434764
H  H4  1  0.86039000  0.04249000  0.03959000  1.0 0.1090524532
H  H5  1  0.98132000  0.18380000  0.99461000  1.0 0.0702156255
H  H6  1  0.91534000  0.28946000  0.76717000  1.0 0.1090524532
H  H7  1  0.67825000  0.60973000  0.98813000  1.0 0.1178035914
H  H8  1  0.61470000  0.44696000  0.98282000  1.0 0.0702156255
H  H9  1  0.70898000  0.01348000  0.83004000  1.0 0.1178035914
H  H10  1  0.86272000  0.47330000  0.62052000  1.0 0.0598363139
H  H11  1  0.03114000  0.32546000  0.82718000  1.0 0.0598363139
H  H12  1  0.53631000  0.50831000  0.10219000  1.0 0.1277714041
H  H13  1  0.41155000  0.90355000  0.65726000  1.0 0.1277714041
H  H14  1  0.83065000  0.05927000  0.88846000  1.0 0.0812231037
H  H15  1  0.51245000  0.83697000  0.77228000  1.0 0.1382842622
H  H16  1  0.65033000  0.92837000  0.09053000  1.0 0.1090524532
H  H17  1  0.58743000  0.27339000  0.56483000  1.0 0.0702156255
H  H18  1  0.55384000  0.14594000  0.61799000  1.0 0.1090524532
H  H19  1  0.55018000  0.66242000  0.15768000  1.0 0.1277714041
H  H20  1  0.26169000  0.73623000  0.66039000  1.0 0.0812231037
H  H21  1  0.35820000  0.67448000  0.77281000  1.0 0.0888772488
H  H22  1  0.57415000  0.94299000  0.13977000  1.0 0.0702156255
H  H23  1  0.47939000  0.68593000  0.20582000  1.0 0.1001434764
H  H24  1  0.47783000  0.34805000  0.09377000  1.0 0.0812231037
H  H25  1  0.13443000  0.15259000  0.46385000  1.0 0.1277714041
H  H26  1  0.98891000  0.03165000  0.42110000  1.0 0.0812231037
H  H27  1  0.64724000  0.16214000  0.17473000  1.0 0.1001434764
H  H28  1  0.95751000  0.13961000  0.53959000  1.0 0.1090524532
H  H29  1  0.81620000  0.01868000  0.49461000  1.0 0.0702156255
H  H30  1  0.71054000  0.08466000  0.26717000  1.0 0.1090524532
H  H31  1  0.39027000  0.32175000  0.48813000  1.0 0.1178035914
H  H32  1  0.55304000  0.38530000  0.48282000  1.0 0.0702156255
H  H33  1  0.98652000  0.29102000  0.33004000  1.0 0.1178035914
H  H34  1  0.52670000  0.13728000  0.12052000  1.0 0.0598363139
H  H35  1  0.67454000  0.96886000  0.32718000  1.0 0.0598363139
H  H36  1  0.49169000  0.46369000  0.60219000  1.0 0.1277714041
H  H37  1  0.09645000  0.58845000  0.15726000  1.0 0.1277714041
H  H38  1  0.94073000  0.16935000  0.38846000  1.0 0.0812231037
H  H39  1  0.16303000  0.48755000  0.27228000  1.0 0.1382842622
H  H40  1  0.07163000  0.34967000  0.59053000  1.0 0.1090524532
H  H41  1  0.72661000  0.41257000  0.06483000  1.0 0.0702156255
H  H42  1  0.85406000  0.44616000  0.11799000  1.0 0.1090524532
H  H43  1  0.33758000  0.44982000  0.65768000  1.0 0.1277714041
H  H44  1  0.26377000  0.73831000  0.16039000  1.0 0.0812231037
H  H45  1  0.32552000  0.64180000  0.27281000  1.0 0.0888772488
H  H46  1  0.05701000  0.42585000  0.63977000  1.0 0.0702156255
H  H47  1  0.31407000  0.52061000  0.70582000  1.0 0.1001434764
H  H48  1  0.65195000  0.52217000  0.59377000  1.0 0.0812231037
H  H49  1  0.86557000  0.84741000  0.53615000  1.0 0.1277714041
H  H50  1  0.01109000  0.96835000  0.57890000  1.0 0.0812231037
H  H51  1  0.35276000  0.83786000  0.82527000  1.0 0.1001434764
H  H52  1  0.04249000  0.86039000  0.46041000  1.0 0.1090524532
H  H53  1  0.18380000  0.98132000  0.50539000  1.0 0.0702156255
H  H54  1  0.28946000  0.91534000  0.73283000  1.0 0.1090524532
H  H55  1  0.60973000  0.67825000  0.51187000  1.0 0.1178035914
H  H56  1  0.44696000  0.61470000  0.51718000  1.0 0.0702156255
H  H57  1  0.01348000  0.70898000  0.66996000  1.0 0.1178035914
H  H58  1  0.47330000  0.86272000  0.87948000  1.0 0.0598363139
H  H59  1  0.32546000  0.03114000  0.67282000  1.0 0.0598363139
H  H60  1  0.50831000  0.53631000  0.39781000  1.0 0.1277714041
H  H61  1  0.90355000  0.41155000  0.84274000  1.0 0.1277714041
H  H62  1  0.05927000  0.83065000  0.61154000  1.0 0.0812231037
H  H63  1  0.83697000  0.51245000  0.72772000  1.0 0.1382842622
H  H64  1  0.92837000  0.65033000  0.40947000  1.0 0.1090524532
H  H65  1  0.27339000  0.58743000  0.93517000  1.0 0.0702156255
H  H66  1  0.14594000  0.55384000  0.88201000  1.0 0.1090524532
H  H67  1  0.66242000  0.55018000  0.34232000  1.0 0.1277714041
H  H68  1  0.73623000  0.26169000  0.83961000  1.0 0.0812231037
H  H69  1  0.67448000  0.35820000  0.72719000  1.0 0.0888772488
H  H70  1  0.94299000  0.57415000  0.36023000  1.0 0.0702156255
H  H71  1  0.68593000  0.47939000  0.29418000  1.0 0.1001434764
H  H72  1  0.34805000  0.47783000  0.40623000  1.0 0.0812231037
H  H73  1  0.15259000  0.13443000  0.03615000  1.0 0.1277714041
H  H74  1  0.03165000  0.98891000  0.07890000  1.0 0.0812231037
H  H75  1  0.16214000  0.64724000  0.32527000  1.0 0.1001434764
H  H76  1  0.13961000  0.95751000  0.96041000  1.0 0.1090524532
H  H77  1  0.01868000  0.81620000  0.00539000  1.0 0.0702156255
H  H78  1  0.08466000  0.71054000  0.23283000  1.0 0.1090524532
H  H79  1  0.32175000  0.39027000  0.01187000  1.0 0.1178035914
H  H80  1  0.38530000  0.55304000  0.01718000  1.0 0.0702156255
H  H81  1  0.29102000  0.98652000  0.16996000  1.0 0.1178035914
H  H82  1  0.13728000  0.52670000  0.37948000  1.0 0.0598363139
H  H83  1  0.96886000  0.67454000  0.17282000  1.0 0.0598363139
H  H84  1  0.46369000  0.49169000  0.89781000  1.0 0.1277714041
H  H85  1  0.58845000  0.09645000  0.34274000  1.0 0.1277714041
H  H86  1  0.16935000  0.94073000  0.11154000  1.0 0.0812231037
H  H87  1  0.48755000  0.16303000  0.22772000  1.0 0.1382842622
H  H88  1  0.34967000  0.07163000  0.90947000  1.0 0.1090524532
H  H89  1  0.41257000  0.72661000  0.43517000  1.0 0.0702156255
H  H90  1  0.44616000  0.85406000  0.38201000  1.0 0.1090524532
H  H91  1  0.44982000  0.33758000  0.84232000  1.0 0.1277714041
H  H92  1  0.73831000  0.26377000  0.33961000  1.0 0.0812231037
H  H93  1  0.64180000  0.32552000  0.22719000  1.0 0.0888772488
H  H94  1  0.42585000  0.05701000  0.86023000  1.0 0.0702156255
H  H95  1  0.52061000  0.31407000  0.79418000  1.0 0.1001434764
H  H96  1  0.52217000  0.65195000  0.90623000  1.0 0.0812231037
H  H97  1  0.72501000  0.63419000  0.18843000  1.0 0.0598363139
H  H98  1  0.03145000  0.92809000  0.37272000  1.0 0.0702156255
H  H99  1  0.87641000  0.84427000  0.31460000  1.0 0.0812231037
H  H100  1  0.88784000  0.73250000  0.22868000  1.0 0.0488801169
H  H101  1  0.66765000  0.70917000  0.27779000  1.0 0.1506624121
H  H102  1  0.41436000  0.44616000  0.22708000  1.0 0.0812231037
H  H103  1  0.31536000  0.44122000  0.27195000  1.0 0.018524446
H  H104  1  0.56866000  0.70422000  0.32266000  1.0 0.0702156255
H  H105  1  0.33767000  0.50793000  0.34305000  1.0 0.2637340058
H  H106  1  0.29364000  0.28084000  0.33266000  1.0 0.1001434764
H  H107  1  0.28454000  0.31548000  0.37579000  1.0 0.0812231037
H  H108  1  0.23277000  0.39963000  0.32586000  1.0 0.0812231037
H  H109  1  0.34680000  0.45042000  0.31944000  1.0 0.0488801169
H  H110  1  0.25923000  0.42555000  0.24789000  1.0 0.0812231037
H  H111  1  0.28521000  0.35251000  0.25608000  1.0 0.0812231037
H  H112  1  0.11344000  0.25386000  0.22979000  1.0 0.0888772488
H  H113  1  0.09199000  0.29103000  0.26693000  1.0 0.0888772488
H  H114  1  0.03202000  0.12844000  0.29112000  1.0 0.0812231037
H  H115  1  0.13729000  0.15993000  0.28328000  1.0 0.1001434764
H  H116  1  0.12729000  0.14857000  0.36015000  1.0 0.0702156255
H  H117  1  0.10791000  0.22681000  0.35326000  1.0 0.0812231037
H  H118  1  0.02710000  0.83988000  0.37849000  1.0 0.0812231037
H  H119  1  0.14457000  0.93955000  0.38173000  1.0 0.1382842622
H  H120  1  0.12541000  0.02279000  0.32373000  1.0 0.0812231037
H  H121  1  0.02793000  0.96571000  0.35085000  1.0 0.0702156255
H  H122  1  0.92157000  0.85143000  0.29816000  1.0 0.1001434764
H  H123  1  0.99353000  0.95963000  0.27061000  1.0 0.0598363139
H  H124  1  0.97231000  0.82939000  0.23973000  1.0 0.0702156255
H  H125  1  0.08900000  0.92634000  0.25070000  1.0 0.0702156255
H  H126  1  0.97274000  0.73590000  0.30239000  1.0 0.1506624121
H  H127  1  0.06808000  0.78290000  0.27573000  1.0 0.0812231037
H  H128  1  0.18047000  0.89839000  0.32700000  1.0 0.1506624121
H  H129  1  0.10374000  0.79254000  0.35533000  1.0 0.1178035914
H  H130  1  0.63419000  0.72501000  0.31157000  1.0 0.0598363139
H  H131  1  0.92809000  0.03145000  0.12728000  1.0 0.0702156255
H  H132  1  0.84427000  0.87641000  0.18540000  1.0 0.0812231037
H  H133  1  0.73250000  0.88784000  0.27132000  1.0 0.0488801169
H  H134  1  0.70917000  0.66765000  0.22221000  1.0 0.1506624121
H  H135  1  0.44616000  0.41436000  0.27292000  1.0 0.0812231037
H  H136  1  0.44122000  0.31536000  0.22805000  1.0 0.018524446
H  H137  1  0.70422000  0.56866000  0.17734000  1.0 0.0702156255
H  H138  1  0.50793000  0.33767000  0.15695000  1.0 0.2637340058
H  H139  1  0.28084000  0.29364000  0.16734000  1.0 0.1001434764
H  H140  1  0.31548000  0.28454000  0.12421000  1.0 0.0812231037
H  H141  1  0.39963000  0.23277000  0.17414000  1.0 0.0812231037
H  H142  1  0.45042000  0.34680000  0.18056000  1.0 0.0488801169
H  H143  1  0.42555000  0.25923000  0.25211000  1.0 0.0812231037
H  H144  1  0.35251000  0.28521000  0.24392000  1.0 0.0812231037
H  H145  1  0.25386000  0.11344000  0.27021000  1.0 0.0888772488
H  H146  1  0.29103000  0.09199000  0.23307000  1.0 0.0888772488
H  H147  1  0.12844000  0.03202000  0.20888000  1.0 0.0812231037
H  H148  1  0.15993000  0.13729000  0.21672000  1.0 0.1001434764
H  H149  1  0.14857000  0.12729000  0.13985000  1.0 0.0702156255
H  H150  1  0.22681000  0.10791000  0.14674000  1.0 0.0812231037
H  H151  1  0.83988000  0.02710000  0.12151000  1.0 0.0812231037
H  H152  1  0.93955000  0.14457000  0.11827000  1.0 0.1382842622
H  H153  1  0.02279000  0.12541000  0.17627000  1.0 0.0812231037
H  H154  1  0.96571000  0.02793000  0.14915000  1.0 0.0702156255
H  H155  1  0.85143000  0.92157000  0.20184000  1.0 0.1001434764
H  H156  1  0.95963000  0.99353000  0.22939000  1.0 0.0598363139
H  H157  1  0.82939000  0.97231000  0.26027000  1.0 0.0702156255
H  H158  1  0.92634000  0.08900000  0.24930000  1.0 0.0702156255
H  H159  1  0.73590000  0.97274000  0.19761000  1.0 0.1506624121
H  H160  1  0.78290000  0.06808000  0.22427000  1.0 0.0812231037
H  H161  1  0.89839000  0.18047000  0.17300000  1.0 0.1506624121
H  H162  1  0.79254000  0.10374000  0.14467000  1.0 0.1178035914
H  H163  1  0.27499000  0.36581000  0.81157000  1.0 0.0598363139
H  H164  1  0.96855000  0.07191000  0.62728000  1.0 0.0702156255
H  H165  1  0.12359000  0.15573000  0.68540000  1.0 0.0812231037
H  H166  1  0.11216000  0.26750000  0.77132000  1.0 0.0488801169
H  H167  1  0.33235000  0.29083000  0.72221000  1.0 0.1506624121
H  H168  1  0.58564000  0.55384000  0.77292000  1.0 0.0812231037
H  H169  1  0.68464000  0.55878000  0.72805000  1.0 0.018524446
H  H170  1  0.43134000  0.29578000  0.67734000  1.0 0.0702156255
H  H171  1  0.66233000  0.49207000  0.65695000  1.0 0.2637340058
H  H172  1  0.70636000  0.71916000  0.66734000  1.0 0.1001434764
H  H173  1  0.71546000  0.68452000  0.62421000  1.0 0.0812231037
H  H174  1  0.76723000  0.60037000  0.67414000  1.0 0.0812231037
H  H175  1  0.65320000  0.54958000  0.68056000  1.0 0.0488801169
H  H176  1  0.74077000  0.57445000  0.75211000  1.0 0.0812231037
H  H177  1  0.71479000  0.64749000  0.74392000  1.0 0.0812231037
H  H178  1  0.88656000  0.74614000  0.77021000  1.0 0.0888772488
H  H179  1  0.90801000  0.70897000  0.73307000  1.0 0.0888772488
H  H180  1  0.96798000  0.87156000  0.70888000  1.0 0.0812231037
H  H181  1  0.86271000  0.84007000  0.71672000  1.0 0.1001434764
H  H182  1  0.87271000  0.85143000  0.63985000  1.0 0.0702156255
H  H183  1  0.89209000  0.77319000  0.64674000  1.0 0.0812231037
H  H184  1  0.97290000  0.16012000  0.62151000  1.0 0.0812231037
H  H185  1  0.85543000  0.06045000  0.61827000  1.0 0.1382842622
H  H186  1  0.87459000  0.97721000  0.67627000  1.0 0.0812231037
H  H187  1  0.97207000  0.03429000  0.64915000  1.0 0.0702156255
H  H188  1  0.07843000  0.14857000  0.70184000  1.0 0.1001434764
H  H189  1  0.00647000  0.04037000  0.72939000  1.0 0.0598363139
H  H190  1  0.02769000  0.17061000  0.76027000  1.0 0.0702156255
H  H191  1  0.91100000  0.07366000  0.74930000  1.0 0.0812231037
H  H192  1  0.02726000  0.26410000  0.69761000  1.0 0.1506624121
H  H193  1  0.93192000  0.21710000  0.72427000  1.0 0.0812231037
H  H194  1  0.81953000  0.10161000  0.67300000  1.0 0.1506624121
H  H195  1  0.89626000  0.20746000  0.64467000  1.0 0.1178035914
H  H196  1  0.36581000  0.27499000  0.68843000  1.0 0.0598363139
H  H197  1  0.07191000  0.96855000  0.87272000  1.0 0.0702156255
H  H198  1  0.15573000  0.12359000  0.81460000  1.0 0.0812231037
H  H199  1  0.26750000  0.11216000  0.72868000  1.0 0.0488801169
H  H200  1  0.29083000  0.33235000  0.77779000  1.0 0.1506624121
H  H201  1  0.55384000  0.58564000  0.72708000  1.0 0.0812231037
H  H202  1  0.55878000  0.68464000  0.77195000  1.0 0.018524446
H  H203  1  0.29578000  0.43134000  0.82266000  1.0 0.0702156255
H  H204  1  0.49207000  0.66233000  0.84305000  1.0 0.2637340058
H  H205  1  0.71916000  0.70636000  0.83266000  1.0 0.1001434764
H  H206  1  0.68452000  0.71546000  0.87579000  1.0 0.0812231037
H  H207  1  0.60037000  0.76723000  0.82586000  1.0 0.0812231037
H  H208  1  0.54958000  0.65320000  0.81944000  1.0 0.0488801169
H  H209  1  0.57445000  0.74077000  0.74789000  1.0 0.0812231037
H  H210  1  0.64749000  0.71479000  0.75608000  1.0 0.0812231037
H  H211  1  0.74614000  0.88656000  0.72979000  1.0 0.0888772488
H  H212  1  0.70897000  0.90801000  0.76693000  1.0 0.0888772488
H  H213  1  0.87156000  0.96798000  0.79112000  1.0 0.0812231037
H  H214  1  0.84007000  0.86271000  0.78328000  1.0 0.1001434764
H  H215  1  0.85143000  0.87271000  0.86015000  1.0 0.0702156255
H  H216  1  0.77319000  0.89209000  0.85326000  1.0 0.0812231037
H  H217  1  0.16012000  0.97290000  0.87849000  1.0 0.0812231037
H  H218  1  0.06045000  0.85543000  0.88173000  1.0 0.1382842622
H  H219  1  0.97721000  0.87459000  0.82373000  1.0 0.0812231037
H  H220  1  0.03429000  0.97207000  0.85085000  1.0 0.0702156255
H  H221  1  0.14857000  0.07843000  0.79816000  1.0 0.1001434764
H  H222  1  0.04037000  0.00647000  0.77061000  1.0 0.0598363139
H  H223  1  0.17061000  0.02769000  0.73973000  1.0 0.0702156255
H  H224  1  0.07366000  0.91100000  0.75070000  1.0 0.0812231037
H  H225  1  0.26410000  0.02726000  0.80239000  1.0 0.1506624121
H  H226  1  0.21710000  0.93192000  0.77573000  1.0 0.0812231037
H  H227  1  0.10161000  0.81953000  0.82700000  1.0 0.1506624121
H  H228  1  0.20746000  0.89626000  0.85533000  1.0 0.1178035914
C  C1  1  0.83908000  0.93892000  0.00528000  1.0 0.0598363139
C  C2  1  0.75688000  0.84712000  0.03217000  1.0 0.3136719395
C  C3  1  0.87306000  0.93014000  0.97037000  1.0 -0.1697120603
C  C4  1  0.80063000  0.14437000  0.79063000  1.0 0.0702156255
C  C5  1  0.61418000  0.57682000  0.04569000  1.0 0.0598363139
C  C6  1  0.65266000  0.67954000  0.05095000  1.0 0.3418036889
C  C7  1  0.67550000  0.15670000  0.68657000  1.0 0.3490793784
C  C8  1  0.94479000  0.01681000  0.94521000  1.0 -0.0088248999
C  C9  1  0.57772000  0.99508000  0.71466000  1.0 0.3418036889
C  C10  1  0.72627000  0.11493000  0.75127000  1.0 0.3335197647
C  C11  1  0.69410000  0.23490000  0.65117000  1.0 0.0598363139
C  C12  1  0.78563000  0.33437000  0.65190000  1.0 -0.2002869775
C  C13  1  0.88083000  0.03457000  0.01496000  1.0 -0.2002869775
C  C14  1  0.95266000  0.11814000  0.98812000  1.0 0.0414577153
C  C15  1  0.89673000  0.23947000  0.79123000  1.0 -0.2201527681
C  C16  1  0.47988000  0.88792000  0.71439000  1.0 0.0598363139
C  C17  1  0.63705000  0.55715000  0.01029000  1.0 -0.1794002205
C  C18  1  0.64944000  0.77996000  0.08560000  1.0 0.2931556632
C  C19  1  0.60685000  0.79335000  0.11827000  1.0 0.0488801169
C  C20  1  0.59945000  0.46035000  0.00751000  1.0 0.018524446
C  C21  1  0.77568000  0.07772000  0.82822000  1.0 -0.1868527808
C  C22  1  0.79983000  0.40537000  0.61957000  1.0 0.0315865059
C  C23  1  0.96483000  0.26037000  0.82729000  1.0 -0.0771688805
C  C24  1  0.55363000  0.49737000  0.07742000  1.0 -0.2087134019
C  C25  1  0.40308000  0.85712000  0.68126000  1.0 -0.159202605
C  C26  1  0.84856000  0.10564000  0.86287000  1.0 0.0414577153
C  C27  1  0.46176000  0.81844000  0.74859000  1.0 -0.1697120603
C  C28  1  0.61462000  0.87698000  0.11398000  1.0 -0.2423213604
C  C29  1  0.63940000  0.28880000  0.58722000  1.0 0.0414577153
C  C30  1  0.61859000  0.21241000  0.61868000  1.0 -0.1794002205
C  C31  1  0.55640000  0.72080000  0.15343000  1.0 -0.2423213604
C  C32  1  0.31388000  0.75772000  0.68370000  1.0 0.0488801169
C  C33  1  0.36990000  0.72170000  0.74848000  1.0 0.0414577153
C  C34  1  0.57080000  0.88640000  0.14360000  1.0 -0.0989657078
C  C35  1  0.51530000  0.73610000  0.18200000  1.0 -0.0088248999
C  C36  1  0.51934000  0.40226000  0.07217000  1.0 0.0414577153
C  C37  1  0.06108000  0.16092000  0.50528000  1.0 0.0598363139
C  C38  1  0.15288000  0.24312000  0.53217000  1.0 0.3136719395
C  C39  1  0.06986000  0.12694000  0.47037000  1.0 -0.1697120603
C  C40  1  0.85563000  0.19937000  0.29063000  1.0 0.0702156255
C  C41  1  0.42318000  0.38582000  0.54569000  1.0 0.0598363139
C  C42  1  0.32046000  0.34734000  0.55095000  1.0 0.3418036889
C  C43  1  0.84330000  0.32450000  0.18657000  1.0 0.3490793784
C  C44  1  0.98319000  0.05521000  0.44521000  1.0 -0.0088248999
C  C45  1  0.00492000  0.42228000  0.21466000  1.0 0.3418036889
C  C46  1  0.88507000  0.27373000  0.25127000  1.0 0.3335197647
C  C47  1  0.76510000  0.30590000  0.15117000  1.0 0.0598363139
C  C48  1  0.66563000  0.21437000  0.15190000  1.0 -0.2002869775
C  C49  1  0.96543000  0.11917000  0.51496000  1.0 -0.2002869775
C  C50  1  0.88186000  0.04734000  0.48812000  1.0 0.0414577153
C  C51  1  0.76053000  0.10327000  0.29123000  1.0 -0.2201527681
C  C52  1  0.11208000  0.52012000  0.21439000  1.0 0.0598363139
C  C53  1  0.44285000  0.36295000  0.51029000  1.0 -0.1794002205
C  C54  1  0.22004000  0.35056000  0.58560000  1.0 0.2931556632
C  C55  1  0.20665000  0.39315000  0.61827000  1.0 0.0488801169
C  C56  1  0.53965000  0.40055000  0.50751000  1.0 0.018524446
C  C57  1  0.92228000  0.22432000  0.32822000  1.0 -0.1868527808
C  C58  1  0.59463000  0.20017000  0.11957000  1.0 0.0315865059
C  C59  1  0.73963000  0.03517000  0.32729000  1.0 -0.0771688805
C  C60  1  0.50263000  0.44637000  0.57742000  1.0 -0.2087134019
C  C61  1  0.14288000  0.59692000  0.18126000  1.0 -0.159202605
C  C62  1  0.89436000  0.15144000  0.36287000  1.0 0.0414577153
C  C63  1  0.18156000  0.53824000  0.24859000  1.0 -0.1697120603
C  C64  1  0.12302000  0.38538000  0.61398000  1.0 -0.2423213604
C  C65  1  0.71120000  0.36060000  0.08722000  1.0 0.0414577153
C  C66  1  0.78759000  0.38141000  0.11868000  1.0 -0.1794002205
C  C67  1  0.27920000  0.44360000  0.65343000  1.0 -0.2423213604
C  C68  1  0.24228000  0.68612000  0.18370000  1.0 0.0488801169
C  C69  1  0.27830000  0.63010000  0.24848000  1.0 0.0414577153
C  C70  1  0.11360000  0.42920000  0.64360000  1.0 -0.0989657078
C  C71  1  0.26390000  0.48470000  0.68200000  1.0 -0.0088248999
C  C72  1  0.59774000  0.48066000  0.57217000  1.0 0.0414577153
C  C73  1  0.93892000  0.83908000  0.49472000  1.0 0.0598363139
C  C74  1  0.84712000  0.75688000  0.46783000  1.0 0.3150531579
C  C75  1  0.93014000  0.87306000  0.52963000  1.0 -0.1697120603
C  C76  1  0.14437000  0.80063000  0.70937000  1.0 0.0702156255
C  C77  1  0.57682000  0.61418000  0.45431000  1.0 0.0598363139
C  C78  1  0.67954000  0.65266000  0.44905000  1.0 0.3418036889
C  C79  1  0.15670000  0.67550000  0.81343000  1.0 0.3490793784
C  C80  1  0.01681000  0.94479000  0.55479000  1.0 -0.0088248999
C  C81  1  0.99508000  0.57772000  0.78534000  1.0 0.3418036889
C  C82  1  0.11493000  0.72627000  0.74873000  1.0 0.3335197647
C  C83  1  0.23490000  0.69410000  0.84883000  1.0 0.0598363139
C  C84  1  0.33437000  0.78563000  0.84810000  1.0 -0.2002869775
C  C85  1  0.03457000  0.88083000  0.48504000  1.0 -0.2002869775
C  C86  1  0.11814000  0.95266000  0.51188000  1.0 0.0315865059
C  C87  1  0.23947000  0.89673000  0.70877000  1.0 -0.2201527681
C  C88  1  0.88792000  0.47988000  0.78561000  1.0 0.0598363139
C  C89  1  0.55715000  0.63705000  0.48971000  1.0 -0.1794002205
C  C90  1  0.77996000  0.64944000  0.41440000  1.0 0.2931556632
C  C91  1  0.79335000  0.60685000  0.38173000  1.0 0.0488801169
C  C92  1  0.46035000  0.59945000  0.49249000  1.0 0.018524446
C  C93  1  0.07772000  0.77568000  0.67178000  1.0 -0.1868527808
C  C94  1  0.40537000  0.79983000  0.88043000  1.0 0.0315865059
C  C95  1  0.26037000  0.96483000  0.67271000  1.0 -0.0771688805
C  C96  1  0.49737000  0.55363000  0.42258000  1.0 -0.2087134019
C  C97  1  0.85712000  0.40308000  0.81874000  1.0 -0.159202605
C  C98  1  0.10564000  0.84856000  0.63713000  1.0 0.0414577153
C  C99  1  0.81844000  0.46176000  0.75141000  1.0 -0.1697120603
C  C100  1  0.87698000  0.61462000  0.38602000  1.0 -0.2423213604
C  C101  1  0.28880000  0.63940000  0.91278000  1.0 0.0414577153
C  C102  1  0.21241000  0.61859000  0.88132000  1.0 -0.1794002205
C  C103  1  0.72080000  0.55640000  0.34657000  1.0 -0.2423213604
C  C104  1  0.75772000  0.31388000  0.81630000  1.0 0.0488801169
C  C105  1  0.72170000  0.36990000  0.75152000  1.0 0.0414577153
C  C106  1  0.88640000  0.57080000  0.35640000  1.0 -0.0989657078
C  C107  1  0.73610000  0.51530000  0.31800000  1.0 -0.0088248999
C  C108  1  0.40226000  0.51934000  0.42783000  1.0 0.0414577153
C  C109  1  0.16092000  0.06108000  0.99472000  1.0 0.0598363139
C  C110  1  0.24312000  0.15288000  0.96783000  1.0 0.3136719395
C  C111  1  0.12694000  0.06986000  0.02963000  1.0 -0.1697120603
C  C112  1  0.19937000  0.85563000  0.20937000  1.0 0.0702156255
C  C113  1  0.38582000  0.42318000  0.95431000  1.0 0.0598363139
C  C114  1  0.34734000  0.32046000  0.94905000  1.0 0.3418036889
C  C115  1  0.32450000  0.84330000  0.31343000  1.0 0.3490793784
C  C116  1  0.05521000  0.98319000  0.05479000  1.0 -0.0027490478
C  C117  1  0.42228000  0.00492000  0.28534000  1.0 0.3418036889
C  C118  1  0.27373000  0.88507000  0.24873000  1.0 0.3335197647
C  C119  1  0.30590000  0.76510000  0.34883000  1.0 0.0598363139
C  C120  1  0.21437000  0.66563000  0.34810000  1.0 -0.2002869775
C  C121  1  0.11917000  0.96543000  0.98504000  1.0 -0.2002869775
C  C122  1  0.04734000  0.88186000  0.01188000  1.0 0.0315865059
C  C123  1  0.10327000  0.76053000  0.20877000  1.0 -0.2201527681
C  C124  1  0.52012000  0.11208000  0.28561000  1.0 0.0598363139
C  C125  1  0.36295000  0.44285000  0.98971000  1.0 -0.1794002205
C  C126  1  0.35056000  0.22004000  0.91440000  1.0 0.2931556632
C  C127  1  0.39315000  0.20665000  0.88173000  1.0 0.0488801169
C  C128  1  0.40055000  0.53965000  0.99249000  1.0 0.018524446
C  C129  1  0.22432000  0.92228000  0.17178000  1.0 -0.1868527808
C  C130  1  0.20017000  0.59463000  0.38043000  1.0 0.0315865059
C  C131  1  0.03517000  0.73963000  0.17271000  1.0 -0.0771688805
C  C132  1  0.44637000  0.50263000  0.92258000  1.0 -0.2087134019
C  C133  1  0.59692000  0.14288000  0.31874000  1.0 -0.159202605
C  C134  1  0.15144000  0.89436000  0.13713000  1.0 0.0414577153
C  C135  1  0.53824000  0.18156000  0.25141000  1.0 -0.1697120603
C  C136  1  0.38538000  0.12302000  0.88602000  1.0 -0.2423213604
C  C137  1  0.36060000  0.71120000  0.41278000  1.0 0.0414577153
C  C138  1  0.38141000  0.78759000  0.38132000  1.0 -0.1794002205
C  C139  1  0.44360000  0.27920000  0.84657000  1.0 -0.2423213604
C  C140  1  0.68612000  0.24228000  0.31630000  1.0 0.0488801169
C  C141  1  0.63010000  0.27830000  0.25152000  1.0 0.0414577153
C  C142  1  0.42920000  0.11360000  0.85640000  1.0 -0.0989657078
C  C143  1  0.48470000  0.26390000  0.81800000  1.0 -0.0088248999
C  C144  1  0.48066000  0.59774000  0.92783000  1.0 0.0414577153
C  C145  1  0.01550000  0.89310000  0.34750000  1.0 -0.1178564362
C  C146  1  0.93250000  0.80830000  0.28630000  1.0 0.0104130403
C  C147  1  0.05800000  0.87380000  0.33300000  1.0 0.0414577153
C  C148  1  0.93080000  0.84540000  0.31400000  1.0 -0.1178564362
C  C149  1  0.86350000  0.74350000  0.25030000  1.0 -0.2201527681
C  C150  1  0.60090000  0.58110000  0.21740000  1.0 0.1090524532
C  C151  1  0.59620000  0.65480000  0.27660000  1.0 0.1001434764
C  C152  1  0.55030000  0.57810000  0.24820000  1.0 -0.0362160934
C  C153  1  0.44570000  0.49850000  0.24650000  1.0 -0.0989657078
C  C154  1  0.38680000  0.49560000  0.27310000  1.0 -0.2087134019
C  C155  1  0.43270000  0.57230000  0.30150000  1.0 0.0888772488
C  C156  1  0.53730000  0.65190000  0.30330000  1.0 -0.0362160934
C  C157  1  0.25800000  0.29800000  0.34440000  1.0 -0.159202605
C  C158  1  0.27430000  0.38770000  0.31570000  1.0 -0.1794002205
C  C159  1  0.24550000  0.36650000  0.26630000  1.0 -0.1453457992
C  C160  1  0.13220000  0.27380000  0.26090000  1.0 -0.1868527808
C  C161  1  0.10710000  0.18490000  0.29310000  1.0 -0.2254924696
C  C162  1  0.14310000  0.20890000  0.34170000  1.0 -0.1794002205
C  C163  1  0.08560000  0.89440000  0.36060000  1.0 0.0104130403
C  C164  1  0.06090000  0.95510000  0.33230000  1.0 -0.1178564362
C  C165  1  0.99210000  0.90790000  0.29010000  1.0 -0.0530303144
C  C166  1  0.02430000  0.86770000  0.26430000  1.0 -0.0088248999
C  C167  1  0.03990000  0.80010000  0.29360000  1.0 -0.0088248999
C  C168  1  0.10940000  0.84620000  0.33530000  1.0 0.1001434764
C  C169  1  0.89310000  0.01550000  0.15250000  1.0 -0.1178564362
C  C170  1  0.80830000  0.93250000  0.21370000  1.0 0.0104130403
C  C171  1  0.87380000  0.05800000  0.16700000  1.0 0.0414577153
C  C172  1  0.84540000  0.93080000  0.18600000  1.0 -0.1178564362
C  C173  1  0.74350000  0.86350000  0.24970000  1.0 -0.2201527681
C  C174  1  0.58110000  0.60090000  0.28260000  1.0 0.1090524532
C  C175  1  0.65480000  0.59620000  0.22340000  1.0 0.1001434764
C  C176  1  0.57810000  0.55030000  0.25180000  1.0 -0.0362160934
C  C177  1  0.49850000  0.44570000  0.25350000  1.0 -0.0989657078
C  C178  1  0.49560000  0.38680000  0.22690000  1.0 -0.2087134019
C  C179  1  0.57230000  0.43270000  0.19850000  1.0 0.0888772488
C  C180  1  0.65190000  0.53730000  0.19670000  1.0 -0.0276383239
C  C181  1  0.29800000  0.25800000  0.15560000  1.0 -0.159202605
C  C182  1  0.38770000  0.27430000  0.18430000  1.0 -0.1794002205
C  C183  1  0.36650000  0.24550000  0.23370000  1.0 -0.1453457992
C  C184  1  0.27380000  0.13220000  0.23910000  1.0 -0.1868527808
C  C185  1  0.18490000  0.10710000  0.20690000  1.0 -0.2254924696
C  C186  1  0.20890000  0.14310000  0.15830000  1.0 -0.1697120603
C  C187  1  0.89440000  0.08560000  0.13940000  1.0 0.0104130403
C  C188  1  0.95510000  0.06090000  0.16770000  1.0 -0.1178564362
C  C189  1  0.90790000  0.99210000  0.20990000  1.0 -0.0530303144
C  C190  1  0.86770000  0.02430000  0.23570000  1.0 -0.0088248999
C  C191  1  0.80010000  0.03990000  0.20640000  1.0 -0.0088248999
C  C192  1  0.84620000  0.10940000  0.16470000  1.0 0.1001434764
C  C193  1  0.98450000  0.10690000  0.65250000  1.0 -0.1178564362
C  C194  1  0.06750000  0.19170000  0.71370000  1.0 0.0104130403
C  C195  1  0.94200000  0.12620000  0.66700000  1.0 0.0414577153
C  C196  1  0.06920000  0.15460000  0.68600000  1.0 -0.1178564362
C  C197  1  0.13650000  0.25650000  0.74970000  1.0 -0.2201527681
C  C198  1  0.39910000  0.41890000  0.78260000  1.0 0.1090524532
C  C199  1  0.40380000  0.34520000  0.72340000  1.0 0.1001434764
C  C200  1  0.44970000  0.42190000  0.75180000  1.0 -0.0362160934
C  C201  1  0.55430000  0.50150000  0.75350000  1.0 -0.0989657078
C  C202  1  0.61320000  0.50440000  0.72690000  1.0 -0.2087134019
C  C203  1  0.56730000  0.42770000  0.69850000  1.0 0.0888772488
C  C204  1  0.46270000  0.34810000  0.69670000  1.0 -0.0362160934
C  C205  1  0.74200000  0.70200000  0.65560000  1.0 -0.159202605
C  C206  1  0.72570000  0.61230000  0.68430000  1.0 -0.1794002205
C  C207  1  0.75450000  0.63350000  0.73370000  1.0 -0.1447857987
C  C208  1  0.86780000  0.72620000  0.73910000  1.0 -0.1868527808
C  C209  1  0.89290000  0.81510000  0.70690000  1.0 -0.2201527681
C  C210  1  0.85690000  0.79110000  0.65830000  1.0 -0.1697120603
C  C211  1  0.91440000  0.10560000  0.63940000  1.0 0.0104130403
C  C212  1  0.93910000  0.04490000  0.66770000  1.0 -0.1178564362
C  C213  1  0.00790000  0.09210000  0.70990000  1.0 -0.0530303144
C  C214  1  0.97570000  0.13230000  0.73570000  1.0 -0.0088248999
C  C215  1  0.96010000  0.19990000  0.70640000  1.0 -0.0088248999
C  C216  1  0.89060000  0.15380000  0.66470000  1.0 0.1001434764
C  C217  1  0.10690000  0.98450000  0.84750000  1.0 -0.1178564362
C  C218  1  0.19170000  0.06750000  0.78630000  1.0 0.0104130403
C  C219  1  0.12620000  0.94200000  0.83300000  1.0 0.0414577153
C  C220  1  0.15460000  0.06920000  0.81400000  1.0 -0.1178564362
C  C221  1  0.25650000  0.13650000  0.75030000  1.0 -0.2201527681
C  C222  1  0.41890000  0.39910000  0.71740000  1.0 0.1090524532
C  C223  1  0.34520000  0.40380000  0.77660000  1.0 0.1001434764
C  C224  1  0.42190000  0.44970000  0.74820000  1.0 -0.0362160934
C  C225  1  0.50150000  0.55430000  0.74650000  1.0 -0.0989657078
C  C226  1  0.50440000  0.61320000  0.77310000  1.0 -0.2087134019
C  C227  1  0.42770000  0.56730000  0.80150000  1.0 0.0888772488
C  C228  1  0.34810000  0.46270000  0.80330000  1.0 -0.0362160934
C  C229  1  0.70200000  0.74200000  0.84440000  1.0 -0.159202605
C  C230  1  0.61230000  0.72570000  0.81570000  1.0 -0.1794002205
C  C231  1  0.63350000  0.75450000  0.76630000  1.0 -0.1453457992
C  C232  1  0.72620000  0.86780000  0.76090000  1.0 -0.1868527808
C  C233  1  0.81510000  0.89290000  0.79310000  1.0 -0.2201527681
C  C234  1  0.79110000  0.85690000  0.84170000  1.0 -0.1794002205
C  C235  1  0.10560000  0.91440000  0.86060000  1.0 0.0104130403
C  C236  1  0.04490000  0.93910000  0.83230000  1.0 -0.1178564362
C  C237  1  0.09210000  0.00790000  0.79010000  1.0 -0.0530303144
C  C238  1  0.13230000  0.97570000  0.76430000  1.0 -0.0088248999
C  C239  1  0.19990000  0.96010000  0.79360000  1.0 -0.0088248999
C  C240  1  0.15380000  0.89060000  0.83530000  1.0 0.1001434764
N  N1  1  0.72424000  0.75728000  0.02445000  1.0 -0.4689194258
N  N2  1  0.98289000  0.10941000  0.95346000  1.0 -0.2662504088
N  N3  1  0.64475000  0.01645000  0.74927000  1.0 -0.458602741
N  N4  1  0.72290000  0.86380000  0.06186000  1.0 -0.4943490695
N  N5  1  0.74518000  0.18848000  0.72093000  1.0 -0.458602741
N  N6  1  0.58967000  0.06035000  0.68181000  1.0 -0.4311730261
N  N7  1  0.61221000  0.68605000  0.08149000  1.0 -0.4208632182
N  N8  1  0.54192000  0.38388000  0.03832000  1.0 -0.2002869775
N  N9  1  0.94277000  0.19433000  0.86225000  1.0 -0.257713757
N  N10  1  0.72930000  0.38370000  0.58664000  1.0 -0.1868527808
N  N11  1  0.29723000  0.69057000  0.71684000  1.0 -0.1868527808
N  N12  1  0.52323000  0.81617000  0.17816000  1.0 -0.2087134019
N  N13  1  0.24272000  0.27576000  0.52445000  1.0 -0.4689194258
N  N14  1  0.89059000  0.01711000  0.45346000  1.0 -0.2662504088
N  N15  1  0.98355000  0.35525000  0.24927000  1.0 -0.458602741
N  N16  1  0.13620000  0.27710000  0.56186000  1.0 -0.4943490695
N  N17  1  0.81152000  0.25482000  0.22093000  1.0 -0.458602741
N  N18  1  0.93965000  0.41033000  0.18181000  1.0 -0.4311730261
N  N19  1  0.31395000  0.38779000  0.58149000  1.0 -0.4208632182
N  N20  1  0.61612000  0.45808000  0.53832000  1.0 -0.2002869775
N  N21  1  0.80567000  0.05723000  0.36225000  1.0 -0.257713757
N  N22  1  0.61630000  0.27070000  0.08664000  1.0 -0.1794002205
N  N23  1  0.30943000  0.70277000  0.21684000  1.0 -0.1868527808
N  N24  1  0.18383000  0.47677000  0.67816000  1.0 -0.2087134019
N  N25  1  0.75728000  0.72424000  0.47555000  1.0 -0.4689194258
N  N26  1  0.10941000  0.98289000  0.54654000  1.0 -0.2662504088
N  N27  1  0.01645000  0.64475000  0.75073000  1.0 -0.458602741
N  N28  1  0.86380000  0.72290000  0.43814000  1.0 -0.4943490695
N  N29  1  0.18848000  0.74518000  0.77907000  1.0 -0.458602741
N  N30  1  0.06035000  0.58967000  0.81819000  1.0 -0.4311730261
N  N31  1  0.68605000  0.61221000  0.41851000  1.0 -0.4208632182
N  N32  1  0.38388000  0.54192000  0.46168000  1.0 -0.2002869775
N  N33  1  0.19433000  0.94277000  0.63775000  1.0 -0.257713757
N  N34  1  0.38370000  0.72930000  0.91336000  1.0 -0.1794002205
N  N35  1  0.69057000  0.29723000  0.78316000  1.0 -0.1868527808
N  N36  1  0.81617000  0.52323000  0.32184000  1.0 -0.2087134019
N  N37  1  0.27576000  0.24272000  0.97555000  1.0 -0.4689194258
N  N38  1  0.01711000  0.89059000  0.04654000  1.0 -0.2662504088
N  N39  1  0.35525000  0.98355000  0.25073000  1.0 -0.458602741
N  N40  1  0.27710000  0.13620000  0.93814000  1.0 -0.4943490695
N  N41  1  0.25482000  0.81152000  0.27907000  1.0 -0.458602741
N  N42  1  0.41033000  0.93965000  0.31819000  1.0 -0.4311730261
N  N43  1  0.38779000  0.31395000  0.91851000  1.0 -0.4208632182
N  N44  1  0.45808000  0.61612000  0.96168000  1.0 -0.2002869775
N  N45  1  0.05723000  0.80567000  0.13775000  1.0 -0.257713757
N  N46  1  0.27070000  0.61630000  0.41336000  1.0 -0.1794002205
N  N47  1  0.70277000  0.30943000  0.28316000  1.0 -0.1868527808
N  N48  1  0.47677000  0.18383000  0.82184000  1.0 -0.2087134019
N  N49  1  0.70230000  0.63670000  0.21130000  1.0 -0.1178564362
N  N50  1  0.76420000  0.69880000  0.24790000  1.0 -0.2801936935
N  N51  1  0.14890000  0.90070000  0.35100000  1.0 -0.0771688805
N  N52  1  0.63670000  0.70230000  0.28870000  1.0 -0.1178564362
N  N53  1  0.69880000  0.76420000  0.25210000  1.0 -0.2801936935
N  N54  1  0.90070000  0.14890000  0.14900000  1.0 -0.0771688805
N  N55  1  0.29770000  0.36330000  0.78870000  1.0 -0.1178564362
N  N56  1  0.23580000  0.30120000  0.75210000  1.0 -0.2801936935
N  N57  1  0.85110000  0.09930000  0.64900000  1.0 -0.0771688805
N  N58  1  0.36330000  0.29770000  0.71130000  1.0 -0.1178564362
N  N59  1  0.30120000  0.23580000  0.74790000  1.0 -0.2801936935
N  N60  1  0.09930000  0.85110000  0.85100000  1.0 -0.0771688805
Cl  Cl1  1  0.87177000  0.64071000  0.57165000  1.0 0.0598363139
Cl  Cl2  1  0.75611000  0.45703000  0.47486000  1.0 0.018524446
Cl  Cl3  1  0.44712000  0.96380000  0.17332000  1.0 -0.0276383239
Cl  Cl4  1  0.50831000  0.86007000  0.28065000  1.0 -0.0530303144
Cl  Cl5  1  0.13690000  0.36730000  0.93350000  1.0 0.0036453683
Cl  Cl6  1  0.13940000  0.19320000  0.86920000  1.0 -0.0631254324
Cl  Cl7  1  0.12360000  0.37380000  0.94170000  1.0 0.0104130403
Cl  Cl8  1  0.15010000  0.22790000  0.87280000  1.0 -0.0631254324
Cl  Cl9  1  0.49571000  0.96095000  0.20772000  1.0 -0.0276383239
Cl  Cl10  1  0.51816000  0.79186000  0.29863000  1.0 -0.1178564362
Cl  Cl11  1  0.85950000  0.61070000  0.54550000  1.0 0.0414577153
Cl  Cl12  1  0.71220000  0.39880000  0.45820000  1.0 0.0888772488
Cl  Cl13  1  0.35929000  0.12823000  0.07165000  1.0 0.0598363139
Cl  Cl14  1  0.54297000  0.24389000  0.97486000  1.0 0.018524446
Cl  Cl15  1  0.03620000  0.55288000  0.67332000  1.0 -0.0239092694
Cl  Cl16  1  0.13993000  0.49169000  0.78065000  1.0 -0.0530303144
Cl  Cl17  1  0.63270000  0.86310000  0.43350000  1.0 0.0036453683
Cl  Cl18  1  0.80680000  0.86060000  0.36920000  1.0 -0.0631254324
Cl  Cl19  1  0.62620000  0.87640000  0.44170000  1.0 0.0104130403
Cl  Cl20  1  0.77210000  0.84990000  0.37280000  1.0 -0.0631254324
Cl  Cl21  1  0.03905000  0.50429000  0.70772000  1.0 -0.0276383239
Cl  Cl22  1  0.20814000  0.48184000  0.79863000  1.0 -0.1178564362
Cl  Cl23  1  0.38930000  0.14050000  0.04550000  1.0 0.0414577153
Cl  Cl24  1  0.60120000  0.28780000  0.95820000  1.0 0.0888772488
Cl  Cl25  1  0.64071000  0.87177000  0.92835000  1.0 0.0598363139
Cl  Cl26  1  0.45703000  0.75611000  0.02514000  1.0 0.0104130403
Cl  Cl27  1  0.96380000  0.44712000  0.32668000  1.0 -0.0276383239
Cl  Cl28  1  0.86007000  0.50831000  0.21935000  1.0 -0.0530303144
Cl  Cl29  1  0.36730000  0.13690000  0.56650000  1.0 0.0036453683
Cl  Cl30  1  0.19320000  0.13940000  0.63080000  1.0 -0.0631254324
Cl  Cl31  1  0.37380000  0.12360000  0.55830000  1.0 0.0104130403
Cl  Cl32  1  0.22790000  0.15010000  0.62720000  1.0 -0.0657002735
Cl  Cl33  1  0.96095000  0.49571000  0.29228000  1.0 -0.0276383239
Cl  Cl34  1  0.79186000  0.51816000  0.20137000  1.0 -0.1149333339
Cl  Cl35  1  0.61070000  0.85950000  0.95450000  1.0 0.0414577153
Cl  Cl36  1  0.39880000  0.71220000  0.04180000  1.0 0.0888772488
Cl  Cl37  1  0.12823000  0.35929000  0.42835000  1.0 0.0598363139
Cl  Cl38  1  0.24389000  0.54297000  0.52514000  1.0 0.018524446
Cl  Cl39  1  0.55288000  0.03620000  0.82668000  1.0 -0.0239092694
Cl  Cl40  1  0.49169000  0.13993000  0.71935000  1.0 -0.0530303144
Cl  Cl41  1  0.86310000  0.63270000  0.06650000  1.0 0.0036453683
Cl  Cl42  1  0.86060000  0.80680000  0.13080000  1.0 -0.0631254324
Cl  Cl43  1  0.87640000  0.62620000  0.05830000  1.0 0.0104130403
Cl  Cl44  1  0.84990000  0.77210000  0.12720000  1.0 -0.0657002735
Cl  Cl45  1  0.50429000  0.03905000  0.79228000  1.0 -0.0276383239
Cl  Cl46  1  0.48184000  0.20814000  0.70137000  1.0 -0.1178564362
Cl  Cl47  1  0.14050000  0.38930000  0.45450000  1.0 0.0414577153
Cl  Cl48  1  0.28780000  0.60120000  0.54180000  1.0 0.0888772488
O  O1  1  0.01640000  0.82040000  0.29610000  1.0 -0.0657002735
O  O2  1  0.17680000  0.93920000  0.38280000  1.0 -0.1453457992
O  O3  1  0.17770000  0.88030000  0.32940000  1.0 -0.0894150227
O  O4  1  0.55170000  0.52630000  0.18270000  1.0 -0.2002869775
O  O5  1  0.36890000  0.56310000  0.32720000  1.0 -0.5008799802
O  O6  1  0.82040000  0.01640000  0.20390000  1.0 -0.0657002735
O  O7  1  0.93920000  0.17680000  0.11720000  1.0 -0.1453457992
O  O8  1  0.88030000  0.17770000  0.17060000  1.0 -0.0894150227
O  O9  1  0.52630000  0.55170000  0.31730000  1.0 -0.2002869775
O  O10  1  0.56310000  0.36890000  0.17280000  1.0 -0.5008799802
O  O11  1  0.98360000  0.17960000  0.70390000  1.0 -0.0657002735
O  O12  1  0.82320000  0.06080000  0.61720000  1.0 -0.1453457992
O  O13  1  0.82230000  0.11970000  0.67060000  1.0 -0.0894150227
O  O14  1  0.44830000  0.47370000  0.81730000  1.0 -0.2002869775
O  O15  1  0.63110000  0.43690000  0.67280000  1.0 -0.5008799802
O  O16  1  0.17960000  0.98360000  0.79610000  1.0 -0.0657002735
O  O17  1  0.06080000  0.82320000  0.88280000  1.0 -0.1453457992
O  O18  1  0.11970000  0.82230000  0.82940000  1.0 -0.0894150227
O  O19  1  0.47370000  0.44830000  0.68270000  1.0 -0.2002869775
O  O20  1  0.43690000  0.63110000  0.82720000  1.0 -0.5008799802
