# DDEC6 charges by PACMAN v1.1 (https://github.com/mtap-research/PACMAN-charge/)
data_EZEWEO_FSR_pacman
_symmetry_space_group_name_H-M   'P 1'
_cell_length_a   17.79510000
_cell_length_b   17.79510000
_cell_length_c   30.59700000
_cell_angle_alpha   80.81940000
_cell_angle_beta   99.18060000
_cell_angle_gamma   132.05200000
_symmetry_Int_Tables_number   1
_chemical_formula_structural   Zn4H50C59N12(Cl2O)4
_chemical_formula_sum   'Zn16 H200 C236 N48 Cl32 O16'
_cell_volume   7083.93145094
_cell_formula_units_Z   4
loop_
 _symmetry_equiv_pos_site_id
 _symmetry_equiv_pos_as_xyz
  1  'x, y, z'
loop_
 _atom_site_type_symbol
 _atom_site_label
 _atom_site_symmetry_multiplicity
 _atom_site_fract_x
 _atom_site_fract_y
 _atom_site_fract_z
 _atom_site_occupancy
 _atom_site_charge
Zn  Zn1  1  0.93503000  0.77709000  0.09606000  1.0 0.6100103274
Zn  Zn2  1  0.24791000  0.50167000  0.45316000  1.0 0.6181234732
Zn  Zn3  1  0.55261000  0.15291000  0.79046000  1.0 0.2924728557
Zn  Zn4  1  0.53120000  0.17882000  0.76955000  1.0 0.2578116447
Zn  Zn5  1  0.22291000  0.06497000  0.59606000  1.0 0.6100103274
Zn  Zn6  1  0.49833000  0.75209000  0.95316000  1.0 0.6181234732
Zn  Zn7  1  0.84709000  0.44739000  0.29046000  1.0 0.2924728557
Zn  Zn8  1  0.82118000  0.46880000  0.26955000  1.0 0.2578116447
Zn  Zn9  1  0.77709000  0.93503000  0.40394000  1.0 0.6100103274
Zn  Zn10  1  0.50167000  0.24791000  0.04684000  1.0 0.6181234732
Zn  Zn11  1  0.15291000  0.55261000  0.70954000  1.0 0.2924728557
Zn  Zn12  1  0.17882000  0.53120000  0.73045000  1.0 0.2578116447
Zn  Zn13  1  0.06497000  0.22291000  0.90394000  1.0 0.6100103274
Zn  Zn14  1  0.75209000  0.49833000  0.54684000  1.0 0.6181234732
Zn  Zn15  1  0.44739000  0.84709000  0.20954000  1.0 0.2924728557
Zn  Zn16  1  0.46880000  0.82118000  0.23045000  1.0 0.2578116447
H  H1  1  0.02919000  0.99483000  0.07677000  1.0 0.108579526
H  H2  1  0.15352000  0.13796000  0.03461000  1.0 0.1375458439
H  H3  1  0.02587000  0.81911000  0.01219000  1.0 0.108579526
H  H4  1  0.14688000  0.95626000  0.96665000  1.0 0.1375458439
H  H5  1  0.07946000  0.71396000  0.23370000  1.0 0.1196234757
H  H6  1  0.28739000  0.99185000  0.17355000  1.0 0.1375458439
H  H7  1  0.41432000  0.72446000  0.42893000  1.0 0.108579526
H  H8  1  0.13847000  0.52231000  0.37434000  1.0 0.108579526
H  H9  1  0.31747000  0.38957000  0.00577000  1.0 0.1375458439
H  H10  1  0.16002000  0.64396000  0.32261000  1.0 0.1196234757
H  H11  1  0.16627000  0.94779000  0.11615000  1.0 0.0990950902
H  H12  1  0.58642000  0.08570000  0.34076000  1.0 0.1288200815
H  H13  1  0.44688000  0.85130000  0.37733000  1.0 0.1288200815
H  H14  1  0.96270000  0.68202000  0.17593000  1.0 0.0803279562
H  H15  1  0.38048000  0.55178000  0.00849000  1.0 0.108579526
H  H16  1  0.49047000  0.16509000  0.22978000  1.0 0.1375458439
H  H17  1  0.36504000  0.07348000  0.91679000  1.0 0.1585008442
H  H18  1  0.74033000  0.25173000  0.34039000  1.0 0.0990950902
H  H19  1  0.64863000  0.32829000  0.23199000  1.0 0.0803279562
H  H20  1  0.47979000  0.48999000  0.90010000  1.0 0.1375458439
H  H21  1  0.44119000  0.05823000  0.87103000  1.0 0.1196234757
H  H22  1  0.44652000  0.32376000  0.84281000  1.0 0.1288200815
H  H23  1  0.53920000  0.65194000  0.90743000  1.0 0.108579526
H  H24  1  0.51336000  0.29500000  0.79554000  1.0 0.0803279562
H  H25  1  0.00517000  0.97081000  0.57677000  1.0 0.108579526
H  H26  1  0.86204000  0.84648000  0.53461000  1.0 0.1375458439
H  H27  1  0.18089000  0.97413000  0.51219000  1.0 0.108579526
H  H28  1  0.04374000  0.85312000  0.46665000  1.0 0.1375458439
H  H29  1  0.28604000  0.92054000  0.73370000  1.0 0.1196234757
H  H30  1  0.00815000  0.71261000  0.67355000  1.0 0.1375458439
H  H31  1  0.27554000  0.58568000  0.92893000  1.0 0.108579526
H  H32  1  0.47769000  0.86153000  0.87434000  1.0 0.108579526
H  H33  1  0.61043000  0.68253000  0.50577000  1.0 0.1375458439
H  H34  1  0.35604000  0.83998000  0.82261000  1.0 0.1196234757
H  H35  1  0.05221000  0.83373000  0.61615000  1.0 0.0990950902
H  H36  1  0.91430000  0.41358000  0.84076000  1.0 0.1288200815
H  H37  1  0.14870000  0.55312000  0.87733000  1.0 0.1288200815
H  H38  1  0.31798000  0.03730000  0.67593000  1.0 0.0803279562
H  H39  1  0.44822000  0.61952000  0.50849000  1.0 0.108579526
H  H40  1  0.83491000  0.50953000  0.72978000  1.0 0.1375458439
H  H41  1  0.92652000  0.63496000  0.41679000  1.0 0.1585008442
H  H42  1  0.74827000  0.25967000  0.84039000  1.0 0.0990950902
H  H43  1  0.67171000  0.35137000  0.73199000  1.0 0.0803279562
H  H44  1  0.51001000  0.52021000  0.40010000  1.0 0.1375458439
H  H45  1  0.94177000  0.55881000  0.37103000  1.0 0.1196234757
H  H46  1  0.67624000  0.55348000  0.34281000  1.0 0.1288200815
H  H47  1  0.34806000  0.46080000  0.40743000  1.0 0.108579526
H  H48  1  0.70500000  0.48664000  0.29554000  1.0 0.0803279562
H  H49  1  0.99483000  0.02919000  0.42323000  1.0 0.108579526
H  H50  1  0.13796000  0.15352000  0.46539000  1.0 0.1375458439
H  H51  1  0.81911000  0.02587000  0.48781000  1.0 0.108579526
H  H52  1  0.95626000  0.14688000  0.53335000  1.0 0.1375458439
H  H53  1  0.71396000  0.07946000  0.26630000  1.0 0.1196234757
H  H54  1  0.99185000  0.28739000  0.32645000  1.0 0.1375458439
H  H55  1  0.72446000  0.41432000  0.07107000  1.0 0.108579526
H  H56  1  0.52231000  0.13847000  0.12566000  1.0 0.108579526
H  H57  1  0.38957000  0.31747000  0.49423000  1.0 0.1375458439
H  H58  1  0.64396000  0.16002000  0.17739000  1.0 0.1196234757
H  H59  1  0.94779000  0.16627000  0.38385000  1.0 0.0990950902
H  H60  1  0.08570000  0.58642000  0.15924000  1.0 0.1288200815
H  H61  1  0.85130000  0.44688000  0.12267000  1.0 0.1288200815
H  H62  1  0.68202000  0.96270000  0.32407000  1.0 0.0803279562
H  H63  1  0.55178000  0.38048000  0.49151000  1.0 0.108579526
H  H64  1  0.16509000  0.49047000  0.27022000  1.0 0.1375458439
H  H65  1  0.07348000  0.36504000  0.58321000  1.0 0.1585008442
H  H66  1  0.25173000  0.74033000  0.15961000  1.0 0.0990950902
H  H67  1  0.32829000  0.64863000  0.26801000  1.0 0.0803279562
H  H68  1  0.48999000  0.47979000  0.59990000  1.0 0.1375458439
H  H69  1  0.05823000  0.44119000  0.62897000  1.0 0.1196234757
H  H70  1  0.32376000  0.44652000  0.65719000  1.0 0.1288200815
H  H71  1  0.65194000  0.53920000  0.59257000  1.0 0.108579526
H  H72  1  0.29500000  0.51336000  0.70446000  1.0 0.0803279562
H  H73  1  0.97081000  0.00517000  0.92323000  1.0 0.108579526
H  H74  1  0.84648000  0.86204000  0.96539000  1.0 0.1375458439
H  H75  1  0.97413000  0.18089000  0.98781000  1.0 0.108579526
H  H76  1  0.85312000  0.04374000  0.03335000  1.0 0.1375458439
H  H77  1  0.92054000  0.28604000  0.76630000  1.0 0.1196234757
H  H78  1  0.71261000  0.00815000  0.82645000  1.0 0.1375458439
H  H79  1  0.58568000  0.27554000  0.57107000  1.0 0.108579526
H  H80  1  0.86153000  0.47769000  0.62566000  1.0 0.108579526
H  H81  1  0.68253000  0.61043000  0.99423000  1.0 0.1375458439
H  H82  1  0.83998000  0.35604000  0.67739000  1.0 0.1196234757
H  H83  1  0.83373000  0.05221000  0.88385000  1.0 0.0990950902
H  H84  1  0.41358000  0.91430000  0.65924000  1.0 0.1288200815
H  H85  1  0.55312000  0.14870000  0.62267000  1.0 0.1288200815
H  H86  1  0.03730000  0.31798000  0.82407000  1.0 0.0803279562
H  H87  1  0.61952000  0.44822000  0.99151000  1.0 0.108579526
H  H88  1  0.50953000  0.83491000  0.77022000  1.0 0.1375458439
H  H89  1  0.63496000  0.92652000  0.08321000  1.0 0.1585008442
H  H90  1  0.25967000  0.74827000  0.65961000  1.0 0.0990950902
H  H91  1  0.35137000  0.67171000  0.76801000  1.0 0.0803279562
H  H92  1  0.52021000  0.51001000  0.09990000  1.0 0.1375458439
H  H93  1  0.55881000  0.94177000  0.12897000  1.0 0.1196234757
H  H94  1  0.55348000  0.67624000  0.15719000  1.0 0.1288200815
H  H95  1  0.46080000  0.34806000  0.09257000  1.0 0.108579526
H  H96  1  0.48664000  0.70500000  0.20446000  1.0 0.0803279562
H  H97  1  0.07669000  0.71471000  0.05882000  1.0 0.0686325136
H  H98  1  0.21002000  0.59536000  0.07487000  1.0 0.1375458439
H  H99  1  0.36974000  0.75898000  0.07207000  1.0 0.1585008442
H  H100  1  0.23642000  0.87834000  0.05602000  1.0 0.1196234757
H  H101  1  0.96520000  0.56966000  0.02613000  1.0 0.1196234757
H  H102  1  0.47962000  0.97534000  0.04305000  1.0 0.0990950902
H  H103  1  0.56227000  0.07157000  0.01181000  1.0 0.042676278
H  H104  1  0.52924000  0.08670000  0.05299000  1.0 0.0885187129
H  H105  1  0.68816000  0.23942000  0.03283000  1.0 0.1196234757
H  H106  1  0.93571000  0.25815000  0.12550000  1.0 0.1375458439
H  H107  1  0.77212000  0.10094000  0.11540000  1.0 0.1375458439
H  H108  1  0.48737000  0.02481000  0.00870000  1.0 0.0013090941
H  H109  1  0.36770000  0.96058000  0.00125000  1.0 0.042676278
H  H110  1  0.41268000  0.90890000  0.99697000  1.0 0.0686325136
H  H111  1  0.40701000  0.99047000  0.03807000  1.0 0.0990950902
H  H112  1  0.40203000  0.89613000  0.04242000  1.0 0.0885187129
H  H113  1  0.37452000  0.93096000  0.96725000  1.0 0.0990950902
H  H114  1  0.28510000  0.92398000  0.97823000  1.0 0.0686325136
H  H115  1  0.27914000  0.76090000  0.97871000  1.0 0.108579526
H  H116  1  0.20941000  0.77755000  0.94784000  1.0 0.0327145286
H  H117  1  0.10278000  0.71224000  0.99851000  1.0 0.0803279562
H  H118  1  0.13744000  0.64834000  0.01136000  1.0 0.0990950902
H  H119  1  0.20873000  0.71145000  0.07464000  1.0 0.0686325136
H  H120  1  0.13075000  0.72891000  0.06888000  1.0 0.0803279562
H  H121  1  0.24788000  0.89218000  0.06044000  1.0 0.108579526
H  H122  1  0.30400000  0.86380000  0.09508000  1.0 0.0686325136
H  H123  1  0.92331000  0.28529000  0.94118000  1.0 0.0686325136
H  H124  1  0.78998000  0.40464000  0.92513000  1.0 0.1375458439
H  H125  1  0.63026000  0.24102000  0.92793000  1.0 0.1585008442
H  H126  1  0.76358000  0.12166000  0.94398000  1.0 0.1196234757
H  H127  1  0.03480000  0.43034000  0.97387000  1.0 0.1196234757
H  H128  1  0.52038000  0.02466000  0.95695000  1.0 0.0990950902
H  H129  1  0.43773000  0.92843000  0.98819000  1.0 0.042676278
H  H130  1  0.47076000  0.91330000  0.94701000  1.0 0.0885187129
H  H131  1  0.31184000  0.76058000  0.96717000  1.0 0.1196234757
H  H132  1  0.06429000  0.74185000  0.87450000  1.0 0.1375458439
H  H133  1  0.22788000  0.89906000  0.88460000  1.0 0.1375458439
H  H134  1  0.51263000  0.97519000  0.99130000  1.0 0.0013090941
H  H135  1  0.63230000  0.03942000  0.99875000  1.0 0.042676278
H  H136  1  0.58732000  0.09110000  0.00303000  1.0 0.0686325136
H  H137  1  0.59299000  0.00953000  0.96193000  1.0 0.0990950902
H  H138  1  0.59797000  0.10387000  0.95758000  1.0 0.0885187129
H  H139  1  0.62548000  0.06904000  0.03275000  1.0 0.0990950902
H  H140  1  0.71490000  0.07602000  0.02177000  1.0 0.0686325136
H  H141  1  0.72086000  0.23910000  0.02129000  1.0 0.108579526
H  H142  1  0.79059000  0.22245000  0.05216000  1.0 0.0327145286
H  H143  1  0.89722000  0.28776000  0.00149000  1.0 0.0803279562
H  H144  1  0.86256000  0.35166000  0.98864000  1.0 0.0990950902
H  H145  1  0.79127000  0.28855000  0.92536000  1.0 0.0686325136
H  H146  1  0.86925000  0.27109000  0.93112000  1.0 0.0803279562
H  H147  1  0.75212000  0.10782000  0.93956000  1.0 0.108579526
H  H148  1  0.69600000  0.13620000  0.90492000  1.0 0.0686325136
H  H149  1  0.71471000  0.07669000  0.44118000  1.0 0.0686325136
H  H150  1  0.59536000  0.21002000  0.42513000  1.0 0.1375458439
H  H151  1  0.75898000  0.36974000  0.42793000  1.0 0.1585008442
H  H152  1  0.87834000  0.23642000  0.44398000  1.0 0.1196234757
H  H153  1  0.56966000  0.96520000  0.47387000  1.0 0.1196234757
H  H154  1  0.97534000  0.47962000  0.45695000  1.0 0.0990950902
H  H155  1  0.07157000  0.56227000  0.48819000  1.0 0.042676278
H  H156  1  0.08670000  0.52924000  0.44701000  1.0 0.0885187129
H  H157  1  0.23942000  0.68816000  0.46717000  1.0 0.1196234757
H  H158  1  0.25815000  0.93571000  0.37450000  1.0 0.1375458439
H  H159  1  0.10094000  0.77212000  0.38460000  1.0 0.1375458439
H  H160  1  0.02481000  0.48737000  0.49130000  1.0 0.0013090941
H  H161  1  0.96058000  0.36770000  0.49875000  1.0 0.042676278
H  H162  1  0.90890000  0.41268000  0.50303000  1.0 0.0686325136
H  H163  1  0.99047000  0.40701000  0.46193000  1.0 0.0990950902
H  H164  1  0.89613000  0.40203000  0.45758000  1.0 0.0885187129
H  H165  1  0.93096000  0.37452000  0.53275000  1.0 0.0990950902
H  H166  1  0.92398000  0.28510000  0.52177000  1.0 0.0686325136
H  H167  1  0.76090000  0.27914000  0.52129000  1.0 0.108579526
H  H168  1  0.77755000  0.20941000  0.55216000  1.0 0.0327145286
H  H169  1  0.71224000  0.10278000  0.50149000  1.0 0.0803279562
H  H170  1  0.64834000  0.13744000  0.48864000  1.0 0.0990950902
H  H171  1  0.71145000  0.20873000  0.42536000  1.0 0.0686325136
H  H172  1  0.72891000  0.13075000  0.43112000  1.0 0.0803279562
H  H173  1  0.89218000  0.24788000  0.43956000  1.0 0.108579526
H  H174  1  0.86380000  0.30400000  0.40492000  1.0 0.0686325136
H  H175  1  0.28529000  0.92331000  0.55882000  1.0 0.0686325136
H  H176  1  0.40464000  0.78998000  0.57487000  1.0 0.1375458439
H  H177  1  0.24102000  0.63026000  0.57207000  1.0 0.1585008442
H  H178  1  0.12166000  0.76358000  0.55602000  1.0 0.1196234757
H  H179  1  0.43034000  0.03480000  0.52613000  1.0 0.1196234757
H  H180  1  0.02466000  0.52038000  0.54305000  1.0 0.0990950902
H  H181  1  0.92843000  0.43773000  0.51181000  1.0 0.042676278
H  H182  1  0.91330000  0.47076000  0.55299000  1.0 0.0885187129
H  H183  1  0.76058000  0.31184000  0.53283000  1.0 0.1196234757
H  H184  1  0.74185000  0.06429000  0.62550000  1.0 0.1288200815
H  H185  1  0.89906000  0.22788000  0.61540000  1.0 0.1375458439
H  H186  1  0.97519000  0.51263000  0.50870000  1.0 0.0013090941
H  H187  1  0.03942000  0.63230000  0.50125000  1.0 0.042676278
H  H188  1  0.09110000  0.58732000  0.49697000  1.0 0.0686325136
H  H189  1  0.00953000  0.59299000  0.53807000  1.0 0.0990950902
H  H190  1  0.10387000  0.59797000  0.54242000  1.0 0.0885187129
H  H191  1  0.06904000  0.62548000  0.46725000  1.0 0.0990950902
H  H192  1  0.07602000  0.71490000  0.47823000  1.0 0.0686325136
H  H193  1  0.23910000  0.72086000  0.47871000  1.0 0.108579526
H  H194  1  0.22245000  0.79059000  0.44784000  1.0 0.0327145286
H  H195  1  0.28776000  0.89722000  0.49851000  1.0 0.0803279562
H  H196  1  0.35166000  0.86256000  0.51136000  1.0 0.0990950902
H  H197  1  0.28855000  0.79127000  0.57464000  1.0 0.0686325136
H  H198  1  0.27109000  0.86925000  0.56888000  1.0 0.0803279562
H  H199  1  0.10782000  0.75212000  0.56044000  1.0 0.108579526
H  H200  1  0.13620000  0.69600000  0.59508000  1.0 0.0686325136
C  C1  1  0.24785000  0.15155000  0.97014000  1.0 0.3694446847
C  C2  1  0.16566000  0.06274000  0.99691000  1.0 0.0598169611
C  C3  1  0.27147000  0.88593000  0.24928000  1.0 0.3600908197
C  C4  1  0.35272000  0.31888000  0.94900000  1.0 0.3694446847
C  C5  1  0.42215000  0.00305000  0.28483000  1.0 0.3600908197
C  C6  1  0.05539000  0.98781000  0.05453000  1.0 0.0598169611
C  C7  1  0.12880000  0.07320000  0.02950000  1.0 -0.1308934044
C  C8  1  0.39106000  0.42194000  0.95298000  1.0 0.0686325136
C  C9  1  0.52067000  0.10933000  0.28573000  1.0 0.0686325136
C  C10  1  0.19546000  0.85914000  0.21129000  1.0 0.0686325136
C  C11  1  0.32327000  0.84053000  0.31084000  1.0 0.3466084391
C  C12  1  0.05268000  0.88492000  0.01679000  1.0 0.042676278
C  C13  1  0.12506000  0.96614000  0.98979000  1.0 -0.1785973732
C  C14  1  0.30574000  0.76166000  0.34421000  1.0 0.0598169611
C  C15  1  0.09845000  0.76495000  0.21048000  1.0 -0.1785973732
C  C16  1  0.35557000  0.21563000  0.91753000  1.0 0.3694446847
C  C17  1  0.22070000  0.92750000  0.17504000  1.0 -0.1598288663
C  C18  1  0.39872000  0.20148000  0.88606000  1.0 0.0803279562
C  C19  1  0.36271000  0.70829000  0.40658000  1.0 0.0803279562
C  C20  1  0.20137000  0.59023000  0.37505000  1.0 0.0532994099
C  C21  1  0.36264000  0.44176000  0.98459000  1.0 -0.1398524087
C  C22  1  0.21384000  0.66216000  0.34402000  1.0 -0.1785973732
C  C23  1  0.14776000  0.90084000  0.14122000  1.0 0.0686325136
C  C24  1  0.59708000  0.13512000  0.31842000  1.0 -0.1713943913
C  C25  1  0.38249000  0.78451000  0.37640000  1.0 -0.1713943913
C  C26  1  0.02983000  0.74617000  0.17560000  1.0 0.0686325136
C  C27  1  0.40001000  0.53859000  0.98567000  1.0 0.0686325136
C  C28  1  0.54040000  0.18120000  0.25311000  1.0 -0.1308934044
C  C29  1  0.39753000  0.12207000  0.89240000  1.0 -0.1785973732
C  C30  1  0.68844000  0.23356000  0.31780000  1.0 0.0242277008
C  C31  1  0.63470000  0.27810000  0.25470000  1.0 0.0532994099
C  C32  1  0.45780000  0.50080000  0.92280000  1.0 -0.1529479459
C  C33  1  0.44120000  0.11220000  0.86470000  1.0 -0.0275462616
C  C34  1  0.44360000  0.26780000  0.84900000  1.0 -0.1308934044
C  C35  1  0.49180000  0.59700000  0.92720000  1.0 0.0885187129
C  C36  1  0.48410000  0.25050000  0.82140000  1.0 0.0532994099
C  C37  1  0.84845000  0.75215000  0.47014000  1.0 0.3694446847
C  C38  1  0.93726000  0.83434000  0.49691000  1.0 0.0598169611
C  C39  1  0.11407000  0.72853000  0.74928000  1.0 0.3600908197
C  C40  1  0.68112000  0.64728000  0.44900000  1.0 0.3694446847
C  C41  1  0.99695000  0.57785000  0.78483000  1.0 0.3600908197
C  C42  1  0.01219000  0.94461000  0.55453000  1.0 0.0598169611
C  C43  1  0.92680000  0.87120000  0.52950000  1.0 -0.1308934044
C  C44  1  0.57806000  0.60894000  0.45298000  1.0 0.0686325136
C  C45  1  0.89067000  0.47933000  0.78573000  1.0 0.0686325136
C  C46  1  0.14086000  0.80454000  0.71129000  1.0 0.0686325136
C  C47  1  0.15947000  0.67673000  0.81084000  1.0 0.3466084391
C  C48  1  0.11508000  0.94732000  0.51679000  1.0 0.042676278
C  C49  1  0.03386000  0.87494000  0.48979000  1.0 -0.1785973732
C  C50  1  0.23834000  0.69426000  0.84421000  1.0 0.0598169611
C  C51  1  0.23505000  0.90155000  0.71048000  1.0 -0.1785973732
C  C52  1  0.78437000  0.64443000  0.41753000  1.0 0.3694446847
C  C53  1  0.07250000  0.77930000  0.67504000  1.0 -0.1598288663
C  C54  1  0.79852000  0.60128000  0.38606000  1.0 0.0803279562
C  C55  1  0.29171000  0.63729000  0.90658000  1.0 0.0803279562
C  C56  1  0.40977000  0.79863000  0.87505000  1.0 0.0532994099
C  C57  1  0.55824000  0.63736000  0.48459000  1.0 -0.1398524087
C  C58  1  0.33784000  0.78616000  0.84402000  1.0 -0.1785973732
C  C59  1  0.09916000  0.85224000  0.64122000  1.0 0.0686325136
C  C60  1  0.86488000  0.40292000  0.81842000  1.0 -0.1713943913
C  C61  1  0.21549000  0.61751000  0.87640000  1.0 -0.1713943913
C  C62  1  0.25383000  0.97017000  0.67560000  1.0 0.0686325136
C  C63  1  0.46141000  0.59999000  0.48567000  1.0 0.0686325136
C  C64  1  0.81880000  0.45960000  0.75311000  1.0 -0.1249339491
C  C65  1  0.87793000  0.60247000  0.39240000  1.0 -0.1785973732
C  C66  1  0.76644000  0.31156000  0.81780000  1.0 0.0242277008
C  C67  1  0.72190000  0.36530000  0.75470000  1.0 0.0532994099
C  C68  1  0.49920000  0.54220000  0.42280000  1.0 -0.1529479459
C  C69  1  0.88780000  0.55880000  0.36470000  1.0 -0.0275462616
C  C70  1  0.73220000  0.55640000  0.34900000  1.0 -0.1308934044
C  C71  1  0.40300000  0.50820000  0.42720000  1.0 0.0885187129
C  C72  1  0.74950000  0.51590000  0.32140000  1.0 0.0532994099
C  C73  1  0.15155000  0.24785000  0.52986000  1.0 0.3694446847
C  C74  1  0.06274000  0.16566000  0.50309000  1.0 0.0598169611
C  C75  1  0.88593000  0.27147000  0.25072000  1.0 0.3600908197
C  C76  1  0.31888000  0.35272000  0.55100000  1.0 0.3694446847
C  C77  1  0.00305000  0.42215000  0.21517000  1.0 0.3600908197
C  C78  1  0.98781000  0.05539000  0.44547000  1.0 0.0598169611
C  C79  1  0.07320000  0.12880000  0.47050000  1.0 -0.1308934044
C  C80  1  0.42194000  0.39106000  0.54702000  1.0 0.0686325136
C  C81  1  0.10933000  0.52067000  0.21427000  1.0 0.0686325136
C  C82  1  0.85914000  0.19546000  0.28871000  1.0 0.0686325136
C  C83  1  0.84053000  0.32327000  0.18916000  1.0 0.3466084391
C  C84  1  0.88492000  0.05268000  0.48321000  1.0 0.042676278
C  C85  1  0.96614000  0.12506000  0.51021000  1.0 -0.1785973732
C  C86  1  0.76166000  0.30574000  0.15579000  1.0 0.0598169611
C  C87  1  0.76495000  0.09845000  0.28952000  1.0 -0.1785973732
C  C88  1  0.21563000  0.35557000  0.58247000  1.0 0.3694446847
C  C89  1  0.92750000  0.22070000  0.32496000  1.0 -0.1598288663
C  C90  1  0.20148000  0.39872000  0.61394000  1.0 0.0803279562
C  C91  1  0.70829000  0.36271000  0.09342000  1.0 0.0803279562
C  C92  1  0.59023000  0.20137000  0.12495000  1.0 0.0532994099
C  C93  1  0.44176000  0.36264000  0.51541000  1.0 -0.1398524087
C  C94  1  0.66216000  0.21384000  0.15598000  1.0 -0.1785973732
C  C95  1  0.90084000  0.14776000  0.35878000  1.0 0.0686325136
C  C96  1  0.13512000  0.59708000  0.18158000  1.0 -0.1713943913
C  C97  1  0.78451000  0.38249000  0.12360000  1.0 -0.1713943913
C  C98  1  0.74617000  0.02983000  0.32440000  1.0 0.0686325136
C  C99  1  0.53859000  0.40001000  0.51433000  1.0 0.0686325136
C  C100  1  0.18120000  0.54040000  0.24689000  1.0 -0.1249339491
C  C101  1  0.12207000  0.39753000  0.60760000  1.0 -0.1785973732
C  C102  1  0.23356000  0.68844000  0.18220000  1.0 0.0242277008
C  C103  1  0.27810000  0.63470000  0.24530000  1.0 0.0532994099
C  C104  1  0.50080000  0.45780000  0.57720000  1.0 -0.1529479459
C  C105  1  0.11220000  0.44120000  0.63530000  1.0 -0.0275462616
C  C106  1  0.26780000  0.44360000  0.65100000  1.0 -0.1308934044
C  C107  1  0.59700000  0.49180000  0.57280000  1.0 0.0885187129
C  C108  1  0.25050000  0.48410000  0.67860000  1.0 0.0532994099
C  C109  1  0.75215000  0.84845000  0.02986000  1.0 0.3694446847
C  C110  1  0.83434000  0.93726000  0.00309000  1.0 0.0598169611
C  C111  1  0.72853000  0.11407000  0.75072000  1.0 0.3600908197
C  C112  1  0.64728000  0.68112000  0.05100000  1.0 0.3694446847
C  C113  1  0.57785000  0.99695000  0.71517000  1.0 0.3600908197
C  C114  1  0.94461000  0.01219000  0.94547000  1.0 0.0598169611
C  C115  1  0.87120000  0.92680000  0.97050000  1.0 -0.1308934044
C  C116  1  0.60894000  0.57806000  0.04702000  1.0 0.0686325136
C  C117  1  0.47933000  0.89067000  0.71427000  1.0 0.0686325136
C  C118  1  0.80454000  0.14086000  0.78871000  1.0 0.0686325136
C  C119  1  0.67673000  0.15947000  0.68916000  1.0 0.3466084391
C  C120  1  0.94732000  0.11508000  0.98321000  1.0 0.042676278
C  C121  1  0.87494000  0.03386000  0.01021000  1.0 -0.1785973732
C  C122  1  0.69426000  0.23834000  0.65579000  1.0 0.0598169611
C  C123  1  0.90155000  0.23505000  0.78952000  1.0 -0.1785973732
C  C124  1  0.64443000  0.78437000  0.08247000  1.0 0.3694446847
C  C125  1  0.77930000  0.07250000  0.82496000  1.0 -0.1598288663
C  C126  1  0.60128000  0.79852000  0.11394000  1.0 0.0803279562
C  C127  1  0.63729000  0.29171000  0.59342000  1.0 0.0803279562
C  C128  1  0.79863000  0.40977000  0.62495000  1.0 0.0532994099
C  C129  1  0.63736000  0.55824000  0.01541000  1.0 -0.1398524087
C  C130  1  0.78616000  0.33784000  0.65598000  1.0 -0.1785973732
C  C131  1  0.85224000  0.09916000  0.85878000  1.0 0.0686325136
C  C132  1  0.40292000  0.86488000  0.68158000  1.0 -0.1713943913
C  C133  1  0.61751000  0.21549000  0.62360000  1.0 -0.1713943913
C  C134  1  0.97017000  0.25383000  0.82440000  1.0 0.0686325136
C  C135  1  0.59999000  0.46141000  0.01433000  1.0 0.0686325136
C  C136  1  0.45960000  0.81880000  0.74689000  1.0 -0.1249339491
C  C137  1  0.60247000  0.87793000  0.10760000  1.0 -0.1785973732
C  C138  1  0.31156000  0.76644000  0.68220000  1.0 0.0242277008
C  C139  1  0.36530000  0.72190000  0.74530000  1.0 0.0532994099
C  C140  1  0.54220000  0.49920000  0.07720000  1.0 -0.1529479459
C  C141  1  0.55880000  0.88780000  0.13530000  1.0 -0.0275462616
C  C142  1  0.55640000  0.73220000  0.15100000  1.0 -0.1308934044
C  C143  1  0.50820000  0.40300000  0.07280000  1.0 0.0885187129
C  C144  1  0.51590000  0.74950000  0.17860000  1.0 0.0532994099
C  C145  1  0.13610000  0.72370000  0.06150000  1.0 -0.0220735723
C  C146  1  0.12830000  0.63970000  0.06710000  1.0 0.010246103
C  C147  1  0.21540000  0.65280000  0.07100000  1.0 -0.1598288663
C  C148  1  0.31020000  0.75000000  0.06940000  1.0 -0.2202979684
C  C149  1  0.31810000  0.83410000  0.06380000  1.0 0.0598169611
C  C150  1  0.23110000  0.82090000  0.05980000  1.0 -0.101705585
C  C151  1  0.02530000  0.52930000  0.06670000  1.0 -0.1785973732
C  C152  1  0.54130000  0.04670000  0.04230000  1.0 -0.1785973732
C  C153  1  0.95070000  0.51130000  0.04200000  1.0 0.0013090941
C  C154  1  0.02000000  0.44460000  0.09310000  1.0 0.3957762137
C  C155  1  0.73840000  0.24320000  0.05160000  1.0 -0.1785973732
C  C156  1  0.83560000  0.33660000  0.05760000  1.0 0.1196234757
C  C157  1  0.90910000  0.34210000  0.08520000  1.0 -0.0740704646
C  C158  1  0.88550000  0.25430000  0.10670000  1.0 -0.0940775111
C  C159  1  0.78830000  0.16090000  0.10070000  1.0 -0.207898634
C  C160  1  0.71480000  0.15540000  0.07320000  1.0 0.1375458439
C  C161  1  0.42040000  0.95760000  0.01290000  1.0 -0.1308934044
C  C162  1  0.36180000  0.91700000  0.03440000  1.0 0.0598169611
C  C163  1  0.31840000  0.89560000  0.98670000  1.0 -0.1598288663
C  C164  1  0.24270000  0.78530000  0.97810000  1.0 -0.0778758752
C  C165  1  0.16100000  0.71720000  0.01020000  1.0 -0.18853947
C  C166  1  0.19160000  0.75040000  0.05670000  1.0 0.010246103
C  C167  1  0.27570000  0.85830000  0.06390000  1.0 -0.0778758752
C  C168  1  0.86390000  0.27630000  0.93850000  1.0 -0.0220735723
C  C169  1  0.87170000  0.36030000  0.93290000  1.0 0.010246103
C  C170  1  0.78460000  0.34720000  0.92900000  1.0 -0.1598288663
C  C171  1  0.68980000  0.25000000  0.93060000  1.0 -0.2202979684
C  C172  1  0.68190000  0.16590000  0.93620000  1.0 0.0598169611
C  C173  1  0.76890000  0.17910000  0.94020000  1.0 -0.101705585
C  C174  1  0.97470000  0.47070000  0.93330000  1.0 -0.1785973732
C  C175  1  0.45870000  0.95330000  0.95770000  1.0 -0.1785973732
C  C176  1  0.04930000  0.48870000  0.95800000  1.0 0.0013090941
C  C177  1  0.98000000  0.55540000  0.90690000  1.0 0.3957762137
C  C178  1  0.26160000  0.75680000  0.94840000  1.0 -0.1785973732
C  C179  1  0.16440000  0.66340000  0.94240000  1.0 0.1196234757
C  C180  1  0.09090000  0.65790000  0.91480000  1.0 -0.0778758752
C  C181  1  0.11450000  0.74570000  0.89330000  1.0 -0.0940775111
C  C182  1  0.21170000  0.83910000  0.89930000  1.0 -0.207898634
C  C183  1  0.28520000  0.84460000  0.92680000  1.0 0.1375458439
C  C184  1  0.57960000  0.04240000  0.98710000  1.0 -0.1308934044
C  C185  1  0.63820000  0.08300000  0.96560000  1.0 0.0598169611
C  C186  1  0.68160000  0.10440000  0.01330000  1.0 -0.1598288663
C  C187  1  0.75730000  0.21470000  0.02190000  1.0 -0.0778758752
C  C188  1  0.83900000  0.28280000  0.98980000  1.0 -0.18853947
C  C189  1  0.80840000  0.24960000  0.94330000  1.0 0.010246103
C  C190  1  0.72430000  0.14170000  0.93610000  1.0 -0.0740704646
C  C191  1  0.72370000  0.13610000  0.43850000  1.0 -0.0220735723
C  C192  1  0.63970000  0.12830000  0.43290000  1.0 0.010246103
C  C193  1  0.65280000  0.21540000  0.42900000  1.0 -0.1598288663
C  C194  1  0.75000000  0.31020000  0.43060000  1.0 -0.2202979684
C  C195  1  0.83410000  0.31810000  0.43620000  1.0 0.0598169611
C  C196  1  0.82090000  0.23110000  0.44020000  1.0 -0.101705585
C  C197  1  0.52930000  0.02530000  0.43330000  1.0 -0.1785973732
C  C198  1  0.04670000  0.54130000  0.45770000  1.0 -0.1785973732
C  C199  1  0.51130000  0.95070000  0.45800000  1.0 -8.77584e-05
C  C200  1  0.44460000  0.02000000  0.40690000  1.0 0.3957762137
C  C201  1  0.24320000  0.73840000  0.44840000  1.0 -0.1785973732
C  C202  1  0.33660000  0.83560000  0.44240000  1.0 0.1196234757
C  C203  1  0.34210000  0.90910000  0.41480000  1.0 -0.0778758752
C  C204  1  0.25430000  0.88550000  0.39330000  1.0 -0.0940775111
C  C205  1  0.16090000  0.78830000  0.39930000  1.0 -0.207898634
C  C206  1  0.15540000  0.71480000  0.42680000  1.0 0.1375458439
C  C207  1  0.95760000  0.42040000  0.48710000  1.0 -0.1308934044
C  C208  1  0.91700000  0.36180000  0.46560000  1.0 0.0598169611
C  C209  1  0.89560000  0.31840000  0.51330000  1.0 -0.1598288663
C  C210  1  0.78530000  0.24270000  0.52190000  1.0 -0.0778758752
C  C211  1  0.71720000  0.16100000  0.48980000  1.0 -0.18853947
C  C212  1  0.75040000  0.19160000  0.44330000  1.0 0.010246103
C  C213  1  0.85830000  0.27570000  0.43610000  1.0 -0.0778758752
C  C214  1  0.27630000  0.86390000  0.56150000  1.0 -0.0220735723
C  C215  1  0.36030000  0.87170000  0.56710000  1.0 0.010246103
C  C216  1  0.34720000  0.78460000  0.57100000  1.0 -0.1598288663
C  C217  1  0.25000000  0.68980000  0.56940000  1.0 -0.2202979684
C  C218  1  0.16590000  0.68190000  0.56380000  1.0 0.0598169611
C  C219  1  0.17910000  0.76890000  0.55980000  1.0 -0.101705585
C  C220  1  0.47070000  0.97470000  0.56670000  1.0 -0.1785973732
C  C221  1  0.95330000  0.45870000  0.54230000  1.0 -0.1785973732
C  C222  1  0.48870000  0.04930000  0.54200000  1.0 0.0013090941
C  C223  1  0.55540000  0.98000000  0.59310000  1.0 0.3957762137
C  C224  1  0.75680000  0.26160000  0.55160000  1.0 -0.1785973732
C  C225  1  0.66340000  0.16440000  0.55760000  1.0 0.1196234757
C  C226  1  0.65790000  0.09090000  0.58520000  1.0 -0.0740704646
C  C227  1  0.74570000  0.11450000  0.60670000  1.0 -0.0940775111
C  C228  1  0.83910000  0.21170000  0.60070000  1.0 -0.207898634
C  C229  1  0.84460000  0.28520000  0.57320000  1.0 0.1375458439
C  C230  1  0.04240000  0.57960000  0.51290000  1.0 -0.1308934044
C  C231  1  0.08300000  0.63820000  0.53440000  1.0 0.0598169611
C  C232  1  0.10440000  0.68160000  0.48670000  1.0 -0.1598288663
C  C233  1  0.21470000  0.75730000  0.47810000  1.0 -0.0778758752
C  C234  1  0.28280000  0.83900000  0.51020000  1.0 -0.18853947
C  C235  1  0.24960000  0.80840000  0.55670000  1.0 0.010246103
C  C236  1  0.14170000  0.72430000  0.56390000  1.0 -0.0778758752
N  N1  1  0.01919000  0.89541000  0.04897000  1.0 -0.207898634
N  N2  1  0.28172000  0.24348000  0.97614000  1.0 -0.3996638492
N  N3  1  0.25208000  0.81070000  0.27750000  1.0 -0.4124227747
N  N4  1  0.35430000  0.98384000  0.25119000  1.0 -0.417455437
N  N5  1  0.40975000  0.93559000  0.31567000  1.0 -0.417455437
N  N6  1  0.28308000  0.13452000  0.94157000  1.0 -0.3996638492
N  N7  1  0.39203000  0.31017000  0.91965000  1.0 -0.3945020199
N  N8  1  0.27412000  0.61188000  0.40623000  1.0 -0.2202979684
N  N9  1  0.05256000  0.81284000  0.14162000  1.0 -0.207898634
N  N10  1  0.46145000  0.61435000  0.95685000  1.0 -0.207898634
N  N11  1  0.70607000  0.30353000  0.28671000  1.0 -0.1713943913
N  N12  1  0.48480000  0.17460000  0.82880000  1.0 -0.18853947
N  N13  1  0.10459000  0.98081000  0.54897000  1.0 -0.207898634
N  N14  1  0.75652000  0.71828000  0.47614000  1.0 -0.3996638492
N  N15  1  0.18930000  0.74792000  0.77750000  1.0 -0.4124227747
N  N16  1  0.01616000  0.64570000  0.75119000  1.0 -0.417455437
N  N17  1  0.06441000  0.59025000  0.81567000  1.0 -0.417455437
N  N18  1  0.86548000  0.71692000  0.44157000  1.0 -0.3996638492
N  N19  1  0.68983000  0.60797000  0.41965000  1.0 -0.3945020199
N  N20  1  0.38812000  0.72588000  0.90623000  1.0 -0.2202979684
N  N21  1  0.18716000  0.94744000  0.64162000  1.0 -0.207898634
N  N22  1  0.38565000  0.53855000  0.45685000  1.0 -0.207898634
N  N23  1  0.69647000  0.29393000  0.78671000  1.0 -0.1713943913
N  N24  1  0.82540000  0.51520000  0.32880000  1.0 -0.18853947
N  N25  1  0.89541000  0.01919000  0.45103000  1.0 -0.207898634
N  N26  1  0.24348000  0.28172000  0.52386000  1.0 -0.3996638492
N  N27  1  0.81070000  0.25208000  0.22250000  1.0 -0.4124227747
N  N28  1  0.98384000  0.35430000  0.24881000  1.0 -0.417455437
N  N29  1  0.93559000  0.40975000  0.18433000  1.0 -0.417455437
N  N30  1  0.13452000  0.28308000  0.55843000  1.0 -0.3996638492
N  N31  1  0.31017000  0.39203000  0.58035000  1.0 -0.3945020199
N  N32  1  0.61188000  0.27412000  0.09377000  1.0 -0.2202979684
N  N33  1  0.81284000  0.05256000  0.35838000  1.0 -0.207898634
N  N34  1  0.61435000  0.46145000  0.54315000  1.0 -0.207898634
N  N35  1  0.30353000  0.70607000  0.21329000  1.0 -0.1713943913
N  N36  1  0.17460000  0.48480000  0.67120000  1.0 -0.18853947
N  N37  1  0.98081000  0.10459000  0.95103000  1.0 -0.207898634
N  N38  1  0.71828000  0.75652000  0.02386000  1.0 -0.3996638492
N  N39  1  0.74792000  0.18930000  0.72250000  1.0 -0.4124227747
N  N40  1  0.64570000  0.01616000  0.74881000  1.0 -0.417455437
N  N41  1  0.59025000  0.06441000  0.68433000  1.0 -0.417455437
N  N42  1  0.71692000  0.86548000  0.05843000  1.0 -0.3996638492
N  N43  1  0.60797000  0.68983000  0.08035000  1.0 -0.3945020199
N  N44  1  0.72588000  0.38812000  0.59377000  1.0 -0.2202979684
N  N45  1  0.94744000  0.18716000  0.85838000  1.0 -0.207898634
N  N46  1  0.53855000  0.38565000  0.04315000  1.0 -0.207898634
N  N47  1  0.29393000  0.69647000  0.71329000  1.0 -0.1713943913
N  N48  1  0.51520000  0.82540000  0.17120000  1.0 -0.18853947
Cl  Cl1  1  0.86749000  0.63539000  0.06804000  1.0 -0.5399662838
Cl  Cl2  1  0.85459000  0.80693000  0.12736000  1.0 -0.4855307922
Cl  Cl3  1  0.13262000  0.35628000  0.42121000  1.0 -0.5685842618
Cl  Cl4  1  0.24427000  0.54049000  0.51671000  1.0 -0.5566786215
Cl  Cl5  1  0.55735000  0.03819000  0.82522000  1.0 -0.0778758752
Cl  Cl6  1  0.48699000  0.14369000  0.72235000  1.0 -0.0220735723
Cl  Cl7  1  0.50980000  0.04180000  0.79350000  1.0 0.010246103
Cl  Cl8  1  0.48020000  0.20840000  0.70380000  1.0 -0.0392175814
Cl  Cl9  1  0.36461000  0.13251000  0.56804000  1.0 -0.5399662838
Cl  Cl10  1  0.19307000  0.14541000  0.62736000  1.0 -0.4855307922
Cl  Cl11  1  0.64372000  0.86738000  0.92121000  1.0 -0.5685842618
Cl  Cl12  1  0.45951000  0.75573000  0.01671000  1.0 -0.5566786215
Cl  Cl13  1  0.96181000  0.44265000  0.32522000  1.0 -0.0778758752
Cl  Cl14  1  0.85631000  0.51301000  0.22235000  1.0 -0.0275462616
Cl  Cl15  1  0.95820000  0.49020000  0.29350000  1.0 0.010246103
Cl  Cl16  1  0.79160000  0.51980000  0.20380000  1.0 -0.0392175814
Cl  Cl17  1  0.63539000  0.86749000  0.43196000  1.0 -0.5399662838
Cl  Cl18  1  0.80693000  0.85459000  0.37264000  1.0 -0.4855307922
Cl  Cl19  1  0.35628000  0.13262000  0.07879000  1.0 -0.5685842618
Cl  Cl20  1  0.54049000  0.24427000  0.98329000  1.0 -0.5566786215
Cl  Cl21  1  0.03819000  0.55735000  0.67478000  1.0 -0.0778758752
Cl  Cl22  1  0.14369000  0.48699000  0.77765000  1.0 -0.0220735723
Cl  Cl23  1  0.04180000  0.50980000  0.70650000  1.0 0.010246103
Cl  Cl24  1  0.20840000  0.48020000  0.79620000  1.0 -0.0392175814
Cl  Cl25  1  0.13251000  0.36461000  0.93196000  1.0 -0.5399662838
Cl  Cl26  1  0.14541000  0.19307000  0.87264000  1.0 -0.4855307922
Cl  Cl27  1  0.86738000  0.64372000  0.57879000  1.0 -0.5685842618
Cl  Cl28  1  0.75573000  0.45951000  0.48329000  1.0 -0.5566786215
Cl  Cl29  1  0.44265000  0.96181000  0.17478000  1.0 -0.0778758752
Cl  Cl30  1  0.51301000  0.85631000  0.27765000  1.0 -0.0220735723
Cl  Cl31  1  0.49020000  0.95820000  0.20650000  1.0 0.010246103
Cl  Cl32  1  0.51980000  0.79160000  0.29620000  1.0 -0.0392175814
O  O1  1  0.41040000  0.92680000  0.05780000  1.0 -0.1398524087
O  O2  1  0.08660000  0.45140000  0.11700000  1.0 -0.3384114787
O  O3  1  0.85100000  0.42020000  0.03420000  1.0 -0.3058450654
O  O4  1  0.61930000  0.05790000  0.06970000  1.0 -0.2886303648
O  O5  1  0.58960000  0.07320000  0.94220000  1.0 -0.1398524087
O  O6  1  0.91340000  0.54860000  0.88300000  1.0 -0.3384114787
O  O7  1  0.14900000  0.57980000  0.96580000  1.0 -0.3058450654
O  O8  1  0.38070000  0.94210000  0.93030000  1.0 -0.2886303648
O  O9  1  0.92680000  0.41040000  0.44220000  1.0 -0.1398524087
O  O10  1  0.45140000  0.08660000  0.38300000  1.0 -0.3384114787
O  O11  1  0.42020000  0.85100000  0.46580000  1.0 -0.3058450654
O  O12  1  0.05790000  0.61930000  0.43030000  1.0 -0.2886303648
O  O13  1  0.07320000  0.58960000  0.55780000  1.0 -0.1398524087
O  O14  1  0.54860000  0.91340000  0.61700000  1.0 -0.3384114787
O  O15  1  0.57980000  0.14900000  0.53420000  1.0 -0.3058450654
O  O16  1  0.94210000  0.38070000  0.56970000  1.0 -0.2886303648
