# DDEC6 charges by PACMAN v1.1 (https://github.com/mtap-research/PACMAN-charge/)
data_EZEXEP_FSR_pacman
_symmetry_space_group_name_H-M   'P 1'
_cell_length_a   29.98800000
_cell_length_b   15.05560000
_cell_length_c   33.60860000
_cell_angle_alpha   90.00000000
_cell_angle_beta   99.42300000
_cell_angle_gamma   90.00000000
_symmetry_Int_Tables_number   1
_chemical_formula_structural   ZnH4C6(IN)2
_chemical_formula_sum   'Zn48 H192 C288 I96 N96'
_cell_volume   14969.10901780
_cell_formula_units_Z   48
loop_
 _symmetry_equiv_pos_site_id
 _symmetry_equiv_pos_as_xyz
  1  'x, y, z'
loop_
 _atom_site_type_symbol
 _atom_site_label
 _atom_site_symmetry_multiplicity
 _atom_site_fract_x
 _atom_site_fract_y
 _atom_site_fract_z
 _atom_site_occupancy
 _atom_site_charge
Zn  Zn1  1  0.08593000  0.12480000  0.07995000  1.0 0.4086844516
Zn  Zn2  1  0.26510000  0.37610000  0.16754000  1.0 0.2731608194
Zn  Zn3  1  0.10806000  0.62050000  0.56810000  1.0 0.157260144
Zn  Zn4  1  0.46768000  0.58970000  0.85737000  1.0 0.1292052087
Zn  Zn5  1  0.94460000  0.87960000  0.36356000  1.0 0.3491265999
Zn  Zn6  1  0.77940000  0.13850000  0.66910000  1.0 0.06025148
Zn  Zn7  1  0.80880000  0.14420000  0.69330000  1.0 0.1101694565
Zn  Zn8  1  0.44850000  0.60300000  0.86590000  1.0 0.2038515997
Zn  Zn9  1  0.09430000  0.12990000  0.08100000  1.0 0.4086844516
Zn  Zn10  1  0.09630000  0.63040000  0.58290000  1.0 0.1401959085
Zn  Zn11  1  0.27490000  0.36670000  0.17390000  1.0 0.2801180822
Zn  Zn12  1  0.95260000  0.89750000  0.36410000  1.0 0.3999403459
Zn  Zn13  1  0.58593000  0.87520000  0.07995000  1.0 0.4086844516
Zn  Zn14  1  0.76510000  0.62390000  0.16754000  1.0 0.2731608194
Zn  Zn15  1  0.60806000  0.37950000  0.56810000  1.0 0.157260144
Zn  Zn16  1  0.96768000  0.41030000  0.85737000  1.0 0.1292052087
Zn  Zn17  1  0.44460000  0.12040000  0.36356000  1.0 0.3491265999
Zn  Zn18  1  0.27940000  0.86150000  0.66910000  1.0 0.070250591
Zn  Zn19  1  0.30880000  0.85580000  0.69330000  1.0 0.1101694565
Zn  Zn20  1  0.94850000  0.39700000  0.86590000  1.0 0.207470898
Zn  Zn21  1  0.59430000  0.87010000  0.08100000  1.0 0.4086844516
Zn  Zn22  1  0.59630000  0.36960000  0.58290000  1.0 0.1401959085
Zn  Zn23  1  0.77490000  0.63330000  0.17390000  1.0 0.2801180822
Zn  Zn24  1  0.45260000  0.10250000  0.36410000  1.0 0.3999403459
Zn  Zn25  1  0.41407000  0.12480000  0.92005000  1.0 0.4086844516
Zn  Zn26  1  0.23490000  0.37610000  0.83246000  1.0 0.2731608194
Zn  Zn27  1  0.39194000  0.62050000  0.43190000  1.0 0.1527490956
Zn  Zn28  1  0.03232000  0.58970000  0.14263000  1.0 0.1228745808
Zn  Zn29  1  0.55540000  0.87960000  0.63644000  1.0 0.3491265999
Zn  Zn30  1  0.72060000  0.13850000  0.33090000  1.0 0.06025148
Zn  Zn31  1  0.69120000  0.14420000  0.30670000  1.0 0.1101694565
Zn  Zn32  1  0.05150000  0.60300000  0.13410000  1.0 0.207470898
Zn  Zn33  1  0.40570000  0.12990000  0.91900000  1.0 0.4086844516
Zn  Zn34  1  0.40370000  0.63040000  0.41710000  1.0 0.1401959085
Zn  Zn35  1  0.22510000  0.36670000  0.82610000  1.0 0.2801180822
Zn  Zn36  1  0.54740000  0.89750000  0.63590000  1.0 0.3999403459
Zn  Zn37  1  0.91407000  0.87520000  0.92005000  1.0 0.4086844516
Zn  Zn38  1  0.73490000  0.62390000  0.83246000  1.0 0.2731608194
Zn  Zn39  1  0.89194000  0.37950000  0.43190000  1.0 0.157260144
Zn  Zn40  1  0.53232000  0.41030000  0.14263000  1.0 0.1228745808
Zn  Zn41  1  0.05540000  0.12040000  0.63644000  1.0 0.3491265999
Zn  Zn42  1  0.22060000  0.86150000  0.33090000  1.0 0.070250591
Zn  Zn43  1  0.19120000  0.85580000  0.30670000  1.0 0.1101694565
Zn  Zn44  1  0.55150000  0.39700000  0.13410000  1.0 0.207470898
Zn  Zn45  1  0.90570000  0.87010000  0.91900000  1.0 0.4086844516
Zn  Zn46  1  0.90370000  0.36960000  0.41710000  1.0 0.1401959085
Zn  Zn47  1  0.72510000  0.63330000  0.82610000  1.0 0.2801180822
Zn  Zn48  1  0.04740000  0.10250000  0.63590000  1.0 0.3999403459
H  H1  1  0.46539000  0.08894000  0.09224000  1.0 0.1292052087
H  H2  1  0.53299000  0.15045000  0.00319000  1.0 0.1292052087
H  H3  1  0.57621000  0.01959000  0.01695000  1.0 0.0885147745
H  H4  1  0.22590000  0.08702000  0.18516000  1.0 0.1228745808
H  H5  1  0.16953000  0.16112000  0.14167000  1.0 0.070250591
H  H6  1  0.03529000  0.35761000  0.48973000  1.0 0.1292052087
H  H7  1  0.08104000  0.48318000  0.50195000  1.0 0.0788974213
H  H8  1  0.52235000  0.37070000  0.96759000  1.0 0.1292052087
H  H9  1  0.19710000  0.35322000  0.62092000  1.0 0.1101694565
H  H10  1  0.98485000  0.41231000  0.59120000  1.0 0.1228745808
H  H11  1  0.52360000  0.46400000  0.91287000  1.0 0.070250591
H  H12  1  0.30766000  0.07706000  0.25937000  1.0 0.1013074746
H  H13  1  0.38169000  0.33535000  0.79015000  1.0 0.1101694565
H  H14  1  0.40445000  0.55820000  0.92009000  1.0 0.070250591
H  H15  1  0.50426000  0.95393000  0.09997000  1.0 0.070250591
H  H16  1  0.37031000  0.84665000  0.29777000  1.0 0.1101694565
H  H17  1  0.01059000  0.02965000  0.39845000  1.0 0.070250591
H  H18  1  0.02781000  0.54846000  0.59540000  1.0 0.06025148
H  H19  1  0.32461000  0.56916000  0.75050000  1.0 0.1013074746
H  H20  1  0.42117000  0.92790000  0.34005000  1.0 0.0788974213
H  H21  1  0.33877000  0.14778000  0.74814000  1.0 0.1228745808
H  H22  1  0.35781000  0.14765000  0.31011000  1.0 0.06025148
H  H23  1  0.22284000  0.56529000  0.69207000  1.0 0.1101694565
H  H24  1  0.24351000  0.16362000  0.64636000  1.0 0.1292052087
H  H25  1  0.14305000  0.43179000  0.57974000  1.0 0.0788974213
H  H26  1  0.16277000  0.86306000  0.15095000  1.0 0.1101694565
H  H27  1  0.10672000  0.93537000  0.11116000  1.0 0.0788974213
H  H28  1  0.01567000  0.13589000  0.45171000  1.0 0.1292052087
H  H29  1  0.43287000  0.41144000  0.83604000  1.0 0.0788974213
H  H30  1  0.17271000  0.64640000  0.64597000  1.0 0.0495066507
H  H31  1  0.34952000  0.43025000  0.05425000  1.0 0.1292052087
H  H32  1  0.40237000  0.23035000  0.12654000  1.0 0.1292052087
H  H33  1  0.39251000  0.45383000  0.96941000  1.0 0.1228745808
H  H34  1  0.29690000  0.44213000  0.09433000  1.0 0.0885147745
H  H35  1  0.85103000  0.27827000  0.65509000  1.0 0.070250591
H  H36  1  0.90411000  0.92560000  0.43605000  1.0 0.0788974213
H  H37  1  0.37880000  0.63665000  0.80143000  1.0 0.06025148
H  H38  1  0.24567000  0.00909000  0.64402000  1.0 0.06025148
H  H39  1  0.33733000  0.64931000  0.23258000  1.0 0.1401959085
H  H40  1  0.34743000  0.25813000  0.16559000  1.0 0.06025148
H  H41  1  0.33683000  0.99845000  0.74105000  1.0 0.070250591
H  H42  1  0.21527000  0.53662000  0.14721000  1.0 0.070250591
H  H43  1  0.32025000  0.50534000  0.22956000  1.0 0.0885147745
H  H44  1  0.88105000  0.06037000  0.57134000  1.0 0.1292052087
H  H45  1  0.83973000  0.03367000  0.62113000  1.0 0.0885147745
H  H46  1  0.90420000  0.03506000  0.48430000  1.0 0.1292052087
H  H47  1  0.22200000  0.68675000  0.16134000  1.0 0.1228745808
H  H48  1  0.90247000  0.30547000  0.61324000  1.0 0.1292052087
H  H49  1  0.96539000  0.91106000  0.09224000  1.0 0.1292052087
H  H50  1  0.03299000  0.84955000  0.00319000  1.0 0.1292052087
H  H51  1  0.07621000  0.98041000  0.01695000  1.0 0.0885147745
H  H52  1  0.72590000  0.91298000  0.18516000  1.0 0.1228745808
H  H53  1  0.66953000  0.83888000  0.14167000  1.0 0.070250591
H  H54  1  0.53529000  0.64239000  0.48973000  1.0 0.1292052087
H  H55  1  0.58104000  0.51682000  0.50195000  1.0 0.0788974213
H  H56  1  0.02235000  0.62930000  0.96759000  1.0 0.1292052087
H  H57  1  0.69710000  0.64678000  0.62092000  1.0 0.1101694565
H  H58  1  0.48485000  0.58769000  0.59120000  1.0 0.1228745808
H  H59  1  0.02360000  0.53600000  0.91287000  1.0 0.070250591
H  H60  1  0.80766000  0.92294000  0.25937000  1.0 0.1013074746
H  H61  1  0.88169000  0.66465000  0.79015000  1.0 0.1101694565
H  H62  1  0.90445000  0.44180000  0.92009000  1.0 0.070250591
H  H63  1  0.00426000  0.04607000  0.09997000  1.0 0.070250591
H  H64  1  0.87031000  0.15335000  0.29777000  1.0 0.1101694565
H  H65  1  0.51059000  0.97035000  0.39845000  1.0 0.070250591
H  H66  1  0.52781000  0.45154000  0.59540000  1.0 0.06025148
H  H67  1  0.82461000  0.43084000  0.75050000  1.0 0.1013074746
H  H68  1  0.92117000  0.07210000  0.34005000  1.0 0.0788974213
H  H69  1  0.83877000  0.85222000  0.74814000  1.0 0.1228745808
H  H70  1  0.85781000  0.85235000  0.31011000  1.0 0.06025148
H  H71  1  0.72284000  0.43471000  0.69207000  1.0 0.1101694565
H  H72  1  0.74351000  0.83638000  0.64636000  1.0 0.1292052087
H  H73  1  0.64305000  0.56821000  0.57974000  1.0 0.0788974213
H  H74  1  0.66277000  0.13694000  0.15095000  1.0 0.1101694565
H  H75  1  0.60672000  0.06463000  0.11116000  1.0 0.0788974213
H  H76  1  0.51567000  0.86411000  0.45171000  1.0 0.1292052087
H  H77  1  0.93287000  0.58856000  0.83604000  1.0 0.0788974213
H  H78  1  0.67271000  0.35360000  0.64597000  1.0 0.0495066507
H  H79  1  0.84952000  0.56975000  0.05425000  1.0 0.1292052087
H  H80  1  0.90237000  0.76965000  0.12654000  1.0 0.1292052087
H  H81  1  0.89251000  0.54617000  0.96941000  1.0 0.1228745808
H  H82  1  0.79690000  0.55787000  0.09433000  1.0 0.0885147745
H  H83  1  0.35103000  0.72173000  0.65509000  1.0 0.070250591
H  H84  1  0.40411000  0.07440000  0.43605000  1.0 0.0788974213
H  H85  1  0.87880000  0.36335000  0.80143000  1.0 0.06025148
H  H86  1  0.74567000  0.99091000  0.64402000  1.0 0.06025148
H  H87  1  0.83733000  0.35069000  0.23258000  1.0 0.1401959085
H  H88  1  0.84743000  0.74187000  0.16559000  1.0 0.06025148
H  H89  1  0.83683000  0.00155000  0.74105000  1.0 0.070250591
H  H90  1  0.71527000  0.46338000  0.14721000  1.0 0.070250591
H  H91  1  0.82025000  0.49466000  0.22956000  1.0 0.0885147745
H  H92  1  0.38105000  0.93963000  0.57134000  1.0 0.1292052087
H  H93  1  0.33973000  0.96633000  0.62113000  1.0 0.0885147745
H  H94  1  0.40420000  0.96494000  0.48430000  1.0 0.1228745808
H  H95  1  0.72200000  0.31325000  0.16134000  1.0 0.1228745808
H  H96  1  0.40247000  0.69453000  0.61324000  1.0 0.1292052087
H  H97  1  0.03461000  0.08894000  0.90776000  1.0 0.1292052087
H  H98  1  0.96701000  0.15045000  0.99681000  1.0 0.1292052087
H  H99  1  0.92379000  0.01959000  0.98305000  1.0 0.0885147745
H  H100  1  0.27410000  0.08702000  0.81484000  1.0 0.1228745808
H  H101  1  0.33047000  0.16112000  0.85833000  1.0 0.070250591
H  H102  1  0.46471000  0.35761000  0.51027000  1.0 0.1292052087
H  H103  1  0.41896000  0.48318000  0.49805000  1.0 0.0788974213
H  H104  1  0.97765000  0.37070000  0.03241000  1.0 0.1292052087
H  H105  1  0.30290000  0.35322000  0.37908000  1.0 0.1101694565
H  H106  1  0.51515000  0.41231000  0.40880000  1.0 0.1228745808
H  H107  1  0.97640000  0.46400000  0.08713000  1.0 0.070250591
H  H108  1  0.19234000  0.07706000  0.74063000  1.0 0.1013074746
H  H109  1  0.11831000  0.33535000  0.20985000  1.0 0.1101694565
H  H110  1  0.09555000  0.55820000  0.07991000  1.0 0.070250591
H  H111  1  0.99574000  0.95393000  0.90003000  1.0 0.0788974213
H  H112  1  0.12969000  0.84665000  0.70223000  1.0 0.1101694565
H  H113  1  0.48941000  0.02965000  0.60155000  1.0 0.070250591
H  H114  1  0.47219000  0.54846000  0.40460000  1.0 0.06025148
H  H115  1  0.17539000  0.56916000  0.24950000  1.0 0.1013074746
H  H116  1  0.07883000  0.92790000  0.65995000  1.0 0.0788974213
H  H117  1  0.16123000  0.14778000  0.25186000  1.0 0.1228745808
H  H118  1  0.14219000  0.14765000  0.68989000  1.0 0.06025148
H  H119  1  0.27716000  0.56529000  0.30793000  1.0 0.1101694565
H  H120  1  0.25649000  0.16362000  0.35364000  1.0 0.1292052087
H  H121  1  0.35695000  0.43179000  0.42026000  1.0 0.0788974213
H  H122  1  0.33723000  0.86306000  0.84905000  1.0 0.1101694565
H  H123  1  0.39328000  0.93537000  0.88884000  1.0 0.0788974213
H  H124  1  0.48433000  0.13589000  0.54829000  1.0 0.1292052087
H  H125  1  0.06713000  0.41144000  0.16396000  1.0 0.0788974213
H  H126  1  0.32729000  0.64640000  0.35403000  1.0 0.0495066507
H  H127  1  0.15048000  0.43025000  0.94575000  1.0 0.1292052087
H  H128  1  0.09763000  0.23035000  0.87346000  1.0 0.1292052087
H  H129  1  0.10749000  0.45383000  0.03059000  1.0 0.1228745808
H  H130  1  0.20310000  0.44213000  0.90567000  1.0 0.0885147745
H  H131  1  0.64897000  0.27827000  0.34491000  1.0 0.070250591
H  H132  1  0.59589000  0.92560000  0.56395000  1.0 0.0788974213
H  H133  1  0.12120000  0.63665000  0.19857000  1.0 0.06025148
H  H134  1  0.25433000  0.00909000  0.35598000  1.0 0.06025148
H  H135  1  0.16267000  0.64931000  0.76742000  1.0 0.1401959085
H  H136  1  0.15257000  0.25813000  0.83441000  1.0 0.06025148
H  H137  1  0.16317000  0.99845000  0.25895000  1.0 0.070250591
H  H138  1  0.28473000  0.53662000  0.85279000  1.0 0.070250591
H  H139  1  0.17975000  0.50534000  0.77044000  1.0 0.0885147745
H  H140  1  0.61895000  0.06037000  0.42866000  1.0 0.1292052087
H  H141  1  0.66027000  0.03367000  0.37887000  1.0 0.0885147745
H  H142  1  0.59580000  0.03506000  0.51570000  1.0 0.1292052087
H  H143  1  0.27800000  0.68675000  0.83866000  1.0 0.1228745808
H  H144  1  0.59753000  0.30547000  0.38676000  1.0 0.1292052087
H  H145  1  0.53461000  0.91106000  0.90776000  1.0 0.1292052087
H  H146  1  0.46701000  0.84955000  0.99681000  1.0 0.1292052087
H  H147  1  0.42379000  0.98041000  0.98305000  1.0 0.0885147745
H  H148  1  0.77410000  0.91298000  0.81484000  1.0 0.1228745808
H  H149  1  0.83047000  0.83888000  0.85833000  1.0 0.070250591
H  H150  1  0.96471000  0.64239000  0.51027000  1.0 0.1292052087
H  H151  1  0.91896000  0.51682000  0.49805000  1.0 0.0788974213
H  H152  1  0.47765000  0.62930000  0.03241000  1.0 0.1292052087
H  H153  1  0.80290000  0.64678000  0.37908000  1.0 0.1101694565
H  H154  1  0.01515000  0.58769000  0.40880000  1.0 0.1228745808
H  H155  1  0.47640000  0.53600000  0.08713000  1.0 0.070250591
H  H156  1  0.69234000  0.92294000  0.74063000  1.0 0.1013074746
H  H157  1  0.61831000  0.66465000  0.20985000  1.0 0.1101694565
H  H158  1  0.59555000  0.44180000  0.07991000  1.0 0.070250591
H  H159  1  0.49574000  0.04607000  0.90003000  1.0 0.0788974213
H  H160  1  0.62969000  0.15335000  0.70223000  1.0 0.1101694565
H  H161  1  0.98941000  0.97035000  0.60155000  1.0 0.070250591
H  H162  1  0.97219000  0.45154000  0.40460000  1.0 0.06025148
H  H163  1  0.67539000  0.43084000  0.24950000  1.0 0.1013074746
H  H164  1  0.57883000  0.07210000  0.65995000  1.0 0.0788974213
H  H165  1  0.66123000  0.85222000  0.25186000  1.0 0.1228745808
H  H166  1  0.64219000  0.85235000  0.68989000  1.0 0.06025148
H  H167  1  0.77716000  0.43471000  0.30793000  1.0 0.1101694565
H  H168  1  0.75649000  0.83638000  0.35364000  1.0 0.1292052087
H  H169  1  0.85695000  0.56821000  0.42026000  1.0 0.0788974213
H  H170  1  0.83723000  0.13694000  0.84905000  1.0 0.1101694565
H  H171  1  0.89328000  0.06463000  0.88884000  1.0 0.0788974213
H  H172  1  0.98433000  0.86411000  0.54829000  1.0 0.1292052087
H  H173  1  0.56713000  0.58856000  0.16396000  1.0 0.0788974213
H  H174  1  0.82729000  0.35360000  0.35403000  1.0 0.0495066507
H  H175  1  0.65048000  0.56975000  0.94575000  1.0 0.1292052087
H  H176  1  0.59763000  0.76965000  0.87346000  1.0 0.1292052087
H  H177  1  0.60749000  0.54617000  0.03059000  1.0 0.1228745808
H  H178  1  0.70310000  0.55787000  0.90567000  1.0 0.0885147745
H  H179  1  0.14897000  0.72173000  0.34491000  1.0 0.070250591
H  H180  1  0.09589000  0.07440000  0.56395000  1.0 0.0788974213
H  H181  1  0.62120000  0.36335000  0.19857000  1.0 0.06025148
H  H182  1  0.75433000  0.99091000  0.35598000  1.0 0.06025148
H  H183  1  0.66267000  0.35069000  0.76742000  1.0 0.1401959085
H  H184  1  0.65257000  0.74187000  0.83441000  1.0 0.06025148
H  H185  1  0.66317000  0.00155000  0.25895000  1.0 0.070250591
H  H186  1  0.78473000  0.46338000  0.85279000  1.0 0.070250591
H  H187  1  0.67975000  0.49466000  0.77044000  1.0 0.0885147745
H  H188  1  0.11895000  0.93963000  0.42866000  1.0 0.1292052087
H  H189  1  0.16027000  0.96633000  0.37887000  1.0 0.0885147745
H  H190  1  0.09580000  0.96494000  0.51570000  1.0 0.1228745808
H  H191  1  0.77800000  0.31325000  0.83866000  1.0 0.1228745808
H  H192  1  0.09753000  0.69453000  0.38676000  1.0 0.1292052087
C  C1  1  0.47030000  0.22040000  0.04250000  1.0 0.3378716153
C  C2  1  0.48760000  0.07580000  0.07590000  1.0 -0.1788504608
C  C3  1  0.41660000  0.31220000  0.05960000  1.0 0.3491265999
C  C4  1  0.45200000  0.34650000  0.00840000  1.0 0.3229215075
C  C5  1  0.31610000  0.39810000  0.73300000  1.0 0.3558167388
C  C6  1  0.38080000  0.32700000  0.08560000  1.0 0.06025148
C  C7  1  0.29120000  0.17370000  0.69860000  1.0 0.06025148
C  C8  1  0.45790000  0.40580000  0.97570000  1.0 0.0495066507
C  C9  1  0.30180000  0.90680000  0.24160000  1.0 0.3558167388
C  C10  1  0.52760000  0.11280000  0.02460000  1.0 -0.1599956709
C  C11  1  0.55290000  0.03350000  0.03190000  1.0 0.0388134281
C  C12  1  0.49660000  0.13640000  0.04660000  1.0 0.06025148
C  C13  1  0.29120000  0.27320000  0.70230000  1.0 0.3229215075
C  C14  1  0.23920000  0.91340000  0.19420000  1.0 0.3656653729
C  C15  1  0.20240000  0.05440000  0.16920000  1.0 -0.1504869479
C  C16  1  0.00840000  0.36700000  0.53900000  1.0 0.0388134281
C  C17  1  0.27660000  0.68630000  0.20130000  1.0 0.0495066507
C  C18  1  0.22100000  0.45350000  0.65820000  1.0 0.0388134281
C  C19  1  0.16800000  0.09830000  0.14360000  1.0 0.06025148
C  C20  1  0.03450000  0.39180000  0.51330000  1.0 -0.1717889014
C  C21  1  0.33430000  0.95490000  0.27210000  1.0 0.0495066507
C  C22  1  0.98040000  0.28390000  0.53580000  1.0 0.3229215075
C  C23  1  0.25610000  0.40330000  0.68270000  1.0 0.3491265999
C  C24  1  0.93150000  0.19820000  0.55930000  1.0 0.3127624285
C  C25  1  0.06130000  0.46840000  0.52040000  1.0 0.0495066507
C  C26  1  0.49700000  0.40710000  0.95780000  1.0 -0.1874139308
C  C27  1  0.19330000  0.41450000  0.62620000  1.0 -0.1504869479
C  C28  1  0.00430000  0.42570000  0.57230000  1.0 -0.1874139308
C  C29  1  0.96230000  0.09050000  0.47400000  1.0 0.06025148
C  C30  1  0.20190000  0.96750000  0.17080000  1.0 0.070250591
C  C31  1  0.96010000  0.15690000  0.50610000  1.0 0.2867256743
C  C32  1  0.49710000  0.46410000  0.92500000  1.0 0.06025148
C  C33  1  0.33040000  0.04420000  0.27610000  1.0 -0.1504869479
C  C34  1  0.38090000  0.39840000  0.79060000  1.0 -0.1717889014
C  C35  1  0.34930000  0.44340000  0.76390000  1.0 0.0495066507
C  C36  1  0.42750000  0.51590000  0.92870000  1.0 -0.018927473
C  C37  1  0.27640000  0.78310000  0.20910000  1.0 0.3229215075
C  C38  1  0.51150000  0.99610000  0.08100000  1.0 0.070250591
C  C39  1  0.36800000  0.90960000  0.29830000  1.0 -0.1599956709
C  C40  1  0.98950000  0.02800000  0.41670000  1.0 0.070250591
C  C41  1  0.03120000  0.50550000  0.57540000  1.0 0.0495066507
C  C42  1  0.34680000  0.53490000  0.76720000  1.0 -0.1599956709
C  C43  1  0.89730000  0.18260000  0.58610000  1.0 0.0388134281
C  C44  1  0.39700000  0.95880000  0.32410000  1.0 0.0191638557
C  C45  1  0.31920000  0.12140000  0.72630000  1.0 -0.1717889014
C  C46  1  0.36150000  0.08570000  0.30620000  1.0 0.0191638557
C  C47  1  0.20910000  0.53860000  0.66750000  1.0 -0.1788504608
C  C48  1  0.26290000  0.13090000  0.66630000  1.0 -0.1717889014
C  C49  1  0.16080000  0.46060000  0.60210000  1.0 0.010068429
C  C50  1  0.16460000  0.92580000  0.14890000  1.0 -0.1717889014
C  C51  1  0.13160000  0.96710000  0.12550000  1.0 0.0191638557
C  C52  1  0.99250000  0.09230000  0.44860000  1.0 -0.1788504608
C  C53  1  0.41140000  0.44450000  0.81800000  1.0 0.0495066507
C  C54  1  0.17710000  0.58520000  0.64090000  1.0 0.0495066507
C  C55  1  0.34990000  0.39220000  0.07680000  1.0 -0.1599956709
C  C56  1  0.38070000  0.27620000  0.11940000  1.0 -0.1599956709
C  C57  1  0.42060000  0.45800000  0.95990000  1.0 -0.1599956709
C  C58  1  0.32020000  0.39970000  0.10180000  1.0 0.0388134281
C  C59  1  0.85780000  0.23210000  0.63780000  1.0 0.0191638557
C  C60  1  0.92700000  0.97000000  0.43880000  1.0 -0.0082027489
C  C61  1  0.38010000  0.57420000  0.79760000  1.0 0.010068429
C  C62  1  0.26510000  0.03870000  0.66500000  1.0 0.0388134281
C  C63  1  0.30970000  0.62870000  0.21750000  1.0 -0.1788504608
C  C64  1  0.34830000  0.29410000  0.14250000  1.0 0.0314508437
C  C65  1  0.31800000  0.03310000  0.72150000  1.0 0.010068429
C  C66  1  0.24010000  0.55890000  0.16570000  1.0 0.010068429
C  C67  1  0.30200000  0.54390000  0.21130000  1.0 0.0495066507
C  C68  1  0.87690000  0.10710000  0.58940000  1.0 -0.1788504608
C  C69  1  0.84980000  0.09250000  0.61750000  1.0 0.0495066507
C  C70  1  0.92750000  0.03200000  0.46830000  1.0 -0.1504869479
C  C71  1  0.24450000  0.64840000  0.17520000  1.0 -0.1504869479
C  C72  1  0.88800000  0.24930000  0.61270000  1.0 -0.1717889014
C  C73  1  0.97030000  0.77960000  0.04250000  1.0 0.3378716153
C  C74  1  0.98760000  0.92420000  0.07590000  1.0 -0.1788504608
C  C75  1  0.91660000  0.68780000  0.05960000  1.0 0.3491265999
C  C76  1  0.95200000  0.65350000  0.00840000  1.0 0.3229215075
C  C77  1  0.81610000  0.60190000  0.73300000  1.0 0.3491265999
C  C78  1  0.88080000  0.67300000  0.08560000  1.0 0.06025148
C  C79  1  0.79120000  0.82630000  0.69860000  1.0 0.06025148
C  C80  1  0.95790000  0.59420000  0.97570000  1.0 0.0495066507
C  C81  1  0.80180000  0.09320000  0.24160000  1.0 0.3558167388
C  C82  1  0.02760000  0.88720000  0.02460000  1.0 -0.1599956709
C  C83  1  0.05290000  0.96650000  0.03190000  1.0 0.0388134281
C  C84  1  0.99660000  0.86360000  0.04660000  1.0 0.06025148
C  C85  1  0.79120000  0.72680000  0.70230000  1.0 0.3229215075
C  C86  1  0.73920000  0.08660000  0.19420000  1.0 0.3656653729
C  C87  1  0.70240000  0.94560000  0.16920000  1.0 -0.1504869479
C  C88  1  0.50840000  0.63300000  0.53900000  1.0 0.0314508437
C  C89  1  0.77660000  0.31370000  0.20130000  1.0 0.0495066507
C  C90  1  0.72100000  0.54650000  0.65820000  1.0 0.0388134281
C  C91  1  0.66800000  0.90170000  0.14360000  1.0 0.06025148
C  C92  1  0.53450000  0.60820000  0.51330000  1.0 -0.1717889014
C  C93  1  0.83430000  0.04510000  0.27210000  1.0 0.0495066507
C  C94  1  0.48040000  0.71610000  0.53580000  1.0 0.3229215075
C  C95  1  0.75610000  0.59670000  0.68270000  1.0 0.3491265999
C  C96  1  0.43150000  0.80180000  0.55930000  1.0 0.3127624285
C  C97  1  0.56130000  0.53160000  0.52040000  1.0 0.0495066507
C  C98  1  0.99700000  0.59290000  0.95780000  1.0 -0.1874139308
C  C99  1  0.69330000  0.58550000  0.62620000  1.0 -0.1504869479
C  C100  1  0.50430000  0.57430000  0.57230000  1.0 -0.1874139308
C  C101  1  0.46230000  0.90950000  0.47400000  1.0 0.06025148
C  C102  1  0.70190000  0.03250000  0.17080000  1.0 0.070250591
C  C103  1  0.46010000  0.84310000  0.50610000  1.0 0.2867256743
C  C104  1  0.99710000  0.53590000  0.92500000  1.0 0.06025148
C  C105  1  0.83040000  0.95580000  0.27610000  1.0 -0.1504869479
C  C106  1  0.88090000  0.60160000  0.79060000  1.0 -0.1717889014
C  C107  1  0.84930000  0.55660000  0.76390000  1.0 0.0495066507
C  C108  1  0.92750000  0.48410000  0.92870000  1.0 -0.018927473
C  C109  1  0.77640000  0.21690000  0.20910000  1.0 0.3229215075
C  C110  1  0.01150000  0.00390000  0.08100000  1.0 0.070250591
C  C111  1  0.86800000  0.09040000  0.29830000  1.0 -0.1599956709
C  C112  1  0.48950000  0.97200000  0.41670000  1.0 0.070250591
C  C113  1  0.53120000  0.49450000  0.57540000  1.0 0.0495066507
C  C114  1  0.84680000  0.46510000  0.76720000  1.0 -0.1599956709
C  C115  1  0.39730000  0.81740000  0.58610000  1.0 0.0388134281
C  C116  1  0.89700000  0.04120000  0.32410000  1.0 0.0191638557
C  C117  1  0.81920000  0.87860000  0.72630000  1.0 -0.1788504608
C  C118  1  0.86150000  0.91430000  0.30620000  1.0 0.0191638557
C  C119  1  0.70910000  0.46140000  0.66750000  1.0 -0.1788504608
C  C120  1  0.76290000  0.86910000  0.66630000  1.0 -0.1717889014
C  C121  1  0.66080000  0.53940000  0.60210000  1.0 0.010068429
C  C122  1  0.66460000  0.07420000  0.14890000  1.0 -0.1717889014
C  C123  1  0.63160000  0.03290000  0.12550000  1.0 0.0191638557
C  C124  1  0.49250000  0.90770000  0.44860000  1.0 -0.1788504608
C  C125  1  0.91140000  0.55550000  0.81800000  1.0 0.0495066507
C  C126  1  0.67710000  0.41480000  0.64090000  1.0 0.0495066507
C  C127  1  0.84990000  0.60780000  0.07680000  1.0 -0.1599956709
C  C128  1  0.88070000  0.72380000  0.11940000  1.0 -0.1599956709
C  C129  1  0.92060000  0.54200000  0.95990000  1.0 -0.1599956709
C  C130  1  0.82020000  0.60030000  0.10180000  1.0 0.0388134281
C  C131  1  0.35780000  0.76790000  0.63780000  1.0 0.010068429
C  C132  1  0.42700000  0.03000000  0.43880000  1.0 -0.0082027489
C  C133  1  0.88010000  0.42580000  0.79760000  1.0 0.010068429
C  C134  1  0.76510000  0.96130000  0.66500000  1.0 0.0388134281
C  C135  1  0.80970000  0.37130000  0.21750000  1.0 -0.1788504608
C  C136  1  0.84830000  0.70590000  0.14250000  1.0 0.0314508437
C  C137  1  0.81800000  0.96690000  0.72150000  1.0 0.010068429
C  C138  1  0.74010000  0.44110000  0.16570000  1.0 0.0037156739
C  C139  1  0.80200000  0.45610000  0.21130000  1.0 0.0495066507
C  C140  1  0.37690000  0.89290000  0.58940000  1.0 -0.1788504608
C  C141  1  0.34980000  0.90750000  0.61750000  1.0 0.0495066507
C  C142  1  0.42750000  0.96800000  0.46830000  1.0 -0.1504869479
C  C143  1  0.74450000  0.35160000  0.17520000  1.0 -0.1504869479
C  C144  1  0.38800000  0.75070000  0.61270000  1.0 -0.1717889014
C  C145  1  0.02970000  0.22040000  0.95750000  1.0 0.3378716153
C  C146  1  0.01240000  0.07580000  0.92410000  1.0 -0.1788504608
C  C147  1  0.08340000  0.31220000  0.94040000  1.0 0.3491265999
C  C148  1  0.04800000  0.34650000  0.99160000  1.0 0.3229215075
C  C149  1  0.18390000  0.39810000  0.26700000  1.0 0.3558167388
C  C150  1  0.11920000  0.32700000  0.91440000  1.0 0.06025148
C  C151  1  0.20880000  0.17370000  0.30140000  1.0 0.06025148
C  C152  1  0.04210000  0.40580000  0.02430000  1.0 0.0495066507
C  C153  1  0.19820000  0.90680000  0.75840000  1.0 0.3558167388
C  C154  1  0.97240000  0.11280000  0.97540000  1.0 -0.1599956709
C  C155  1  0.94710000  0.03350000  0.96810000  1.0 0.0388134281
C  C156  1  0.00340000  0.13640000  0.95340000  1.0 0.06025148
C  C157  1  0.20880000  0.27320000  0.29770000  1.0 0.3229215075
C  C158  1  0.26080000  0.91340000  0.80580000  1.0 0.3656653729
C  C159  1  0.29760000  0.05440000  0.83080000  1.0 -0.1504869479
C  C160  1  0.49160000  0.36700000  0.46100000  1.0 0.0314508437
C  C161  1  0.22340000  0.68630000  0.79870000  1.0 0.0495066507
C  C162  1  0.27900000  0.45350000  0.34180000  1.0 0.0388134281
C  C163  1  0.33200000  0.09830000  0.85640000  1.0 0.06025148
C  C164  1  0.46550000  0.39180000  0.48670000  1.0 -0.1717889014
C  C165  1  0.16570000  0.95490000  0.72790000  1.0 0.0495066507
C  C166  1  0.51960000  0.28390000  0.46420000  1.0 0.3229215075
C  C167  1  0.24390000  0.40330000  0.31730000  1.0 0.3491265999
C  C168  1  0.56850000  0.19820000  0.44070000  1.0 0.3127624285
C  C169  1  0.43870000  0.46840000  0.47960000  1.0 0.0495066507
C  C170  1  0.00300000  0.40710000  0.04220000  1.0 -0.1874139308
C  C171  1  0.30670000  0.41450000  0.37380000  1.0 -0.1504869479
C  C172  1  0.49570000  0.42570000  0.42770000  1.0 -0.1874139308
C  C173  1  0.53770000  0.09050000  0.52600000  1.0 0.06025148
C  C174  1  0.29810000  0.96750000  0.82920000  1.0 0.070250591
C  C175  1  0.53990000  0.15690000  0.49390000  1.0 0.2867256743
C  C176  1  0.00290000  0.46410000  0.07500000  1.0 0.06025148
C  C177  1  0.16960000  0.04420000  0.72390000  1.0 -0.1504869479
C  C178  1  0.11910000  0.39840000  0.20940000  1.0 -0.1717889014
C  C179  1  0.15070000  0.44340000  0.23610000  1.0 0.0495066507
C  C180  1  0.07250000  0.51590000  0.07130000  1.0 -0.018927473
C  C181  1  0.22360000  0.78310000  0.79090000  1.0 0.3229215075
C  C182  1  0.98850000  0.99610000  0.91900000  1.0 0.070250591
C  C183  1  0.13200000  0.90960000  0.70170000  1.0 -0.1599956709
C  C184  1  0.51050000  0.02800000  0.58330000  1.0 0.070250591
C  C185  1  0.46880000  0.50550000  0.42460000  1.0 0.0495066507
C  C186  1  0.15320000  0.53490000  0.23280000  1.0 -0.1599956709
C  C187  1  0.60270000  0.18260000  0.41390000  1.0 0.0388134281
C  C188  1  0.10300000  0.95880000  0.67590000  1.0 0.0191638557
C  C189  1  0.18080000  0.12140000  0.27370000  1.0 -0.1717889014
C  C190  1  0.13850000  0.08570000  0.69380000  1.0 0.0191638557
C  C191  1  0.29090000  0.53860000  0.33250000  1.0 -0.1788504608
C  C192  1  0.23710000  0.13090000  0.33370000  1.0 -0.1717889014
C  C193  1  0.33920000  0.46060000  0.39790000  1.0 0.010068429
C  C194  1  0.33540000  0.92580000  0.85110000  1.0 -0.1717889014
C  C195  1  0.36840000  0.96710000  0.87450000  1.0 0.0191638557
C  C196  1  0.50750000  0.09230000  0.55140000  1.0 -0.1788504608
C  C197  1  0.08860000  0.44450000  0.18200000  1.0 0.0495066507
C  C198  1  0.32290000  0.58520000  0.35910000  1.0 0.0495066507
C  C199  1  0.15010000  0.39220000  0.92320000  1.0 -0.1599956709
C  C200  1  0.11930000  0.27620000  0.88060000  1.0 -0.1599956709
C  C201  1  0.07940000  0.45800000  0.04010000  1.0 -0.1599956709
C  C202  1  0.17980000  0.39970000  0.89820000  1.0 0.0388134281
C  C203  1  0.64220000  0.23210000  0.36220000  1.0 0.0191638557
C  C204  1  0.57300000  0.97000000  0.56120000  1.0 -0.0082027489
C  C205  1  0.11990000  0.57420000  0.20240000  1.0 0.010068429
C  C206  1  0.23490000  0.03870000  0.33500000  1.0 0.0388134281
C  C207  1  0.19030000  0.62870000  0.78250000  1.0 -0.1788504608
C  C208  1  0.15170000  0.29410000  0.85750000  1.0 0.0314508437
C  C209  1  0.18200000  0.03310000  0.27850000  1.0 0.010068429
C  C210  1  0.25990000  0.55890000  0.83430000  1.0 0.010068429
C  C211  1  0.19800000  0.54390000  0.78870000  1.0 0.0495066507
C  C212  1  0.62310000  0.10710000  0.41060000  1.0 -0.1788504608
C  C213  1  0.65020000  0.09250000  0.38250000  1.0 0.0495066507
C  C214  1  0.57250000  0.03200000  0.53170000  1.0 -0.1504869479
C  C215  1  0.25550000  0.64840000  0.82480000  1.0 -0.1504869479
C  C216  1  0.61200000  0.24930000  0.38730000  1.0 -0.1717889014
C  C217  1  0.52970000  0.77960000  0.95750000  1.0 0.3378716153
C  C218  1  0.51240000  0.92420000  0.92410000  1.0 -0.1788504608
C  C219  1  0.58340000  0.68780000  0.94040000  1.0 0.3491265999
C  C220  1  0.54800000  0.65350000  0.99160000  1.0 0.3229215075
C  C221  1  0.68390000  0.60190000  0.26700000  1.0 0.3558167388
C  C222  1  0.61920000  0.67300000  0.91440000  1.0 0.06025148
C  C223  1  0.70880000  0.82630000  0.30140000  1.0 0.06025148
C  C224  1  0.54210000  0.59420000  0.02430000  1.0 0.0495066507
C  C225  1  0.69820000  0.09320000  0.75840000  1.0 0.3558167388
C  C226  1  0.47240000  0.88720000  0.97540000  1.0 -0.1599956709
C  C227  1  0.44710000  0.96650000  0.96810000  1.0 0.0388134281
C  C228  1  0.50340000  0.86360000  0.95340000  1.0 0.06025148
C  C229  1  0.70880000  0.72680000  0.29770000  1.0 0.3229215075
C  C230  1  0.76080000  0.08660000  0.80580000  1.0 0.3656653729
C  C231  1  0.79760000  0.94560000  0.83080000  1.0 -0.1504869479
C  C232  1  0.99160000  0.63300000  0.46100000  1.0 0.0314508437
C  C233  1  0.72340000  0.31370000  0.79870000  1.0 0.0495066507
C  C234  1  0.77900000  0.54650000  0.34180000  1.0 0.0388134281
C  C235  1  0.83200000  0.90170000  0.85640000  1.0 0.06025148
C  C236  1  0.96550000  0.60820000  0.48670000  1.0 -0.1717889014
C  C237  1  0.66570000  0.04510000  0.72790000  1.0 0.0495066507
C  C238  1  0.01960000  0.71610000  0.46420000  1.0 0.3229215075
C  C239  1  0.74390000  0.59670000  0.31730000  1.0 0.3491265999
C  C240  1  0.06850000  0.80180000  0.44070000  1.0 0.3127624285
C  C241  1  0.93870000  0.53160000  0.47960000  1.0 0.0495066507
C  C242  1  0.50300000  0.59290000  0.04220000  1.0 -0.1874139308
C  C243  1  0.80670000  0.58550000  0.37380000  1.0 -0.1504869479
C  C244  1  0.99570000  0.57430000  0.42770000  1.0 -0.1874139308
C  C245  1  0.03770000  0.90950000  0.52600000  1.0 0.06025148
C  C246  1  0.79810000  0.03250000  0.82920000  1.0 0.070250591
C  C247  1  0.03990000  0.84310000  0.49390000  1.0 0.2867256743
C  C248  1  0.50290000  0.53590000  0.07500000  1.0 0.06025148
C  C249  1  0.66960000  0.95580000  0.72390000  1.0 -0.1504869479
C  C250  1  0.61910000  0.60160000  0.20940000  1.0 -0.1717889014
C  C251  1  0.65070000  0.55660000  0.23610000  1.0 0.0495066507
C  C252  1  0.57250000  0.48410000  0.07130000  1.0 -0.018927473
C  C253  1  0.72360000  0.21690000  0.79090000  1.0 0.3229215075
C  C254  1  0.48850000  0.00390000  0.91900000  1.0 0.070250591
C  C255  1  0.63200000  0.09040000  0.70170000  1.0 -0.1599956709
C  C256  1  0.01050000  0.97200000  0.58330000  1.0 0.070250591
C  C257  1  0.96880000  0.49450000  0.42460000  1.0 0.0495066507
C  C258  1  0.65320000  0.46510000  0.23280000  1.0 -0.1599956709
C  C259  1  0.10270000  0.81740000  0.41390000  1.0 0.0388134281
C  C260  1  0.60300000  0.04120000  0.67590000  1.0 0.0191638557
C  C261  1  0.68080000  0.87860000  0.27370000  1.0 -0.1788504608
C  C262  1  0.63850000  0.91430000  0.69380000  1.0 0.0191638557
C  C263  1  0.79090000  0.46140000  0.33250000  1.0 -0.1788504608
C  C264  1  0.73710000  0.86910000  0.33370000  1.0 -0.1717889014
C  C265  1  0.83920000  0.53940000  0.39790000  1.0 0.010068429
C  C266  1  0.83540000  0.07420000  0.85110000  1.0 -0.1717889014
C  C267  1  0.86840000  0.03290000  0.87450000  1.0 0.0191638557
C  C268  1  0.00750000  0.90770000  0.55140000  1.0 -0.1788504608
C  C269  1  0.58860000  0.55550000  0.18200000  1.0 0.0495066507
C  C270  1  0.82290000  0.41480000  0.35910000  1.0 0.0495066507
C  C271  1  0.65010000  0.60780000  0.92320000  1.0 -0.1599956709
C  C272  1  0.61930000  0.72380000  0.88060000  1.0 -0.1599956709
C  C273  1  0.57940000  0.54200000  0.04010000  1.0 -0.1599956709
C  C274  1  0.67980000  0.60030000  0.89820000  1.0 0.0388134281
C  C275  1  0.14220000  0.76790000  0.36220000  1.0 0.010068429
C  C276  1  0.07300000  0.03000000  0.56120000  1.0 -0.0082027489
C  C277  1  0.61990000  0.42580000  0.20240000  1.0 0.010068429
C  C278  1  0.73490000  0.96130000  0.33500000  1.0 0.0388134281
C  C279  1  0.69030000  0.37130000  0.78250000  1.0 -0.1788504608
C  C280  1  0.65170000  0.70590000  0.85750000  1.0 0.0314508437
C  C281  1  0.68200000  0.96690000  0.27850000  1.0 0.010068429
C  C282  1  0.75990000  0.44110000  0.83430000  1.0 0.0037156739
C  C283  1  0.69800000  0.45610000  0.78870000  1.0 0.0495066507
C  C284  1  0.12310000  0.89290000  0.41060000  1.0 -0.1788504608
C  C285  1  0.15020000  0.90750000  0.38250000  1.0 0.0495066507
C  C286  1  0.07250000  0.96800000  0.53170000  1.0 -0.1504869479
C  C287  1  0.75550000  0.35160000  0.82480000  1.0 -0.1504869479
C  C288  1  0.11200000  0.75070000  0.38730000  1.0 -0.1717889014
I  I1  1  0.13178000  0.16121000  0.02499000  1.0 -0.3409915823
I  I2  1  0.04321000  0.23426000  0.11770000  1.0 -0.2459260407
I  I3  1  0.14472000  0.66350000  0.50846000  1.0 0.0191638557
I  I4  1  0.19016000  0.36170000  0.11977000  1.0 0.06025148
I  I5  1  0.28634000  0.28040000  0.23022000  1.0 -0.0035383806
I  I6  1  0.43908000  0.74513000  0.86800000  1.0 -0.0705413553
I  I7  1  0.07392000  0.73049000  0.61234000  1.0 -0.0514714557
I  I8  1  0.53901000  0.55211000  0.82991000  1.0 0.0495066507
I  I9  1  0.90384000  0.74570000  0.38640000  1.0 0.0314508437
I  I10  1  0.01135000  0.88180000  0.32583000  1.0 -0.0705413553
I  I11  1  0.81120000  0.22810000  0.73150000  1.0 -0.018927473
I  I12  1  0.70350000  0.16740000  0.62640000  1.0 -0.0581460948
I  I13  1  0.85850000  0.19980000  0.75635000  1.0 -0.0276415531
I  I14  1  0.73190000  0.20720000  0.66580000  1.0 -0.0276415531
I  I15  1  0.52150000  0.59000000  0.84160000  1.0 -0.0907120539
I  I16  1  0.41050000  0.73780000  0.88980000  1.0 0.010068429
I  I17  1  0.05270000  0.23590000  0.12010000  1.0 -0.2204985279
I  I18  1  0.13580000  0.16540000  0.02450000  1.0 -0.3842790532
I  I19  1  0.13920000  0.66610000  0.52640000  1.0 -0.0705413553
I  I20  1  0.05380000  0.74000000  0.61990000  1.0 0.0314508437
I  I21  1  0.19910000  0.34340000  0.13010000  1.0 0.010068429
I  I22  1  0.30160000  0.27990000  0.23710000  1.0 0.0388134281
I  I23  1  0.91960000  0.75110000  0.38060000  1.0 -0.0082027489
I  I24  1  0.02210000  0.90740000  0.33640000  1.0 -0.0428871117
I  I25  1  0.63178000  0.83879000  0.02499000  1.0 -0.3409915823
I  I26  1  0.54321000  0.76574000  0.11770000  1.0 -0.2459260407
I  I27  1  0.64472000  0.33650000  0.50846000  1.0 0.0191638557
I  I28  1  0.69016000  0.63830000  0.11977000  1.0 0.06025148
I  I29  1  0.78634000  0.71960000  0.23022000  1.0 -0.0035383806
I  I30  1  0.93908000  0.25487000  0.86800000  1.0 -0.0705413553
I  I31  1  0.57392000  0.26951000  0.61234000  1.0 -0.0581460948
I  I32  1  0.03901000  0.44789000  0.82991000  1.0 0.0495066507
I  I33  1  0.40384000  0.25430000  0.38640000  1.0 0.0314508437
I  I34  1  0.51135000  0.11820000  0.32583000  1.0 -0.0705413553
I  I35  1  0.31120000  0.77190000  0.73150000  1.0 -0.018927473
I  I36  1  0.20350000  0.83260000  0.62640000  1.0 -0.0581460948
I  I37  1  0.35850000  0.80020000  0.75635000  1.0 -0.0276415531
I  I38  1  0.23190000  0.79280000  0.66580000  1.0 -0.0276415531
I  I39  1  0.02150000  0.41000000  0.84160000  1.0 -0.0907120539
I  I40  1  0.91050000  0.26220000  0.88980000  1.0 0.010068429
I  I41  1  0.55270000  0.76410000  0.12010000  1.0 -0.2204985279
I  I42  1  0.63580000  0.83460000  0.02450000  1.0 -0.3842790532
I  I43  1  0.63920000  0.33390000  0.52640000  1.0 -0.0705413553
I  I44  1  0.55380000  0.26000000  0.61990000  1.0 0.0314508437
I  I45  1  0.69910000  0.65660000  0.13010000  1.0 0.010068429
I  I46  1  0.80160000  0.72010000  0.23710000  1.0 0.0388134281
I  I47  1  0.41960000  0.24890000  0.38060000  1.0 -0.018927473
I  I48  1  0.52210000  0.09260000  0.33640000  1.0 -0.0514714557
I  I49  1  0.36822000  0.16121000  0.97501000  1.0 -0.3409915823
I  I50  1  0.45679000  0.23426000  0.88230000  1.0 -0.2459260407
I  I51  1  0.35528000  0.66350000  0.49154000  1.0 0.010068429
I  I52  1  0.30984000  0.36170000  0.88023000  1.0 0.06025148
I  I53  1  0.21366000  0.28040000  0.76978000  1.0 -0.0035383806
I  I54  1  0.06092000  0.74513000  0.13200000  1.0 -0.0705413553
I  I55  1  0.42608000  0.73049000  0.38766000  1.0 -0.0514714557
I  I56  1  0.96099000  0.55211000  0.17009000  1.0 0.0495066507
I  I57  1  0.59616000  0.74570000  0.61360000  1.0 0.0314508437
I  I58  1  0.48865000  0.88180000  0.67417000  1.0 -0.0705413553
I  I59  1  0.68880000  0.22810000  0.26850000  1.0 -0.018927473
I  I60  1  0.79650000  0.16740000  0.37360000  1.0 -0.0581460948
I  I61  1  0.64150000  0.19980000  0.24365000  1.0 -0.0276415531
I  I62  1  0.76810000  0.20720000  0.33420000  1.0 -0.0276415531
I  I63  1  0.97850000  0.59000000  0.15840000  1.0 -0.0977281067
I  I64  1  0.08950000  0.73780000  0.11020000  1.0 0.010068429
I  I65  1  0.44730000  0.23590000  0.87990000  1.0 -0.2204985279
I  I66  1  0.36420000  0.16540000  0.97550000  1.0 -0.3842790532
I  I67  1  0.36080000  0.66610000  0.47360000  1.0 -0.0705413553
I  I68  1  0.44620000  0.74000000  0.38010000  1.0 0.0314508437
I  I69  1  0.30090000  0.34340000  0.86990000  1.0 0.010068429
I  I70  1  0.19840000  0.27990000  0.76290000  1.0 0.0388134281
I  I71  1  0.58040000  0.75110000  0.61940000  1.0 -0.018927473
I  I72  1  0.47790000  0.90740000  0.66360000  1.0 -0.0428871117
I  I73  1  0.86822000  0.83879000  0.97501000  1.0 -0.3409915823
I  I74  1  0.95679000  0.76574000  0.88230000  1.0 -0.2459260407
I  I75  1  0.85528000  0.33650000  0.49154000  1.0 0.0191638557
I  I76  1  0.80984000  0.63830000  0.88023000  1.0 0.06025148
I  I77  1  0.71366000  0.71960000  0.76978000  1.0 -0.0035383806
I  I78  1  0.56092000  0.25487000  0.13200000  1.0 -0.0705413553
I  I79  1  0.92608000  0.26951000  0.38766000  1.0 -0.0514714557
I  I80  1  0.46099000  0.44789000  0.17009000  1.0 0.0495066507
I  I81  1  0.09616000  0.25430000  0.61360000  1.0 0.0314508437
I  I82  1  0.98865000  0.11820000  0.67417000  1.0 -0.0705413553
I  I83  1  0.18880000  0.77190000  0.26850000  1.0 -0.018927473
I  I84  1  0.29650000  0.83260000  0.37360000  1.0 -0.0581460948
I  I85  1  0.14150000  0.80020000  0.24365000  1.0 -0.0276415531
I  I86  1  0.26810000  0.79280000  0.33420000  1.0 -0.0276415531
I  I87  1  0.47850000  0.41000000  0.15840000  1.0 -0.0907120539
I  I88  1  0.58950000  0.26220000  0.11020000  1.0 0.010068429
I  I89  1  0.94730000  0.76410000  0.87990000  1.0 -0.2204985279
I  I90  1  0.86420000  0.83460000  0.97550000  1.0 -0.3842790532
I  I91  1  0.86080000  0.33390000  0.47360000  1.0 -0.0705413553
I  I92  1  0.94620000  0.26000000  0.38010000  1.0 0.0314508437
I  I93  1  0.80090000  0.65660000  0.86990000  1.0 0.010068429
I  I94  1  0.69840000  0.72010000  0.76290000  1.0 0.0388134281
I  I95  1  0.08040000  0.24890000  0.61940000  1.0 -0.018927473
I  I96  1  0.97790000  0.09260000  0.66360000  1.0 -0.0514714557
N  N1  1  0.32140000  0.31230000  0.73010000  1.0 -0.4197060946
N  N2  1  0.42060000  0.36610000  0.03120000  1.0 -0.4086465309
N  N3  1  0.54300000  0.97840000  0.06070000  1.0 -0.2105419064
N  N4  1  0.25750000  0.31630000  0.67660000  1.0 -0.4421870098
N  N5  1  0.47840000  0.27530000  0.01410000  1.0 -0.4197060946
N  N6  1  0.44100000  0.23390000  0.06680000  1.0 -0.4421870098
N  N7  1  0.06010000  0.51940000  0.55100000  1.0 -0.1874139308
N  N8  1  0.46500000  0.51690000  0.90950000  1.0 -0.2012893644
N  N9  1  0.27330000  0.50500000  0.18440000  1.0 -0.2012893644
N  N10  1  0.30850000  0.82250000  0.23650000  1.0 -0.4197060946
N  N11  1  0.93220000  0.14050000  0.53240000  1.0 -0.4086465309
N  N12  1  0.24130000  0.82940000  0.18730000  1.0 -0.4345402415
N  N13  1  0.31860000  0.35740000  0.13480000  1.0 -0.1874139308
N  N14  1  0.95320000  0.27640000  0.56210000  1.0 -0.4487984172
N  N15  1  0.98710000  0.23240000  0.50700000  1.0 -0.4421870098
N  N16  1  0.13460000  0.05830000  0.12270000  1.0 -0.1788504608
N  N17  1  0.28400000  0.44760000  0.71120000  1.0 -0.4345402415
N  N18  1  0.26690000  0.95580000  0.22230000  1.0 -0.4421870098
N  N19  1  0.15300000  0.54940000  0.60960000  1.0 -0.1717889014
N  N20  1  0.41250000  0.52920000  0.82070000  1.0 -0.1717889014
N  N21  1  0.95850000  0.96820000  0.41270000  1.0 -0.2338489699
N  N22  1  0.39540000  0.04620000  0.32960000  1.0 -0.2105419064
N  N23  1  0.29210000  0.98960000  0.69110000  1.0 -0.1874139308
N  N24  1  0.83740000  0.15470000  0.63940000  1.0 -0.1788504608
N  N25  1  0.82140000  0.68770000  0.73010000  1.0 -0.4197060946
N  N26  1  0.92060000  0.63390000  0.03120000  1.0 -0.4086465309
N  N27  1  0.04300000  0.02160000  0.06070000  1.0 -0.2105419064
N  N28  1  0.75750000  0.68370000  0.67660000  1.0 -0.4421870098
N  N29  1  0.97840000  0.72470000  0.01410000  1.0 -0.4197060946
N  N30  1  0.94100000  0.76610000  0.06680000  1.0 -0.4421870098
N  N31  1  0.56010000  0.48060000  0.55100000  1.0 -0.1874139308
N  N32  1  0.96500000  0.48310000  0.90950000  1.0 -0.2012893644
N  N33  1  0.77330000  0.49500000  0.18440000  1.0 -0.2105419064
N  N34  1  0.80850000  0.17750000  0.23650000  1.0 -0.4197060946
N  N35  1  0.43220000  0.85950000  0.53240000  1.0 -0.4086465309
N  N36  1  0.74130000  0.17060000  0.18730000  1.0 -0.4345402415
N  N37  1  0.81860000  0.64260000  0.13480000  1.0 -0.1788504608
N  N38  1  0.45320000  0.72360000  0.56210000  1.0 -0.4487984172
N  N39  1  0.48710000  0.76760000  0.50700000  1.0 -0.4487984172
N  N40  1  0.63460000  0.94170000  0.12270000  1.0 -0.1788504608
N  N41  1  0.78400000  0.55240000  0.71120000  1.0 -0.4345402415
N  N42  1  0.76690000  0.04420000  0.22230000  1.0 -0.4487984172
N  N43  1  0.65300000  0.45060000  0.60960000  1.0 -0.1717889014
N  N44  1  0.91250000  0.47080000  0.82070000  1.0 -0.1717889014
N  N45  1  0.45850000  0.03180000  0.41270000  1.0 -0.2338489699
N  N46  1  0.89540000  0.95380000  0.32960000  1.0 -0.2105419064
N  N47  1  0.79210000  0.01040000  0.69110000  1.0 -0.1788504608
N  N48  1  0.33740000  0.84530000  0.63940000  1.0 -0.1788504608
N  N49  1  0.17860000  0.31230000  0.26990000  1.0 -0.4197060946
N  N50  1  0.07940000  0.36610000  0.96880000  1.0 -0.4086465309
N  N51  1  0.95700000  0.97840000  0.93930000  1.0 -0.2105419064
N  N52  1  0.24250000  0.31630000  0.32340000  1.0 -0.4421870098
N  N53  1  0.02160000  0.27530000  0.98590000  1.0 -0.4197060946
N  N54  1  0.05900000  0.23390000  0.93320000  1.0 -0.4421870098
N  N55  1  0.43990000  0.51940000  0.44900000  1.0 -0.1874139308
N  N56  1  0.03500000  0.51690000  0.09050000  1.0 -0.2012893644
N  N57  1  0.22670000  0.50500000  0.81560000  1.0 -0.2012893644
N  N58  1  0.19150000  0.82250000  0.76350000  1.0 -0.4197060946
N  N59  1  0.56780000  0.14050000  0.46760000  1.0 -0.4086465309
N  N60  1  0.25870000  0.82940000  0.81270000  1.0 -0.4345402415
N  N61  1  0.18140000  0.35740000  0.86520000  1.0 -0.1874139308
N  N62  1  0.54680000  0.27640000  0.43790000  1.0 -0.4487984172
N  N63  1  0.51290000  0.23240000  0.49300000  1.0 -0.4421870098
N  N64  1  0.36540000  0.05830000  0.87730000  1.0 -0.1788504608
N  N65  1  0.21600000  0.44760000  0.28880000  1.0 -0.4345402415
N  N66  1  0.23310000  0.95580000  0.77770000  1.0 -0.4487984172
N  N67  1  0.34700000  0.54940000  0.39040000  1.0 -0.1717889014
N  N68  1  0.08750000  0.52920000  0.17930000  1.0 -0.1717889014
N  N69  1  0.54150000  0.96820000  0.58730000  1.0 -0.2338489699
N  N70  1  0.10460000  0.04620000  0.67040000  1.0 -0.2105419064
N  N71  1  0.20790000  0.98960000  0.30890000  1.0 -0.1874139308
N  N72  1  0.66260000  0.15470000  0.36060000  1.0 -0.1788504608
N  N73  1  0.67860000  0.68770000  0.26990000  1.0 -0.4197060946
N  N74  1  0.57940000  0.63390000  0.96880000  1.0 -0.4086465309
N  N75  1  0.45700000  0.02160000  0.93930000  1.0 -0.2105419064
N  N76  1  0.74250000  0.68370000  0.32340000  1.0 -0.4421870098
N  N77  1  0.52160000  0.72470000  0.98590000  1.0 -0.4197060946
N  N78  1  0.55900000  0.76610000  0.93320000  1.0 -0.4421870098
N  N79  1  0.93990000  0.48060000  0.44900000  1.0 -0.1874139308
N  N80  1  0.53500000  0.48310000  0.09050000  1.0 -0.2012893644
N  N81  1  0.72670000  0.49500000  0.81560000  1.0 -0.2012893644
N  N82  1  0.69150000  0.17750000  0.76350000  1.0 -0.4197060946
N  N83  1  0.06780000  0.85950000  0.46760000  1.0 -0.4086465309
N  N84  1  0.75870000  0.17060000  0.81270000  1.0 -0.4345402415
N  N85  1  0.68140000  0.64260000  0.86520000  1.0 -0.1874139308
N  N86  1  0.04680000  0.72360000  0.43790000  1.0 -0.4487984172
N  N87  1  0.01290000  0.76760000  0.49300000  1.0 -0.4487984172
N  N88  1  0.86540000  0.94170000  0.87730000  1.0 -0.1788504608
N  N89  1  0.71600000  0.55240000  0.28880000  1.0 -0.4345402415
N  N90  1  0.73310000  0.04420000  0.77770000  1.0 -0.4487984172
N  N91  1  0.84700000  0.45060000  0.39040000  1.0 -0.1717889014
N  N92  1  0.58750000  0.47080000  0.17930000  1.0 -0.1717889014
N  N93  1  0.04150000  0.03180000  0.58730000  1.0 -0.2338489699
N  N94  1  0.60460000  0.95380000  0.67040000  1.0 -0.2105419064
N  N95  1  0.70790000  0.01040000  0.30890000  1.0 -0.1874139308
N  N96  1  0.16260000  0.84530000  0.36060000  1.0 -0.1788504608
