# DDEC6 charges by PACMAN v1.1 (https://github.com/mtap-research/PACMAN-charge/)
data_EZIVAM_ASR_pacman
_symmetry_space_group_name_H-M   'P 1'
_cell_length_a   6.83480000
_cell_length_b   27.62700000
_cell_length_c   28.13500000
_cell_angle_alpha   90.00000000
_cell_angle_beta   90.00000000
_cell_angle_gamma   90.00000000
_symmetry_Int_Tables_number   1
_chemical_formula_structural   SrH27C21(NO)6
_chemical_formula_sum   'Sr8 H216 C168 N48 O48'
_cell_volume   5312.59192645
_cell_formula_units_Z   8
loop_
 _symmetry_equiv_pos_site_id
 _symmetry_equiv_pos_as_xyz
  1  'x, y, z'
loop_
 _atom_site_type_symbol
 _atom_site_label
 _atom_site_symmetry_multiplicity
 _atom_site_fract_x
 _atom_site_fract_y
 _atom_site_fract_z
 _atom_site_occupancy
 _atom_site_charge
Sr  Sr1  1  0.13574000  0.28646000  0.14340000  1.0 1.4289810985
Sr  Sr2  1  0.86426000  0.21354000  0.64340000  1.0 1.4289810985
Sr  Sr3  1  0.63574000  0.71354000  0.35660000  1.0 1.4289810985
Sr  Sr4  1  0.36426000  0.78646000  0.85660000  1.0 1.4289810985
Sr  Sr5  1  0.86426000  0.71354000  0.85660000  1.0 1.4289810985
Sr  Sr6  1  0.13574000  0.78646000  0.35660000  1.0 1.4289810985
Sr  Sr7  1  0.36426000  0.28646000  0.64340000  1.0 1.4289810985
Sr  Sr8  1  0.63574000  0.21354000  0.14340000  1.0 1.4289810985
H  H1  1  0.11280000  0.44610000  0.51490000  1.0 0.1094769455
H  H2  1  0.88720000  0.05390000  0.01490000  1.0 0.1094769455
H  H3  1  0.61280000  0.55390000  0.98510000  1.0 0.1094769455
H  H4  1  0.38720000  0.94610000  0.48510000  1.0 0.1094769455
H  H5  1  0.88720000  0.55390000  0.48510000  1.0 0.1094769455
H  H6  1  0.11280000  0.94610000  0.98510000  1.0 0.1094769455
H  H7  1  0.38720000  0.44610000  0.01490000  1.0 0.1094769455
H  H8  1  0.61280000  0.05390000  0.51490000  1.0 0.1094769455
H  H9  1  0.92180000  0.45850000  0.54350000  1.0 0.1094769455
H  H10  1  0.07820000  0.04150000  0.04350000  1.0 0.1094769455
H  H11  1  0.42180000  0.54150000  0.95650000  1.0 0.1094769455
H  H12  1  0.57820000  0.95850000  0.45650000  1.0 0.1094769455
H  H13  1  0.07820000  0.54150000  0.45650000  1.0 0.1094769455
H  H14  1  0.92180000  0.95850000  0.95650000  1.0 0.1094769455
H  H15  1  0.57820000  0.45850000  0.04350000  1.0 0.1094769455
H  H16  1  0.42180000  0.04150000  0.54350000  1.0 0.1094769455
H  H17  1  0.60890000  0.42330000  0.51660000  1.0 0.1094769455
H  H18  1  0.39110000  0.07670000  0.01660000  1.0 0.1094769455
H  H19  1  0.10890000  0.57670000  0.98340000  1.0 0.1094769455
H  H20  1  0.89110000  0.92330000  0.48340000  1.0 0.1094769455
H  H21  1  0.39110000  0.57670000  0.48340000  1.0 0.1094769455
H  H22  1  0.60890000  0.92330000  0.98340000  1.0 0.1094769455
H  H23  1  0.89110000  0.42330000  0.01660000  1.0 0.1094769455
H  H24  1  0.10890000  0.07670000  0.51660000  1.0 0.1094769455
H  H25  1  0.60880000  0.38930000  0.47190000  1.0 0.1094769455
H  H26  1  0.39120000  0.11070000  0.97190000  1.0 0.1094769455
H  H27  1  0.10880000  0.61070000  0.02810000  1.0 0.1094769455
H  H28  1  0.89120000  0.88930000  0.52810000  1.0 0.1094769455
H  H29  1  0.39120000  0.61070000  0.52810000  1.0 0.1094769455
H  H30  1  0.60880000  0.88930000  0.02810000  1.0 0.1094769455
H  H31  1  0.89120000  0.38930000  0.97190000  1.0 0.1094769455
H  H32  1  0.10880000  0.11070000  0.47190000  1.0 0.1094769455
H  H33  1  0.40360000  0.47590000  0.43740000  1.0 0.1094769455
H  H34  1  0.59640000  0.02410000  0.93740000  1.0 0.1094769455
H  H35  1  0.90360000  0.52410000  0.06260000  1.0 0.1094769455
H  H36  1  0.09640000  0.97590000  0.56260000  1.0 0.1094769455
H  H37  1  0.59640000  0.52410000  0.56260000  1.0 0.1094769455
H  H38  1  0.40360000  0.97590000  0.06260000  1.0 0.1094769455
H  H39  1  0.09640000  0.47590000  0.93740000  1.0 0.1094769455
H  H40  1  0.90360000  0.02410000  0.43740000  1.0 0.1094769455
H  H41  1  0.57660000  0.45470000  0.40710000  1.0 0.1023328006
H  H42  1  0.42340000  0.04530000  0.90710000  1.0 0.1023328006
H  H43  1  0.07660000  0.54530000  0.09290000  1.0 0.1023328006
H  H44  1  0.92340000  0.95470000  0.59290000  1.0 0.1023328006
H  H45  1  0.42340000  0.54530000  0.59290000  1.0 0.1023328006
H  H46  1  0.57660000  0.95470000  0.09290000  1.0 0.1023328006
H  H47  1  0.92340000  0.45470000  0.90710000  1.0 0.1023328006
H  H48  1  0.07660000  0.04530000  0.40710000  1.0 0.1023328006
H  H49  1  0.50480000  0.43750000  0.31890000  1.0 0.1094769455
H  H50  1  0.49520000  0.06250000  0.81890000  1.0 0.1094769455
H  H51  1  0.00480000  0.56250000  0.18110000  1.0 0.1094769455
H  H52  1  0.99520000  0.93750000  0.68110000  1.0 0.1094769455
H  H53  1  0.49520000  0.56250000  0.68110000  1.0 0.1094769455
H  H54  1  0.50480000  0.93750000  0.18110000  1.0 0.1094769455
H  H55  1  0.99520000  0.43750000  0.81890000  1.0 0.1094769455
H  H56  1  0.00480000  0.06250000  0.31890000  1.0 0.1094769455
H  H57  1  0.28960000  0.44680000  0.30140000  1.0 0.1199378365
H  H58  1  0.71040000  0.05320000  0.80140000  1.0 0.1199378365
H  H59  1  0.78960000  0.55320000  0.19860000  1.0 0.1199378365
H  H60  1  0.21040000  0.94680000  0.69860000  1.0 0.1199378365
H  H61  1  0.71040000  0.55320000  0.69860000  1.0 0.1199378365
H  H62  1  0.28960000  0.94680000  0.19860000  1.0 0.1199378365
H  H63  1  0.21040000  0.44680000  0.80140000  1.0 0.1199378365
H  H64  1  0.78960000  0.05320000  0.30140000  1.0 0.1199378365
H  H65  1  0.95510000  0.38040000  0.27580000  1.0 0.1199378365
H  H66  1  0.04490000  0.11960000  0.77580000  1.0 0.1199378365
H  H67  1  0.45510000  0.61960000  0.22420000  1.0 0.1199378365
H  H68  1  0.54490000  0.88040000  0.72420000  1.0 0.1199378365
H  H69  1  0.04490000  0.61960000  0.72420000  1.0 0.1199378365
H  H70  1  0.95510000  0.88040000  0.22420000  1.0 0.1199378365
H  H71  1  0.54490000  0.38040000  0.77580000  1.0 0.1199378365
H  H72  1  0.45510000  0.11960000  0.27580000  1.0 0.1199378365
H  H73  1  0.95670000  0.32480000  0.28770000  1.0 0.1094769455
H  H74  1  0.04330000  0.17520000  0.78770000  1.0 0.1094769455
H  H75  1  0.45670000  0.67520000  0.21230000  1.0 0.1094769455
H  H76  1  0.54330000  0.82480000  0.71230000  1.0 0.1094769455
H  H77  1  0.04330000  0.67520000  0.71230000  1.0 0.1094769455
H  H78  1  0.95670000  0.82480000  0.21230000  1.0 0.1094769455
H  H79  1  0.54330000  0.32480000  0.78770000  1.0 0.1094769455
H  H80  1  0.45670000  0.17520000  0.28770000  1.0 0.1094769455
H  H81  1  0.71230000  0.29770000  0.35630000  1.0 0.1023328006
H  H82  1  0.28770000  0.20230000  0.85630000  1.0 0.1023328006
H  H83  1  0.21230000  0.70230000  0.14370000  1.0 0.1023328006
H  H84  1  0.78770000  0.79770000  0.64370000  1.0 0.1094769455
H  H85  1  0.28770000  0.70230000  0.64370000  1.0 0.1094769455
H  H86  1  0.71230000  0.79770000  0.14370000  1.0 0.1094769455
H  H87  1  0.78770000  0.29770000  0.85630000  1.0 0.1094769455
H  H88  1  0.21230000  0.20230000  0.35630000  1.0 0.1023328006
H  H89  1  0.58700000  0.33950000  0.37870000  1.0 0.1094769455
H  H90  1  0.41300000  0.16050000  0.87870000  1.0 0.1094769455
H  H91  1  0.08700000  0.66050000  0.12130000  1.0 0.1094769455
H  H92  1  0.91300000  0.83950000  0.62130000  1.0 0.1094769455
H  H93  1  0.41300000  0.66050000  0.62130000  1.0 0.1094769455
H  H94  1  0.58700000  0.83950000  0.12130000  1.0 0.1094769455
H  H95  1  0.91300000  0.33950000  0.87870000  1.0 0.1094769455
H  H96  1  0.08700000  0.16050000  0.37870000  1.0 0.1094769455
H  H97  1  0.77250000  0.33620000  0.21890000  1.0 0.1272598236
H  H98  1  0.22750000  0.16380000  0.71890000  1.0 0.1272598236
H  H99  1  0.27250000  0.66380000  0.28110000  1.0 0.1272598236
H  H100  1  0.72750000  0.83620000  0.78110000  1.0 0.1272598236
H  H101  1  0.22750000  0.66380000  0.78110000  1.0 0.1272598236
H  H102  1  0.77250000  0.83620000  0.28110000  1.0 0.1272598236
H  H103  1  0.72750000  0.33620000  0.71890000  1.0 0.1272598236
H  H104  1  0.27250000  0.16380000  0.21890000  1.0 0.1272598236
H  H105  1  0.64020000  0.37460000  0.24460000  1.0 0.1199378365
H  H106  1  0.35980000  0.12540000  0.74460000  1.0 0.1199378365
H  H107  1  0.14020000  0.62540000  0.25540000  1.0 0.1199378365
H  H108  1  0.85980000  0.87460000  0.75540000  1.0 0.1199378365
H  H109  1  0.35980000  0.62540000  0.75540000  1.0 0.1199378365
H  H110  1  0.64020000  0.87460000  0.25540000  1.0 0.1199378365
H  H111  1  0.85980000  0.37460000  0.74460000  1.0 0.1199378365
H  H112  1  0.14020000  0.12540000  0.24460000  1.0 0.1199378365
H  H113  1  0.40920000  0.34840000  0.30840000  1.0 0.1199378365
H  H114  1  0.59080000  0.15160000  0.80840000  1.0 0.1199378365
H  H115  1  0.90920000  0.65160000  0.19160000  1.0 0.1199378365
H  H116  1  0.09080000  0.84840000  0.69160000  1.0 0.1199378365
H  H117  1  0.59080000  0.65160000  0.69160000  1.0 0.1199378365
H  H118  1  0.40920000  0.84840000  0.19160000  1.0 0.1199378365
H  H119  1  0.09080000  0.34840000  0.80840000  1.0 0.1199378365
H  H120  1  0.90920000  0.15160000  0.30840000  1.0 0.1199378365
H  H121  1  0.39970000  0.29370000  0.32330000  1.0 0.1094769455
H  H122  1  0.60030000  0.20630000  0.82330000  1.0 0.1094769455
H  H123  1  0.89970000  0.70630000  0.17670000  1.0 0.1094769455
H  H124  1  0.10030000  0.79370000  0.67670000  1.0 0.1094769455
H  H125  1  0.60030000  0.70630000  0.67670000  1.0 0.1094769455
H  H126  1  0.39970000  0.79370000  0.17670000  1.0 0.1094769455
H  H127  1  0.10030000  0.29370000  0.82330000  1.0 0.1094769455
H  H128  1  0.89970000  0.20630000  0.32330000  1.0 0.1094769455
H  H129  1  0.65300000  0.27540000  0.26970000  1.0 0.1094769455
H  H130  1  0.34700000  0.22460000  0.76970000  1.0 0.1094769455
H  H131  1  0.15300000  0.72460000  0.23030000  1.0 0.1094769455
H  H132  1  0.84700000  0.77540000  0.73030000  1.0 0.1094769455
H  H133  1  0.34700000  0.72460000  0.73030000  1.0 0.1094769455
H  H134  1  0.65300000  0.77540000  0.23030000  1.0 0.1094769455
H  H135  1  0.84700000  0.27540000  0.76970000  1.0 0.1094769455
H  H136  1  0.15300000  0.22460000  0.26970000  1.0 0.1094769455
H  H137  1  0.33070000  0.53040000  0.30950000  1.0 0.1094769455
H  H138  1  0.66930000  0.96960000  0.80950000  1.0 0.1094769455
H  H139  1  0.83070000  0.46960000  0.19050000  1.0 0.1094769455
H  H140  1  0.16930000  0.03040000  0.69050000  1.0 0.1094769455
H  H141  1  0.66930000  0.46960000  0.69050000  1.0 0.1094769455
H  H142  1  0.33070000  0.03040000  0.19050000  1.0 0.1094769455
H  H143  1  0.16930000  0.53040000  0.80950000  1.0 0.1094769455
H  H144  1  0.83070000  0.96960000  0.30950000  1.0 0.1094769455
H  H145  1  0.49890000  0.51070000  0.27680000  1.0 0.1199378365
H  H146  1  0.50110000  0.98930000  0.77680000  1.0 0.1199378365
H  H147  1  0.99890000  0.48930000  0.22320000  1.0 0.1199378365
H  H148  1  0.00110000  0.01070000  0.72320000  1.0 0.1199378365
H  H149  1  0.50110000  0.48930000  0.72320000  1.0 0.1199378365
H  H150  1  0.49890000  0.01070000  0.22320000  1.0 0.1199378365
H  H151  1  0.00110000  0.51070000  0.77680000  1.0 0.1199378365
H  H152  1  0.99890000  0.98930000  0.27680000  1.0 0.1199378365
H  H153  1  0.71800000  0.51130000  0.34010000  1.0 0.1023328006
H  H154  1  0.28200000  0.98870000  0.84010000  1.0 0.1023328006
H  H155  1  0.21800000  0.48870000  0.15990000  1.0 0.1023328006
H  H156  1  0.78200000  0.01130000  0.65990000  1.0 0.1023328006
H  H157  1  0.28200000  0.48870000  0.65990000  1.0 0.1023328006
H  H158  1  0.71800000  0.01130000  0.15990000  1.0 0.1023328006
H  H159  1  0.78200000  0.51130000  0.84010000  1.0 0.1023328006
H  H160  1  0.21800000  0.98870000  0.34010000  1.0 0.1023328006
H  H161  1  0.62940000  0.53700000  0.41440000  1.0 0.1023328006
H  H162  1  0.37060000  0.96300000  0.91440000  1.0 0.1023328006
H  H163  1  0.12940000  0.46300000  0.08560000  1.0 0.1023328006
H  H164  1  0.87060000  0.03700000  0.58560000  1.0 0.1023328006
H  H165  1  0.37060000  0.46300000  0.58560000  1.0 0.1023328006
H  H166  1  0.62940000  0.03700000  0.08560000  1.0 0.1023328006
H  H167  1  0.87060000  0.53700000  0.91440000  1.0 0.1023328006
H  H168  1  0.12940000  0.96300000  0.41440000  1.0 0.1023328006
H  H169  1  0.41640000  0.54860000  0.39720000  1.0 0.1023328006
H  H170  1  0.58360000  0.95140000  0.89720000  1.0 0.1023328006
H  H171  1  0.91640000  0.45140000  0.10280000  1.0 0.1023328006
H  H172  1  0.08360000  0.04860000  0.60280000  1.0 0.1023328006
H  H173  1  0.58360000  0.45140000  0.60280000  1.0 0.1023328006
H  H174  1  0.41640000  0.04860000  0.10280000  1.0 0.1023328006
H  H175  1  0.08360000  0.54860000  0.89720000  1.0 0.1023328006
H  H176  1  0.91640000  0.95140000  0.39720000  1.0 0.1023328006
H  H177  1  0.09860000  0.40080000  0.58600000  1.0 0.1199378365
H  H178  1  0.90140000  0.09920000  0.08600000  1.0 0.1199378365
H  H179  1  0.59860000  0.59920000  0.91400000  1.0 0.1199378365
H  H180  1  0.40140000  0.90080000  0.41400000  1.0 0.1199378365
H  H181  1  0.90140000  0.59920000  0.41400000  1.0 0.1199378365
H  H182  1  0.09860000  0.90080000  0.91400000  1.0 0.1199378365
H  H183  1  0.40140000  0.40080000  0.08600000  1.0 0.1199378365
H  H184  1  0.59860000  0.09920000  0.58600000  1.0 0.1199378365
H  H185  1  0.10510000  0.36660000  0.54150000  1.0 0.1094769455
H  H186  1  0.89490000  0.13340000  0.04150000  1.0 0.1094769455
H  H187  1  0.60510000  0.63340000  0.95850000  1.0 0.1094769455
H  H188  1  0.39490000  0.86660000  0.45850000  1.0 0.1094769455
H  H189  1  0.89490000  0.63340000  0.45850000  1.0 0.1094769455
H  H190  1  0.10510000  0.86660000  0.95850000  1.0 0.1094769455
H  H191  1  0.39490000  0.36660000  0.04150000  1.0 0.1094769455
H  H192  1  0.60510000  0.13340000  0.54150000  1.0 0.1094769455
H  H193  1  0.76800000  0.38920000  0.59470000  1.0 0.1199378365
H  H194  1  0.23200000  0.11080000  0.09470000  1.0 0.1199378365
H  H195  1  0.26800000  0.61080000  0.90530000  1.0 0.1199378365
H  H196  1  0.73200000  0.88920000  0.40530000  1.0 0.1199378365
H  H197  1  0.23200000  0.61080000  0.40530000  1.0 0.1199378365
H  H198  1  0.76800000  0.88920000  0.90530000  1.0 0.1199378365
H  H199  1  0.73200000  0.38920000  0.09470000  1.0 0.1199378365
H  H200  1  0.26800000  0.11080000  0.59470000  1.0 0.1199378365
H  H201  1  0.58080000  0.34480000  0.54240000  1.0 0.1199378365
H  H202  1  0.41920000  0.15520000  0.04240000  1.0 0.1199378365
H  H203  1  0.08080000  0.65520000  0.95760000  1.0 0.1199378365
H  H204  1  0.91920000  0.84480000  0.45760000  1.0 0.1199378365
H  H205  1  0.41920000  0.65520000  0.45760000  1.0 0.1199378365
H  H206  1  0.58080000  0.84480000  0.95760000  1.0 0.1199378365
H  H207  1  0.91920000  0.34480000  0.04240000  1.0 0.1199378365
H  H208  1  0.08080000  0.15520000  0.54240000  1.0 0.1199378365
H  H209  1  0.76570000  0.32930000  0.51320000  1.0 0.1094769455
H  H210  1  0.23430000  0.17070000  0.01320000  1.0 0.1094769455
H  H211  1  0.26570000  0.67070000  0.98680000  1.0 0.1094769455
H  H212  1  0.73430000  0.82930000  0.48680000  1.0 0.1094769455
H  H213  1  0.23430000  0.67070000  0.48680000  1.0 0.1094769455
H  H214  1  0.76570000  0.82930000  0.98680000  1.0 0.1094769455
H  H215  1  0.73430000  0.32930000  0.01320000  1.0 0.1094769455
H  H216  1  0.26570000  0.17070000  0.51320000  1.0 0.1094769455
C  C1  1  0.16000000  0.43418000  0.38442000  1.0 0.4768004446
C  C2  1  0.84000000  0.06582000  0.88442000  1.0 0.4768004446
C  C3  1  0.66000000  0.56582000  0.11558000  1.0 0.4768004446
C  C4  1  0.34000000  0.93418000  0.61558000  1.0 0.4768004446
C  C5  1  0.84000000  0.56582000  0.61558000  1.0 0.4768004446
C  C6  1  0.16000000  0.93418000  0.11558000  1.0 0.4768004446
C  C7  1  0.34000000  0.43418000  0.88442000  1.0 0.4768004446
C  C8  1  0.66000000  0.06582000  0.38442000  1.0 0.4768004446
C  C9  1  0.89830000  0.38870000  0.36543000  1.0 0.4727753952
C  C10  1  0.10170000  0.11130000  0.86543000  1.0 0.4727753952
C  C11  1  0.39830000  0.61130000  0.13457000  1.0 0.4727753952
C  C12  1  0.60170000  0.88870000  0.63457000  1.0 0.4727753952
C  C13  1  0.10170000  0.61130000  0.63457000  1.0 0.4727753952
C  C14  1  0.89830000  0.88870000  0.13457000  1.0 0.4727753952
C  C15  1  0.60170000  0.38870000  0.86543000  1.0 0.4727753952
C  C16  1  0.39830000  0.11130000  0.36543000  1.0 0.4727753952
C  C17  1  0.93900000  0.41410000  0.44082000  1.0 0.4768004446
C  C18  1  0.06100000  0.08590000  0.94082000  1.0 0.4768004446
C  C19  1  0.43900000  0.58590000  0.05918000  1.0 0.4768004446
C  C20  1  0.56100000  0.91410000  0.55918000  1.0 0.4768004446
C  C21  1  0.06100000  0.58590000  0.55918000  1.0 0.4768004446
C  C22  1  0.93900000  0.91410000  0.05918000  1.0 0.4768004446
C  C23  1  0.56100000  0.41410000  0.94082000  1.0 0.4768004446
C  C24  1  0.43900000  0.08590000  0.44082000  1.0 0.4768004446
C  C25  1  0.98900000  0.43320000  0.52604000  1.0 -0.0972266243
C  C26  1  0.01100000  0.06680000  0.02604000  1.0 -0.0972266243
C  C27  1  0.48900000  0.56680000  0.97396000  1.0 -0.0972266243
C  C28  1  0.51100000  0.93320000  0.47396000  1.0 -0.0972266243
C  C29  1  0.01100000  0.56680000  0.47396000  1.0 -0.0972266243
C  C30  1  0.98900000  0.93320000  0.97396000  1.0 -0.0972266243
C  C31  1  0.51100000  0.43320000  0.02604000  1.0 -0.0972266243
C  C32  1  0.48900000  0.06680000  0.52604000  1.0 -0.0972266243
C  C33  1  0.68270000  0.39860000  0.49990000  1.0 -0.0876894797
C  C34  1  0.31730000  0.10140000  0.99990000  1.0 -0.0876894797
C  C35  1  0.18270000  0.60140000  0.00010000  1.0 -0.0876894797
C  C36  1  0.81730000  0.89860000  0.50010000  1.0 -0.0876894797
C  C37  1  0.31730000  0.60140000  0.50010000  1.0 -0.0876894797
C  C38  1  0.68270000  0.89860000  0.00010000  1.0 -0.0876894797
C  C39  1  0.81730000  0.39860000  0.99990000  1.0 -0.0876894797
C  C40  1  0.18270000  0.10140000  0.49990000  1.0 -0.0876894797
C  C41  1  0.46310000  0.47578000  0.40610000  1.0 -0.0876894797
C  C42  1  0.53690000  0.02422000  0.90610000  1.0 -0.0876894797
C  C43  1  0.96310000  0.52422000  0.09390000  1.0 -0.0876894797
C  C44  1  0.03690000  0.97578000  0.59390000  1.0 -0.0876894797
C  C45  1  0.53690000  0.52422000  0.59390000  1.0 -0.0876894797
C  C46  1  0.46310000  0.97578000  0.09390000  1.0 -0.0876894797
C  C47  1  0.03690000  0.47578000  0.90610000  1.0 -0.0876894797
C  C48  1  0.96310000  0.02422000  0.40610000  1.0 -0.0876894797
C  C49  1  0.39190000  0.45852000  0.32234000  1.0 -0.0876894797
C  C50  1  0.60810000  0.04148000  0.82234000  1.0 -0.0876894797
C  C51  1  0.89190000  0.54148000  0.17766000  1.0 -0.0876894797
C  C52  1  0.10810000  0.95852000  0.67766000  1.0 -0.0876894797
C  C53  1  0.60810000  0.54148000  0.67766000  1.0 -0.0876894797
C  C54  1  0.39190000  0.95852000  0.17766000  1.0 -0.0876894797
C  C55  1  0.10810000  0.45852000  0.82234000  1.0 -0.0876894797
C  C56  1  0.89190000  0.04148000  0.32234000  1.0 -0.0876894797
C  C57  1  0.87420000  0.35330000  0.28566000  1.0 -0.0803609403
C  C58  1  0.12580000  0.14670000  0.78566000  1.0 -0.0803609403
C  C59  1  0.37420000  0.64670000  0.21434000  1.0 -0.0803609403
C  C60  1  0.62580000  0.85330000  0.71434000  1.0 -0.0803609403
C  C61  1  0.12580000  0.64670000  0.71434000  1.0 -0.0803609403
C  C62  1  0.87420000  0.85330000  0.21434000  1.0 -0.0803609403
C  C63  1  0.62580000  0.35330000  0.78566000  1.0 -0.0803609403
C  C64  1  0.37420000  0.14670000  0.28566000  1.0 -0.0803609403
C  C65  1  0.64620000  0.32800000  0.34945000  1.0 -0.0803609403
C  C66  1  0.35380000  0.17200000  0.84945000  1.0 -0.0803609403
C  C67  1  0.14620000  0.67200000  0.15055000  1.0 -0.0803609403
C  C68  1  0.85380000  0.82800000  0.65055000  1.0 -0.0803609403
C  C69  1  0.35380000  0.67200000  0.65055000  1.0 -0.0803609403
C  C70  1  0.64620000  0.82800000  0.15055000  1.0 -0.0803609403
C  C71  1  0.85380000  0.32800000  0.84945000  1.0 -0.0803609403
C  C72  1  0.14620000  0.17200000  0.34945000  1.0 -0.0803609403
C  C73  1  0.71380000  0.34489000  0.24908000  1.0 -0.1920267054
C  C74  1  0.28620000  0.15511000  0.74908000  1.0 -0.1920267054
C  C75  1  0.21380000  0.65511000  0.25092000  1.0 -0.1920267054
C  C76  1  0.78620000  0.84489000  0.75092000  1.0 -0.1920267054
C  C77  1  0.28620000  0.65511000  0.75092000  1.0 -0.1920267054
C  C78  1  0.71380000  0.84489000  0.25092000  1.0 -0.1920267054
C  C79  1  0.78620000  0.34489000  0.74908000  1.0 -0.1920267054
C  C80  1  0.21380000  0.15511000  0.24908000  1.0 -0.1920267054
C  C81  1  0.48620000  0.31918000  0.31238000  1.0 -0.1985129605
C  C82  1  0.51380000  0.18082000  0.81238000  1.0 -0.1985129605
C  C83  1  0.98620000  0.68082000  0.18762000  1.0 -0.1985129605
C  C84  1  0.01380000  0.81918000  0.68762000  1.0 -0.1985129605
C  C85  1  0.51380000  0.68082000  0.68762000  1.0 -0.1985129605
C  C86  1  0.48620000  0.81918000  0.18762000  1.0 -0.1985129605
C  C87  1  0.01380000  0.31918000  0.81238000  1.0 -0.1985129605
C  C88  1  0.98620000  0.18082000  0.31238000  1.0 -0.1985129605
C  C89  1  0.57590000  0.30478000  0.26483000  1.0 -0.1192851317
C  C90  1  0.42410000  0.19522000  0.76483000  1.0 -0.1192851317
C  C91  1  0.07590000  0.69522000  0.23517000  1.0 -0.1192851317
C  C92  1  0.92410000  0.80478000  0.73517000  1.0 -0.1192851317
C  C93  1  0.42410000  0.69522000  0.73517000  1.0 -0.1192851317
C  C94  1  0.57590000  0.80478000  0.23517000  1.0 -0.1192851317
C  C95  1  0.92410000  0.30478000  0.76483000  1.0 -0.1192851317
C  C96  1  0.07590000  0.19522000  0.26483000  1.0 -0.1192851317
C  C97  1  0.44690000  0.51027000  0.30887000  1.0 -0.1985129605
C  C98  1  0.55310000  0.98973000  0.80887000  1.0 -0.1985129605
C  C99  1  0.94690000  0.48973000  0.19113000  1.0 -0.1985129605
C  C100  1  0.05310000  0.01027000  0.69113000  1.0 -0.1985129605
C  C101  1  0.55310000  0.48973000  0.69113000  1.0 -0.1985129605
C  C102  1  0.44690000  0.01027000  0.19113000  1.0 -0.1985129605
C  C103  1  0.05310000  0.51027000  0.80887000  1.0 -0.1985129605
C  C104  1  0.94690000  0.98973000  0.30887000  1.0 -0.1985129605
C  C105  1  0.59840000  0.53083000  0.34291000  1.0 -0.1077236411
C  C106  1  0.40160000  0.96917000  0.84291000  1.0 -0.1077236411
C  C107  1  0.09840000  0.46917000  0.15709000  1.0 -0.1077236411
C  C108  1  0.90160000  0.03083000  0.65709000  1.0 -0.1077236411
C  C109  1  0.40160000  0.46917000  0.65709000  1.0 -0.1077236411
C  C110  1  0.59840000  0.03083000  0.15709000  1.0 -0.1077236411
C  C111  1  0.90160000  0.53083000  0.84291000  1.0 -0.1077236411
C  C112  1  0.09840000  0.96917000  0.34291000  1.0 -0.1077236411
C  C113  1  0.52630000  0.52681000  0.39298000  1.0 -0.2125677735
C  C114  1  0.47370000  0.97319000  0.89298000  1.0 -0.2125677735
C  C115  1  0.02630000  0.47319000  0.10702000  1.0 -0.2125677735
C  C116  1  0.97370000  0.02681000  0.60702000  1.0 -0.2125677735
C  C117  1  0.47370000  0.47319000  0.60702000  1.0 -0.2125677735
C  C118  1  0.52630000  0.02681000  0.10702000  1.0 -0.2125677735
C  C119  1  0.97370000  0.52681000  0.89298000  1.0 -0.2125677735
C  C120  1  0.02630000  0.97319000  0.39298000  1.0 -0.2125677735
C  C121  1  0.02550000  0.39010000  0.55833000  1.0 -0.1985129605
C  C122  1  0.97450000  0.10990000  0.05833000  1.0 -0.1985129605
C  C123  1  0.52550000  0.60990000  0.94167000  1.0 -0.1985129605
C  C124  1  0.47450000  0.89010000  0.44167000  1.0 -0.1985129605
C  C125  1  0.97450000  0.60990000  0.44167000  1.0 -0.1985129605
C  C126  1  0.02550000  0.89010000  0.94167000  1.0 -0.1985129605
C  C127  1  0.47450000  0.39010000  0.05833000  1.0 -0.1985129605
C  C128  1  0.52550000  0.10990000  0.55833000  1.0 -0.1985129605
C  C129  1  0.83830000  0.36585000  0.57471000  1.0 -0.1192851317
C  C130  1  0.16170000  0.13415000  0.07471000  1.0 -0.1192851317
C  C131  1  0.33830000  0.63415000  0.92529000  1.0 -0.1192851317
C  C132  1  0.66170000  0.86585000  0.42529000  1.0 -0.1192851317
C  C133  1  0.16170000  0.63415000  0.42529000  1.0 -0.1192851317
C  C134  1  0.83830000  0.86585000  0.92529000  1.0 -0.1192851317
C  C135  1  0.66170000  0.36585000  0.07471000  1.0 -0.1192851317
C  C136  1  0.33830000  0.13415000  0.57471000  1.0 -0.1192851317
C  C137  1  0.70830000  0.35549000  0.53147000  1.0 -0.1920267054
C  C138  1  0.29170000  0.14451000  0.03147000  1.0 -0.1920267054
C  C139  1  0.20830000  0.64451000  0.96853000  1.0 -0.1920267054
C  C140  1  0.79170000  0.85549000  0.46853000  1.0 -0.1920267054
C  C141  1  0.29170000  0.64451000  0.46853000  1.0 -0.1920267054
C  C142  1  0.70830000  0.85549000  0.96853000  1.0 -0.1920267054
C  C143  1  0.79170000  0.35549000  0.03147000  1.0 -0.1920267054
C  C144  1  0.20830000  0.14451000  0.53147000  1.0 -0.1920267054
C  C145  1  0.42400000  0.29412000  0.22835000  1.0 0.5993460595
C  C146  1  0.57600000  0.20588000  0.72835000  1.0 0.5993460595
C  C147  1  0.92400000  0.70588000  0.27165000  1.0 0.5993460595
C  C148  1  0.07600000  0.79412000  0.77165000  1.0 0.5993460595
C  C149  1  0.57600000  0.70588000  0.77165000  1.0 0.5993460595
C  C150  1  0.42400000  0.79412000  0.27165000  1.0 0.5993460595
C  C151  1  0.07600000  0.29412000  0.72835000  1.0 0.5993460595
C  C152  1  0.92400000  0.20588000  0.22835000  1.0 0.5993460595
C  C153  1  0.64870000  0.58237000  0.32984000  1.0 0.578262183
C  C154  1  0.35130000  0.91763000  0.82984000  1.0 0.578262183
C  C155  1  0.14870000  0.41763000  0.17016000  1.0 0.578262183
C  C156  1  0.85130000  0.08237000  0.67016000  1.0 0.578262183
C  C157  1  0.35130000  0.41763000  0.67016000  1.0 0.578262183
C  C158  1  0.64870000  0.08237000  0.17016000  1.0 0.578262183
C  C159  1  0.85130000  0.58237000  0.82984000  1.0 0.578262183
C  C160  1  0.14870000  0.91763000  0.32984000  1.0 0.578262183
C  C161  1  0.86700000  0.32040000  0.60395000  1.0 0.6226587101
C  C162  1  0.13300000  0.17960000  0.10395000  1.0 0.6226587101
C  C163  1  0.36700000  0.67960000  0.89605000  1.0 0.6226587101
C  C164  1  0.63300000  0.82040000  0.39605000  1.0 0.6226587101
C  C165  1  0.13300000  0.67960000  0.39605000  1.0 0.6226587101
C  C166  1  0.86700000  0.82040000  0.89605000  1.0 0.6226587101
C  C167  1  0.63300000  0.32040000  0.10395000  1.0 0.6226587101
C  C168  1  0.36700000  0.17960000  0.60395000  1.0 0.6226587101
N  N1  1  0.05630000  0.41180000  0.35011000  1.0 -0.5373525144
N  N2  1  0.94370000  0.08820000  0.85011000  1.0 -0.5373525144
N  N3  1  0.55630000  0.58820000  0.14989000  1.0 -0.5373525144
N  N4  1  0.44370000  0.91180000  0.64989000  1.0 -0.5373525144
N  N5  1  0.94370000  0.58820000  0.64989000  1.0 -0.5373525144
N  N6  1  0.05630000  0.91180000  0.14989000  1.0 -0.5373525144
N  N7  1  0.44370000  0.41180000  0.85011000  1.0 -0.5373525144
N  N8  1  0.55630000  0.08820000  0.35011000  1.0 -0.5373525144
N  N9  1  0.11090000  0.43588000  0.43060000  1.0 -0.5801625521
N  N10  1  0.88910000  0.06412000  0.93060000  1.0 -0.5801625521
N  N11  1  0.61090000  0.56412000  0.06940000  1.0 -0.5801625521
N  N12  1  0.38910000  0.93588000  0.56940000  1.0 -0.5801625521
N  N13  1  0.88910000  0.56412000  0.56940000  1.0 -0.5801625521
N  N14  1  0.11090000  0.93588000  0.06940000  1.0 -0.5801625521
N  N15  1  0.38910000  0.43588000  0.93060000  1.0 -0.5801625521
N  N16  1  0.61090000  0.06412000  0.43060000  1.0 -0.5801625521
N  N17  1  0.83040000  0.38854000  0.41004000  1.0 -0.5303940074
N  N18  1  0.16960000  0.11146000  0.91004000  1.0 -0.5303940074
N  N19  1  0.33040000  0.61146000  0.08996000  1.0 -0.5303940074
N  N20  1  0.66960000  0.88854000  0.58996000  1.0 -0.5303940074
N  N21  1  0.16960000  0.61146000  0.58996000  1.0 -0.5303940074
N  N22  1  0.83040000  0.88854000  0.08996000  1.0 -0.5303940074
N  N23  1  0.66960000  0.38854000  0.91004000  1.0 -0.5303940074
N  N24  1  0.33040000  0.11146000  0.41004000  1.0 -0.5303940074
N  N25  1  0.32360000  0.45752000  0.37142000  1.0 -0.0803609403
N  N26  1  0.67640000  0.04248000  0.87142000  1.0 -0.0803609403
N  N27  1  0.82360000  0.54248000  0.12858000  1.0 -0.0803609403
N  N28  1  0.17640000  0.95752000  0.62858000  1.0 -0.0803609403
N  N29  1  0.67640000  0.54248000  0.62858000  1.0 -0.0803609403
N  N30  1  0.32360000  0.95752000  0.12858000  1.0 -0.0803609403
N  N31  1  0.17640000  0.45752000  0.87142000  1.0 -0.0803609403
N  N32  1  0.82360000  0.04248000  0.37142000  1.0 -0.0803609403
N  N33  1  0.87020000  0.41809000  0.48557000  1.0 -0.0876894797
N  N34  1  0.12980000  0.08191000  0.98557000  1.0 -0.0876894797
N  N35  1  0.37020000  0.58191000  0.01443000  1.0 -0.0876894797
N  N36  1  0.62980000  0.91809000  0.51443000  1.0 -0.0876894797
N  N37  1  0.12980000  0.58191000  0.51443000  1.0 -0.0876894797
N  N38  1  0.87020000  0.91809000  0.01443000  1.0 -0.0876894797
N  N39  1  0.62980000  0.41809000  0.98557000  1.0 -0.0876894797
N  N40  1  0.37020000  0.08191000  0.48557000  1.0 -0.0876894797
N  N41  1  0.78940000  0.36361000  0.33262000  1.0 -0.1077236411
N  N42  1  0.21060000  0.13639000  0.83262000  1.0 -0.1077236411
N  N43  1  0.28940000  0.63639000  0.16738000  1.0 -0.1077236411
N  N44  1  0.71060000  0.86361000  0.66738000  1.0 -0.1077236411
N  N45  1  0.21060000  0.63639000  0.66738000  1.0 -0.1077236411
N  N46  1  0.78940000  0.86361000  0.16738000  1.0 -0.1077236411
N  N47  1  0.71060000  0.36361000  0.83262000  1.0 -0.1077236411
N  N48  1  0.28940000  0.13639000  0.33262000  1.0 -0.1077236411
O  O1  1  0.43160000  0.25549000  0.20479000  1.0 -0.6533463643
O  O2  1  0.56840000  0.24451000  0.70479000  1.0 -0.6533463643
O  O3  1  0.93160000  0.74451000  0.29521000  1.0 -0.6533463643
O  O4  1  0.06840000  0.75549000  0.79521000  1.0 -0.6533463643
O  O5  1  0.56840000  0.74451000  0.79521000  1.0 -0.6533463643
O  O6  1  0.43160000  0.75549000  0.29521000  1.0 -0.6533463643
O  O7  1  0.06840000  0.25549000  0.70479000  1.0 -0.6533463643
O  O8  1  0.93160000  0.24451000  0.20479000  1.0 -0.6533463643
O  O9  1  0.28660000  0.32411000  0.22120000  1.0 -0.5524213732
O  O10  1  0.71340000  0.17589000  0.72120000  1.0 -0.5524213732
O  O11  1  0.78660000  0.67589000  0.27880000  1.0 -0.5524213732
O  O12  1  0.21340000  0.82411000  0.77880000  1.0 -0.5524213732
O  O13  1  0.71340000  0.67589000  0.77880000  1.0 -0.5524213732
O  O14  1  0.28660000  0.82411000  0.27880000  1.0 -0.5524213732
O  O15  1  0.21340000  0.32411000  0.72120000  1.0 -0.5524213732
O  O16  1  0.78660000  0.17589000  0.22120000  1.0 -0.5524213732
O  O17  1  0.59110000  0.61704000  0.35208000  1.0 -0.5954411597
O  O18  1  0.40890000  0.88296000  0.85208000  1.0 -0.5954411597
O  O19  1  0.09110000  0.38296000  0.14792000  1.0 -0.5954411597
O  O20  1  0.90890000  0.11704000  0.64792000  1.0 -0.5954411597
O  O21  1  0.40890000  0.38296000  0.64792000  1.0 -0.5954411597
O  O22  1  0.59110000  0.11704000  0.14792000  1.0 -0.5954411597
O  O23  1  0.90890000  0.61704000  0.85208000  1.0 -0.5954411597
O  O24  1  0.09110000  0.88296000  0.35208000  1.0 -0.5954411597
O  O25  1  0.75470000  0.58613000  0.29110000  1.0 -0.6097564967
O  O26  1  0.24530000  0.91387000  0.79110000  1.0 -0.6097564967
O  O27  1  0.25470000  0.41387000  0.20890000  1.0 -0.6097564967
O  O28  1  0.74530000  0.08613000  0.70890000  1.0 -0.6097564967
O  O29  1  0.24530000  0.41387000  0.70890000  1.0 -0.6097564967
O  O30  1  0.75470000  0.08613000  0.20890000  1.0 -0.6097564967
O  O31  1  0.74530000  0.58613000  0.79110000  1.0 -0.6097564967
O  O32  1  0.25470000  0.91387000  0.29110000  1.0 -0.6097564967
O  O33  1  0.71680000  0.29868000  0.61845000  1.0 -0.6648018153
O  O34  1  0.28320000  0.20132000  0.11845000  1.0 -0.6656208308
O  O35  1  0.21680000  0.70132000  0.88155000  1.0 -0.6648018153
O  O36  1  0.78320000  0.79868000  0.38155000  1.0 -0.6648018153
O  O37  1  0.28320000  0.70132000  0.38155000  1.0 -0.6656208308
O  O38  1  0.71680000  0.79868000  0.88155000  1.0 -0.6648018153
O  O39  1  0.78320000  0.29868000  0.11845000  1.0 -0.6656208308
O  O40  1  0.21680000  0.20132000  0.61845000  1.0 -0.6648018153
O  O41  1  0.03220000  0.30416000  0.61035000  1.0 -0.6215948285
O  O42  1  0.96780000  0.19584000  0.11035000  1.0 -0.6215948285
O  O43  1  0.53220000  0.69584000  0.88965000  1.0 -0.6215948285
O  O44  1  0.46780000  0.80416000  0.38965000  1.0 -0.6215948285
O  O45  1  0.96780000  0.69584000  0.38965000  1.0 -0.6215948285
O  O46  1  0.03220000  0.80416000  0.88965000  1.0 -0.6215948285
O  O47  1  0.46780000  0.30416000  0.11035000  1.0 -0.6215948285
O  O48  1  0.53220000  0.19584000  0.61035000  1.0 -0.6215948285
