# DDEC6 charges by PACMAN v1.1 (https://github.com/mtap-research/PACMAN-charge/)
data_EZOBUR02_FSR_pacman
_symmetry_space_group_name_H-M   'P 1'
_cell_length_a   31.40760000
_cell_length_b   31.40760000
_cell_length_c   17.60130000
_cell_angle_alpha   84.79210000
_cell_angle_beta   95.20790000
_cell_angle_gamma   151.56700000
_symmetry_Int_Tables_number   1
_chemical_formula_structural   Cu3H38C58N6(O7F45)2
_chemical_formula_sum   'Cu12 H152 C232 N24 O56 F360'
_cell_volume   8230.53669580
_cell_formula_units_Z   4
loop_
 _symmetry_equiv_pos_site_id
 _symmetry_equiv_pos_as_xyz
  1  'x, y, z'
loop_
 _atom_site_type_symbol
 _atom_site_label
 _atom_site_symmetry_multiplicity
 _atom_site_fract_x
 _atom_site_fract_y
 _atom_site_fract_z
 _atom_site_occupancy
 _atom_site_charge
Cu  Cu1  1  0.79111000  0.09999000  0.48056000  1.0 0.8890673284
Cu  Cu2  1  0.09999000  0.79111000  0.01944000  1.0 0.8890673284
Cu  Cu3  1  0.20889000  0.90001000  0.51944000  1.0 0.8890673284
Cu  Cu4  1  0.90001000  0.20889000  0.98056000  1.0 0.8890673284
Cu  Cu5  1  0.51404000  0.09876000  0.36364000  1.0 0.9214763408
Cu  Cu6  1  0.09876000  0.51404000  0.13636000  1.0 0.9214763408
Cu  Cu7  1  0.48596000  0.90124000  0.63636000  1.0 0.9214763408
Cu  Cu8  1  0.90124000  0.48596000  0.86364000  1.0 0.9214763408
Cu  Cu9  1  0.00000000  0.00000000  0.50000000  1.0 0.8837766563
Cu  Cu10  1  0.00000000  0.00000000  0.00000000  1.0 0.8837766563
Cu  Cu11  1  0.26012000  0.26012000  0.75000000  1.0 0.8247198378
Cu  Cu12  1  0.73988000  0.73988000  0.25000000  1.0 0.8258059536
H  H1  1  0.96950000  0.06530000  0.53690000  1.0 0.1009399827
H  H2  1  0.06530000  0.96950000  0.96310000  1.0 0.1009399827
H  H3  1  0.03050000  0.93470000  0.46310000  1.0 0.1009399827
H  H4  1  0.93470000  0.03050000  0.03690000  1.0 0.1009399827
H  H5  1  0.13960000  0.12580000  0.61870000  1.0 0.1112340497
H  H6  1  0.12580000  0.13960000  0.88130000  1.0 0.1112340497
H  H7  1  0.86040000  0.87420000  0.38130000  1.0 0.1112340497
H  H8  1  0.87420000  0.86040000  0.11870000  1.0 0.1112340497
H  H9  1  0.13010000  0.22430000  0.71640000  1.0 0.0895284898
H  H10  1  0.22430000  0.13010000  0.78360000  1.0 0.0895284898
H  H11  1  0.86990000  0.77570000  0.28360000  1.0 0.0895284898
H  H12  1  0.77570000  0.86990000  0.21640000  1.0 0.0895284898
H  H13  1  0.88030000  0.03410000  0.58590000  1.0 0.1112340497
H  H14  1  0.03410000  0.88030000  0.91410000  1.0 0.1112340497
H  H15  1  0.11970000  0.96590000  0.41410000  1.0 0.1112340497
H  H16  1  0.96590000  0.11970000  0.08590000  1.0 0.1112340497
H  H17  1  0.89790000  0.16810000  0.66090000  1.0 0.1009399827
H  H18  1  0.16810000  0.89790000  0.83910000  1.0 0.1009399827
H  H19  1  0.10210000  0.83190000  0.33910000  1.0 0.1009399827
H  H20  1  0.83190000  0.10210000  0.16090000  1.0 0.1009399827
H  H21  1  0.04430000  0.28210000  0.70220000  1.0 0.069790588
H  H22  1  0.28210000  0.04430000  0.79780000  1.0 0.069790588
H  H23  1  0.95570000  0.71790000  0.29780000  1.0 0.069790588
H  H24  1  0.71790000  0.95570000  0.20220000  1.0 0.069790588
H  H25  1  0.11080000  0.27560000  0.68430000  1.0 0.0895284898
H  H26  1  0.27560000  0.11080000  0.81570000  1.0 0.0895284898
H  H27  1  0.88920000  0.72440000  0.31570000  1.0 0.0895284898
H  H28  1  0.72440000  0.88920000  0.18430000  1.0 0.0895284898
H  H29  1  0.77130000  0.92970000  0.66090000  1.0 0.0895284898
H  H30  1  0.92970000  0.77130000  0.83910000  1.0 0.0895284898
H  H31  1  0.22870000  0.07030000  0.33910000  1.0 0.0895284898
H  H32  1  0.07030000  0.22870000  0.16090000  1.0 0.0895284898
H  H33  1  0.70930000  0.90630000  0.70450000  1.0 0.0895284898
H  H34  1  0.90630000  0.70930000  0.79550000  1.0 0.0895284898
H  H35  1  0.29070000  0.09370000  0.29550000  1.0 0.0895284898
H  H36  1  0.09370000  0.29070000  0.20450000  1.0 0.0895284898
H  H37  1  0.66470000  0.83130000  0.65660000  1.0 0.1311274014
H  H38  1  0.83130000  0.66470000  0.84340000  1.0 0.1311274014
H  H39  1  0.33530000  0.16870000  0.34340000  1.0 0.1311274014
H  H40  1  0.16870000  0.33530000  0.15660000  1.0 0.1311274014
H  H41  1  0.77340000  0.94180000  0.51330000  1.0 0.1009399827
H  H42  1  0.94180000  0.77340000  0.98670000  1.0 0.1009399827
H  H43  1  0.22660000  0.05820000  0.48670000  1.0 0.1009399827
H  H44  1  0.05820000  0.22660000  0.01330000  1.0 0.1009399827
H  H45  1  0.66666667  0.84460000  0.50800000  1.0 0.1112340497
H  H46  1  0.84460000  0.66666667  0.99200000  1.0 0.1112340497
H  H47  1  0.33340000  0.15540000  0.49200000  1.0 0.1112340497
H  H48  1  0.15540000  0.33340000  0.00800000  1.0 0.1112340497
H  H49  1  0.71600000  0.92960000  0.46990000  1.0 0.1200823436
H  H50  1  0.92960000  0.71600000  0.03010000  1.0 0.1200823436
H  H51  1  0.28400000  0.07040000  0.53010000  1.0 0.1200823436
H  H52  1  0.07040000  0.28400000  0.96990000  1.0 0.1200823436
H  H53  1  0.61790000  0.88070000  0.63480000  1.0 0.1009399827
H  H54  1  0.88070000  0.61790000  0.86520000  1.0 0.1009399827
H  H55  1  0.38210000  0.11930000  0.36520000  1.0 0.1009399827
H  H56  1  0.11930000  0.38210000  0.13480000  1.0 0.1009399827
H  H57  1  0.62140000  0.89240000  0.54390000  1.0 0.1311274014
H  H58  1  0.89240000  0.62140000  0.95610000  1.0 0.1311274014
H  H59  1  0.37860000  0.10760000  0.45610000  1.0 0.1311274014
H  H60  1  0.10760000  0.37860000  0.04390000  1.0 0.1311274014
H  H61  1  0.57230000  0.80750000  0.58180000  1.0 0.1402004596
H  H62  1  0.80750000  0.57230000  0.91820000  1.0 0.1402004596
H  H63  1  0.42770000  0.19250000  0.41820000  1.0 0.1402004596
H  H64  1  0.19250000  0.42770000  0.08180000  1.0 0.1402004596
H  H65  1  0.60890000  0.07810000  0.59480000  1.0 0.1112340497
H  H66  1  0.07810000  0.60890000  0.90520000  1.0 0.1112340497
H  H67  1  0.39110000  0.92190000  0.40520000  1.0 0.1112340497
H  H68  1  0.92190000  0.39110000  0.09480000  1.0 0.1112340497
H  H69  1  0.62610000  0.97090000  0.56540000  1.0 0.1200823436
H  H70  1  0.97090000  0.62610000  0.93460000  1.0 0.1200823436
H  H71  1  0.37390000  0.02910000  0.43460000  1.0 0.1200823436
H  H72  1  0.02910000  0.37390000  0.06540000  1.0 0.1200823436
H  H73  1  0.81410000  0.21350000  0.48240000  1.0 0.0895284898
H  H74  1  0.21350000  0.81410000  0.01760000  1.0 0.0895284898
H  H75  1  0.18590000  0.78650000  0.51760000  1.0 0.0895284898
H  H76  1  0.78650000  0.18590000  0.98240000  1.0 0.0895284898
H  H77  1  0.62280000  0.14640000  0.50750000  1.0 0.1311274014
H  H78  1  0.14640000  0.62280000  0.99250000  1.0 0.1311274014
H  H79  1  0.37720000  0.85360000  0.49250000  1.0 0.1311274014
H  H80  1  0.85360000  0.37720000  0.00750000  1.0 0.1311274014
H  H81  1  0.82110000  0.40730000  0.46390000  1.0 0.0895284898
H  H82  1  0.40730000  0.82110000  0.03610000  1.0 0.0895284898
H  H83  1  0.17890000  0.59270000  0.53610000  1.0 0.0895284898
H  H84  1  0.59270000  0.17890000  0.96390000  1.0 0.0895284898
H  H85  1  0.92620000  0.44580000  0.48920000  1.0 0.0507559681
H  H86  1  0.44580000  0.92620000  0.01080000  1.0 0.0507559681
H  H87  1  0.07380000  0.55420000  0.51080000  1.0 0.0507559681
H  H88  1  0.55420000  0.07380000  0.98920000  1.0 0.0507559681
H  H89  1  0.88250000  0.33690000  0.52300000  1.0 0.0806125016
H  H90  1  0.33690000  0.88250000  0.97700000  1.0 0.069790588
H  H91  1  0.11750000  0.66310000  0.47700000  1.0 0.069790588
H  H92  1  0.66310000  0.11750000  0.02300000  1.0 0.0806125016
H  H93  1  0.76680000  0.39860000  0.53880000  1.0 0.0895284898
H  H94  1  0.39860000  0.76680000  0.96120000  1.0 0.0895284898
H  H95  1  0.23320000  0.60140000  0.46120000  1.0 0.0895284898
H  H96  1  0.60140000  0.23320000  0.03880000  1.0 0.0895284898
H  H97  1  0.67370000  0.31770000  0.58170000  1.0 0.0895284898
H  H98  1  0.31770000  0.67370000  0.91830000  1.0 0.0895284898
H  H99  1  0.32630000  0.68230000  0.41830000  1.0 0.0895284898
H  H100  1  0.68230000  0.32630000  0.08170000  1.0 0.0895284898
H  H101  1  0.71210000  0.39430000  0.53800000  1.0 0.0895284898
H  H102  1  0.39430000  0.71210000  0.96200000  1.0 0.0895284898
H  H103  1  0.28790000  0.60570000  0.46200000  1.0 0.0895284898
H  H104  1  0.60570000  0.28790000  0.03800000  1.0 0.0895284898
H  H105  1  0.53410000  0.20750000  0.50990000  1.0 0.0895284898
H  H106  1  0.20750000  0.53410000  0.99010000  1.0 0.0895284898
H  H107  1  0.46590000  0.79250000  0.49010000  1.0 0.0895284898
H  H108  1  0.79250000  0.46590000  0.00990000  1.0 0.0895284898
H  H109  1  0.52990000  0.20510000  0.41880000  1.0 0.1402004596
H  H110  1  0.20510000  0.52990000  0.08120000  1.0 0.1402004596
H  H111  1  0.47010000  0.79490000  0.58120000  1.0 0.1402004596
H  H112  1  0.79490000  0.47010000  0.91880000  1.0 0.1402004596
H  H113  1  0.57130000  0.28090000  0.45900000  1.0 0.1311274014
H  H114  1  0.28090000  0.57130000  0.04100000  1.0 0.1311274014
H  H115  1  0.42870000  0.71910000  0.54100000  1.0 0.1311274014
H  H116  1  0.71910000  0.42870000  0.95900000  1.0 0.1311274014
H  H117  1  0.76250000  0.39830000  0.38970000  1.0 0.0895284898
H  H118  1  0.39830000  0.76250000  0.11030000  1.0 0.0895284898
H  H119  1  0.23750000  0.60170000  0.61030000  1.0 0.0895284898
H  H120  1  0.60170000  0.23750000  0.88970000  1.0 0.0895284898
H  H121  1  0.71190000  0.39890000  0.38740000  1.0 0.1009399827
H  H122  1  0.39890000  0.71190000  0.11260000  1.0 0.1009399827
H  H123  1  0.28810000  0.60110000  0.61260000  1.0 0.1009399827
H  H124  1  0.60110000  0.28810000  0.88740000  1.0 0.1009399827
H  H125  1  0.66740000  0.32120000  0.34660000  1.0 0.1200823436
H  H126  1  0.32120000  0.66740000  0.15340000  1.0 0.1200823436
H  H127  1  0.33260000  0.67880000  0.65340000  1.0 0.1200823436
H  H128  1  0.67880000  0.33260000  0.84660000  1.0 0.1200823436
H  H129  1  0.69110000  0.01090000  0.24760000  1.0 0.0806125016
H  H130  1  0.01090000  0.69110000  0.25240000  1.0 0.069790588
H  H131  1  0.30890000  0.98910000  0.75240000  1.0 0.069790588
H  H132  1  0.98910000  0.30890000  0.74760000  1.0 0.069790588
H  H133  1  0.06990000  0.31310000  0.46060000  1.0 0.069790588
H  H134  1  0.31310000  0.06990000  0.03940000  1.0 0.069790588
H  H135  1  0.93010000  0.68690000  0.53940000  1.0 0.069790588
H  H136  1  0.68690000  0.93010000  0.96060000  1.0 0.069790588
H  H137  1  0.45070000  0.09050000  0.13080000  1.0 0.0806125016
H  H138  1  0.09050000  0.45070000  0.36920000  1.0 0.0806125016
H  H139  1  0.54930000  0.90950000  0.86920000  1.0 0.0806125016
H  H140  1  0.90950000  0.54930000  0.63080000  1.0 0.0806125016
H  H141  1  0.68550000  0.16010000  0.26610000  1.0 0.1112340497
H  H142  1  0.16010000  0.68550000  0.23390000  1.0 0.1112340497
H  H143  1  0.31450000  0.83990000  0.73390000  1.0 0.1112340497
H  H144  1  0.83990000  0.31450000  0.76610000  1.0 0.1112340497
H  H145  1  0.82860000  0.80600000  0.68420000  1.0 0.1112340497
H  H146  1  0.80600000  0.82860000  0.81580000  1.0 0.1112340497
H  H147  1  0.17140000  0.19400000  0.31580000  1.0 0.1112340497
H  H148  1  0.19400000  0.17140000  0.18420000  1.0 0.1112340497
H  H149  1  0.40830000  0.46170000  0.90350000  1.0 0.060573084
H  H150  1  0.46170000  0.40830000  0.59650000  1.0 0.060573084
H  H151  1  0.59170000  0.53830000  0.09650000  1.0 0.060573084
H  H152  1  0.53830000  0.59170000  0.40350000  1.0 0.060573084
C  C1  1  0.01439000  0.09501000  0.57350000  1.0 0.0806125016
C  C2  1  0.09501000  0.01439000  0.92650000  1.0 0.0806125016
C  C3  1  0.98561000  0.90499000  0.42650000  1.0 0.0806125016
C  C4  1  0.90499000  0.98561000  0.07350000  1.0 0.0806125016
C  C5  1  0.11406000  0.13094000  0.62140000  1.0 0.2665154551
C  C6  1  0.13094000  0.11406000  0.87860000  1.0 0.2665154551
C  C7  1  0.88594000  0.86906000  0.37860000  1.0 0.2665154551
C  C8  1  0.86906000  0.88594000  0.12140000  1.0 0.2665154551
C  C9  1  0.10931000  0.18889000  0.67790000  1.0 0.0806125016
C  C10  1  0.18889000  0.10931000  0.82210000  1.0 0.0806125016
C  C11  1  0.89069000  0.81111000  0.32210000  1.0 0.0806125016
C  C12  1  0.81111000  0.89069000  0.17790000  1.0 0.0806125016
C  C13  1  0.04206000  0.14594000  0.62720000  1.0 4.54265e-05
C  C14  1  0.14594000  0.04206000  0.87280000  1.0 4.54265e-05
C  C15  1  0.95794000  0.85406000  0.37280000  1.0 -0.0001597424
C  C16  1  0.85406000  0.95794000  0.12720000  1.0 4.54265e-05
C  C17  1  0.00176000  0.15324000  0.63440000  1.0 0.1009399827
C  C18  1  0.15324000  0.00176000  0.86560000  1.0 0.1009399827
C  C19  1  0.99824000  0.84676000  0.36560000  1.0 0.1009399827
C  C20  1  0.84676000  0.99824000  0.13440000  1.0 0.1009399827
C  C21  1  0.91391000  0.08469000  0.60940000  1.0 -0.2817544843
C  C22  1  0.08469000  0.91391000  0.89060000  1.0 -0.2817544843
C  C23  1  0.08609000  0.91531000  0.39060000  1.0 -0.2817544843
C  C24  1  0.91531000  0.08609000  0.10940000  1.0 -0.2817544843
C  C25  1  0.87511000  0.09009000  0.61870000  1.0 0.1641518314
C  C26  1  0.09009000  0.87511000  0.88130000  1.0 0.1641518314
C  C27  1  0.12489000  0.90991000  0.38130000  1.0 0.1641518314
C  C28  1  0.90991000  0.12489000  0.11870000  1.0 0.1641518314
C  C29  1  0.92426000  0.16434000  0.65390000  1.0 -0.2723176489
C  C30  1  0.16434000  0.92426000  0.84610000  1.0 -0.2723176489
C  C31  1  0.07574000  0.83566000  0.34610000  1.0 -0.2723176489
C  C32  1  0.83566000  0.07574000  0.15390000  1.0 -0.2723176489
C  C33  1  0.01097000  0.23183000  0.67810000  1.0 -0.180040861
C  C34  1  0.23183000  0.01097000  0.82190000  1.0 -0.180040861
C  C35  1  0.98903000  0.76817000  0.32190000  1.0 -0.180040861
C  C36  1  0.76817000  0.98903000  0.17810000  1.0 -0.180040861
C  C37  1  0.05046000  0.22774000  0.66820000  1.0 -0.2204142149
C  C38  1  0.22774000  0.05046000  0.83180000  1.0 -0.2204142149
C  C39  1  0.94954000  0.77226000  0.33180000  1.0 -0.2204142149
C  C40  1  0.77226000  0.94954000  0.16820000  1.0 -0.2204142149
C  C41  1  0.71040000  0.92360000  0.58770000  1.0 0.3967232619
C  C42  1  0.92360000  0.71040000  0.91230000  1.0 0.3967232619
C  C43  1  0.28960000  0.07640000  0.41230000  1.0 0.3967232619
C  C44  1  0.07640000  0.28960000  0.08770000  1.0 0.3967232619
C  C45  1  0.71426000  0.89514000  0.65880000  1.0 -0.5526948805
C  C46  1  0.89514000  0.71426000  0.84120000  1.0 -0.5526948805
C  C47  1  0.28574000  0.10486000  0.34120000  1.0 -0.5526948805
C  C48  1  0.10486000  0.28574000  0.15880000  1.0 -0.5526948805
C  C49  1  0.71726000  0.90854000  0.51300000  1.0 -0.5384273018
C  C50  1  0.90854000  0.71726000  0.98700000  1.0 -0.5384273018
C  C51  1  0.28274000  0.09146000  0.48700000  1.0 -0.5384273018
C  C52  1  0.09146000  0.28274000  0.01300000  1.0 -0.5384273018
C  C53  1  0.62264000  0.87136000  0.58700000  1.0 -0.5215583529
C  C54  1  0.87136000  0.62264000  0.91300000  1.0 -0.5215583529
C  C55  1  0.37736000  0.12864000  0.41300000  1.0 -0.5215583529
C  C56  1  0.12864000  0.37736000  0.08700000  1.0 -0.5215583529
C  C57  1  0.63897000  0.08163000  0.57416000  1.0 0.1009399827
C  C58  1  0.08163000  0.63897000  0.92584000  1.0 0.1009399827
C  C59  1  0.36103000  0.91837000  0.42584000  1.0 0.1009399827
C  C60  1  0.91837000  0.36103000  0.07416000  1.0 0.1009399827
C  C61  1  0.65026000  0.02014000  0.55810000  1.0 0.2574446117
C  C62  1  0.02014000  0.65026000  0.94190000  1.0 0.2574446117
C  C63  1  0.34974000  0.97986000  0.44190000  1.0 0.2574446117
C  C64  1  0.97986000  0.34974000  0.05810000  1.0 0.2574446117
C  C65  1  0.76009000  0.16171000  0.50935000  1.0 0.0895284898
C  C66  1  0.16171000  0.76009000  0.99065000  1.0 0.0895284898
C  C67  1  0.23991000  0.83829000  0.49065000  1.0 0.0895284898
C  C68  1  0.83829000  0.23991000  0.00935000  1.0 0.0895284898
C  C69  1  0.71697000  0.15883000  0.53443000  1.0 0.0289896385
C  C70  1  0.15883000  0.71697000  0.96557000  1.0 0.0289896385
C  C71  1  0.28303000  0.84117000  0.46557000  1.0 0.0289896385
C  C72  1  0.84117000  0.28303000  0.03443000  1.0 0.0289896385
C  C73  1  0.74810000  0.23070000  0.51693000  1.0 0.1200823436
C  C74  1  0.23070000  0.74810000  0.98307000  1.0 0.1200823436
C  C75  1  0.25190000  0.76930000  0.48307000  1.0 0.1200823436
C  C76  1  0.76930000  0.25190000  0.01693000  1.0 0.1200823436
C  C77  1  0.68454000  0.20726000  0.50319000  1.0 -0.2289159991
C  C78  1  0.20726000  0.68454000  0.99681000  1.0 -0.2204142149
C  C79  1  0.31546000  0.79274000  0.49681000  1.0 -0.2204142149
C  C80  1  0.79274000  0.31546000  0.00319000  1.0 -0.2289159991
C  C81  1  0.71112000  0.27268000  0.48320000  1.0 0.1754516874
C  C82  1  0.27268000  0.71112000  0.01680000  1.0 0.1754516874
C  C83  1  0.28888000  0.72732000  0.51680000  1.0 0.1754516874
C  C84  1  0.72732000  0.28888000  0.98320000  1.0 0.1754516874
C  C85  1  0.80225000  0.36235000  0.47780000  1.0 -0.2351080562
C  C86  1  0.36235000  0.80225000  0.02220000  1.0 -0.2351080562
C  C87  1  0.19775000  0.63765000  0.52220000  1.0 -0.2289159991
C  C88  1  0.63765000  0.19775000  0.97780000  1.0 -0.2289159991
C  C89  1  0.86442000  0.38478000  0.49260000  1.0 -0.2289159991
C  C90  1  0.38478000  0.86442000  0.00740000  1.0 -0.2289159991
C  C91  1  0.13558000  0.61522000  0.50740000  1.0 -0.2289159991
C  C92  1  0.61522000  0.13558000  0.99260000  1.0 -0.2289159991
C  C93  1  0.83865000  0.32015000  0.51250000  1.0 -0.2858605768
C  C94  1  0.32015000  0.83865000  0.98750000  1.0 -0.2817544843
C  C95  1  0.16135000  0.67985000  0.48750000  1.0 -0.2858605768
C  C96  1  0.67985000  0.16135000  0.01250000  1.0 -0.2817544843
C  C97  1  0.65716000  0.30464000  0.46410000  1.0 0.3861728077
C  C98  1  0.30464000  0.65716000  0.03590000  1.0 0.3861728077
C  C99  1  0.34284000  0.69536000  0.53590000  1.0 0.3861728077
C  C100  1  0.69536000  0.34284000  0.96410000  1.0 0.3861728077
C  C101  1  0.70694000  0.35866000  0.53720000  1.0 -0.5630897964
C  C102  1  0.35866000  0.70694000  0.96280000  1.0 -0.5630897964
C  C103  1  0.29306000  0.64134000  0.46280000  1.0 -0.5630897964
C  C104  1  0.64134000  0.29306000  0.03720000  1.0 -0.5630897964
C  C105  1  0.56486000  0.24414000  0.46280000  1.0 -0.5215583529
C  C106  1  0.24414000  0.56486000  0.03720000  1.0 -0.5215583529
C  C107  1  0.43514000  0.75586000  0.53720000  1.0 -0.5215583529
C  C108  1  0.75586000  0.43514000  0.96280000  1.0 -0.5215583529
C  C109  1  0.70389000  0.36071000  0.39030000  1.0 -0.5526948805
C  C110  1  0.36071000  0.70389000  0.10970000  1.0 -0.5526948805
C  C111  1  0.29611000  0.63929000  0.60970000  1.0 -0.5526948805
C  C112  1  0.63929000  0.29611000  0.89030000  1.0 -0.5526948805
C  C113  1  0.82554000  0.18206000  0.25040000  1.0 0.4880643551
C  C114  1  0.18206000  0.82554000  0.24960000  1.0 0.4880643551
C  C115  1  0.17446000  0.81794000  0.74960000  1.0 0.4880643551
C  C116  1  0.81794000  0.17446000  0.75040000  1.0 0.4880643551
C  C117  1  0.77780000  0.11580000  0.31650000  1.0 -0.0282184769
C  C118  1  0.11580000  0.77780000  0.18350000  1.0 -0.0205679163
C  C119  1  0.22220000  0.88420000  0.68350000  1.0 -0.0282184769
C  C120  1  0.88420000  0.22220000  0.81650000  1.0 -0.0282184769
C  C121  1  0.70539000  0.02661000  0.29970000  1.0 -0.401404706
C  C122  1  0.02661000  0.70539000  0.20030000  1.0 -0.401404706
C  C123  1  0.29461000  0.97339000  0.70030000  1.0 -0.401404706
C  C124  1  0.97339000  0.29461000  0.79970000  1.0 -0.401404706
C  C125  1  0.65242000  0.95878000  0.35610000  1.0 -0.0699771552
C  C126  1  0.95878000  0.65242000  0.14390000  1.0 -0.0699771552
C  C127  1  0.34758000  0.04122000  0.64390000  1.0 -0.0699771552
C  C128  1  0.04122000  0.34758000  0.85610000  1.0 -0.0699771552
C  C129  1  0.56863000  0.86257000  0.32950000  1.0 0.3861728077
C  C130  1  0.86257000  0.56863000  0.17050000  1.0 0.3861728077
C  C131  1  0.43137000  0.13743000  0.67050000  1.0 0.3861728077
C  C132  1  0.13743000  0.43137000  0.82950000  1.0 0.3861728077
C  C133  1  0.07346000  0.38094000  0.54560000  1.0 0.4520776187
C  C134  1  0.38094000  0.07346000  0.95440000  1.0 0.4520776187
C  C135  1  0.92654000  0.61906000  0.45440000  1.0 0.4520776187
C  C136  1  0.61906000  0.92654000  0.04560000  1.0 0.4520776187
C  C137  1  0.99245000  0.28795000  0.51020000  1.0 -0.0400146772
C  C138  1  0.28795000  0.99245000  0.98980000  1.0 -0.0400146772
C  C139  1  0.00755000  0.71205000  0.48980000  1.0 -0.0400146772
C  C140  1  0.71205000  0.00755000  0.01020000  1.0 -0.0400146772
C  C141  1  0.00952000  0.26728000  0.46890000  1.0 -0.348667247
C  C142  1  0.26728000  0.00952000  0.03110000  1.0 -0.348667247
C  C143  1  0.99048000  0.73272000  0.53110000  1.0 -0.348667247
C  C144  1  0.73272000  0.99048000  0.96890000  1.0 -0.3429061822
C  C145  1  0.94258000  0.18382000  0.44030000  1.0 -0.0626721346
C  C146  1  0.18382000  0.94258000  0.05970000  1.0 -0.0626721346
C  C147  1  0.05742000  0.81618000  0.55970000  1.0 -0.0626721346
C  C148  1  0.81618000  0.05742000  0.94030000  1.0 -0.0626721346
C  C149  1  0.96983000  0.17057000  0.39600000  1.0 0.3688408995
C  C150  1  0.17057000  0.96983000  0.10400000  1.0 0.3765352482
C  C151  1  0.03017000  0.82943000  0.60400000  1.0 0.3765352482
C  C152  1  0.82943000  0.03017000  0.89600000  1.0 0.3688408995
C  C153  1  0.42744000  0.98696000  0.14690000  1.0 0.3688408995
C  C154  1  0.98696000  0.42744000  0.35310000  1.0 0.3688408995
C  C155  1  0.57256000  0.01304000  0.85310000  1.0 0.3688408995
C  C156  1  0.01304000  0.57256000  0.64690000  1.0 0.3688408995
C  C157  1  0.44883000  0.03697000  0.20640000  1.0 -0.1327845055
C  C158  1  0.03697000  0.44883000  0.29360000  1.0 -0.1327845055
C  C159  1  0.55117000  0.96303000  0.79360000  1.0 -0.1327845055
C  C160  1  0.96303000  0.55117000  0.70640000  1.0 -0.1327845055
C  C161  1  0.45480000  0.08520000  0.18380000  1.0 -0.3429061822
C  C162  1  0.08520000  0.45480000  0.31620000  1.0 -0.3429061822
C  C163  1  0.54520000  0.91480000  0.81620000  1.0 -0.3429061822
C  C164  1  0.91480000  0.54520000  0.68380000  1.0 -0.3429061822
C  C165  1  0.46654000  0.12666000  0.23520000  1.0 -0.0699771552
C  C166  1  0.12666000  0.46654000  0.26480000  1.0 -0.0699771552
C  C167  1  0.53346000  0.87334000  0.76480000  1.0 -0.0699771552
C  C168  1  0.87334000  0.53346000  0.73520000  1.0 -0.0699771552
C  C169  1  0.46429000  0.17151000  0.20330000  1.0 0.3765352482
C  C170  1  0.17151000  0.46429000  0.29670000  1.0 0.3765352482
C  C171  1  0.53571000  0.82849000  0.79670000  1.0 0.3765352482
C  C172  1  0.82849000  0.53571000  0.70330000  1.0 0.3765352482
C  C173  1  0.56630000  0.00650000  0.33840000  1.0 0.5675496374
C  C174  1  0.00650000  0.56630000  0.16160000  1.0 0.5675496374
C  C175  1  0.43370000  0.99350000  0.66160000  1.0 0.5675496374
C  C176  1  0.99350000  0.43370000  0.83840000  1.0 0.5675496374
C  C177  1  0.58595000  0.07145000  0.34360000  1.0 0.0507559681
C  C178  1  0.07145000  0.58595000  0.15640000  1.0 0.0507559681
C  C179  1  0.41405000  0.92855000  0.65640000  1.0 0.0507559681
C  C180  1  0.92855000  0.41405000  0.84360000  1.0 0.0507559681
C  C181  1  0.65203000  0.14857000  0.29570000  1.0 -0.3335755552
C  C182  1  0.14857000  0.65203000  0.20430000  1.0 -0.3335755552
C  C183  1  0.34797000  0.85143000  0.70430000  1.0 -0.3335755552
C  C184  1  0.85143000  0.34797000  0.79570000  1.0 -0.3335755552
C  C185  1  0.67073000  0.20807000  0.28970000  1.0 -0.0282184769
C  C186  1  0.20807000  0.67073000  0.21030000  1.0 -0.0282184769
C  C187  1  0.32927000  0.79193000  0.71030000  1.0 -0.0282184769
C  C188  1  0.79193000  0.32927000  0.78970000  1.0 -0.0282184769
C  C189  1  0.74742000  0.29198000  0.23970000  1.0 0.5316914533
C  C190  1  0.29198000  0.74742000  0.26030000  1.0 0.5316914533
C  C191  1  0.25258000  0.70802000  0.76030000  1.0 0.5316914533
C  C192  1  0.70802000  0.25258000  0.73970000  1.0 0.5316914533
C  C193  1  0.74576000  0.79184000  0.59540000  1.0 0.5855403458
C  C194  1  0.79184000  0.74576000  0.90460000  1.0 0.5855403458
C  C195  1  0.25424000  0.20816000  0.40460000  1.0 0.5855403458
C  C196  1  0.20816000  0.25424000  0.09540000  1.0 0.5855403458
C  C197  1  0.83811000  0.85409000  0.58850000  1.0 0.060573084
C  C198  1  0.85409000  0.83811000  0.91150000  1.0 0.060573084
C  C199  1  0.16189000  0.14591000  0.41150000  1.0 0.060573084
C  C200  1  0.14591000  0.16189000  0.08850000  1.0 0.060573084
C  C201  1  0.86720000  0.84800000  0.64330000  1.0 -0.3900264959
C  C202  1  0.84800000  0.86720000  0.85670000  1.0 -0.3900264959
C  C203  1  0.13280000  0.15200000  0.35670000  1.0 -0.3900264959
C  C204  1  0.15200000  0.13280000  0.14330000  1.0 -0.3900264959
C  C205  1  0.94983000  0.89977000  0.64240000  1.0 -0.0090994235
C  C206  1  0.89977000  0.94983000  0.85760000  1.0 -0.0090994235
C  C207  1  0.05017000  0.10023000  0.35760000  1.0 -0.0090994235
C  C208  1  0.10023000  0.05017000  0.14240000  1.0 -0.0090994235
C  C209  1  0.96834000  0.88226000  0.70940000  1.0 0.4279746776
C  C210  1  0.88226000  0.96834000  0.79060000  1.0 0.4279746776
C  C211  1  0.03166000  0.11774000  0.29060000  1.0 0.4279746776
C  C212  1  0.11774000  0.03166000  0.20940000  1.0 0.4279746776
C  C213  1  0.25007000  0.35813000  0.87530000  1.0 0.4227068935
C  C214  1  0.35813000  0.25007000  0.62470000  1.0 0.4227068935
C  C215  1  0.74993000  0.64187000  0.12470000  1.0 0.4227068935
C  C216  1  0.64187000  0.74993000  0.37530000  1.0 0.4227068935
C  C217  1  0.28938000  0.35102000  0.85150000  1.0 0.0089473329
C  C218  1  0.35102000  0.28938000  0.64850000  1.0 0.0089473329
C  C219  1  0.71062000  0.64898000  0.14850000  1.0 0.0089473329
C  C220  1  0.64898000  0.71062000  0.35150000  1.0 0.0089473329
C  C221  1  0.37380000  0.41300000  0.87440000  1.0 -0.3900264959
C  C222  1  0.41300000  0.37380000  0.62560000  1.0 -0.3900264959
C  C223  1  0.62620000  0.58700000  0.12560000  1.0 -0.3900264959
C  C224  1  0.58700000  0.62620000  0.37440000  1.0 -0.3900264959
C  C225  1  0.41182000  0.40778000  0.85640000  1.0 -0.0626721346
C  C226  1  0.40778000  0.41182000  0.64360000  1.0 -0.0626721346
C  C227  1  0.58818000  0.59222000  0.14360000  1.0 -0.0626721346
C  C228  1  0.59222000  0.58818000  0.35640000  1.0 -0.0626721346
C  C229  1  0.51244000  0.48956000  0.88350000  1.0 0.3531988476
C  C230  1  0.48956000  0.51244000  0.61650000  1.0 0.3531988476
C  C231  1  0.48756000  0.51044000  0.11650000  1.0 0.3531988476
C  C232  1  0.51044000  0.48756000  0.38350000  1.0 0.3531988476
N  N1  1  0.04893000  0.08587000  0.57118000  1.0 -0.3181909407
N  N2  1  0.08587000  0.04893000  0.92882000  1.0 -0.3181909407
N  N3  1  0.95107000  0.91413000  0.42882000  1.0 -0.3181909407
N  N4  1  0.91413000  0.95107000  0.07118000  1.0 -0.3181909407
N  N5  1  0.14578000  0.18222000  0.67457000  1.0 -0.3076834428
N  N6  1  0.18222000  0.14578000  0.82543000  1.0 -0.3076834428
N  N7  1  0.85422000  0.81778000  0.32543000  1.0 -0.3076834428
N  N8  1  0.81778000  0.85422000  0.17457000  1.0 -0.3076834428
N  N9  1  0.78595000  0.02185000  0.59380000  1.0 0.1402004596
N  N10  1  0.02185000  0.78595000  0.90620000  1.0 0.1311274014
N  N11  1  0.21405000  0.97815000  0.40620000  1.0 0.1311274014
N  N12  1  0.97815000  0.21405000  0.09380000  1.0 0.1311274014
N  N13  1  0.60457000  0.01199000  0.58436000  1.0 -0.3076834428
N  N14  1  0.01199000  0.60457000  0.91564000  1.0 -0.3076834428
N  N15  1  0.39543000  0.98801000  0.41564000  1.0 -0.3076834428
N  N16  1  0.98801000  0.39543000  0.08436000  1.0 -0.3076834428
N  N17  1  0.72752000  0.09328000  0.52222000  1.0 -0.348667247
N  N18  1  0.09328000  0.72752000  0.97778000  1.0 -0.348667247
N  N19  1  0.27248000  0.90672000  0.47778000  1.0 -0.348667247
N  N20  1  0.90672000  0.27248000  0.02222000  1.0 -0.348667247
N  N21  1  0.64315000  0.24411000  0.46796000  1.0 0.1678029189
N  N22  1  0.24411000  0.64315000  0.03204000  1.0 0.1678029189
N  N23  1  0.35685000  0.75589000  0.53204000  1.0 0.1678029189
N  N24  1  0.75589000  0.35685000  0.96796000  1.0 0.1678029189
O  O1  1  0.76743000  0.04589000  0.58033000  1.0 -0.401404706
O  O2  1  0.04589000  0.76743000  0.91967000  1.0 -0.401404706
O  O3  1  0.23257000  0.95411000  0.41967000  1.0 -0.401404706
O  O4  1  0.95411000  0.23257000  0.08033000  1.0 -0.401404706
O  O5  1  0.56215000  0.15903000  0.46014000  1.0 -0.3900264959
O  O6  1  0.15903000  0.56215000  0.03986000  1.0 -0.3900264959
O  O7  1  0.43785000  0.84097000  0.53986000  1.0 -0.3900264959
O  O8  1  0.84097000  0.43785000  0.96014000  1.0 -0.3900264959
O  O9  1  0.81144000  0.15238000  0.38082000  1.0 -0.4978945042
O  O10  1  0.15238000  0.81144000  0.11918000  1.0 -0.4978945042
O  O11  1  0.18856000  0.84762000  0.61918000  1.0 -0.4978945042
O  O12  1  0.84762000  0.18856000  0.88082000  1.0 -0.4978945042
O  O13  1  0.66342000  0.96654000  0.42640000  1.0 -0.4616668541
O  O14  1  0.96654000  0.66342000  0.07360000  1.0 -0.4616668541
O  O15  1  0.33658000  0.03346000  0.57360000  1.0 -0.4616668541
O  O16  1  0.03346000  0.33658000  0.92640000  1.0 -0.4616668541
O  O17  1  0.92002000  0.24076000  0.52231000  1.0 -0.4263146605
O  O18  1  0.24076000  0.92002000  0.97769000  1.0 -0.4263146605
O  O19  1  0.07998000  0.75924000  0.47769000  1.0 -0.4263146605
O  O20  1  0.75924000  0.07998000  0.02231000  1.0 -0.4263146605
O  O21  1  0.85843000  0.11249000  0.44512000  1.0 -0.4663078785
O  O22  1  0.11249000  0.85843000  0.05488000  1.0 -0.4663078785
O  O23  1  0.14157000  0.88751000  0.55488000  1.0 -0.4663078785
O  O24  1  0.88751000  0.14157000  0.94512000  1.0 -0.4616668541
O  O25  1  0.45871000  0.02661000  0.27277000  1.0 -0.5215583529
O  O26  1  0.02661000  0.45871000  0.22723000  1.0 -0.5215583529
O  O27  1  0.54129000  0.97339000  0.72723000  1.0 -0.5215583529
O  O28  1  0.97339000  0.54129000  0.77277000  1.0 -0.5215583529
O  O29  1  0.47689000  0.13041000  0.30593000  1.0 -0.4616668541
O  O30  1  0.13041000  0.47689000  0.19407000  1.0 -0.4616668541
O  O31  1  0.52311000  0.86959000  0.69407000  1.0 -0.4616668541
O  O32  1  0.86959000  0.52311000  0.80593000  1.0 -0.4616668541
O  O33  1  0.54238000  0.05008000  0.39215000  1.0 -0.4053887288
O  O34  1  0.05008000  0.54238000  0.10785000  1.0 -0.4053887288
O  O35  1  0.45762000  0.94992000  0.60785000  1.0 -0.4053887288
O  O36  1  0.94992000  0.45762000  0.89215000  1.0 -0.4053887288
O  O37  1  0.63196000  0.20422000  0.32014000  1.0 -0.4663078785
O  O38  1  0.20422000  0.63196000  0.17986000  1.0 -0.4663078785
O  O39  1  0.36804000  0.79578000  0.67986000  1.0 -0.4663078785
O  O40  1  0.79578000  0.36804000  0.82014000  1.0 -0.4663078785
O  O41  1  0.87800000  0.90546000  0.53019000  1.0 -0.4211887901
O  O42  1  0.90546000  0.87800000  0.96981000  1.0 -0.4211887901
O  O43  1  0.12200000  0.09454000  0.46981000  1.0 -0.4211887901
O  O44  1  0.09454000  0.12200000  0.03019000  1.0 -0.4211887901
O  O45  1  0.00979000  0.95751000  0.59540000  1.0 -0.4211887901
O  O46  1  0.95751000  0.00979000  0.90460000  1.0 -0.4211887901
O  O47  1  0.99021000  0.04249000  0.40460000  1.0 -0.4211887901
O  O48  1  0.04249000  0.99021000  0.09540000  1.0 -0.4211887901
O  O49  1  0.23349000  0.28291000  0.81086000  1.0 -0.438063183
O  O50  1  0.28291000  0.23349000  0.68914000  1.0 -0.438063183
O  O51  1  0.76651000  0.71709000  0.18914000  1.0 -0.438063183
O  O52  1  0.71709000  0.76651000  0.31086000  1.0 -0.438063183
O  O53  1  0.37683000  0.34937000  0.81960000  1.0 -0.4211887901
O  O54  1  0.34937000  0.37683000  0.68040000  1.0 -0.4211887901
O  O55  1  0.62317000  0.65063000  0.18040000  1.0 -0.4211887901
O  O56  1  0.65063000  0.62317000  0.31960000  1.0 -0.4211887901
F  F1  1  0.80952000  0.21148000  0.25220000  1.0 0.0289896385
F  F2  1  0.21148000  0.80952000  0.24780000  1.0 0.022990879
F  F3  1  0.19048000  0.78852000  0.74780000  1.0 0.022990879
F  F4  1  0.78852000  0.19048000  0.75220000  1.0 0.0289896385
F  F5  1  0.80048000  0.15072000  0.18240000  1.0 -0.0485123947
F  F6  1  0.15072000  0.80048000  0.31760000  1.0 -0.0485123947
F  F7  1  0.19952000  0.84928000  0.81760000  1.0 -0.0485123947
F  F8  1  0.84928000  0.19952000  0.68240000  1.0 -0.0485123947
F  F9  1  0.91007000  0.25173000  0.25070000  1.0 0.0089473329
F  F10  1  0.25173000  0.91007000  0.24930000  1.0 0.0089473329
F  F11  1  0.08993000  0.74827000  0.74930000  1.0 0.0089473329
F  F12  1  0.74827000  0.08993000  0.75070000  1.0 0.0089473329
F  F13  1  0.57167000  0.85333000  0.25970000  1.0 0.060573084
F  F14  1  0.85333000  0.57167000  0.24030000  1.0 0.060573084
F  F15  1  0.42833000  0.14667000  0.74030000  1.0 0.069790588
F  F16  1  0.14667000  0.42833000  0.75970000  1.0 0.069790588
F  F17  1  0.54221000  0.80779000  0.37930000  1.0 0.0895284898
F  F18  1  0.80779000  0.54221000  0.12070000  1.0 0.0895284898
F  F19  1  0.45779000  0.19221000  0.62070000  1.0 0.0895284898
F  F20  1  0.19221000  0.45779000  0.87930000  1.0 0.0895284898
F  F21  1  0.49791000  0.83109000  0.32830000  1.0 0.060573084
F  F22  1  0.83109000  0.49791000  0.17170000  1.0 0.060573084
F  F23  1  0.50209000  0.16891000  0.67170000  1.0 0.060573084
F  F24  1  0.16891000  0.50209000  0.82830000  1.0 0.060573084
F  F25  1  0.05424000  0.37516000  0.61760000  1.0 0.0403975424
F  F26  1  0.37516000  0.05424000  0.88240000  1.0 0.0403975424
F  F27  1  0.94576000  0.62484000  0.38240000  1.0 0.0403975424
F  F28  1  0.62484000  0.94576000  0.11760000  1.0 0.0403975424
F  F29  1  0.09696000  0.43564000  0.50690000  1.0 0.0289896385
F  F30  1  0.43564000  0.09696000  0.99310000  1.0 0.0289896385
F  F31  1  0.90304000  0.56436000  0.49310000  1.0 0.022990879
F  F32  1  0.56436000  0.90304000  0.00690000  1.0 0.022990879
F  F33  1  0.15235000  0.42725000  0.53600000  1.0 -0.0282184769
F  F34  1  0.42725000  0.15235000  0.96400000  1.0 -0.0282184769
F  F35  1  0.84765000  0.57275000  0.46400000  1.0 -0.0282184769
F  F36  1  0.57275000  0.84765000  0.03600000  1.0 -0.0282184769
F  F37  1  0.96303000  0.17117000  0.32780000  1.0 0.0507559681
F  F38  1  0.17117000  0.96303000  0.17220000  1.0 0.0507559681
F  F39  1  0.03697000  0.82883000  0.67220000  1.0 0.0507559681
F  F40  1  0.82883000  0.03697000  0.82780000  1.0 0.0507559681
F  F41  1  0.05066000  0.22634000  0.41010000  1.0 0.1402004596
F  F42  1  0.22634000  0.05066000  0.08990000  1.0 0.1402004596
F  F43  1  0.94934000  0.77366000  0.58990000  1.0 0.1402004596
F  F44  1  0.77366000  0.94934000  0.91010000  1.0 0.1402004596
F  F45  1  0.91506000  0.08574000  0.41700000  1.0 0.060573084
F  F46  1  0.08574000  0.91506000  0.08300000  1.0 0.060573084
F  F47  1  0.08494000  0.91426000  0.58300000  1.0 0.060573084
F  F48  1  0.91426000  0.08494000  0.91700000  1.0 0.060573084
F  F49  1  0.49382000  0.01338000  0.15040000  1.0 0.0895284898
F  F50  1  0.01338000  0.49382000  0.34960000  1.0 0.0895284898
F  F51  1  0.50618000  0.98662000  0.84960000  1.0 0.0895284898
F  F52  1  0.98662000  0.50618000  0.65040000  1.0 0.0895284898
F  F53  1  0.43128000  0.00832000  0.07350000  1.0 0.069790588
F  F54  1  0.00832000  0.43128000  0.42650000  1.0 0.0806125016
F  F55  1  0.56872000  0.99168000  0.92650000  1.0 0.0806125016
F  F56  1  0.99168000  0.56872000  0.57350000  1.0 0.069790588
F  F57  1  0.34826000  0.89754000  0.15820000  1.0 0.069790588
F  F58  1  0.89754000  0.34826000  0.34180000  1.0 0.069790588
F  F59  1  0.65174000  0.10246000  0.84180000  1.0 0.069790588
F  F60  1  0.10246000  0.65174000  0.65820000  1.0 0.069790588
F  F61  1  0.46692000  0.17648000  0.12370000  1.0 -0.180040861
F  F62  1  0.17648000  0.46692000  0.37630000  1.0 -0.180040861
F  F63  1  0.53308000  0.82352000  0.87630000  1.0 -0.180040861
F  F64  1  0.82352000  0.53308000  0.62370000  1.0 -0.180040861
F  F65  1  0.36385000  0.09515000  0.21160000  1.0 -0.0485123947
F  F66  1  0.09515000  0.36385000  0.28840000  1.0 -0.0485123947
F  F67  1  0.63615000  0.90485000  0.78840000  1.0 -0.0485123947
F  F68  1  0.90485000  0.63615000  0.71160000  1.0 -0.0485123947
F  F69  1  0.52360000  0.24720000  0.23750000  1.0 0.0895284898
F  F70  1  0.24720000  0.52360000  0.26250000  1.0 0.0895284898
F  F71  1  0.47640000  0.75280000  0.76250000  1.0 0.0806125016
F  F72  1  0.75280000  0.47640000  0.73750000  1.0 0.0895284898
F  F73  1  0.79895000  0.30605000  0.21600000  1.0 -0.191380825
F  F74  1  0.30605000  0.79895000  0.28400000  1.0 -0.191380825
F  F75  1  0.20105000  0.69395000  0.78400000  1.0 -0.191380825
F  F76  1  0.69395000  0.20105000  0.71600000  1.0 -0.191380825
F  F77  1  0.80050000  0.36470000  0.27260000  1.0 0.0089473329
F  F78  1  0.36470000  0.80050000  0.22740000  1.0 0.0089473329
F  F79  1  0.19950000  0.63530000  0.72740000  1.0 0.0089473329
F  F80  1  0.63530000  0.19950000  0.77260000  1.0 0.0089473329
F  F81  1  0.71077000  0.28143000  0.17530000  1.0 0.0289896385
F  F82  1  0.28143000  0.71077000  0.32470000  1.0 0.0289896385
F  F83  1  0.28923000  0.71857000  0.82470000  1.0 0.0289896385
F  F84  1  0.71857000  0.28923000  0.67530000  1.0 0.0289896385
F  F85  1  0.61089000  0.02031000  0.39260000  1.0 0.022990879
F  F86  1  0.02031000  0.61089000  0.10740000  1.0 0.022990879
F  F87  1  0.38911000  0.97969000  0.60740000  1.0 0.022990879
F  F88  1  0.97969000  0.38911000  0.89260000  1.0 0.022990879
F  F89  1  0.48226000  0.92434000  0.34840000  1.0 -0.1621113429
F  F90  1  0.92434000  0.48226000  0.15160000  1.0 -0.1621113429
F  F91  1  0.51774000  0.07566000  0.65160000  1.0 -0.1621113429
F  F92  1  0.07566000  0.51774000  0.84840000  1.0 -0.1621113429
F  F93  1  0.56576000  0.99304000  0.27010000  1.0 -0.1722968305
F  F94  1  0.99304000  0.56576000  0.22990000  1.0 -0.1722968305
F  F95  1  0.43424000  0.00696000  0.72990000  1.0 -0.1722968305
F  F96  1  0.00696000  0.43424000  0.77010000  1.0 -0.1722968305
F  F97  1  0.68849000  0.72811000  0.55080000  1.0 -0.198510998
F  F98  1  0.72811000  0.68849000  0.94920000  1.0 -0.198510998
F  F99  1  0.31151000  0.27189000  0.44920000  1.0 -0.198510998
F  F100  1  0.27189000  0.31151000  0.05080000  1.0 -0.198510998
F  F101  1  0.71427000  0.75673000  0.66900000  1.0 -0.191380825
F  F102  1  0.75673000  0.71427000  0.83100000  1.0 -0.191380825
F  F103  1  0.28573000  0.24327000  0.33100000  1.0 -0.191380825
F  F104  1  0.24327000  0.28573000  0.16900000  1.0 -0.191380825
F  F105  1  0.74546000  0.83474000  0.57700000  1.0 -0.1482658918
F  F106  1  0.83474000  0.74546000  0.92300000  1.0 -0.1482658918
F  F107  1  0.25454000  0.16526000  0.42300000  1.0 -0.1482658918
F  F108  1  0.16526000  0.25454000  0.07700000  1.0 -0.1482658918
F  F109  1  0.95246000  0.87934000  0.77680000  1.0 0.069790588
F  F110  1  0.87934000  0.95246000  0.72320000  1.0 0.069790588
F  F111  1  0.04754000  0.12066000  0.22320000  1.0 0.069790588
F  F112  1  0.12066000  0.04754000  0.27680000  1.0 0.069790588
F  F113  1  0.06274000  0.95206000  0.70690000  1.0 0.022990879
F  F114  1  0.95206000  0.06274000  0.79310000  1.0 0.0289896385
F  F115  1  0.93726000  0.04794000  0.29310000  1.0 0.022990879
F  F116  1  0.04794000  0.93726000  0.20690000  1.0 0.022990879
F  F117  1  0.92745000  0.81075000  0.70050000  1.0 0.0507559681
F  F118  1  0.81075000  0.92745000  0.79950000  1.0 0.0507559681
F  F119  1  0.07255000  0.18925000  0.29950000  1.0 0.0507559681
F  F120  1  0.18925000  0.07255000  0.20050000  1.0 0.0507559681
F  F121  1  0.29724000  0.41496000  0.93360000  1.0 -0.0699771552
F  F122  1  0.41496000  0.29724000  0.56640000  1.0 -0.0699771552
F  F123  1  0.70276000  0.58504000  0.06640000  1.0 -0.0699771552
F  F124  1  0.58504000  0.70276000  0.43360000  1.0 -0.0699771552
F  F125  1  0.17503000  0.29057000  0.89840000  1.0 0.0507559681
F  F126  1  0.29057000  0.17503000  0.60160000  1.0 0.0507559681
F  F127  1  0.82497000  0.70943000  0.10160000  1.0 0.0507559681
F  F128  1  0.70943000  0.82497000  0.39840000  1.0 0.0507559681
F  F129  1  0.24942000  0.38518000  0.80710000  1.0 -0.0282184769
F  F130  1  0.38518000  0.24942000  0.69290000  1.0 -0.0282184769
F  F131  1  0.75058000  0.61482000  0.19290000  1.0 -0.0282184769
F  F132  1  0.61482000  0.75058000  0.30710000  1.0 -0.0282184769
F  F133  1  0.55877000  0.56803000  0.88630000  1.0 -0.0090994235
F  F134  1  0.56803000  0.55877000  0.61370000  1.0 -0.0090994235
F  F135  1  0.44123000  0.43197000  0.11370000  1.0 -0.0090994235
F  F136  1  0.43197000  0.44123000  0.38630000  1.0 -0.0090994235
F  F137  1  0.54940000  0.49340000  0.84750000  1.0 0.0895284898
F  F138  1  0.49340000  0.54940000  0.65250000  1.0 0.0895284898
F  F139  1  0.45060000  0.50660000  0.15250000  1.0 0.0895284898
F  F140  1  0.50660000  0.45060000  0.34750000  1.0 0.0895284898
F  F141  1  0.50870000  0.45730000  0.95060000  1.0 0.1490651623
F  F142  1  0.45730000  0.50870000  0.54940000  1.0 0.1490651623
F  F143  1  0.49130000  0.54270000  0.04940000  1.0 0.1490651623
F  F144  1  0.54270000  0.49130000  0.45060000  1.0 0.1490651623
F  F145  1  0.84103000  0.23537000  0.26140000  1.0 0.060573084
F  F146  1  0.23537000  0.84103000  0.23860000  1.0 0.060573084
F  F147  1  0.15897000  0.76463000  0.73860000  1.0 0.060573084
F  F148  1  0.76463000  0.15897000  0.76140000  1.0 0.060573084
F  F149  1  0.77909000  0.13871000  0.18090000  1.0 -0.1209099406
F  F150  1  0.13871000  0.77909000  0.31910000  1.0 -0.1209099406
F  F151  1  0.22091000  0.86129000  0.81910000  1.0 -0.1209099406
F  F152  1  0.86129000  0.22091000  0.68090000  1.0 -0.1209099406
F  F153  1  0.91096000  0.23884000  0.24790000  1.0 -0.0699771552
F  F154  1  0.23884000  0.91096000  0.25210000  1.0 -0.0699771552
F  F155  1  0.08904000  0.76116000  0.75210000  1.0 -0.0699771552
F  F156  1  0.76116000  0.08904000  0.74790000  1.0 -0.0699771552
F  F157  1  0.55520000  0.85360000  0.25420000  1.0 0.1112340497
F  F158  1  0.85360000  0.55520000  0.24580000  1.0 0.1112340497
F  F159  1  0.44480000  0.14640000  0.74580000  1.0 0.1112340497
F  F160  1  0.14640000  0.44480000  0.75420000  1.0 0.1112340497
F  F161  1  0.58590000  0.85070000  0.27480000  1.0 0.069790588
F  F162  1  0.85070000  0.58590000  0.22520000  1.0 0.069790588
F  F163  1  0.41410000  0.14930000  0.72520000  1.0 0.069790588
F  F164  1  0.14930000  0.41410000  0.77480000  1.0 0.069790588
F  F165  1  0.51510000  0.80050000  0.37500000  1.0 0.1200823436
F  F166  1  0.80050000  0.51510000  0.12500000  1.0 0.1200823436
F  F167  1  0.48490000  0.19950000  0.62500000  1.0 0.1200823436
F  F168  1  0.19950000  0.48490000  0.87500000  1.0 0.1200823436
F  F169  1  0.51250000  0.84170000  0.28340000  1.0 0.1112340497
F  F170  1  0.84170000  0.51250000  0.21660000  1.0 0.1112340497
F  F171  1  0.48750000  0.15830000  0.71660000  1.0 0.1200823436
F  F172  1  0.15830000  0.48750000  0.78340000  1.0 0.1200823436
F  F173  1  0.49640000  0.81340000  0.34990000  1.0 0.1112340497
F  F174  1  0.81340000  0.49640000  0.15010000  1.0 0.1112340497
F  F175  1  0.50360000  0.18660000  0.65010000  1.0 0.1112340497
F  F176  1  0.18660000  0.50360000  0.84990000  1.0 0.1112340497
F  F177  1  0.57110000  0.82270000  0.36540000  1.0 0.0507559681
F  F178  1  0.82270000  0.57110000  0.13460000  1.0 0.0507559681
F  F179  1  0.42890000  0.17730000  0.63460000  1.0 0.0507559681
F  F180  1  0.17730000  0.42890000  0.86540000  1.0 0.0507559681
F  F181  1  0.15200000  0.43840000  0.53830000  1.0 0.1112340497
F  F182  1  0.43840000  0.15200000  0.96170000  1.0 0.1112340497
F  F183  1  0.84800000  0.56160000  0.46170000  1.0 0.1112340497
F  F184  1  0.56160000  0.84800000  0.03830000  1.0 0.1112340497
F  F185  1  0.07780000  0.38300000  0.61680000  1.0 0.0289896385
F  F186  1  0.38300000  0.07780000  0.88320000  1.0 0.0289896385
F  F187  1  0.92220000  0.61700000  0.38320000  1.0 0.0289896385
F  F188  1  0.61700000  0.92220000  0.11680000  1.0 0.0289896385
F  F189  1  0.08180000  0.42940000  0.50830000  1.0 -0.2817544843
F  F190  1  0.42940000  0.08180000  0.99170000  1.0 -0.2817544843
F  F191  1  0.91820000  0.57060000  0.49170000  1.0 -0.2817544843
F  F192  1  0.57060000  0.91820000  0.00830000  1.0 -0.2817544843
F  F193  1  0.14350000  0.41670000  0.56120000  1.0 0.1899626357
F  F194  1  0.41670000  0.14350000  0.93880000  1.0 0.1899626357
F  F195  1  0.85650000  0.58330000  0.43880000  1.0 0.1899626357
F  F196  1  0.58330000  0.85650000  0.06120000  1.0 0.1899626357
F  F197  1  0.07420000  0.42620000  0.52080000  1.0 -0.0205679163
F  F198  1  0.42620000  0.07420000  0.97920000  1.0 -0.0205679163
F  F199  1  0.92580000  0.57380000  0.47920000  1.0 -0.0205679163
F  F200  1  0.57380000  0.92580000  0.02080000  1.0 -0.0205679163
F  F201  1  0.06000000  0.36980000  0.61950000  1.0 -0.191380825
F  F202  1  0.36980000  0.06000000  0.88050000  1.0 -0.191380825
F  F203  1  0.94000000  0.63020000  0.38050000  1.0 -0.191380825
F  F204  1  0.63020000  0.94000000  0.11950000  1.0 -0.191380825
F  F205  1  0.96007000  0.12693000  0.43140000  1.0 0.1311274014
F  F206  1  0.12693000  0.96007000  0.06860000  1.0 0.1200823436
F  F207  1  0.03993000  0.87307000  0.56860000  1.0 0.1311274014
F  F208  1  0.87307000  0.03993000  0.93140000  1.0 0.1311274014
F  F209  1  0.94095000  0.15385000  0.32030000  1.0 -0.1022934086
F  F210  1  0.15385000  0.94095000  0.17970000  1.0 -0.1022934086
F  F211  1  0.05905000  0.84615000  0.67970000  1.0 -0.1022934086
F  F212  1  0.84615000  0.05905000  0.82030000  1.0 -0.1022934086
F  F213  1  0.06605000  0.25275000  0.39540000  1.0 0.022990879
F  F214  1  0.25275000  0.06605000  0.10460000  1.0 0.022990879
F  F215  1  0.93395000  0.74725000  0.60460000  1.0 0.022990879
F  F216  1  0.74725000  0.93395000  0.89540000  1.0 0.022990879
F  F217  1  0.05265000  0.24295000  0.37380000  1.0 0.0403975424
F  F218  1  0.24295000  0.05265000  0.12620000  1.0 0.0403975424
F  F219  1  0.94735000  0.75705000  0.62620000  1.0 0.0289896385
F  F220  1  0.75705000  0.94735000  0.87380000  1.0 0.0289896385
F  F221  1  0.93559000  0.10301000  0.42840000  1.0 -0.1022934086
F  F222  1  0.10301000  0.93559000  0.07160000  1.0 -0.1022934086
F  F223  1  0.06441000  0.89699000  0.57160000  1.0 -0.1022934086
F  F224  1  0.89699000  0.06441000  0.92840000  1.0 -0.1022934086
F  F225  1  0.92064000  0.12736000  0.32860000  1.0 0.1009399827
F  F226  1  0.12736000  0.92064000  0.17140000  1.0 0.1009399827
F  F227  1  0.07936000  0.87264000  0.67140000  1.0 0.1009399827
F  F228  1  0.87264000  0.07936000  0.82860000  1.0 0.1112340497
F  F229  1  0.33910000  0.90230000  0.14250000  1.0 0.0806125016
F  F230  1  0.90230000  0.33910000  0.35750000  1.0 0.0895284898
F  F231  1  0.66090000  0.09770000  0.85750000  1.0 0.0895284898
F  F232  1  0.09770000  0.66090000  0.64250000  1.0 0.0895284898
F  F233  1  0.37340000  0.91140000  0.16920000  1.0 0.1490651623
F  F234  1  0.91140000  0.37340000  0.33080000  1.0 0.1490651623
F  F235  1  0.62660000  0.08860000  0.83080000  1.0 0.1490651623
F  F236  1  0.08860000  0.62660000  0.66920000  1.0 0.1490651623
F  F237  1  0.45900000  0.02860000  0.07970000  1.0 0.0895284898
F  F238  1  0.02860000  0.45900000  0.42030000  1.0 0.0895284898
F  F239  1  0.54100000  0.97140000  0.92030000  1.0 0.0895284898
F  F240  1  0.97140000  0.54100000  0.57970000  1.0 0.0806125016
F  F241  1  0.46571000  0.98329000  0.15820000  1.0 0.1112340497
F  F242  1  0.98329000  0.46571000  0.34180000  1.0 0.1112340497
F  F243  1  0.53429000  0.01671000  0.84180000  1.0 0.1200823436
F  F244  1  0.01671000  0.53429000  0.65820000  1.0 0.1200823436
F  F245  1  0.49670000  0.02750000  0.13130000  1.0 0.1678029189
F  F246  1  0.02750000  0.49670000  0.36870000  1.0 0.1678029189
F  F247  1  0.50330000  0.97250000  0.86870000  1.0 0.1678029189
F  F248  1  0.97250000  0.50330000  0.63130000  1.0 0.1678029189
F  F249  1  0.39790000  0.98010000  0.08060000  1.0 0.1112340497
F  F250  1  0.98010000  0.39790000  0.41940000  1.0 0.1200823436
F  F251  1  0.60210000  0.01990000  0.91940000  1.0 0.1200823436
F  F252  1  0.01990000  0.60210000  0.58060000  1.0 0.1200823436
F  F253  1  0.41770000  0.15490000  0.22780000  1.0 0.2461756085
F  F254  1  0.15490000  0.41770000  0.27220000  1.0 0.2461756085
F  F255  1  0.58230000  0.84510000  0.77220000  1.0 0.2461756085
F  F256  1  0.84510000  0.58230000  0.72780000  1.0 0.2461756085
F  F257  1  0.45900000  0.17620000  0.13020000  1.0 -0.1209099406
F  F258  1  0.17620000  0.45900000  0.36980000  1.0 -0.1209099406
F  F259  1  0.54100000  0.82380000  0.86980000  1.0 -0.1209099406
F  F260  1  0.82380000  0.54100000  0.63020000  1.0 -0.1209099406
F  F261  1  0.38438000  0.11942000  0.21700000  1.0 -0.0400146772
F  F262  1  0.11942000  0.38438000  0.28300000  1.0 -0.0400146772
F  F263  1  0.61562000  0.88058000  0.78300000  1.0 -0.0400146772
F  F264  1  0.88058000  0.61562000  0.71700000  1.0 -0.0400146772
F  F265  1  0.55260000  0.26620000  0.21950000  1.0 0.060573084
F  F266  1  0.26620000  0.55260000  0.28050000  1.0 0.0507559681
F  F267  1  0.44740000  0.73380000  0.78050000  1.0 0.060573084
F  F268  1  0.73380000  0.44740000  0.71950000  1.0 0.060573084
F  F269  1  0.49022000  0.20338000  0.13310000  1.0 0.060573084
F  F270  1  0.20338000  0.49022000  0.36690000  1.0 0.060573084
F  F271  1  0.50978000  0.79662000  0.86690000  1.0 0.060573084
F  F272  1  0.79662000  0.50978000  0.63310000  1.0 0.060573084
F  F273  1  0.49745000  0.22735000  0.24480000  1.0 0.1200823436
F  F274  1  0.22735000  0.49745000  0.25520000  1.0 0.1200823436
F  F275  1  0.50255000  0.77265000  0.75520000  1.0 0.1200823436
F  F276  1  0.77265000  0.50255000  0.74480000  1.0 0.1200823436
F  F277  1  0.78339000  0.29341000  0.20040000  1.0 -0.180040861
F  F278  1  0.29341000  0.78339000  0.29960000  1.0 -0.180040861
F  F279  1  0.21661000  0.70659000  0.79960000  1.0 -0.180040861
F  F280  1  0.70659000  0.21661000  0.70040000  1.0 -0.180040861
F  F281  1  0.81318000  0.36542000  0.28560000  1.0 -0.0699771552
F  F282  1  0.36542000  0.81318000  0.21440000  1.0 -0.0699771552
F  F283  1  0.18682000  0.63458000  0.71440000  1.0 -0.0699771552
F  F284  1  0.63458000  0.18682000  0.78560000  1.0 -0.0699771552
F  F285  1  0.72376000  0.30384000  0.18980000  1.0 0.0403975424
F  F286  1  0.30384000  0.72376000  0.31020000  1.0 0.0403975424
F  F287  1  0.27624000  0.69616000  0.81020000  1.0 0.0403975424
F  F288  1  0.69616000  0.27624000  0.68980000  1.0 0.0403975424
F  F289  1  0.63192000  0.04168000  0.37840000  1.0 -0.0090994235
F  F290  1  0.04168000  0.63192000  0.12160000  1.0 -0.0090994235
F  F291  1  0.36808000  0.95832000  0.62160000  1.0 -0.0090994235
F  F292  1  0.95832000  0.36808000  0.87840000  1.0 -0.0090994235
F  F293  1  0.48440000  0.92300000  0.36740000  1.0 -0.191380825
F  F294  1  0.92300000  0.48440000  0.13260000  1.0 -0.191380825
F  F295  1  0.51560000  0.07700000  0.63260000  1.0 -0.191380825
F  F296  1  0.07700000  0.51560000  0.86740000  1.0 -0.191380825
F  F297  1  0.58955000  0.01525000  0.26750000  1.0 -0.2289159991
F  F298  1  0.01525000  0.58955000  0.23250000  1.0 -0.2289159991
F  F299  1  0.41045000  0.98475000  0.73250000  1.0 -0.2289159991
F  F300  1  0.98475000  0.41045000  0.76750000  1.0 -0.2289159991
F  F301  1  0.75155000  0.83925000  0.59670000  1.0 -0.1482658918
F  F302  1  0.83925000  0.75155000  0.90330000  1.0 -0.1482658918
F  F303  1  0.24845000  0.16075000  0.40330000  1.0 -0.1482658918
F  F304  1  0.16075000  0.24845000  0.09670000  1.0 -0.1482658918
F  F305  1  0.69243000  0.73377000  0.53250000  1.0 -0.3429061822
F  F306  1  0.73377000  0.69243000  0.96750000  1.0 -0.3429061822
F  F307  1  0.30757000  0.26623000  0.46750000  1.0 -0.3429061822
F  F308  1  0.26623000  0.30757000  0.03250000  1.0 -0.3429061822
F  F309  1  0.70258000  0.73902000  0.65540000  1.0 -0.1327845055
F  F310  1  0.73902000  0.70258000  0.84460000  1.0 -0.1327845055
F  F311  1  0.29742000  0.26098000  0.34460000  1.0 -0.1327845055
F  F312  1  0.26098000  0.29742000  0.15540000  1.0 -0.1327845055
F  F313  1  0.97523000  0.90977000  0.77450000  1.0 0.0289896385
F  F314  1  0.90977000  0.97523000  0.72550000  1.0 0.0289896385
F  F315  1  0.02477000  0.09023000  0.22550000  1.0 0.0289896385
F  F316  1  0.09023000  0.02477000  0.27450000  1.0 0.0403975424
F  F317  1  0.03070000  0.91410000  0.70810000  1.0 0.1311274014
F  F318  1  0.91410000  0.03070000  0.79190000  1.0 0.1311274014
F  F319  1  0.96930000  0.08590000  0.29190000  1.0 0.1311274014
F  F320  1  0.08590000  0.96930000  0.20810000  1.0 0.1311274014
F  F321  1  0.89166000  0.78574000  0.71460000  1.0 0.069790588
F  F322  1  0.78574000  0.89166000  0.78540000  1.0 0.069790588
F  F323  1  0.10834000  0.21426000  0.28540000  1.0 0.069790588
F  F324  1  0.21426000  0.10834000  0.21460000  1.0 0.069790588
F  F325  1  0.30869000  0.43331000  0.91010000  1.0 -0.0400146772
F  F326  1  0.43331000  0.30869000  0.58990000  1.0 -0.0400146772
F  F327  1  0.69131000  0.56669000  0.08990000  1.0 -0.0400146772
F  F328  1  0.56669000  0.69131000  0.41010000  1.0 -0.0400146772
F  F329  1  0.17009000  0.27631000  0.91690000  1.0 -0.0825125697
F  F330  1  0.27631000  0.17009000  0.58310000  1.0 -0.0825125697
F  F331  1  0.82991000  0.72369000  0.08310000  1.0 -0.0825125697
F  F332  1  0.72369000  0.82991000  0.41690000  1.0 -0.0825125697
F  F333  1  0.22116000  0.35904000  0.81990000  1.0 0.0289896385
F  F334  1  0.35904000  0.22116000  0.68010000  1.0 0.0289896385
F  F335  1  0.77884000  0.64096000  0.18010000  1.0 0.0289896385
F  F336  1  0.64096000  0.77884000  0.31990000  1.0 0.0289896385
F  F337  1  0.55780000  0.51980000  0.81890000  1.0 0.1009399827
F  F338  1  0.51980000  0.55780000  0.68110000  1.0 0.1009399827
F  F339  1  0.44220000  0.48020000  0.18110000  1.0 0.1009399827
F  F340  1  0.48020000  0.44220000  0.31890000  1.0 0.1009399827
F  F341  1  0.54537000  0.54683000  0.92530000  1.0 0.060573084
F  F342  1  0.54683000  0.54537000  0.57470000  1.0 0.060573084
F  F343  1  0.45463000  0.45317000  0.07470000  1.0 0.060573084
F  F344  1  0.45317000  0.45463000  0.42530000  1.0 0.060573084
F  F345  1  0.50420000  0.43340000  0.90360000  1.0 0.1899626357
F  F346  1  0.43340000  0.50420000  0.59640000  1.0 0.1899626357
F  F347  1  0.49580000  0.56660000  0.09640000  1.0 0.1899626357
F  F348  1  0.56660000  0.49580000  0.40360000  1.0 0.1899626357
F  F349  1  0.52520000  0.50140000  0.94710000  1.0 0.1402004596
F  F350  1  0.50140000  0.52520000  0.55290000  1.0 0.1490651623
F  F351  1  0.47480000  0.49860000  0.05290000  1.0 0.1490651623
F  F352  1  0.49860000  0.47480000  0.44710000  1.0 0.1490651623
F  F353  1  0.56340000  0.54840000  0.82090000  1.0 0.022990879
F  F354  1  0.54840000  0.56340000  0.67910000  1.0 0.022990879
F  F355  1  0.43660000  0.45160000  0.17910000  1.0 0.022990879
F  F356  1  0.45160000  0.43660000  0.32090000  1.0 0.022990879
F  F357  1  0.53900000  0.48640000  0.91790000  1.0 0.1678029189
F  F358  1  0.48640000  0.53900000  0.58210000  1.0 0.1678029189
F  F359  1  0.46100000  0.51360000  0.08210000  1.0 0.1678029189
F  F360  1  0.51360000  0.46100000  0.41790000  1.0 0.1678029189
