# DDEC6 charges by PACMAN v1.1 (https://github.com/mtap-research/PACMAN-charge/)
data_FABCUI_ASR_pacman
_symmetry_space_group_name_H-M   'P 1'
_cell_length_a   18.08710000
_cell_length_b   18.08710000
_cell_length_c   26.03400000
_cell_angle_alpha   69.26490000
_cell_angle_beta   110.73500000
_cell_angle_gamma   118.90700000
_symmetry_Int_Tables_number   1
_chemical_formula_structural   Cu2H28C26N4Cl
_chemical_formula_sum   'Cu16 H224 C208 N32 Cl8'
_cell_volume   6796.53457563
_cell_formula_units_Z   8
loop_
 _symmetry_equiv_pos_site_id
 _symmetry_equiv_pos_as_xyz
  1  'x, y, z'
loop_
 _atom_site_type_symbol
 _atom_site_label
 _atom_site_symmetry_multiplicity
 _atom_site_fract_x
 _atom_site_fract_y
 _atom_site_fract_z
 _atom_site_occupancy
 _atom_site_charge
Cu  Cu1  1  0.48191000  0.48187000  0.50001000  1.0 0.2018245657
Cu  Cu2  1  0.51813000  0.51809000  0.00001000  1.0 0.2018245657
Cu  Cu3  1  0.30145000  0.42723000  0.43432000  1.0 0.2719334687
Cu  Cu4  1  0.57277000  0.69855000  0.93432000  1.0 0.2719334687
Cu  Cu5  1  0.02297000  0.45171000  0.91104000  1.0 0.1915370027
Cu  Cu6  1  0.54829000  0.97703000  0.41104000  1.0 0.1915370027
Cu  Cu7  1  0.95998000  0.26632000  0.97255000  1.0 0.2719334687
Cu  Cu8  1  0.73368000  0.04002000  0.47255000  1.0 0.2719334687
Cu  Cu9  1  0.01962000  0.99538000  0.99873000  1.0 0.2018245657
Cu  Cu10  1  0.00462000  0.98038000  0.49873000  1.0 0.2018245657
Cu  Cu11  1  0.08086000  0.17248000  0.93081000  1.0 0.2534400771
Cu  Cu12  1  0.82752000  0.91914000  0.43081000  1.0 0.2534400771
Cu  Cu13  1  0.04470000  0.48646000  0.41130000  1.0 0.2018245657
Cu  Cu14  1  0.51354000  0.95530000  0.91130000  1.0 0.2018245657
Cu  Cu15  1  0.21753000  0.54465000  0.48583000  1.0 0.2534400771
Cu  Cu16  1  0.45535000  0.78247000  0.98583000  1.0 0.2534400771
H  H1  1  0.38970000  0.38870000  0.59070000  1.0 0.0905743107
H  H2  1  0.61130000  0.61030000  0.09070000  1.0 0.0905743107
H  H3  1  0.39190000  0.28470000  0.67320000  1.0 0.1286064352
H  H4  1  0.71530000  0.60810000  0.17320000  1.0 0.1286064352
H  H5  1  0.56860000  0.25240000  0.63310000  1.0 0.1286064352
H  H6  1  0.74760000  0.43140000  0.13310000  1.0 0.1286064352
H  H7  1  0.56180000  0.35680000  0.55170000  1.0 0.0905743107
H  H8  1  0.64320000  0.43820000  0.05170000  1.0 0.0905743107
H  H9  1  0.81920000  0.32520000  0.93180000  1.0 0.0905743107
H  H10  1  0.67480000  0.18080000  0.43180000  1.0 0.0905743107
H  H11  1  0.68290000  0.29270000  0.87320000  1.0 0.1286064352
H  H12  1  0.70730000  0.31710000  0.37320000  1.0 0.1286064352
H  H13  1  0.70360000  0.09860000  0.84550000  1.0 0.1286064352
H  H14  1  0.90140000  0.29640000  0.34550000  1.0 0.1286064352
H  H15  1  0.84160000  0.13880000  0.90310000  1.0 0.0905743107
H  H16  1  0.86120000  0.15840000  0.40310000  1.0 0.0905743107
H  H17  1  0.44770000  0.18290000  0.73910000  1.0 0.1015837811
H  H18  1  0.81710000  0.55230000  0.23910000  1.0 0.1015837811
H  H19  1  0.48100000  0.13940000  0.71310000  1.0 0.1107312356
H  H20  1  0.86060000  0.51900000  0.21310000  1.0 0.1107312356
H  H21  1  0.62690000  0.23830000  0.74000000  1.0 0.0905743107
H  H22  1  0.76170000  0.37310000  0.24000000  1.0 0.0905743107
H  H23  1  0.59530000  0.28710000  0.76300000  1.0 0.0905743107
H  H24  1  0.71290000  0.40470000  0.26300000  1.0 0.0905743107
H  H25  1  0.56570000  0.10730000  0.80970000  1.0 0.1015837811
H  H26  1  0.89270000  0.43430000  0.30970000  1.0 0.1015837811
H  H27  1  0.54690000  0.16370000  0.83510000  1.0 0.1015837811
H  H28  1  0.83630000  0.45310000  0.33510000  1.0 0.1015837811
H  H29  1  0.47880000  0.64580000  0.42850000  1.0 0.0905743107
H  H30  1  0.35420000  0.52120000  0.92850000  1.0 0.0905743107
H  H31  1  0.55330000  0.76010000  0.36400000  1.0 0.1354478101
H  H32  1  0.23990000  0.44670000  0.86400000  1.0 0.1354478101
H  H33  1  0.69700000  0.63440000  0.38330000  1.0 0.1243240001
H  H34  1  0.36560000  0.30300000  0.88330000  1.0 0.1243240001
H  H35  1  0.61770000  0.52090000  0.44620000  1.0 0.082303668
H  H36  1  0.47910000  0.38230000  0.94620000  1.0 0.082303668
H  H37  1  0.49820000  0.90160000  0.05610000  1.0 0.0905743107
H  H38  1  0.09840000  0.50180000  0.55610000  1.0 0.0905743107
H  H39  1  0.58280000  0.92960000  0.14370000  1.0 0.1286064352
H  H40  1  0.07040000  0.41720000  0.64370000  1.0 0.1286064352
H  H41  1  0.66430000  0.74730000  0.16340000  1.0 0.1286064352
H  H42  1  0.25270000  0.33570000  0.66340000  1.0 0.1286064352
H  H43  1  0.57780000  0.72380000  0.07600000  1.0 0.0905743107
H  H44  1  0.27620000  0.42220000  0.57600000  1.0 0.0905743107
H  H45  1  0.69280000  0.84120000  0.33160000  1.0 0.1107312356
H  H46  1  0.15880000  0.30720000  0.83160000  1.0 0.1107312356
H  H47  1  0.74250000  0.78730000  0.33300000  1.0 0.1015837811
H  H48  1  0.21270000  0.25750000  0.83300000  1.0 0.1015837811
H  H49  1  0.62780000  0.72280000  0.26010000  1.0 0.0905743107
H  H50  1  0.27720000  0.37220000  0.76010000  1.0 0.0905743107
H  H51  1  0.57770000  0.77630000  0.25880000  1.0 0.1015837811
H  H52  1  0.22370000  0.42230000  0.75880000  1.0 0.1015837811
H  H53  1  0.74260000  0.85560000  0.22840000  1.0 0.1107312356
H  H54  1  0.14440000  0.25740000  0.72840000  1.0 0.1107312356
H  H55  1  0.69200000  0.90900000  0.22680000  1.0 0.1107312356
H  H56  1  0.09100000  0.30800000  0.72680000  1.0 0.1107312356
H  H57  1  0.26150000  0.55710000  0.33880000  1.0 0.0905743107
H  H58  1  0.44290000  0.73850000  0.83880000  1.0 0.0905743107
H  H59  1  0.29290000  0.63490000  0.25170000  1.0 0.1286064352
H  H60  1  0.36510000  0.70710000  0.75170000  1.0 0.1286064352
H  H61  1  0.44950000  0.51770000  0.28100000  1.0 0.1286064352
H  H62  1  0.48230000  0.55050000  0.78100000  1.0 0.1286064352
H  H63  1  0.41270000  0.44170000  0.36680000  1.0 0.0905743107
H  H64  1  0.55830000  0.58730000  0.86680000  1.0 0.0905743107
H  H65  1  0.06110000  0.57630000  0.97510000  1.0 0.0905743107
H  H66  1  0.42370000  0.93890000  0.47510000  1.0 0.0905743107
H  H67  1  0.17290000  0.64730000  0.04210000  1.0 0.1286064352
H  H68  1  0.35270000  0.82710000  0.54210000  1.0 0.1286064352
H  H69  1  0.30600000  0.52220000  0.04050000  1.0 0.1286064352
H  H70  1  0.47780000  0.69400000  0.54050000  1.0 0.1286064352
H  H71  1  0.18870000  0.45130000  0.97650000  1.0 0.0905743107
H  H72  1  0.54870000  0.81130000  0.47650000  1.0 0.0905743107
H  H73  1  0.40300000  0.69360000  0.19090000  1.0 0.1107312356
H  H74  1  0.30640000  0.59700000  0.69090000  1.0 0.1107312356
H  H75  1  0.44510000  0.63070000  0.19510000  1.0 0.1107312356
H  H76  1  0.36930000  0.55490000  0.69510000  1.0 0.1107312356
H  H77  1  0.26170000  0.58870000  0.15640000  1.0 0.0905743107
H  H78  1  0.41130000  0.73830000  0.65640000  1.0 0.0905743107
H  H79  1  0.30580000  0.52880000  0.15870000  1.0 0.0905743107
H  H80  1  0.47120000  0.69420000  0.65870000  1.0 0.0905743107
H  H81  1  0.38180000  0.64020000  0.08890000  1.0 0.1107312356
H  H82  1  0.35980000  0.61820000  0.58890000  1.0 0.1107312356
H  H83  1  0.33470000  0.69770000  0.08580000  1.0 0.1015837811
H  H84  1  0.30230000  0.66530000  0.58580000  1.0 0.1015837811
H  H85  1  0.93270000  0.36050000  0.82010000  1.0 0.0905743107
H  H86  1  0.63950000  0.06730000  0.32010000  1.0 0.0905743107
H  H87  1  0.82870000  0.36150000  0.73740000  1.0 0.1286064352
H  H88  1  0.63850000  0.17130000  0.23740000  1.0 0.1286064352
H  H89  1  0.79220000  0.53540000  0.77710000  1.0 0.1286064352
H  H90  1  0.46460000  0.20780000  0.27710000  1.0 0.1286064352
H  H91  1  0.89680000  0.52980000  0.85930000  1.0 0.0905743107
H  H92  1  0.47020000  0.10320000  0.35930000  1.0 0.0905743107
H  H93  1  0.87710000  0.76970000  0.47190000  1.0 0.0905743107
H  H94  1  0.23030000  0.12290000  0.97190000  1.0 0.0905743107
H  H95  1  0.83880000  0.63500000  0.53210000  1.0 0.1286064352
H  H96  1  0.36500000  0.16120000  0.03210000  1.0 0.1286064352
H  H97  1  0.65800000  0.67680000  0.56000000  1.0 0.1286064352
H  H98  1  0.32320000  0.34200000  0.06000000  1.0 0.1286064352
H  H99  1  0.70340000  0.81200000  0.50020000  1.0 0.0905743107
H  H100  1  0.18800000  0.29660000  0.00020000  1.0 0.0905743107
H  H101  1  0.72100000  0.41180000  0.67370000  1.0 0.1015837811
H  H102  1  0.58820000  0.27900000  0.17370000  1.0 0.1015837811
H  H103  1  0.68350000  0.45390000  0.69760000  1.0 0.1107312356
H  H104  1  0.54610000  0.31650000  0.19760000  1.0 0.1107312356
H  H105  1  0.83130000  0.55550000  0.64660000  1.0 0.0905743107
H  H106  1  0.44450000  0.16870000  0.14660000  1.0 0.0905743107
H  H107  1  0.78540000  0.59480000  0.66590000  1.0 0.0905743107
H  H108  1  0.40520000  0.21460000  0.16590000  1.0 0.0905743107
H  H109  1  0.65490000  0.53450000  0.59660000  1.0 0.1107312356
H  H110  1  0.46550000  0.34510000  0.09660000  1.0 0.1107312356
H  H111  1  0.70890000  0.50770000  0.57470000  1.0 0.1015837811
H  H112  1  0.49230000  0.29110000  0.07470000  1.0 0.1015837811
H  H113  1  0.97980000  0.37920000  0.04080000  1.0 0.0905743107
H  H114  1  0.62080000  0.02020000  0.54080000  1.0 0.0905743107
H  H115  1  0.05780000  0.41460000  0.12740000  1.0 0.1286064352
H  H116  1  0.58540000  0.94220000  0.62740000  1.0 0.1286064352
H  H117  1  0.15590000  0.24050000  0.15910000  1.0 0.1286064352
H  H118  1  0.75950000  0.84410000  0.65910000  1.0 0.1286064352
H  H119  1  0.08060000  0.21440000  0.07040000  1.0 0.1015837811
H  H120  1  0.78560000  0.91940000  0.57040000  1.0 0.1015837811
H  H121  1  0.01070000  0.15230000  0.44100000  1.0 0.1015837811
H  H122  1  0.84770000  0.98930000  0.94100000  1.0 0.1015837811
H  H123  1  0.07610000  0.26730000  0.37410000  1.0 0.1286064352
H  H124  1  0.73270000  0.92390000  0.87410000  1.0 0.1286064352
H  H125  1  0.19410000  0.13390000  0.36400000  1.0 0.1243240001
H  H126  1  0.86610000  0.80590000  0.86400000  1.0 0.1243240001
H  H127  1  0.12680000  0.02100000  0.43290000  1.0 0.082303668
H  H128  1  0.97900000  0.87320000  0.93290000  1.0 0.082303668
H  H129  1  0.18990000  0.34310000  0.32120000  1.0 0.1107312356
H  H130  1  0.65690000  0.81010000  0.82120000  1.0 0.1107312356
H  H131  1  0.24240000  0.29320000  0.32050000  1.0 0.1015837811
H  H132  1  0.70680000  0.75760000  0.82050000  1.0 0.1015837811
H  H133  1  0.06860000  0.26560000  0.25420000  1.0 0.1015837811
H  H134  1  0.73440000  0.93140000  0.75420000  1.0 0.1015837811
H  H135  1  0.12450000  0.22030000  0.25210000  1.0 0.082303668
H  H136  1  0.77970000  0.87550000  0.75210000  1.0 0.0905743107
H  H137  1  0.22780000  0.36200000  0.21620000  1.0 0.1107312356
H  H138  1  0.63800000  0.77220000  0.71620000  1.0 0.1107312356
H  H139  1  0.16450000  0.40230000  0.21360000  1.0 0.1107312356
H  H140  1  0.59770000  0.83550000  0.71360000  1.0 0.1107312356
H  H141  1  0.10990000  0.09670000  0.08400000  1.0 0.0905743107
H  H142  1  0.90330000  0.89010000  0.58400000  1.0 0.0905743107
H  H143  1  0.21140000  0.09880000  0.16880000  1.0 0.1286064352
H  H144  1  0.90120000  0.78860000  0.66880000  1.0 0.1286064352
H  H145  1  0.24670000  0.91390000  0.14060000  1.0 0.1286064352
H  H146  1  0.08610000  0.75330000  0.64060000  1.0 0.1286064352
H  H147  1  0.14500000  0.91620000  0.05690000  1.0 0.0905743107
H  H148  1  0.08380000  0.85500000  0.55690000  1.0 0.0905743107
H  H149  1  0.17240000  0.69580000  0.44790000  1.0 0.0905743107
H  H150  1  0.30420000  0.82760000  0.94790000  1.0 0.0905743107
H  H151  1  0.21080000  0.83140000  0.38630000  1.0 0.1286064352
H  H152  1  0.16860000  0.78920000  0.88630000  1.0 0.1286064352
H  H153  1  0.37130000  0.77750000  0.34610000  1.0 0.1286064352
H  H154  1  0.22250000  0.62870000  0.84610000  1.0 0.1286064352
H  H155  1  0.32920000  0.64420000  0.40930000  1.0 0.0905743107
H  H156  1  0.35580000  0.67080000  0.90930000  1.0 0.0905743107
H  H157  1  0.33090000  0.95210000  0.33740000  1.0 0.1015837811
H  H158  1  0.04790000  0.66910000  0.83740000  1.0 0.1015837811
H  H159  1  0.38480000  0.92460000  0.31600000  1.0 0.1015837811
H  H160  1  0.07540000  0.61520000  0.81600000  1.0 0.1015837811
H  H161  1  0.25590000  0.86430000  0.24630000  1.0 0.0905743107
H  H162  1  0.13570000  0.74410000  0.74630000  1.0 0.0905743107
H  H163  1  0.20740000  0.90060000  0.26600000  1.0 0.0905743107
H  H164  1  0.09940000  0.79260000  0.76600000  1.0 0.0905743107
H  H165  1  0.35700000  0.00840000  0.21730000  1.0 0.1107312356
H  H166  1  0.99160000  0.64300000  0.71730000  1.0 0.1107312356
H  H167  1  0.31210000  0.04590000  0.23900000  1.0 0.1015837811
H  H168  1  0.95410000  0.68790000  0.73900000  1.0 0.1015837811
H  H169  1  0.95740000  0.23180000  0.84130000  1.0 0.0905743107
H  H170  1  0.76820000  0.04260000  0.34130000  1.0 0.0905743107
H  H171  1  0.87430000  0.21290000  0.75250000  1.0 0.1286064352
H  H172  1  0.78710000  0.12570000  0.25250000  1.0 0.1286064352
H  H173  1  0.96110000  0.03630000  0.76900000  1.0 0.1286064352
H  H174  1  0.96370000  0.03890000  0.26900000  1.0 0.1286064352
H  H175  1  0.04390000  0.06170000  0.85630000  1.0 0.0905743107
H  H176  1  0.93830000  0.95610000  0.35630000  1.0 0.0905743107
H  H177  1  0.90400000  0.44100000  0.46300000  1.0 0.0905743107
H  H178  1  0.55900000  0.09600000  0.96300000  1.0 0.0905743107
H  H179  1  0.82980000  0.32880000  0.52800000  1.0 0.1286064352
H  H180  1  0.67120000  0.17020000  0.02800000  1.0 0.1286064352
H  H181  1  0.97910000  0.20870000  0.54690000  1.0 0.1286064352
H  H182  1  0.79130000  0.02090000  0.04690000  1.0 0.1286064352
H  H183  1  0.05110000  0.32510000  0.48230000  1.0 0.0905743107
H  H184  1  0.67490000  0.94890000  0.98230000  1.0 0.0905743107
H  H185  1  0.85400000  0.05740000  0.68590000  1.0 0.1107312356
H  H186  1  0.94260000  0.14600000  0.18590000  1.0 0.1107312356
H  H187  1  0.79810000  0.10390000  0.68640000  1.0 0.1107312356
H  H188  1  0.89610000  0.20190000  0.18640000  1.0 0.1107312356
H  H189  1  0.96050000  0.19450000  0.65130000  1.0 0.0905743107
H  H190  1  0.80550000  0.03950000  0.15130000  1.0 0.0905743107
H  H191  1  0.90770000  0.24270000  0.65380000  1.0 0.0905743107
H  H192  1  0.75730000  0.09230000  0.15380000  1.0 0.0905743107
H  H193  1  0.79130000  0.17830000  0.58240000  1.0 0.1107312356
H  H194  1  0.82170000  0.20870000  0.08240000  1.0 0.1107312356
H  H195  1  0.84060000  0.12540000  0.58110000  1.0 0.1107312356
H  H196  1  0.87460000  0.15940000  0.08110000  1.0 0.1107312356
H  H197  1  0.96560000  0.61220000  0.35530000  1.0 0.0905743107
H  H198  1  0.38780000  0.03440000  0.85530000  1.0 0.0905743107
H  H199  1  0.96000000  0.71260000  0.27040000  1.0 0.1286064352
H  H200  1  0.28740000  0.04000000  0.77040000  1.0 0.1286064352
H  H201  1  0.14050000  0.67650000  0.23880000  1.0 0.1286064352
H  H202  1  0.32350000  0.85950000  0.73880000  1.0 0.1286064352
H  H203  1  0.13910000  0.57390000  0.32270000  1.0 0.0905743107
H  H204  1  0.42610000  0.86090000  0.82270000  1.0 0.0905743107
H  H205  1  0.67950000  0.80930000  0.01630000  1.0 0.0905743107
H  H206  1  0.19070000  0.32050000  0.51630000  1.0 0.0905743107
H  H207  1  0.81490000  0.84670000  0.07730000  1.0 0.1286064352
H  H208  1  0.15330000  0.18510000  0.57730000  1.0 0.1286064352
H  H209  1  0.85930000  0.69050000  0.02450000  1.0 0.1286064352
H  H210  1  0.30950000  0.14070000  0.52450000  1.0 0.1286064352
H  H211  1  0.72240000  0.65480000  0.96680000  1.0 0.0905743107
H  H212  1  0.34520000  0.27760000  0.46680000  1.0 0.0905743107
H  H213  1  0.05620000  0.82360000  0.19330000  1.0 0.1107312356
H  H214  1  0.17640000  0.94380000  0.69330000  1.0 0.1107312356
H  H215  1  0.08130000  0.77210000  0.16810000  1.0 0.1015837811
H  H216  1  0.22790000  0.91870000  0.66810000  1.0 0.1015837811
H  H217  1  0.93280000  0.67780000  0.14420000  1.0 0.0905743107
H  H218  1  0.32220000  0.06720000  0.64420000  1.0 0.0905743107
H  H219  1  0.90690000  0.72750000  0.17060000  1.0 0.0905743107
H  H220  1  0.27250000  0.09310000  0.67060000  1.0 0.0905743107
H  H221  1  0.98380000  0.80560000  0.07440000  1.0 0.1015837811
H  H222  1  0.19440000  0.01620000  0.57440000  1.0 0.1015837811
H  H223  1  0.96180000  0.85740000  0.10150000  1.0 0.1107312356
H  H224  1  0.14260000  0.03820000  0.60150000  1.0 0.1107312356
C  C1  1  0.42745000  0.36111000  0.59973000  1.0 0.0725345264
C  C2  1  0.63889000  0.57255000  0.09973000  1.0 0.0725345264
C  C3  1  0.42842000  0.29924000  0.64927000  1.0 -0.2270015258
C  C4  1  0.70076000  0.57158000  0.14927000  1.0 -0.2270015258
C  C5  1  0.48328000  0.25838000  0.66375000  1.0 0.1602041788
C  C6  1  0.74162000  0.51672000  0.16375000  1.0 0.1602041788
C  C7  1  0.53185000  0.28055000  0.62553000  1.0 -0.2212076032
C  C8  1  0.71945000  0.46815000  0.12553000  1.0 -0.2212076032
C  C9  1  0.52740000  0.34272000  0.57694000  1.0 0.0417924728
C  C10  1  0.65728000  0.47260000  0.07694000  1.0 0.0417924728
C  C11  1  0.79559000  0.27861000  0.91382000  1.0 0.0487508864
C  C12  1  0.72139000  0.20441000  0.41382000  1.0 0.0487508864
C  C13  1  0.71373000  0.25927000  0.87899000  1.0 -0.2212076032
C  C14  1  0.74073000  0.28627000  0.37899000  1.0 -0.2212076032
C  C15  1  0.67672000  0.19110000  0.85255000  1.0 0.1602041788
C  C16  1  0.80890000  0.32328000  0.35255000  1.0 0.1602041788
C  C17  1  0.72608000  0.14602000  0.86253000  1.0 -0.2212076032
C  C18  1  0.85398000  0.27392000  0.36253000  1.0 -0.2212076032
C  C19  1  0.80849000  0.16997000  0.89746000  1.0 0.0597063715
C  C20  1  0.83003000  0.19151000  0.39746000  1.0 0.0597063715
C  C21  1  0.49185000  0.19467000  0.71981000  1.0 -0.2702187119
C  C22  1  0.80533000  0.50815000  0.21981000  1.0 -0.2702187119
C  C23  1  0.58266000  0.23024000  0.75789000  1.0 -0.1492620858
C  C24  1  0.76976000  0.41734000  0.25789000  1.0 -0.1492620858
C  C25  1  0.58636000  0.16598000  0.81562000  1.0 -0.2784907629
C  C26  1  0.83402000  0.41364000  0.31562000  1.0 -0.2784907629
C  C27  1  0.52366000  0.64322000  0.41916000  1.0 0.0597063715
C  C28  1  0.35678000  0.47634000  0.91916000  1.0 0.0597063715
C  C29  1  0.56864000  0.71212000  0.38107000  1.0 -0.2085519433
C  C30  1  0.28788000  0.43136000  0.88107000  1.0 -0.2085519433
C  C31  1  0.63542000  0.71158000  0.36764000  1.0 0.1602041788
C  C32  1  0.28842000  0.36458000  0.86764000  1.0 0.1602041788
C  C33  1  0.65250000  0.63830000  0.39216000  1.0 -0.2212076032
C  C34  1  0.36170000  0.34750000  0.89216000  1.0 -0.2212076032
C  C35  1  0.60476000  0.57044000  0.42978000  1.0 0.0597063715
C  C36  1  0.42956000  0.39524000  0.92978000  1.0 0.0597063715
C  C37  1  0.53208000  0.86952000  0.07833000  1.0 0.0597063715
C  C38  1  0.13048000  0.46792000  0.57833000  1.0 0.0597063715
C  C39  1  0.58287000  0.88679000  0.13063000  1.0 -0.2212076032
C  C40  1  0.11321000  0.41713000  0.63063000  1.0 -0.2212076032
C  C41  1  0.63375000  0.84145000  0.16382000  1.0 0.1602041788
C  C42  1  0.15855000  0.36625000  0.66382000  1.0 0.1602041788
C  C43  1  0.63066000  0.77994000  0.14229000  1.0 -0.2270015258
C  C44  1  0.22006000  0.36934000  0.64229000  1.0 -0.2270015258
C  C45  1  0.57851000  0.76609000  0.08993000  1.0 0.0597063715
C  C46  1  0.23391000  0.42149000  0.58993000  1.0 0.0597063715
C  C47  1  0.68455000  0.78609000  0.32614000  1.0 -0.2702187119
C  C48  1  0.21391000  0.31545000  0.82614000  1.0 -0.2702187119
C  C49  1  0.63581000  0.77793000  0.26544000  1.0 -0.1492620858
C  C50  1  0.22207000  0.36419000  0.76544000  1.0 -0.1492620858
C  C51  1  0.68444000  0.85354000  0.22221000  1.0 -0.2702187119
C  C52  1  0.14646000  0.31556000  0.72221000  1.0 -0.2702187119
C  C53  1  0.30016000  0.54864000  0.32668000  1.0 0.0597063715
C  C54  1  0.45136000  0.69984000  0.82668000  1.0 0.0597063715
C  C55  1  0.31863000  0.59557000  0.27454000  1.0 -0.2270015258
C  C56  1  0.40443000  0.68137000  0.77454000  1.0 -0.2270015258
C  C57  1  0.37507000  0.58517000  0.25550000  1.0 0.1602041788
C  C58  1  0.41483000  0.62493000  0.75550000  1.0 0.1602041788
C  C59  1  0.41004000  0.52676000  0.29169000  1.0 -0.2270015258
C  C60  1  0.47324000  0.58996000  0.79169000  1.0 -0.2270015258
C  C61  1  0.38809000  0.48171000  0.34320000  1.0 0.0597063715
C  C62  1  0.51829000  0.61191000  0.84320000  1.0 0.0597063715
C  C63  1  0.11132000  0.56448000  0.98915000  1.0 0.0487508864
C  C64  1  0.43552000  0.88868000  0.48915000  1.0 0.0487508864
C  C65  1  0.17824000  0.60776000  0.02893000  1.0 -0.2212076032
C  C66  1  0.39224000  0.82176000  0.52893000  1.0 -0.2212076032
C  C67  1  0.25238000  0.59308000  0.04923000  1.0 0.1602041788
C  C68  1  0.40692000  0.74762000  0.54923000  1.0 0.1602041788
C  C69  1  0.25572000  0.53368000  0.02820000  1.0 -0.2085519433
C  C70  1  0.46632000  0.74428000  0.52820000  1.0 -0.2085519433
C  C71  1  0.18579000  0.49241000  0.98963000  1.0 0.0597063715
C  C72  1  0.50759000  0.81421000  0.48963000  1.0 0.0597063715
C  C73  1  0.39251000  0.63221000  0.19768000  1.0 -0.2702187119
C  C74  1  0.36779000  0.60749000  0.69768000  1.0 -0.2702187119
C  C75  1  0.31461000  0.58955000  0.15244000  1.0 -0.1492620858
C  C76  1  0.41045000  0.68539000  0.65244000  1.0 -0.1492620858
C  C77  1  0.32798000  0.63762000  0.09267000  1.0 -0.2702187119
C  C78  1  0.36238000  0.67202000  0.59267000  1.0 -0.2702187119
C  C79  1  0.90441000  0.39759000  0.81081000  1.0 0.0725345264
C  C80  1  0.60241000  0.09559000  0.31081000  1.0 0.0725345264
C  C81  1  0.84245000  0.39795000  0.76130000  1.0 -0.2270015258
C  C82  1  0.60205000  0.15755000  0.26130000  1.0 -0.2270015258
C  C83  1  0.80025000  0.45179000  0.74652000  1.0 0.1602041788
C  C84  1  0.54821000  0.19975000  0.24652000  1.0 0.1602041788
C  C85  1  0.82127000  0.49957000  0.78472000  1.0 -0.2212076032
C  C86  1  0.50043000  0.17873000  0.28472000  1.0 -0.2212076032
C  C87  1  0.88380000  0.49612000  0.83380000  1.0 0.0417924728
C  C88  1  0.50388000  0.11620000  0.33380000  1.0 0.0417924728
C  C89  1  0.83201000  0.75091000  0.49036000  1.0 0.0597063715
C  C90  1  0.24909000  0.16799000  0.99036000  1.0 0.0597063715
C  C91  1  0.80925000  0.66977000  0.52618000  1.0 -0.2270015258
C  C92  1  0.33023000  0.19075000  0.02618000  1.0 -0.2270015258
C  C93  1  0.74321000  0.63935000  0.55341000  1.0 0.1602041788
C  C94  1  0.36065000  0.25679000  0.05341000  1.0 0.1602041788
C  C95  1  0.70382000  0.69454000  0.54261000  1.0 -0.2212076032
C  C96  1  0.30546000  0.29618000  0.04261000  1.0 -0.2212076032
C  C97  1  0.73115000  0.77533000  0.50652000  1.0 0.0597063715
C  C98  1  0.22467000  0.26885000  0.00652000  1.0 0.0597063715
C  C99  1  0.73690000  0.45952000  0.69109000  1.0 -0.2702187119
C  C100  1  0.54048000  0.26310000  0.19109000  1.0 -0.2702187119
C  C101  1  0.77500000  0.54716000  0.65028000  1.0 -0.1492620858
C  C102  1  0.45284000  0.22500000  0.15028000  1.0 -0.1492620858
C  C103  1  0.71332000  0.55062000  0.59210000  1.0 -0.2784907629
C  C104  1  0.44938000  0.28668000  0.09210000  1.0 -0.2784907629
C  C105  1  0.01698000  0.35138000  0.06473000  1.0 0.0597063715
C  C106  1  0.64862000  0.98302000  0.56473000  1.0 0.0597063715
C  C107  1  0.06312000  0.37256000  0.11674000  1.0 -0.2270015258
C  C108  1  0.62744000  0.93688000  0.61674000  1.0 -0.2270015258
C  C109  1  0.11719000  0.33191000  0.15325000  1.0 0.1602041788
C  C110  1  0.66809000  0.88281000  0.65325000  1.0 0.1602041788
C  C111  1  0.12126000  0.27126000  0.13523000  1.0 -0.2212076032
C  C112  1  0.72874000  0.87874000  0.63523000  1.0 -0.2212076032
C  C113  1  0.07495000  0.25509000  0.08227000  1.0 0.0597063715
C  C114  1  0.74491000  0.92505000  0.58227000  1.0 0.0597063715
C  C115  1  0.04807000  0.14807000  0.42508000  1.0 0.0597063715
C  C116  1  0.85193000  0.95193000  0.92508000  1.0 0.0597063715
C  C117  1  0.08729000  0.21691000  0.38536000  1.0 -0.2085519433
C  C118  1  0.78309000  0.91271000  0.88536000  1.0 -0.2085519433
C  C119  1  0.14246000  0.21434000  0.36147000  1.0 0.1602041788
C  C120  1  0.78566000  0.85754000  0.86147000  1.0 0.1602041788
C  C121  1  0.15678000  0.13908000  0.37940000  1.0 -0.2270015258
C  C122  1  0.86092000  0.84322000  0.87940000  1.0 -0.2270015258
C  C123  1  0.11555000  0.07143000  0.42024000  1.0 0.0487508864
C  C124  1  0.92857000  0.88445000  0.92024000  1.0 0.0487508864
C  C125  1  0.18378000  0.28830000  0.31657000  1.0 -0.2702187119
C  C126  1  0.71170000  0.81622000  0.81657000  1.0 -0.2702187119
C  C127  1  0.12815000  0.27371000  0.25725000  1.0 -0.1492620858
C  C128  1  0.72629000  0.87185000  0.75725000  1.0 -0.1492620858
C  C129  1  0.16634000  0.35008000  0.21085000  1.0 -0.2784907629
C  C130  1  0.64992000  0.83366000  0.71085000  1.0 -0.2784907629
C  C131  1  0.13766000  0.05832000  0.09595000  1.0 0.0725345264
C  C132  1  0.94168000  0.86234000  0.59595000  1.0 0.0725345264
C  C133  1  0.19817000  0.05999000  0.14681000  1.0 -0.2270015258
C  C134  1  0.94001000  0.80183000  0.64681000  1.0 -0.2270015258
C  C135  1  0.23917000  0.00423000  0.16526000  1.0 0.1602041788
C  C136  1  0.99577000  0.76083000  0.66526000  1.0 0.1602041788
C  C137  1  0.21862000  0.95164000  0.13009000  1.0 -0.2212076032
C  C138  1  0.04836000  0.78138000  0.63009000  1.0 -0.2212076032
C  C139  1  0.15787000  0.95335000  0.08002000  1.0 0.0417924728
C  C140  1  0.04665000  0.84213000  0.58002000  1.0 0.0417924728
C  C141  1  0.21397000  0.71263000  0.42703000  1.0 0.0487508864
C  C142  1  0.28737000  0.78603000  0.92703000  1.0 0.0487508864
C  C143  1  0.23678000  0.79442000  0.39020000  1.0 -0.2212076032
C  C144  1  0.20558000  0.76322000  0.89020000  1.0 -0.2270015258
C  C145  1  0.29711000  0.82049000  0.35989000  1.0 0.1602041788
C  C146  1  0.17951000  0.70289000  0.85989000  1.0 0.1602041788
C  C147  1  0.33051000  0.76289000  0.36688000  1.0 -0.2212076032
C  C148  1  0.23711000  0.66949000  0.86688000  1.0 -0.2212076032
C  C149  1  0.30427000  0.68253000  0.40474000  1.0 0.0725345264
C  C150  1  0.31747000  0.69573000  0.90474000  1.0 0.0725345264
C  C151  1  0.32646000  0.90854000  0.32047000  1.0 -0.2784907629
C  C152  1  0.09146000  0.67354000  0.82047000  1.0 -0.2784907629
C  C153  1  0.26444000  0.91096000  0.26222000  1.0 -0.1492620858
C  C154  1  0.08904000  0.73556000  0.76222000  1.0 -0.1492620858
C  C155  1  0.30114000  0.99922000  0.22219000  1.0 -0.2702187119
C  C156  1  0.00078000  0.69886000  0.72219000  1.0 -0.2702187119
C  C157  1  0.95869000  0.19173000  0.82616000  1.0 0.0597063715
C  C158  1  0.80827000  0.04131000  0.32616000  1.0 0.0597063715
C  C159  1  0.90850000  0.18062000  0.77309000  1.0 -0.2212076032
C  C160  1  0.81938000  0.09150000  0.27309000  1.0 -0.2212076032
C  C161  1  0.90828000  0.12216000  0.75007000  1.0 0.1602041788
C  C162  1  0.87784000  0.09172000  0.25007000  1.0 0.1602041788
C  C163  1  0.95966000  0.07764000  0.78276000  1.0 -0.2212076032
C  C164  1  0.92236000  0.04034000  0.28276000  1.0 -0.2212076032
C  C165  1  0.00870000  0.09274000  0.83510000  1.0 0.0597063715
C  C166  1  0.90726000  0.99130000  0.33510000  1.0 0.0597063715
C  C167  1  0.92000000  0.39340000  0.48071000  1.0 0.0487508864
C  C168  1  0.60660000  0.08000000  0.98071000  1.0 0.0487508864
C  C169  1  0.87517000  0.32643000  0.51914000  1.0 -0.2212076032
C  C170  1  0.67357000  0.12483000  0.01914000  1.0 -0.2212076032
C  C171  1  0.89582000  0.25600000  0.54469000  1.0 0.1602041788
C  C172  1  0.74400000  0.10418000  0.04469000  1.0 0.1602041788
C  C173  1  0.96285000  0.25615000  0.53033000  1.0 -0.2085519433
C  C174  1  0.74385000  0.03715000  0.03033000  1.0 -0.2085519433
C  C175  1  0.00533000  0.32577000  0.49184000  1.0 0.0597063715
C  C176  1  0.67423000  0.99467000  0.99184000  1.0 0.0597063715
C  C177  1  0.85776000  0.11060000  0.69141000  1.0 -0.2702187119
C  C178  1  0.88940000  0.14224000  0.19141000  1.0 -0.2702187119
C  C179  1  0.90168000  0.18930000  0.64719000  1.0 -0.1492620858
C  C180  1  0.81070000  0.09832000  0.14719000  1.0 -0.1492620858
C  C181  1  0.84908000  0.18026000  0.58732000  1.0 -0.2702187119
C  C182  1  0.81974000  0.15092000  0.08732000  1.0 -0.2702187119
C  C183  1  0.00086000  0.62434000  0.33117000  1.0 0.0487508864
C  C184  1  0.37566000  0.99914000  0.83117000  1.0 0.0487508864
C  C185  1  0.99761000  0.68459000  0.28035000  1.0 -0.2212076032
C  C186  1  0.31541000  0.00239000  0.78035000  1.0 -0.2212076032
C  C187  1  0.04748000  0.70448000  0.24431000  1.0 0.1602041788
C  C188  1  0.29552000  0.95252000  0.74431000  1.0 0.1602041788
C  C189  1  0.10266000  0.66332000  0.26154000  1.0 -0.2270015258
C  C190  1  0.33668000  0.89734000  0.76154000  1.0 -0.2270015258
C  C191  1  0.10218000  0.60282000  0.31216000  1.0 0.082303668
C  C192  1  0.39718000  0.89782000  0.81216000  1.0 0.082303668
C  C193  1  0.71651000  0.78469000  0.01802000  1.0 0.0597063715
C  C194  1  0.21531000  0.28349000  0.51802000  1.0 0.0597063715
C  C195  1  0.79766000  0.80778000  0.05437000  1.0 -0.2212076032
C  C196  1  0.19222000  0.20234000  0.55437000  1.0 -0.2212076032
C  C197  1  0.85318000  0.77392000  0.05708000  1.0 0.1602041788
C  C198  1  0.22608000  0.14682000  0.55708000  1.0 0.1602041788
C  C199  1  0.82344000  0.71594000  0.02363000  1.0 -0.2212076032
C  C200  1  0.28406000  0.17656000  0.52363000  1.0 -0.2212076032
C  C201  1  0.74162000  0.69518000  0.98904000  1.0 0.0597063715
C  C202  1  0.30482000  0.25838000  0.48904000  1.0 0.0597063715
C  C203  1  0.04004000  0.76592000  0.18774000  1.0 -0.2702187119
C  C204  1  0.23408000  0.95996000  0.68774000  1.0 -0.2702187119
C  C205  1  0.94859000  0.73479000  0.15089000  1.0 -0.1492620858
C  C206  1  0.26521000  0.05141000  0.65089000  1.0 -0.1492620858
C  C207  1  0.94323000  0.79997000  0.09441000  1.0 -0.2784907629
C  C208  1  0.20003000  0.05677000  0.59441000  1.0 -0.2784907629
N  N1  1  0.47643000  0.38477000  0.56346000  1.0 -0.2017993828
N  N2  1  0.61523000  0.52357000  0.06346000  1.0 -0.2017993828
N  N3  1  0.84303000  0.23501000  0.92345000  1.0 -0.2085519433
N  N4  1  0.76499000  0.15697000  0.42345000  1.0 -0.2085519433
N  N5  1  0.54143000  0.57211000  0.44365000  1.0 -0.2085519433
N  N6  1  0.42789000  0.45857000  0.94365000  1.0 -0.2085519433
N  N7  1  0.52905000  0.80913000  0.05791000  1.0 -0.2085519433
N  N8  1  0.19087000  0.47095000  0.55791000  1.0 -0.2085519433
N  N9  1  0.33396000  0.49172000  0.36130000  1.0 -0.2085519433
N  N10  1  0.50828000  0.66604000  0.86130000  1.0 -0.2085519433
N  N11  1  0.11383000  0.50707000  0.96950000  1.0 -0.2085519433
N  N12  1  0.49293000  0.88617000  0.46950000  1.0 -0.2085519433
N  N13  1  0.92685000  0.44647000  0.84650000  1.0 -0.2017993828
N  N14  1  0.55353000  0.07315000  0.34650000  1.0 -0.2017993828
N  N15  1  0.79511000  0.80431000  0.48004000  1.0 -0.2085519433
N  N16  1  0.19569000  0.20489000  0.98004000  1.0 -0.2085519433
N  N17  1  0.02233000  0.29395000  0.04673000  1.0 -0.2085519433
N  N18  1  0.70605000  0.97767000  0.54673000  1.0 -0.2085519433
N  N19  1  0.06062000  0.07418000  0.44251000  1.0 -0.2085519433
N  N20  1  0.92582000  0.93938000  0.94251000  1.0 -0.2085519433
N  N21  1  0.11597000  0.00555000  0.06252000  1.0 -0.2085519433
N  N22  1  0.99445000  0.88403000  0.56252000  1.0 -0.2085519433
N  N23  1  0.24709000  0.65723000  0.43431000  1.0 -0.2017993828
N  N24  1  0.34277000  0.75291000  0.93431000  1.0 -0.2017993828
N  N25  1  0.00918000  0.14920000  0.85759000  1.0 -0.2017993828
N  N26  1  0.85080000  0.99082000  0.35759000  1.0 -0.2017993828
N  N27  1  0.98522000  0.39436000  0.46727000  1.0 -0.2085519433
N  N28  1  0.60564000  0.01478000  0.96727000  1.0 -0.2085519433
N  N29  1  0.05278000  0.58266000  0.34696000  1.0 -0.2017993828
N  N30  1  0.41734000  0.94722000  0.84696000  1.0 -0.2017993828
N  N31  1  0.68787000  0.72891000  0.98522000  1.0 -0.2085519433
N  N32  1  0.27109000  0.31213000  0.48522000  1.0 -0.2085519433
Cl  Cl1  1  0.37553000  0.52821000  0.50228000  1.0 -0.5605442921
Cl  Cl2  1  0.47179000  0.62447000  0.00228000  1.0 -0.5605442921
Cl  Cl3  1  0.06490000  0.33814000  0.91171000  1.0 -0.5605442921
Cl  Cl4  1  0.66186000  0.93510000  0.41171000  1.0 -0.5605442921
Cl  Cl5  1  0.97800000  0.11556000  0.99357000  1.0 -0.5605442921
Cl  Cl6  1  0.88444000  0.02200000  0.49357000  1.0 -0.5605442921
Cl  Cl7  1  0.15663000  0.44349000  0.41331000  1.0 -0.5526427527
Cl  Cl8  1  0.55651000  0.84337000  0.91331000  1.0 -0.5526427527
