# DDEC6 charges by PACMAN v1.1 (https://github.com/mtap-research/PACMAN-charge/)
data_FACMIH_ASR_pacman
_symmetry_space_group_name_H-M   'P 1'
_cell_length_a   38.58960000
_cell_length_b   38.58960000
_cell_length_c   38.58960000
_cell_angle_alpha   53.38290000
_cell_angle_beta   53.38290000
_cell_angle_gamma   53.38290000
_symmetry_Int_Tables_number   1
_chemical_formula_structural   CuH56(C33O7)2
_chemical_formula_sum   'Cu12 H672 C792 O168'
_cell_volume   34340.36496583
_cell_formula_units_Z   12
loop_
 _symmetry_equiv_pos_site_id
 _symmetry_equiv_pos_as_xyz
  1  'x, y, z'
loop_
 _atom_site_type_symbol
 _atom_site_label
 _atom_site_symmetry_multiplicity
 _atom_site_fract_x
 _atom_site_fract_y
 _atom_site_fract_z
 _atom_site_occupancy
 _atom_site_charge
Cu  Cu1  1  0.21610000  0.37936000  0.68983000  1.0 0.5578900041
Cu  Cu2  1  0.68983000  0.21610000  0.37936000  1.0 0.5578900041
Cu  Cu3  1  0.37936000  0.68983000  0.21610000  1.0 0.5578900041
Cu  Cu4  1  0.78390000  0.62064000  0.31017000  1.0 0.5578900041
Cu  Cu5  1  0.31017000  0.78390000  0.62064000  1.0 0.5578900041
Cu  Cu6  1  0.62064000  0.31017000  0.78390000  1.0 0.5578900041
Cu  Cu7  1  0.28390000  0.81017000  0.12064000  1.0 0.5578900041
Cu  Cu8  1  0.81017000  0.12064000  0.28390000  1.0 0.5578900041
Cu  Cu9  1  0.12064000  0.28390000  0.81017000  1.0 0.5578900041
Cu  Cu10  1  0.71610000  0.18983000  0.87936000  1.0 0.5578900041
Cu  Cu11  1  0.18983000  0.87936000  0.71610000  1.0 0.5578900041
Cu  Cu12  1  0.87936000  0.71610000  0.18983000  1.0 0.5578900041
H  H1  1  0.13930000  0.37380000  0.69410000  1.0 0.1298308161
H  H2  1  0.69410000  0.13930000  0.37380000  1.0 0.1298308161
H  H3  1  0.37380000  0.69410000  0.13930000  1.0 0.1298308161
H  H4  1  0.86070000  0.62620000  0.30590000  1.0 0.1298308161
H  H5  1  0.30590000  0.86070000  0.62620000  1.0 0.1298308161
H  H6  1  0.62620000  0.30590000  0.86070000  1.0 0.1298308161
H  H7  1  0.00960000  0.51470000  0.69160000  1.0 0.1298308161
H  H8  1  0.69160000  0.00960000  0.51470000  1.0 0.1298308161
H  H9  1  0.51470000  0.69160000  0.00960000  1.0 0.1298308161
H  H10  1  0.99040000  0.48530000  0.30840000  1.0 0.1298308161
H  H11  1  0.30840000  0.99040000  0.48530000  1.0 0.1298308161
H  H12  1  0.48530000  0.30840000  0.99040000  1.0 0.1298308161
H  H13  1  0.13600000  0.34110000  0.66110000  1.0 0.1094609184
H  H14  1  0.66110000  0.13600000  0.34110000  1.0 0.1094609184
H  H15  1  0.34110000  0.66110000  0.13600000  1.0 0.1094609184
H  H16  1  0.86400000  0.65890000  0.33890000  1.0 0.1094609184
H  H17  1  0.33890000  0.86400000  0.65890000  1.0 0.1094609184
H  H18  1  0.65890000  0.33890000  0.86400000  1.0 0.1094609184
H  H19  1  0.12030000  0.31350000  0.71550000  1.0 0.1094609184
H  H20  1  0.71550000  0.12030000  0.31350000  1.0 0.1094609184
H  H21  1  0.31350000  0.71550000  0.12030000  1.0 0.1094609184
H  H22  1  0.87970000  0.68650000  0.28450000  1.0 0.1094609184
H  H23  1  0.28450000  0.87970000  0.68650000  1.0 0.1094609184
H  H24  1  0.68650000  0.28450000  0.87970000  1.0 0.1094609184
H  H25  1  0.06490000  0.30600000  0.71240000  1.0 0.1015144466
H  H26  1  0.71240000  0.06490000  0.30600000  1.0 0.1015144466
H  H27  1  0.30600000  0.71240000  0.06490000  1.0 0.1015144466
H  H28  1  0.93510000  0.69400000  0.28760000  1.0 0.1015144466
H  H29  1  0.28760000  0.93510000  0.69400000  1.0 0.1015144466
H  H30  1  0.69400000  0.28760000  0.93510000  1.0 0.1015144466
H  H31  1  0.11660000  0.27820000  0.68670000  1.0 0.1015144466
H  H32  1  0.68670000  0.11660000  0.27820000  1.0 0.1015144466
H  H33  1  0.27820000  0.68670000  0.11660000  1.0 0.1015144466
H  H34  1  0.88340000  0.72180000  0.31330000  1.0 0.1015144466
H  H35  1  0.31330000  0.88340000  0.72180000  1.0 0.1015144466
H  H36  1  0.72180000  0.31330000  0.88340000  1.0 0.1015144466
H  H37  1  0.05260000  0.32650000  0.62590000  1.0 0.1094609184
H  H38  1  0.62590000  0.05260000  0.32650000  1.0 0.1094609184
H  H39  1  0.32650000  0.62590000  0.05260000  1.0 0.1094609184
H  H40  1  0.94740000  0.67350000  0.37410000  1.0 0.1094609184
H  H41  1  0.37410000  0.94740000  0.67350000  1.0 0.1094609184
H  H42  1  0.67350000  0.37410000  0.94740000  1.0 0.1094609184
H  H43  1  0.06380000  0.28450000  0.66960000  1.0 0.1015144466
H  H44  1  0.66960000  0.06380000  0.28450000  1.0 0.1015144466
H  H45  1  0.28450000  0.66960000  0.06380000  1.0 0.1015144466
H  H46  1  0.93620000  0.71550000  0.33040000  1.0 0.1015144466
H  H47  1  0.33040000  0.93620000  0.71550000  1.0 0.1015144466
H  H48  1  0.71550000  0.33040000  0.93620000  1.0 0.1015144466
H  H49  1  0.13800000  0.26020000  0.62300000  1.0 0.1094609184
H  H50  1  0.62300000  0.13800000  0.26020000  1.0 0.1094609184
H  H51  1  0.26020000  0.62300000  0.13800000  1.0 0.1094609184
H  H52  1  0.86200000  0.73980000  0.37700000  1.0 0.1094609184
H  H53  1  0.37700000  0.86200000  0.73980000  1.0 0.1094609184
H  H54  1  0.73980000  0.37700000  0.86200000  1.0 0.1094609184
H  H55  1  0.10270000  0.26110000  0.61360000  1.0 0.0905090743
H  H56  1  0.61360000  0.10270000  0.26110000  1.0 0.0905090743
H  H57  1  0.26110000  0.61360000  0.10270000  1.0 0.0905090743
H  H58  1  0.89730000  0.73890000  0.38640000  1.0 0.0905090743
H  H59  1  0.38640000  0.89730000  0.73890000  1.0 0.0905090743
H  H60  1  0.73890000  0.38640000  0.89730000  1.0 0.0905090743
H  H61  1  0.16110000  0.27070000  0.53180000  1.0 0.0905090743
H  H62  1  0.53180000  0.16110000  0.27070000  1.0 0.0905090743
H  H63  1  0.27070000  0.53180000  0.16110000  1.0 0.0905090743
H  H64  1  0.83890000  0.72930000  0.46820000  1.0 0.0905090743
H  H65  1  0.46820000  0.83890000  0.72930000  1.0 0.0905090743
H  H66  1  0.72930000  0.46820000  0.83890000  1.0 0.0905090743
H  H67  1  0.19060000  0.26490000  0.55160000  1.0 0.1094609184
H  H68  1  0.55160000  0.19060000  0.26490000  1.0 0.1094609184
H  H69  1  0.26490000  0.55160000  0.19060000  1.0 0.1094609184
H  H70  1  0.80940000  0.73510000  0.44840000  1.0 0.1094609184
H  H71  1  0.44840000  0.80940000  0.73510000  1.0 0.1094609184
H  H72  1  0.73510000  0.44840000  0.80940000  1.0 0.1094609184
H  H73  1  0.21680000  0.30030000  0.47230000  1.0 0.0905090743
H  H74  1  0.47230000  0.21680000  0.30030000  1.0 0.0905090743
H  H75  1  0.30030000  0.47230000  0.21680000  1.0 0.0905090743
H  H76  1  0.78320000  0.69970000  0.52770000  1.0 0.0905090743
H  H77  1  0.52770000  0.78320000  0.69970000  1.0 0.0905090743
H  H78  1  0.69970000  0.52770000  0.78320000  1.0 0.0905090743
H  H79  1  0.16780000  0.34090000  0.47560000  1.0 0.1094609184
H  H80  1  0.47560000  0.16780000  0.34090000  1.0 0.1094609184
H  H81  1  0.34090000  0.47560000  0.16780000  1.0 0.1094609184
H  H82  1  0.83220000  0.65910000  0.52440000  1.0 0.1094609184
H  H83  1  0.52440000  0.83220000  0.65910000  1.0 0.1094609184
H  H84  1  0.65910000  0.52440000  0.83220000  1.0 0.1094609184
H  H85  1  0.26390000  0.33520000  0.44490000  1.0 0.0905090743
H  H86  1  0.44490000  0.26390000  0.33520000  1.0 0.0905090743
H  H87  1  0.33520000  0.44490000  0.26390000  1.0 0.0905090743
H  H88  1  0.73610000  0.66480000  0.55510000  1.0 0.0905090743
H  H89  1  0.55510000  0.73610000  0.66480000  1.0 0.0905090743
H  H90  1  0.66480000  0.55510000  0.73610000  1.0 0.0905090743
H  H91  1  0.22280000  0.38090000  0.43040000  1.0 0.1015144466
H  H92  1  0.43040000  0.22280000  0.38090000  1.0 0.1015144466
H  H93  1  0.38090000  0.43040000  0.22280000  1.0 0.1015144466
H  H94  1  0.77720000  0.61910000  0.56960000  1.0 0.1015144466
H  H95  1  0.56960000  0.77720000  0.61910000  1.0 0.1015144466
H  H96  1  0.61910000  0.56960000  0.77720000  1.0 0.1015144466
H  H97  1  0.27270000  0.39540000  0.43500000  1.0 0.0905090743
H  H98  1  0.43500000  0.27270000  0.39540000  1.0 0.0905090743
H  H99  1  0.39540000  0.43500000  0.27270000  1.0 0.0905090743
H  H100  1  0.72730000  0.60460000  0.56500000  1.0 0.0905090743
H  H101  1  0.56500000  0.72730000  0.60460000  1.0 0.0905090743
H  H102  1  0.60460000  0.56500000  0.72730000  1.0 0.0905090743
H  H103  1  0.25630000  0.36620000  0.48870000  1.0 0.1094609184
H  H104  1  0.48870000  0.25630000  0.36620000  1.0 0.1094609184
H  H105  1  0.36620000  0.48870000  0.25630000  1.0 0.1094609184
H  H106  1  0.74370000  0.63380000  0.51130000  1.0 0.1094609184
H  H107  1  0.51130000  0.74370000  0.63380000  1.0 0.1094609184
H  H108  1  0.63380000  0.51130000  0.74370000  1.0 0.1094609184
H  H109  1  0.27870000  0.41590000  0.46970000  1.0 0.119899898
H  H110  1  0.46970000  0.27870000  0.41590000  1.0 0.119899898
H  H111  1  0.41590000  0.46970000  0.27870000  1.0 0.119899898
H  H112  1  0.72130000  0.58410000  0.53030000  1.0 0.119899898
H  H113  1  0.53030000  0.72130000  0.58410000  1.0 0.119899898
H  H114  1  0.58410000  0.53030000  0.72130000  1.0 0.119899898
H  H115  1  0.29910000  0.46680000  0.46230000  1.0 0.119899898
H  H116  1  0.46230000  0.29910000  0.46680000  1.0 0.119899898
H  H117  1  0.46680000  0.46230000  0.29910000  1.0 0.1094609184
H  H118  1  0.70090000  0.53320000  0.53770000  1.0 0.119899898
H  H119  1  0.53770000  0.70090000  0.53320000  1.0 0.119899898
H  H120  1  0.53320000  0.53770000  0.70090000  1.0 0.119899898
H  H121  1  0.24280000  0.54350000  0.45840000  1.0 0.1298308161
H  H122  1  0.45840000  0.24280000  0.54350000  1.0 0.1298308161
H  H123  1  0.54350000  0.45840000  0.24280000  1.0 0.1298308161
H  H124  1  0.75720000  0.45650000  0.54160000  1.0 0.119899898
H  H125  1  0.54160000  0.75720000  0.45650000  1.0 0.119899898
H  H126  1  0.45650000  0.54160000  0.75720000  1.0 0.1298308161
H  H127  1  0.13510000  0.49190000  0.46950000  1.0 0.1387095827
H  H128  1  0.46950000  0.13510000  0.49190000  1.0 0.1387095827
H  H129  1  0.49190000  0.46950000  0.13510000  1.0 0.1387095827
H  H130  1  0.86490000  0.50810000  0.53050000  1.0 0.1387095827
H  H131  1  0.53050000  0.86490000  0.50810000  1.0 0.1387095827
H  H132  1  0.50810000  0.53050000  0.86490000  1.0 0.1387095827
H  H133  1  0.07690000  0.57030000  0.46610000  1.0 0.1094609184
H  H134  1  0.46610000  0.07690000  0.57030000  1.0 0.1094609184
H  H135  1  0.57030000  0.46610000  0.07690000  1.0 0.1094609184
H  H136  1  0.92310000  0.42970000  0.53390000  1.0 0.1094609184
H  H137  1  0.53390000  0.92310000  0.42970000  1.0 0.1094609184
H  H138  1  0.42970000  0.53390000  0.92310000  1.0 0.1094609184
H  H139  1  0.09080000  0.62440000  0.45870000  1.0 0.1298308161
H  H140  1  0.45870000  0.09080000  0.62440000  1.0 0.1298308161
H  H141  1  0.62440000  0.45870000  0.09080000  1.0 0.1298308161
H  H142  1  0.90920000  0.37560000  0.54130000  1.0 0.1298308161
H  H143  1  0.54130000  0.90920000  0.37560000  1.0 0.1298308161
H  H144  1  0.37560000  0.54130000  0.90920000  1.0 0.1298308161
H  H145  1  0.12490000  0.67260000  0.42140000  1.0 0.0905090743
H  H146  1  0.42140000  0.12490000  0.67260000  1.0 0.0905090743
H  H147  1  0.67260000  0.42140000  0.12490000  1.0 0.0905090743
H  H148  1  0.87510000  0.32740000  0.57860000  1.0 0.0905090743
H  H149  1  0.57860000  0.87510000  0.32740000  1.0 0.0905090743
H  H150  1  0.32740000  0.57860000  0.87510000  1.0 0.0905090743
H  H151  1  0.10430000  0.65800000  0.47580000  1.0 0.1015144466
H  H152  1  0.47580000  0.10430000  0.65800000  1.0 0.1015144466
H  H153  1  0.65800000  0.47580000  0.10430000  1.0 0.1015144466
H  H154  1  0.89570000  0.34200000  0.52420000  1.0 0.1015144466
H  H155  1  0.52420000  0.89570000  0.34200000  1.0 0.1015144466
H  H156  1  0.34200000  0.52420000  0.89570000  1.0 0.1015144466
H  H157  1  0.13140000  0.72220000  0.43010000  1.0 0.0828264976
H  H158  1  0.43010000  0.13140000  0.72220000  1.0 0.0828264976
H  H159  1  0.72220000  0.43010000  0.13140000  1.0 0.0828264976
H  H160  1  0.86860000  0.27780000  0.56990000  1.0 0.0828264976
H  H161  1  0.56990000  0.86860000  0.27780000  1.0 0.0828264976
H  H162  1  0.27780000  0.56990000  0.86860000  1.0 0.0828264976
H  H163  1  0.18230000  0.68430000  0.41950000  1.0 0.119899898
H  H164  1  0.41950000  0.18230000  0.68430000  1.0 0.119899898
H  H165  1  0.68430000  0.41950000  0.18230000  1.0 0.119899898
H  H166  1  0.81770000  0.31570000  0.58050000  1.0 0.119899898
H  H167  1  0.58050000  0.81770000  0.31570000  1.0 0.119899898
H  H168  1  0.31570000  0.58050000  0.81770000  1.0 0.119899898
H  H169  1  0.18460000  0.70140000  0.47270000  1.0 0.1094609184
H  H170  1  0.47270000  0.18460000  0.70140000  1.0 0.1094609184
H  H171  1  0.70140000  0.47270000  0.18460000  1.0 0.1094609184
H  H172  1  0.81540000  0.29860000  0.52730000  1.0 0.1094609184
H  H173  1  0.52730000  0.81540000  0.29860000  1.0 0.1094609184
H  H174  1  0.29860000  0.52730000  0.81540000  1.0 0.1094609184
H  H175  1  0.13270000  0.73530000  0.47810000  1.0 0.0905090743
H  H176  1  0.47810000  0.13270000  0.73530000  1.0 0.0905090743
H  H177  1  0.73530000  0.47810000  0.13270000  1.0 0.0905090743
H  H178  1  0.86730000  0.26470000  0.52190000  1.0 0.0905090743
H  H179  1  0.52190000  0.86730000  0.26470000  1.0 0.0905090743
H  H180  1  0.26470000  0.52190000  0.86730000  1.0 0.0905090743
H  H181  1  0.10690000  0.69770000  0.55860000  1.0 0.1094609184
H  H182  1  0.55860000  0.10690000  0.69770000  1.0 0.1094609184
H  H183  1  0.69770000  0.55860000  0.10690000  1.0 0.1094609184
H  H184  1  0.89310000  0.30230000  0.44140000  1.0 0.1094609184
H  H185  1  0.44140000  0.89310000  0.30230000  1.0 0.1094609184
H  H186  1  0.30230000  0.44140000  0.89310000  1.0 0.1094609184
H  H187  1  0.14640000  0.71120000  0.54310000  1.0 0.0905090743
H  H188  1  0.54310000  0.14640000  0.71120000  1.0 0.0905090743
H  H189  1  0.71120000  0.54310000  0.14640000  1.0 0.0905090743
H  H190  1  0.85360000  0.28880000  0.45690000  1.0 0.0905090743
H  H191  1  0.45690000  0.85360000  0.28880000  1.0 0.0905090743
H  H192  1  0.28880000  0.45690000  0.85360000  1.0 0.0905090743
H  H193  1  0.17360000  0.60340000  0.62220000  1.0 0.119899898
H  H194  1  0.62220000  0.17360000  0.60340000  1.0 0.119899898
H  H195  1  0.60340000  0.62220000  0.17360000  1.0 0.119899898
H  H196  1  0.82640000  0.39660000  0.37780000  1.0 0.119899898
H  H197  1  0.37780000  0.82640000  0.39660000  1.0 0.119899898
H  H198  1  0.39660000  0.37780000  0.82640000  1.0 0.119899898
H  H199  1  0.15650000  0.65530000  0.61440000  1.0 0.1015144466
H  H200  1  0.61440000  0.15650000  0.65530000  1.0 0.1015144466
H  H201  1  0.65530000  0.61440000  0.15650000  1.0 0.1015144466
H  H202  1  0.84350000  0.34470000  0.38560000  1.0 0.1015144466
H  H203  1  0.38560000  0.84350000  0.34470000  1.0 0.1015144466
H  H204  1  0.34470000  0.38560000  0.84350000  1.0 0.1015144466
H  H205  1  0.07590000  0.66800000  0.63160000  1.0 0.0905090743
H  H206  1  0.63160000  0.07590000  0.66800000  1.0 0.0905090743
H  H207  1  0.66800000  0.63160000  0.07590000  1.0 0.0905090743
H  H208  1  0.92410000  0.33200000  0.36840000  1.0 0.0905090743
H  H209  1  0.36840000  0.92410000  0.33200000  1.0 0.0905090743
H  H210  1  0.33200000  0.36840000  0.92410000  1.0 0.0905090743
H  H211  1  0.08930000  0.63090000  0.67570000  1.0 0.1015144466
H  H212  1  0.67570000  0.08930000  0.63090000  1.0 0.1015144466
H  H213  1  0.63090000  0.67570000  0.08930000  1.0 0.1015144466
H  H214  1  0.91070000  0.36910000  0.32430000  1.0 0.1015144466
H  H215  1  0.32430000  0.91070000  0.36910000  1.0 0.1015144466
H  H216  1  0.36910000  0.32430000  0.91070000  1.0 0.1015144466
H  H217  1  0.06700000  0.57240000  0.70760000  1.0 0.1094609184
H  H218  1  0.70760000  0.06700000  0.57240000  1.0 0.1094609184
H  H219  1  0.57240000  0.70760000  0.06700000  1.0 0.1094609184
H  H220  1  0.93300000  0.42760000  0.29240000  1.0 0.1094609184
H  H221  1  0.29240000  0.93300000  0.42760000  1.0 0.1094609184
H  H222  1  0.42760000  0.29240000  0.93300000  1.0 0.1094609184
H  H223  1  0.03150000  0.61710000  0.68460000  1.0 0.0905090743
H  H224  1  0.68460000  0.03150000  0.61710000  1.0 0.0905090743
H  H225  1  0.61710000  0.68460000  0.03150000  1.0 0.0905090743
H  H226  1  0.96850000  0.38290000  0.31540000  1.0 0.0905090743
H  H227  1  0.31540000  0.96850000  0.38290000  1.0 0.0905090743
H  H228  1  0.38290000  0.31540000  0.96850000  1.0 0.0905090743
H  H229  1  0.04260000  0.57330000  0.65190000  1.0 0.1094609184
H  H230  1  0.65190000  0.04260000  0.57330000  1.0 0.1094609184
H  H231  1  0.57330000  0.65190000  0.04260000  1.0 0.1094609184
H  H232  1  0.95740000  0.42670000  0.34810000  1.0 0.1094609184
H  H233  1  0.34810000  0.95740000  0.42670000  1.0 0.1094609184
H  H234  1  0.42670000  0.34810000  0.95740000  1.0 0.1094609184
H  H235  1  0.01690000  0.55740000  0.70640000  1.0 0.1015144466
H  H236  1  0.70640000  0.01690000  0.55740000  1.0 0.1015144466
H  H237  1  0.55740000  0.70640000  0.01690000  1.0 0.1015144466
H  H238  1  0.98310000  0.44260000  0.29360000  1.0 0.1015144466
H  H239  1  0.29360000  0.98310000  0.44260000  1.0 0.1015144466
H  H240  1  0.44260000  0.29360000  0.98310000  1.0 0.1015144466
H  H241  1  0.97440000  0.38190000  0.69520000  1.0 0.1298308161
H  H242  1  0.69520000  0.97440000  0.38190000  1.0 0.1298308161
H  H243  1  0.38190000  0.69520000  0.97440000  1.0 0.1298308161
H  H244  1  0.02560000  0.61810000  0.30480000  1.0 0.1298308161
H  H245  1  0.30480000  0.02560000  0.61810000  1.0 0.1298308161
H  H246  1  0.61810000  0.30480000  0.02560000  1.0 0.1298308161
H  H247  1  0.91930000  0.35800000  0.72110000  1.0 0.119899898
H  H248  1  0.72110000  0.91930000  0.35800000  1.0 0.119899898
H  H249  1  0.35800000  0.72110000  0.91930000  1.0 0.119899898
H  H250  1  0.08070000  0.64200000  0.27890000  1.0 0.119899898
H  H251  1  0.27890000  0.08070000  0.64200000  1.0 0.119899898
H  H252  1  0.64200000  0.27890000  0.08070000  1.0 0.119899898
H  H253  1  0.81740000  0.47120000  0.74820000  1.0 0.119899898
H  H254  1  0.74820000  0.81740000  0.47120000  1.0 0.119899898
H  H255  1  0.47120000  0.74820000  0.81740000  1.0 0.119899898
H  H256  1  0.18260000  0.52880000  0.25180000  1.0 0.119899898
H  H257  1  0.25180000  0.18260000  0.52880000  1.0 0.119899898
H  H258  1  0.52880000  0.25180000  0.18260000  1.0 0.119899898
H  H259  1  0.87080000  0.49560000  0.73010000  1.0 0.119899898
H  H260  1  0.73010000  0.87080000  0.49560000  1.0 0.119899898
H  H261  1  0.49560000  0.73010000  0.87080000  1.0 0.119899898
H  H262  1  0.12920000  0.50440000  0.26990000  1.0 0.119899898
H  H263  1  0.26990000  0.12920000  0.50440000  1.0 0.119899898
H  H264  1  0.50440000  0.26990000  0.12920000  1.0 0.119899898
H  H265  1  0.71010000  0.43780000  0.76800000  1.0 0.1094609184
H  H266  1  0.76800000  0.71010000  0.43780000  1.0 0.1094609184
H  H267  1  0.43780000  0.76800000  0.71010000  1.0 0.1094609184
H  H268  1  0.28990000  0.56220000  0.23200000  1.0 0.1094609184
H  H269  1  0.23200000  0.28990000  0.56220000  1.0 0.1094609184
H  H270  1  0.56220000  0.23200000  0.28990000  1.0 0.1094609184
H  H271  1  0.65820000  0.42750000  0.76750000  1.0 0.1094609184
H  H272  1  0.76750000  0.65820000  0.42750000  1.0 0.1094609184
H  H273  1  0.42750000  0.76750000  0.65820000  1.0 0.1094609184
H  H274  1  0.34180000  0.57250000  0.23250000  1.0 0.1094609184
H  H275  1  0.23250000  0.34180000  0.57250000  1.0 0.1094609184
H  H276  1  0.57250000  0.23250000  0.34180000  1.0 0.1094609184
H  H277  1  0.75500000  0.30030000  0.76310000  1.0 0.1387095827
H  H278  1  0.76310000  0.75500000  0.30030000  1.0 0.1387095827
H  H279  1  0.30030000  0.76310000  0.75500000  1.0 0.1387095827
H  H280  1  0.24500000  0.69970000  0.23690000  1.0 0.1387095827
H  H281  1  0.23690000  0.24500000  0.69970000  1.0 0.1387095827
H  H282  1  0.69970000  0.23690000  0.24500000  1.0 0.1387095827
H  H283  1  0.80520000  0.31470000  0.76540000  1.0 0.1094609184
H  H284  1  0.76540000  0.80520000  0.31470000  1.0 0.1094609184
H  H285  1  0.31470000  0.76540000  0.80520000  1.0 0.1094609184
H  H286  1  0.19480000  0.68530000  0.23460000  1.0 0.1094609184
H  H287  1  0.23460000  0.19480000  0.68530000  1.0 0.1094609184
H  H288  1  0.68530000  0.23460000  0.19480000  1.0 0.1094609184
H  H289  1  0.13400000  0.50890000  0.71670000  1.0 0.119899898
H  H290  1  0.71670000  0.13400000  0.50890000  1.0 0.119899898
H  H291  1  0.50890000  0.71670000  0.13400000  1.0 0.119899898
H  H292  1  0.86600000  0.49110000  0.28330000  1.0 0.119899898
H  H293  1  0.28330000  0.86600000  0.49110000  1.0 0.119899898
H  H294  1  0.49110000  0.28330000  0.86600000  1.0 0.119899898
H  H295  1  0.15700000  0.55540000  0.71230000  1.0 0.1094609184
H  H296  1  0.71230000  0.15700000  0.55540000  1.0 0.1094609184
H  H297  1  0.55540000  0.71230000  0.15700000  1.0 0.1094609184
H  H298  1  0.84300000  0.44460000  0.28770000  1.0 0.1094609184
H  H299  1  0.28770000  0.84300000  0.44460000  1.0 0.1094609184
H  H300  1  0.44460000  0.28770000  0.84300000  1.0 0.1094609184
H  H301  1  0.29060000  0.48260000  0.65150000  1.0 0.1298308161
H  H302  1  0.65150000  0.29060000  0.48260000  1.0 0.1298308161
H  H303  1  0.48260000  0.65150000  0.29060000  1.0 0.1298308161
H  H304  1  0.70940000  0.51740000  0.34850000  1.0 0.1298308161
H  H305  1  0.34850000  0.70940000  0.51740000  1.0 0.1298308161
H  H306  1  0.51740000  0.34850000  0.70940000  1.0 0.1298308161
H  H307  1  0.26770000  0.43620000  0.65600000  1.0 0.1298308161
H  H308  1  0.65600000  0.26770000  0.43620000  1.0 0.1298308161
H  H309  1  0.43620000  0.65600000  0.26770000  1.0 0.1298308161
H  H310  1  0.73230000  0.56380000  0.34400000  1.0 0.1298308161
H  H311  1  0.34400000  0.73230000  0.56380000  1.0 0.1298308161
H  H312  1  0.56380000  0.34400000  0.73230000  1.0 0.1298308161
H  H313  1  0.25350000  0.65430000  0.62730000  1.0 0.119899898
H  H314  1  0.62730000  0.25350000  0.65430000  1.0 0.119899898
H  H315  1  0.65430000  0.62730000  0.25350000  1.0 0.119899898
H  H316  1  0.74650000  0.34570000  0.37270000  1.0 0.119899898
H  H317  1  0.37270000  0.74650000  0.34570000  1.0 0.119899898
H  H318  1  0.34570000  0.37270000  0.74650000  1.0 0.119899898
H  H319  1  0.27410000  0.70120000  0.62550000  1.0 0.119899898
H  H320  1  0.62550000  0.27410000  0.70120000  1.0 0.119899898
H  H321  1  0.70120000  0.62550000  0.27410000  1.0 0.119899898
H  H322  1  0.72590000  0.29880000  0.37450000  1.0 0.119899898
H  H323  1  0.37450000  0.72590000  0.29880000  1.0 0.119899898
H  H324  1  0.29880000  0.37450000  0.72590000  1.0 0.119899898
H  H325  1  0.27970000  0.61250000  0.75240000  1.0 0.119899898
H  H326  1  0.75240000  0.27970000  0.61250000  1.0 0.119899898
H  H327  1  0.61250000  0.75240000  0.27970000  1.0 0.119899898
H  H328  1  0.72030000  0.38750000  0.24760000  1.0 0.119899898
H  H329  1  0.24760000  0.72030000  0.38750000  1.0 0.119899898
H  H330  1  0.38750000  0.24760000  0.72030000  1.0 0.119899898
H  H331  1  0.25920000  0.56570000  0.75430000  1.0 0.1094609184
H  H332  1  0.75430000  0.25920000  0.56570000  1.0 0.1094609184
H  H333  1  0.56570000  0.75430000  0.25920000  1.0 0.1094609184
H  H334  1  0.74080000  0.43430000  0.24570000  1.0 0.1094609184
H  H335  1  0.24570000  0.74080000  0.43430000  1.0 0.1094609184
H  H336  1  0.43430000  0.24570000  0.74080000  1.0 0.1094609184
H  H337  1  0.36070000  0.80590000  0.12620000  1.0 0.1298308161
H  H338  1  0.80590000  0.12620000  0.36070000  1.0 0.1298308161
H  H339  1  0.12620000  0.36070000  0.80590000  1.0 0.1298308161
H  H340  1  0.63930000  0.19410000  0.87380000  1.0 0.1298308161
H  H341  1  0.19410000  0.87380000  0.63930000  1.0 0.1298308161
H  H342  1  0.87380000  0.63930000  0.19410000  1.0 0.1298308161
H  H343  1  0.49040000  0.80840000  0.98530000  1.0 0.1298308161
H  H344  1  0.80840000  0.98530000  0.49040000  1.0 0.1298308161
H  H345  1  0.98530000  0.49040000  0.80840000  1.0 0.1298308161
H  H346  1  0.50960000  0.19160000  0.01470000  1.0 0.1298308161
H  H347  1  0.19160000  0.01470000  0.50960000  1.0 0.1298308161
H  H348  1  0.01470000  0.50960000  0.19160000  1.0 0.1298308161
H  H349  1  0.36400000  0.83890000  0.15890000  1.0 0.1094609184
H  H350  1  0.83890000  0.15890000  0.36400000  1.0 0.1094609184
H  H351  1  0.15890000  0.36400000  0.83890000  1.0 0.1094609184
H  H352  1  0.63600000  0.16110000  0.84110000  1.0 0.1094609184
H  H353  1  0.16110000  0.84110000  0.63600000  1.0 0.1094609184
H  H354  1  0.84110000  0.63600000  0.16110000  1.0 0.1094609184
H  H355  1  0.37970000  0.78450000  0.18650000  1.0 0.1094609184
H  H356  1  0.78450000  0.18650000  0.37970000  1.0 0.1094609184
H  H357  1  0.18650000  0.37970000  0.78450000  1.0 0.1094609184
H  H358  1  0.62030000  0.21550000  0.81350000  1.0 0.1094609184
H  H359  1  0.21550000  0.81350000  0.62030000  1.0 0.1094609184
H  H360  1  0.81350000  0.62030000  0.21550000  1.0 0.1094609184
H  H361  1  0.43510000  0.78760000  0.19400000  1.0 0.1015144466
H  H362  1  0.78760000  0.19400000  0.43510000  1.0 0.1015144466
H  H363  1  0.19400000  0.43510000  0.78760000  1.0 0.1015144466
H  H364  1  0.56490000  0.21240000  0.80600000  1.0 0.1015144466
H  H365  1  0.21240000  0.80600000  0.56490000  1.0 0.1015144466
H  H366  1  0.80600000  0.56490000  0.21240000  1.0 0.1015144466
H  H367  1  0.38340000  0.81330000  0.22180000  1.0 0.1015144466
H  H368  1  0.81330000  0.22180000  0.38340000  1.0 0.1015144466
H  H369  1  0.22180000  0.38340000  0.81330000  1.0 0.1015144466
H  H370  1  0.61660000  0.18670000  0.77820000  1.0 0.1015144466
H  H371  1  0.18670000  0.77820000  0.61660000  1.0 0.1015144466
H  H372  1  0.77820000  0.61660000  0.18670000  1.0 0.1015144466
H  H373  1  0.44740000  0.87410000  0.17350000  1.0 0.1094609184
H  H374  1  0.87410000  0.17350000  0.44740000  1.0 0.1094609184
H  H375  1  0.17350000  0.44740000  0.87410000  1.0 0.1094609184
H  H376  1  0.55260000  0.12590000  0.82650000  1.0 0.1094609184
H  H377  1  0.12590000  0.82650000  0.55260000  1.0 0.1094609184
H  H378  1  0.82650000  0.55260000  0.12590000  1.0 0.1094609184
H  H379  1  0.43620000  0.83040000  0.21550000  1.0 0.1015144466
H  H380  1  0.83040000  0.21550000  0.43620000  1.0 0.1015144466
H  H381  1  0.21550000  0.43620000  0.83040000  1.0 0.1015144466
H  H382  1  0.56380000  0.16960000  0.78450000  1.0 0.1015144466
H  H383  1  0.16960000  0.78450000  0.56380000  1.0 0.1015144466
H  H384  1  0.78450000  0.56380000  0.16960000  1.0 0.1015144466
H  H385  1  0.36200000  0.87700000  0.23980000  1.0 0.1094609184
H  H386  1  0.87700000  0.23980000  0.36200000  1.0 0.1094609184
H  H387  1  0.23980000  0.36200000  0.87700000  1.0 0.1094609184
H  H388  1  0.63800000  0.12300000  0.76020000  1.0 0.1094609184
H  H389  1  0.12300000  0.76020000  0.63800000  1.0 0.1094609184
H  H390  1  0.76020000  0.63800000  0.12300000  1.0 0.1094609184
H  H391  1  0.39730000  0.88640000  0.23890000  1.0 0.0905090743
H  H392  1  0.88640000  0.23890000  0.39730000  1.0 0.0905090743
H  H393  1  0.23890000  0.39730000  0.88640000  1.0 0.0905090743
H  H394  1  0.60270000  0.11360000  0.76110000  1.0 0.0905090743
H  H395  1  0.11360000  0.76110000  0.60270000  1.0 0.0905090743
H  H396  1  0.76110000  0.60270000  0.11360000  1.0 0.0905090743
H  H397  1  0.33890000  0.96820000  0.22930000  1.0 0.0905090743
H  H398  1  0.96820000  0.22930000  0.33890000  1.0 0.0905090743
H  H399  1  0.22930000  0.33890000  0.96820000  1.0 0.0905090743
H  H400  1  0.66110000  0.03180000  0.77070000  1.0 0.0905090743
H  H401  1  0.03180000  0.77070000  0.66110000  1.0 0.0905090743
H  H402  1  0.77070000  0.66110000  0.03180000  1.0 0.0905090743
H  H403  1  0.30940000  0.94840000  0.23510000  1.0 0.1094609184
H  H404  1  0.94840000  0.23510000  0.30940000  1.0 0.1094609184
H  H405  1  0.23510000  0.30940000  0.94840000  1.0 0.1094609184
H  H406  1  0.69060000  0.05160000  0.76490000  1.0 0.1094609184
H  H407  1  0.05160000  0.76490000  0.69060000  1.0 0.1094609184
H  H408  1  0.76490000  0.69060000  0.05160000  1.0 0.1094609184
H  H409  1  0.28320000  0.02770000  0.19970000  1.0 0.0905090743
H  H410  1  0.02770000  0.19970000  0.28320000  1.0 0.0905090743
H  H411  1  0.19970000  0.28320000  0.02770000  1.0 0.0905090743
H  H412  1  0.71680000  0.97230000  0.80030000  1.0 0.0905090743
H  H413  1  0.97230000  0.80030000  0.71680000  1.0 0.0905090743
H  H414  1  0.80030000  0.71680000  0.97230000  1.0 0.0905090743
H  H415  1  0.33220000  0.02440000  0.15910000  1.0 0.1094609184
H  H416  1  0.02440000  0.15910000  0.33220000  1.0 0.1094609184
H  H417  1  0.15910000  0.33220000  0.02440000  1.0 0.1094609184
H  H418  1  0.66780000  0.97560000  0.84090000  1.0 0.1094609184
H  H419  1  0.97560000  0.84090000  0.66780000  1.0 0.1094609184
H  H420  1  0.84090000  0.66780000  0.97560000  1.0 0.1094609184
H  H421  1  0.23610000  0.05510000  0.16480000  1.0 0.0905090743
H  H422  1  0.05510000  0.16480000  0.23610000  1.0 0.0905090743
H  H423  1  0.16480000  0.23610000  0.05510000  1.0 0.0905090743
H  H424  1  0.76390000  0.94490000  0.83520000  1.0 0.0905090743
H  H425  1  0.94490000  0.83520000  0.76390000  1.0 0.0905090743
H  H426  1  0.83520000  0.76390000  0.94490000  1.0 0.0905090743
H  H427  1  0.27720000  0.06960000  0.11910000  1.0 0.1015144466
H  H428  1  0.06960000  0.11910000  0.27720000  1.0 0.1015144466
H  H429  1  0.11910000  0.27720000  0.06960000  1.0 0.1015144466
H  H430  1  0.72280000  0.93040000  0.88090000  1.0 0.1015144466
H  H431  1  0.93040000  0.88090000  0.72280000  1.0 0.1015144466
H  H432  1  0.88090000  0.72280000  0.93040000  1.0 0.1015144466
H  H433  1  0.22730000  0.06500000  0.10460000  1.0 0.0905090743
H  H434  1  0.06500000  0.10460000  0.22730000  1.0 0.0905090743
H  H435  1  0.10460000  0.22730000  0.06500000  1.0 0.0905090743
H  H436  1  0.77270000  0.93500000  0.89540000  1.0 0.0905090743
H  H437  1  0.93500000  0.89540000  0.77270000  1.0 0.0905090743
H  H438  1  0.89540000  0.77270000  0.93500000  1.0 0.0905090743
H  H439  1  0.24370000  0.01130000  0.13380000  1.0 0.1094609184
H  H440  1  0.01130000  0.13380000  0.24370000  1.0 0.1094609184
H  H441  1  0.13380000  0.24370000  0.01130000  1.0 0.1094609184
H  H442  1  0.75630000  0.98870000  0.86620000  1.0 0.1094609184
H  H443  1  0.98870000  0.86620000  0.75630000  1.0 0.1094609184
H  H444  1  0.86620000  0.75630000  0.98870000  1.0 0.1094609184
H  H445  1  0.22130000  0.03030000  0.08410000  1.0 0.119899898
H  H446  1  0.03030000  0.08410000  0.22130000  1.0 0.119899898
H  H447  1  0.08410000  0.22130000  0.03030000  1.0 0.119899898
H  H448  1  0.77870000  0.96970000  0.91590000  1.0 0.119899898
H  H449  1  0.96970000  0.91590000  0.77870000  1.0 0.119899898
H  H450  1  0.91590000  0.77870000  0.96970000  1.0 0.119899898
H  H451  1  0.20090000  0.03770000  0.03320000  1.0 0.1094609184
H  H452  1  0.03770000  0.03320000  0.20090000  1.0 0.119899898
H  H453  1  0.03320000  0.20090000  0.03770000  1.0 0.119899898
H  H454  1  0.79910000  0.96230000  0.96680000  1.0 0.119899898
H  H455  1  0.96230000  0.96680000  0.79910000  1.0 0.1094609184
H  H456  1  0.96680000  0.79910000  0.96230000  1.0 0.119899898
H  H457  1  0.25720000  0.04160000  0.95650000  1.0 0.1298308161
H  H458  1  0.04160000  0.95650000  0.25720000  1.0 0.119899898
H  H459  1  0.95650000  0.25720000  0.04160000  1.0 0.119899898
H  H460  1  0.74280000  0.95840000  0.04350000  1.0 0.119899898
H  H461  1  0.95840000  0.04350000  0.74280000  1.0 0.1298308161
H  H462  1  0.04350000  0.74280000  0.95840000  1.0 0.1298308161
H  H463  1  0.36490000  0.03050000  0.00810000  1.0 0.1387095827
H  H464  1  0.03050000  0.00810000  0.36490000  1.0 0.1387095827
H  H465  1  0.00810000  0.36490000  0.03050000  1.0 0.1387095827
H  H466  1  0.63510000  0.96950000  0.99190000  1.0 0.1387095827
H  H467  1  0.96950000  0.99190000  0.63510000  1.0 0.1387095827
H  H468  1  0.99190000  0.63510000  0.96950000  1.0 0.1387095827
H  H469  1  0.42310000  0.03390000  0.92970000  1.0 0.1094609184
H  H470  1  0.03390000  0.92970000  0.42310000  1.0 0.1094609184
H  H471  1  0.92970000  0.42310000  0.03390000  1.0 0.1094609184
H  H472  1  0.57690000  0.96610000  0.07030000  1.0 0.1094609184
H  H473  1  0.96610000  0.07030000  0.57690000  1.0 0.1094609184
H  H474  1  0.07030000  0.57690000  0.96610000  1.0 0.1094609184
H  H475  1  0.40920000  0.04130000  0.87560000  1.0 0.1298308161
H  H476  1  0.04130000  0.87560000  0.40920000  1.0 0.1298308161
H  H477  1  0.87560000  0.40920000  0.04130000  1.0 0.1298308161
H  H478  1  0.59080000  0.95870000  0.12440000  1.0 0.1298308161
H  H479  1  0.95870000  0.12440000  0.59080000  1.0 0.1298308161
H  H480  1  0.12440000  0.59080000  0.95870000  1.0 0.1298308161
H  H481  1  0.37510000  0.07860000  0.82740000  1.0 0.0905090743
H  H482  1  0.07860000  0.82740000  0.37510000  1.0 0.0905090743
H  H483  1  0.82740000  0.37510000  0.07860000  1.0 0.0905090743
H  H484  1  0.62490000  0.92140000  0.17260000  1.0 0.0905090743
H  H485  1  0.92140000  0.17260000  0.62490000  1.0 0.0905090743
H  H486  1  0.17260000  0.62490000  0.92140000  1.0 0.0905090743
H  H487  1  0.39570000  0.02420000  0.84200000  1.0 0.1094609184
H  H488  1  0.02420000  0.84200000  0.39570000  1.0 0.1015144466
H  H489  1  0.84200000  0.39570000  0.02420000  1.0 0.1094609184
H  H490  1  0.60430000  0.97580000  0.15800000  1.0 0.1015144466
H  H491  1  0.97580000  0.15800000  0.60430000  1.0 0.1015144466
H  H492  1  0.15800000  0.60430000  0.97580000  1.0 0.1015144466
H  H493  1  0.36860000  0.06990000  0.77780000  1.0 0.0828264976
H  H494  1  0.06990000  0.77780000  0.36860000  1.0 0.0828264976
H  H495  1  0.77780000  0.36860000  0.06990000  1.0 0.0828264976
H  H496  1  0.63140000  0.93010000  0.22220000  1.0 0.0828264976
H  H497  1  0.93010000  0.22220000  0.63140000  1.0 0.0828264976
H  H498  1  0.22220000  0.63140000  0.93010000  1.0 0.0828264976
H  H499  1  0.31770000  0.08050000  0.81570000  1.0 0.119899898
H  H500  1  0.08050000  0.81570000  0.31770000  1.0 0.119899898
H  H501  1  0.81570000  0.31770000  0.08050000  1.0 0.119899898
H  H502  1  0.68230000  0.91950000  0.18430000  1.0 0.119899898
H  H503  1  0.91950000  0.18430000  0.68230000  1.0 0.119899898
H  H504  1  0.18430000  0.68230000  0.91950000  1.0 0.119899898
H  H505  1  0.31540000  0.02730000  0.79860000  1.0 0.1094609184
H  H506  1  0.02730000  0.79860000  0.31540000  1.0 0.1094609184
H  H507  1  0.79860000  0.31540000  0.02730000  1.0 0.1094609184
H  H508  1  0.68460000  0.97270000  0.20140000  1.0 0.1094609184
H  H509  1  0.97270000  0.20140000  0.68460000  1.0 0.1094609184
H  H510  1  0.20140000  0.68460000  0.97270000  1.0 0.1094609184
H  H511  1  0.36730000  0.02190000  0.76470000  1.0 0.0905090743
H  H512  1  0.02190000  0.76470000  0.36730000  1.0 0.0905090743
H  H513  1  0.76470000  0.36730000  0.02190000  1.0 0.0905090743
H  H514  1  0.63270000  0.97810000  0.23530000  1.0 0.0905090743
H  H515  1  0.97810000  0.23530000  0.63270000  1.0 0.0905090743
H  H516  1  0.23530000  0.63270000  0.97810000  1.0 0.0905090743
H  H517  1  0.39310000  0.94140000  0.80230000  1.0 0.1094609184
H  H518  1  0.94140000  0.80230000  0.39310000  1.0 0.1094609184
H  H519  1  0.80230000  0.39310000  0.94140000  1.0 0.1094609184
H  H520  1  0.60690000  0.05860000  0.19770000  1.0 0.1094609184
H  H521  1  0.05860000  0.19770000  0.60690000  1.0 0.1094609184
H  H522  1  0.19770000  0.60690000  0.05860000  1.0 0.1094609184
H  H523  1  0.35360000  0.95690000  0.78880000  1.0 0.0905090743
H  H524  1  0.95690000  0.78880000  0.35360000  1.0 0.0905090743
H  H525  1  0.78880000  0.35360000  0.95690000  1.0 0.0905090743
H  H526  1  0.64640000  0.04310000  0.21120000  1.0 0.0905090743
H  H527  1  0.04310000  0.21120000  0.64640000  1.0 0.0905090743
H  H528  1  0.21120000  0.64640000  0.04310000  1.0 0.0905090743
H  H529  1  0.32640000  0.87780000  0.89660000  1.0 0.119899898
H  H530  1  0.87780000  0.89660000  0.32640000  1.0 0.119899898
H  H531  1  0.89660000  0.32640000  0.87780000  1.0 0.119899898
H  H532  1  0.67360000  0.12220000  0.10340000  1.0 0.119899898
H  H533  1  0.12220000  0.10340000  0.67360000  1.0 0.119899898
H  H534  1  0.10340000  0.67360000  0.12220000  1.0 0.119899898
H  H535  1  0.34350000  0.88560000  0.84470000  1.0 0.1015144466
H  H536  1  0.88560000  0.84470000  0.34350000  1.0 0.1015144466
H  H537  1  0.84470000  0.34350000  0.88560000  1.0 0.1015144466
H  H538  1  0.65650000  0.11440000  0.15530000  1.0 0.1015144466
H  H539  1  0.11440000  0.15530000  0.65650000  1.0 0.1015144466
H  H540  1  0.15530000  0.65650000  0.11440000  1.0 0.1015144466
H  H541  1  0.42410000  0.86840000  0.83200000  1.0 0.0905090743
H  H542  1  0.86840000  0.83200000  0.42410000  1.0 0.0905090743
H  H543  1  0.83200000  0.42410000  0.86840000  1.0 0.0905090743
H  H544  1  0.57590000  0.13160000  0.16800000  1.0 0.0905090743
H  H545  1  0.13160000  0.16800000  0.57590000  1.0 0.0905090743
H  H546  1  0.16800000  0.57590000  0.13160000  1.0 0.0905090743
H  H547  1  0.41070000  0.82430000  0.86910000  1.0 0.1015144466
H  H548  1  0.82430000  0.86910000  0.41070000  1.0 0.1015144466
H  H549  1  0.86910000  0.41070000  0.82430000  1.0 0.1015144466
H  H550  1  0.58930000  0.17570000  0.13090000  1.0 0.1015144466
H  H551  1  0.17570000  0.13090000  0.58930000  1.0 0.1015144466
H  H552  1  0.13090000  0.58930000  0.17570000  1.0 0.1015144466
H  H553  1  0.43300000  0.79240000  0.92760000  1.0 0.1094609184
H  H554  1  0.79240000  0.92760000  0.43300000  1.0 0.1094609184
H  H555  1  0.92760000  0.43300000  0.79240000  1.0 0.1094609184
H  H556  1  0.56700000  0.20760000  0.07240000  1.0 0.1094609184
H  H557  1  0.20760000  0.07240000  0.56700000  1.0 0.1094609184
H  H558  1  0.07240000  0.56700000  0.20760000  1.0 0.1094609184
H  H559  1  0.46850000  0.81540000  0.88290000  1.0 0.0905090743
H  H560  1  0.81540000  0.88290000  0.46850000  1.0 0.0905090743
H  H561  1  0.88290000  0.46850000  0.81540000  1.0 0.0905090743
H  H562  1  0.53150000  0.18460000  0.11710000  1.0 0.0905090743
H  H563  1  0.18460000  0.11710000  0.53150000  1.0 0.0905090743
H  H564  1  0.11710000  0.53150000  0.18460000  1.0 0.0905090743
H  H565  1  0.45740000  0.84810000  0.92670000  1.0 0.1094609184
H  H566  1  0.84810000  0.92670000  0.45740000  1.0 0.1094609184
H  H567  1  0.92670000  0.45740000  0.84810000  1.0 0.1094609184
H  H568  1  0.54260000  0.15190000  0.07330000  1.0 0.1094609184
H  H569  1  0.15190000  0.07330000  0.54260000  1.0 0.1094609184
H  H570  1  0.07330000  0.54260000  0.15190000  1.0 0.1094609184
H  H571  1  0.48310000  0.79360000  0.94260000  1.0 0.1015144466
H  H572  1  0.79360000  0.94260000  0.48310000  1.0 0.1015144466
H  H573  1  0.94260000  0.48310000  0.79360000  1.0 0.1015144466
H  H574  1  0.51690000  0.20640000  0.05740000  1.0 0.1015144466
H  H575  1  0.20640000  0.05740000  0.51690000  1.0 0.1015144466
H  H576  1  0.05740000  0.51690000  0.20640000  1.0 0.1015144466
H  H577  1  0.52560000  0.80480000  0.11810000  1.0 0.1298308161
H  H578  1  0.80480000  0.11810000  0.52560000  1.0 0.1298308161
H  H579  1  0.11810000  0.52560000  0.80480000  1.0 0.1298308161
H  H580  1  0.47440000  0.19520000  0.88190000  1.0 0.1298308161
H  H581  1  0.19520000  0.88190000  0.47440000  1.0 0.1298308161
H  H582  1  0.88190000  0.47440000  0.19520000  1.0 0.1298308161
H  H583  1  0.58070000  0.77890000  0.14200000  1.0 0.119899898
H  H584  1  0.77890000  0.14200000  0.58070000  1.0 0.119899898
H  H585  1  0.14200000  0.58070000  0.77890000  1.0 0.119899898
H  H586  1  0.41930000  0.22110000  0.85800000  1.0 0.119899898
H  H587  1  0.22110000  0.85800000  0.41930000  1.0 0.119899898
H  H588  1  0.85800000  0.41930000  0.22110000  1.0 0.119899898
H  H589  1  0.68260000  0.75180000  0.02880000  1.0 0.119899898
H  H590  1  0.75180000  0.02880000  0.68260000  1.0 0.119899898
H  H591  1  0.02880000  0.68260000  0.75180000  1.0 0.119899898
H  H592  1  0.31740000  0.24820000  0.97120000  1.0 0.119899898
H  H593  1  0.24820000  0.97120000  0.31740000  1.0 0.119899898
H  H594  1  0.97120000  0.31740000  0.24820000  1.0 0.119899898
H  H595  1  0.62920000  0.76990000  0.00440000  1.0 0.119899898
H  H596  1  0.76990000  0.00440000  0.62920000  1.0 0.119899898
H  H597  1  0.00440000  0.62920000  0.76990000  1.0 0.119899898
H  H598  1  0.37080000  0.23010000  0.99560000  1.0 0.119899898
H  H599  1  0.23010000  0.99560000  0.37080000  1.0 0.119899898
H  H600  1  0.99560000  0.37080000  0.23010000  1.0 0.119899898
H  H601  1  0.78990000  0.73200000  0.06220000  1.0 0.1094609184
H  H602  1  0.73200000  0.06220000  0.78990000  1.0 0.1094609184
H  H603  1  0.06220000  0.78990000  0.73200000  1.0 0.1094609184
H  H604  1  0.21010000  0.26800000  0.93780000  1.0 0.1094609184
H  H605  1  0.26800000  0.93780000  0.21010000  1.0 0.1094609184
H  H606  1  0.93780000  0.21010000  0.26800000  1.0 0.1094609184
H  H607  1  0.84180000  0.73250000  0.07250000  1.0 0.1094609184
H  H608  1  0.73250000  0.07250000  0.84180000  1.0 0.1094609184
H  H609  1  0.07250000  0.84180000  0.73250000  1.0 0.1094609184
H  H610  1  0.15820000  0.26750000  0.92750000  1.0 0.1094609184
H  H611  1  0.26750000  0.92750000  0.15820000  1.0 0.1094609184
H  H612  1  0.92750000  0.15820000  0.26750000  1.0 0.1094609184
H  H613  1  0.74500000  0.73690000  0.19970000  1.0 0.1387095827
H  H614  1  0.73690000  0.19970000  0.74500000  1.0 0.1387095827
H  H615  1  0.19970000  0.74500000  0.73690000  1.0 0.1387095827
H  H616  1  0.25500000  0.26310000  0.80030000  1.0 0.1387095827
H  H617  1  0.26310000  0.80030000  0.25500000  1.0 0.1387095827
H  H618  1  0.80030000  0.25500000  0.26310000  1.0 0.1387095827
H  H619  1  0.69480000  0.73460000  0.18530000  1.0 0.1094609184
H  H620  1  0.73460000  0.18530000  0.69480000  1.0 0.1094609184
H  H621  1  0.18530000  0.69480000  0.73460000  1.0 0.1094609184
H  H622  1  0.30520000  0.26540000  0.81470000  1.0 0.1094609184
H  H623  1  0.26540000  0.81470000  0.30520000  1.0 0.1094609184
H  H624  1  0.81470000  0.30520000  0.26540000  1.0 0.1094609184
H  H625  1  0.36600000  0.78330000  0.99110000  1.0 0.119899898
H  H626  1  0.78330000  0.99110000  0.36600000  1.0 0.119899898
H  H627  1  0.99110000  0.36600000  0.78330000  1.0 0.119899898
H  H628  1  0.63400000  0.21670000  0.00890000  1.0 0.119899898
H  H629  1  0.21670000  0.00890000  0.63400000  1.0 0.119899898
H  H630  1  0.00890000  0.63400000  0.21670000  1.0 0.119899898
H  H631  1  0.34300000  0.78770000  0.94460000  1.0 0.1094609184
H  H632  1  0.78770000  0.94460000  0.34300000  1.0 0.1094609184
H  H633  1  0.94460000  0.34300000  0.78770000  1.0 0.1094609184
H  H634  1  0.65700000  0.21230000  0.05540000  1.0 0.1094609184
H  H635  1  0.21230000  0.05540000  0.65700000  1.0 0.1094609184
H  H636  1  0.05540000  0.65700000  0.21230000  1.0 0.1094609184
H  H637  1  0.20940000  0.84850000  0.01740000  1.0 0.1298308161
H  H638  1  0.84850000  0.01740000  0.20940000  1.0 0.1298308161
H  H639  1  0.01740000  0.20940000  0.84850000  1.0 0.1298308161
H  H640  1  0.79060000  0.15150000  0.98260000  1.0 0.1298308161
H  H641  1  0.15150000  0.98260000  0.79060000  1.0 0.1298308161
H  H642  1  0.98260000  0.79060000  0.15150000  1.0 0.1298308161
H  H643  1  0.23230000  0.84400000  0.06380000  1.0 0.1298308161
H  H644  1  0.84400000  0.06380000  0.23230000  1.0 0.1298308161
H  H645  1  0.06380000  0.23230000  0.84400000  1.0 0.1298308161
H  H646  1  0.76770000  0.15600000  0.93620000  1.0 0.1298308161
H  H647  1  0.15600000  0.93620000  0.76770000  1.0 0.1298308161
H  H648  1  0.93620000  0.76770000  0.15600000  1.0 0.1298308161
H  H649  1  0.24650000  0.87270000  0.84570000  1.0 0.119899898
H  H650  1  0.87270000  0.84570000  0.24650000  1.0 0.119899898
H  H651  1  0.84570000  0.24650000  0.87270000  1.0 0.119899898
H  H652  1  0.75350000  0.12730000  0.15430000  1.0 0.119899898
H  H653  1  0.12730000  0.15430000  0.75350000  1.0 0.119899898
H  H654  1  0.15430000  0.75350000  0.12730000  1.0 0.119899898
H  H655  1  0.22590000  0.87450000  0.79880000  1.0 0.119899898
H  H656  1  0.87450000  0.79880000  0.22590000  1.0 0.119899898
H  H657  1  0.79880000  0.22590000  0.87450000  1.0 0.119899898
H  H658  1  0.77410000  0.12550000  0.20120000  1.0 0.119899898
H  H659  1  0.12550000  0.20120000  0.77410000  1.0 0.119899898
H  H660  1  0.20120000  0.77410000  0.12550000  1.0 0.119899898
H  H661  1  0.22030000  0.74760000  0.88750000  1.0 0.119899898
H  H662  1  0.74760000  0.88750000  0.22030000  1.0 0.119899898
H  H663  1  0.88750000  0.22030000  0.74760000  1.0 0.119899898
H  H664  1  0.77970000  0.25240000  0.11250000  1.0 0.119899898
H  H665  1  0.25240000  0.11250000  0.77970000  1.0 0.119899898
H  H666  1  0.11250000  0.77970000  0.25240000  1.0 0.119899898
H  H667  1  0.24080000  0.74570000  0.93430000  1.0 0.1094609184
H  H668  1  0.74570000  0.93430000  0.24080000  1.0 0.1094609184
H  H669  1  0.93430000  0.24080000  0.74570000  1.0 0.1094609184
H  H670  1  0.75920000  0.25430000  0.06570000  1.0 0.1094609184
H  H671  1  0.25430000  0.06570000  0.75920000  1.0 0.1094609184
H  H672  1  0.06570000  0.75920000  0.25430000  1.0 0.1094609184
C  C1  1  0.07953000  0.47813000  0.69043000  1.0 0.2005226071
C  C2  1  0.69043000  0.07953000  0.47813000  1.0 0.2005226071
C  C3  1  0.47813000  0.69043000  0.07953000  1.0 0.2005226071
C  C4  1  0.92047000  0.52187000  0.30957000  1.0 0.2005226071
C  C5  1  0.30957000  0.92047000  0.52187000  1.0 0.2005226071
C  C6  1  0.52187000  0.30957000  0.92047000  1.0 0.2005226071
C  C7  1  0.11613000  0.43713000  0.68973000  1.0 0.060511883
C  C8  1  0.68973000  0.11613000  0.43713000  1.0 0.060511883
C  C9  1  0.43713000  0.68973000  0.11613000  1.0 0.060511883
C  C10  1  0.88387000  0.56287000  0.31027000  1.0 0.060511883
C  C11  1  0.31027000  0.88387000  0.56287000  1.0 0.060511883
C  C12  1  0.56287000  0.31027000  0.88387000  1.0 0.060511883
C  C13  1  0.11389000  0.40189000  0.69349000  1.0 -0.2535819375
C  C14  1  0.69349000  0.11389000  0.40189000  1.0 -0.2535819375
C  C15  1  0.40189000  0.69349000  0.11389000  1.0 -0.2535819375
C  C16  1  0.88611000  0.59811000  0.30651000  1.0 -0.2535819375
C  C17  1  0.30651000  0.88611000  0.59811000  1.0 -0.2535819375
C  C18  1  0.59811000  0.30651000  0.88611000  1.0 -0.2535819375
C  C19  1  0.07113000  0.40733000  0.69673000  1.0 0.2247709842
C  C20  1  0.69673000  0.07113000  0.40733000  1.0 0.2247709842
C  C21  1  0.40733000  0.69673000  0.07113000  1.0 0.2247709842
C  C22  1  0.92887000  0.59267000  0.30327000  1.0 0.2247709842
C  C23  1  0.30327000  0.92887000  0.59267000  1.0 0.2247709842
C  C24  1  0.59267000  0.30327000  0.92887000  1.0 0.2247709842
C  C25  1  0.03693000  0.44963000  0.69313000  1.0 0.0415822757
C  C26  1  0.69313000  0.03693000  0.44963000  1.0 0.0415822757
C  C27  1  0.44963000  0.69313000  0.03693000  1.0 0.0415822757
C  C28  1  0.96307000  0.55037000  0.30687000  1.0 0.0415822757
C  C29  1  0.30687000  0.96307000  0.55037000  1.0 0.0415822757
C  C30  1  0.55037000  0.30687000  0.96307000  1.0 0.0415822757
C  C31  1  0.03539000  0.48689000  0.69179000  1.0 -0.2690481457
C  C32  1  0.69179000  0.03539000  0.48689000  1.0 -0.2690481457
C  C33  1  0.48689000  0.69179000  0.03539000  1.0 -0.2690481457
C  C34  1  0.96461000  0.51311000  0.30821000  1.0 -0.2690481457
C  C35  1  0.30821000  0.96461000  0.51311000  1.0 -0.2690481457
C  C36  1  0.51311000  0.30821000  0.96461000  1.0 -0.2690481457
C  C37  1  0.11039000  0.33299000  0.68939000  1.0 -0.0587849038
C  C38  1  0.68939000  0.11039000  0.33299000  1.0 -0.0587849038
C  C39  1  0.33299000  0.68939000  0.11039000  1.0 -0.0587849038
C  C40  1  0.88961000  0.66701000  0.31061000  1.0 -0.0587849038
C  C41  1  0.31061000  0.88961000  0.66701000  1.0 -0.0587849038
C  C42  1  0.66701000  0.31061000  0.88961000  1.0 -0.0587849038
C  C43  1  0.09351000  0.30911000  0.68581000  1.0 -0.0491268975
C  C44  1  0.68581000  0.09351000  0.30911000  1.0 -0.0491268975
C  C45  1  0.30911000  0.68581000  0.09351000  1.0 -0.0491268975
C  C46  1  0.90649000  0.69089000  0.31419000  1.0 -0.0491268975
C  C47  1  0.31419000  0.90649000  0.69089000  1.0 -0.0491268975
C  C48  1  0.69089000  0.31419000  0.90649000  1.0 -0.0491268975
C  C49  1  0.07655000  0.30555000  0.63895000  1.0 -0.1099741255
C  C50  1  0.63895000  0.07655000  0.30555000  1.0 -0.1099741255
C  C51  1  0.30555000  0.63895000  0.07655000  1.0 -0.1099741255
C  C52  1  0.92345000  0.69445000  0.36105000  1.0 -0.1099741255
C  C53  1  0.36105000  0.92345000  0.69445000  1.0 -0.1099741255
C  C54  1  0.69445000  0.36105000  0.92345000  1.0 -0.1099741255
C  C55  1  0.11226000  0.28026000  0.61236000  1.0 -0.091512427
C  C56  1  0.61236000  0.11226000  0.28026000  1.0 -0.091512427
C  C57  1  0.28026000  0.61236000  0.11226000  1.0 -0.091512427
C  C58  1  0.88774000  0.71974000  0.38764000  1.0 -0.091512427
C  C59  1  0.38764000  0.88774000  0.71974000  1.0 -0.091512427
C  C60  1  0.71974000  0.38764000  0.88774000  1.0 -0.091512427
C  C61  1  0.16838000  0.28758000  0.53638000  1.0 -0.101033193
C  C62  1  0.53638000  0.16838000  0.28758000  1.0 -0.101033193
C  C63  1  0.28758000  0.53638000  0.16838000  1.0 -0.101033193
C  C64  1  0.83162000  0.71242000  0.46362000  1.0 -0.101033193
C  C65  1  0.46362000  0.83162000  0.71242000  1.0 -0.101033193
C  C66  1  0.71242000  0.46362000  0.83162000  1.0 -0.101033193
C  C67  1  0.18978000  0.31818000  0.49128000  1.0 -0.0789785539
C  C68  1  0.49128000  0.18978000  0.31818000  1.0 -0.0789785539
C  C69  1  0.31818000  0.49128000  0.18978000  1.0 -0.0789785539
C  C70  1  0.81022000  0.68182000  0.50872000  1.0 -0.0789785539
C  C71  1  0.50872000  0.81022000  0.68182000  1.0 -0.0789785539
C  C72  1  0.68182000  0.50872000  0.81022000  1.0 -0.0789785539
C  C73  1  0.23584000  0.36014000  0.45444000  1.0 -0.0587849038
C  C74  1  0.45444000  0.23584000  0.36014000  1.0 -0.0587849038
C  C75  1  0.36014000  0.45444000  0.23584000  1.0 -0.0587849038
C  C76  1  0.76416000  0.63986000  0.54556000  1.0 -0.0587849038
C  C77  1  0.54556000  0.76416000  0.63986000  1.0 -0.0587849038
C  C78  1  0.63986000  0.54556000  0.76416000  1.0 -0.0587849038
C  C79  1  0.24679000  0.38669000  0.46209000  1.0 -0.0587849038
C  C80  1  0.46209000  0.24679000  0.38669000  1.0 -0.0587849038
C  C81  1  0.38669000  0.46209000  0.24679000  1.0 -0.0587849038
C  C82  1  0.75321000  0.61331000  0.53791000  1.0 -0.0587849038
C  C83  1  0.53791000  0.75321000  0.61331000  1.0 -0.0587849038
C  C84  1  0.61331000  0.53791000  0.75321000  1.0 -0.0587849038
C  C85  1  0.21663000  0.46063000  0.46793000  1.0 0.1921217019
C  C86  1  0.46793000  0.21663000  0.46063000  1.0 0.1921217019
C  C87  1  0.46063000  0.46793000  0.21663000  1.0 0.1921217019
C  C88  1  0.78337000  0.53937000  0.53207000  1.0 0.1921217019
C  C89  1  0.53207000  0.78337000  0.53937000  1.0 0.1921217019
C  C90  1  0.53937000  0.53207000  0.78337000  1.0 0.1921217019
C  C91  1  0.25780000  0.44630000  0.46740000  1.0 -0.2025506066
C  C92  1  0.46740000  0.25780000  0.44630000  1.0 -0.2059285453
C  C93  1  0.44630000  0.46740000  0.25780000  1.0 -0.2059285453
C  C94  1  0.74220000  0.55370000  0.53260000  1.0 -0.2059285453
C  C95  1  0.53260000  0.74220000  0.55370000  1.0 -0.2059285453
C  C96  1  0.55370000  0.53260000  0.74220000  1.0 -0.2059285453
C  C97  1  0.27000000  0.47620000  0.46340000  1.0 -0.0789785539
C  C98  1  0.46340000  0.27000000  0.47620000  1.0 -0.0789785539
C  C99  1  0.47620000  0.46340000  0.27000000  1.0 -0.0789785539
C  C100  1  0.73000000  0.52380000  0.53660000  1.0 -0.0789785539
C  C101  1  0.53660000  0.73000000  0.52380000  1.0 -0.0789785539
C  C102  1  0.52380000  0.53660000  0.73000000  1.0 -0.0789785539
C  C103  1  0.23608000  0.52248000  0.46088000  1.0 -0.1595271324
C  C104  1  0.46088000  0.23608000  0.52248000  1.0 -0.1595271324
C  C105  1  0.52248000  0.46088000  0.23608000  1.0 -0.1595271324
C  C106  1  0.76392000  0.47752000  0.53912000  1.0 -0.1595271324
C  C107  1  0.53912000  0.76392000  0.47752000  1.0 -0.1595271324
C  C108  1  0.47752000  0.53912000  0.76392000  1.0 -0.1595271324
C  C109  1  0.19320000  0.53570000  0.46210000  1.0 0.0094058212
C  C110  1  0.46210000  0.19320000  0.53570000  1.0 0.0094058212
C  C111  1  0.53570000  0.46210000  0.19320000  1.0 0.0094058212
C  C112  1  0.80680000  0.46430000  0.53790000  1.0 0.0094058212
C  C113  1  0.53790000  0.80680000  0.46430000  1.0 0.0094058212
C  C114  1  0.46430000  0.53790000  0.80680000  1.0 0.0094058212
C  C115  1  0.18060000  0.50500000  0.46520000  1.0 -0.0066716931
C  C116  1  0.46520000  0.18060000  0.50500000  1.0 -0.0066716931
C  C117  1  0.50500000  0.46520000  0.18060000  1.0 -0.0066716931
C  C118  1  0.81940000  0.49500000  0.53480000  1.0 -0.0066716931
C  C119  1  0.53480000  0.81940000  0.49500000  1.0 -0.0066716931
C  C120  1  0.49500000  0.53480000  0.81940000  1.0 -0.0066716931
C  C121  1  0.14076000  0.51376000  0.46706000  1.0 -0.1707542807
C  C122  1  0.46706000  0.14076000  0.51376000  1.0 -0.1707542807
C  C123  1  0.51376000  0.46706000  0.14076000  1.0 -0.1707542807
C  C124  1  0.85924000  0.48624000  0.53294000  1.0 -0.1595271324
C  C125  1  0.53294000  0.85924000  0.48624000  1.0 -0.1707542807
C  C126  1  0.48624000  0.53294000  0.85924000  1.0 -0.1707542807
C  C127  1  0.10580000  0.56220000  0.46450000  1.0 -0.0706749398
C  C128  1  0.46450000  0.10580000  0.56220000  1.0 -0.0789785539
C  C129  1  0.56220000  0.46450000  0.10580000  1.0 -0.0706749398
C  C130  1  0.89420000  0.43780000  0.53550000  1.0 -0.0789785539
C  C131  1  0.53550000  0.89420000  0.43780000  1.0 -0.0789785539
C  C132  1  0.43780000  0.53550000  0.89420000  1.0 -0.0706749398
C  C133  1  0.11346000  0.59476000  0.46016000  1.0 -0.2391515983
C  C134  1  0.46016000  0.11346000  0.59476000  1.0 -0.2391515983
C  C135  1  0.59476000  0.46016000  0.11346000  1.0 -0.2391515983
C  C136  1  0.88654000  0.40524000  0.53984000  1.0 -0.2391515983
C  C137  1  0.53984000  0.88654000  0.40524000  1.0 -0.2391515983
C  C138  1  0.40524000  0.53984000  0.88654000  1.0 -0.2391515983
C  C139  1  0.15540000  0.58230000  0.45780000  1.0 0.2005226071
C  C140  1  0.45780000  0.15540000  0.58230000  1.0 0.2005226071
C  C141  1  0.58230000  0.45780000  0.15540000  1.0 0.2005226071
C  C142  1  0.84460000  0.41770000  0.54220000  1.0 0.2005226071
C  C143  1  0.54220000  0.84460000  0.41770000  1.0 0.2005226071
C  C144  1  0.41770000  0.54220000  0.84460000  1.0 0.2005226071
C  C145  1  0.13223000  0.65953000  0.44793000  1.0 -0.0706749398
C  C146  1  0.44793000  0.13223000  0.65953000  1.0 -0.0706749398
C  C147  1  0.65953000  0.44793000  0.13223000  1.0 -0.0706749398
C  C148  1  0.86777000  0.34047000  0.55207000  1.0 -0.0706749398
C  C149  1  0.55207000  0.86777000  0.34047000  1.0 -0.0706749398
C  C150  1  0.34047000  0.55207000  0.86777000  1.0 -0.0706749398
C  C151  1  0.15030000  0.68940000  0.44130000  1.0 -0.091512427
C  C152  1  0.44130000  0.15030000  0.68940000  1.0 -0.091512427
C  C153  1  0.68940000  0.44130000  0.15030000  1.0 -0.091512427
C  C154  1  0.84970000  0.31060000  0.55870000  1.0 -0.091512427
C  C155  1  0.55870000  0.84970000  0.31060000  1.0 -0.091512427
C  C156  1  0.31060000  0.55870000  0.84970000  1.0 -0.091512427
C  C157  1  0.15255000  0.70345000  0.49085000  1.0 -0.0706749398
C  C158  1  0.49085000  0.15255000  0.70345000  1.0 -0.0706749398
C  C159  1  0.70345000  0.49085000  0.15255000  1.0 -0.0706749398
C  C160  1  0.84745000  0.29655000  0.50915000  1.0 -0.0706749398
C  C161  1  0.50915000  0.84745000  0.29655000  1.0 -0.0706749398
C  C162  1  0.29655000  0.50915000  0.84745000  1.0 -0.0706749398
C  C163  1  0.14014000  0.69064000  0.54244000  1.0 -0.0066716931
C  C164  1  0.54244000  0.14014000  0.69064000  1.0 -0.0066716931
C  C165  1  0.69064000  0.54244000  0.14014000  1.0 -0.0066716931
C  C166  1  0.85986000  0.30936000  0.45756000  1.0 -0.0066716931
C  C167  1  0.45756000  0.85986000  0.30936000  1.0 -0.0066716931
C  C168  1  0.30936000  0.45756000  0.85986000  1.0 -0.0066716931
C  C169  1  0.15210000  0.63490000  0.61160000  1.0 -0.091512427
C  C170  1  0.61160000  0.15210000  0.63490000  1.0 -0.091512427
C  C171  1  0.63490000  0.61160000  0.15210000  1.0 -0.091512427
C  C172  1  0.84790000  0.36510000  0.38840000  1.0 -0.091512427
C  C173  1  0.38840000  0.84790000  0.36510000  1.0 -0.101033193
C  C174  1  0.36510000  0.38840000  0.84790000  1.0 -0.091512427
C  C175  1  0.09733000  0.63733000  0.64393000  1.0 -0.1383790939
C  C176  1  0.64393000  0.09733000  0.63733000  1.0 -0.1383790939
C  C177  1  0.63733000  0.64393000  0.09733000  1.0 -0.1383790939
C  C178  1  0.90267000  0.36267000  0.35607000  1.0 -0.1383790939
C  C179  1  0.35607000  0.90267000  0.36267000  1.0 -0.1383790939
C  C180  1  0.36267000  0.35607000  0.90267000  1.0 -0.1383790939
C  C181  1  0.05882000  0.58922000  0.68072000  1.0 -0.0491268975
C  C182  1  0.68072000  0.05882000  0.58922000  1.0 -0.0491268975
C  C183  1  0.58922000  0.68072000  0.05882000  1.0 -0.0491268975
C  C184  1  0.94118000  0.41078000  0.31928000  1.0 -0.0491268975
C  C185  1  0.31928000  0.94118000  0.41078000  1.0 -0.0491268975
C  C186  1  0.41078000  0.31928000  0.94118000  1.0 -0.0491268975
C  C187  1  0.04599000  0.56009000  0.68089000  1.0 -0.0587849038
C  C188  1  0.68089000  0.04599000  0.56009000  1.0 -0.0587849038
C  C189  1  0.56009000  0.68089000  0.04599000  1.0 -0.0587849038
C  C190  1  0.95401000  0.43991000  0.31911000  1.0 -0.0587849038
C  C191  1  0.31911000  0.95401000  0.43991000  1.0 -0.0587849038
C  C192  1  0.43991000  0.31911000  0.95401000  1.0 -0.0587849038
C  C193  1  0.99890000  0.45300000  0.69650000  1.0 -0.0789785539
C  C194  1  0.69650000  0.99890000  0.45300000  1.0 -0.0789785539
C  C195  1  0.45300000  0.69650000  0.99890000  1.0 -0.0789785539
C  C196  1  0.00110000  0.54700000  0.30350000  1.0 -0.0789785539
C  C197  1  0.30350000  0.00110000  0.54700000  1.0 -0.0789785539
C  C198  1  0.54700000  0.30350000  0.00110000  1.0 -0.0789785539
C  C199  1  0.96575000  0.45095000  0.70215000  1.0 -0.0789785539
C  C200  1  0.70215000  0.96575000  0.45095000  1.0 -0.0789785539
C  C201  1  0.45095000  0.70215000  0.96575000  1.0 -0.0789785539
C  C202  1  0.03425000  0.54905000  0.29785000  1.0 -0.0789785539
C  C203  1  0.29785000  0.03425000  0.54905000  1.0 -0.0789785539
C  C204  1  0.54905000  0.29785000  0.03425000  1.0 -0.0789785539
C  C205  1  0.92805000  0.43925000  0.71165000  1.0 0.1387095827
C  C206  1  0.71165000  0.92805000  0.43925000  1.0 0.1387095827
C  C207  1  0.43925000  0.71165000  0.92805000  1.0 0.1387095827
C  C208  1  0.07195000  0.56075000  0.28835000  1.0 0.1387095827
C  C209  1  0.28835000  0.07195000  0.56075000  1.0 0.1387095827
C  C210  1  0.56075000  0.28835000  0.07195000  1.0 0.1387095827
C  C211  1  0.94297000  0.39917000  0.70747000  1.0 -0.1494147008
C  C212  1  0.70747000  0.94297000  0.39917000  1.0 -0.1494147008
C  C213  1  0.39917000  0.70747000  0.94297000  1.0 -0.1494147008
C  C214  1  0.05703000  0.60083000  0.29253000  1.0 -0.1494147008
C  C215  1  0.29253000  0.05703000  0.60083000  1.0 -0.1494147008
C  C216  1  0.60083000  0.29253000  0.05703000  1.0 -0.1494147008
C  C217  1  0.90929000  0.38609000  0.72219000  1.0 -0.1494147008
C  C218  1  0.72219000  0.90929000  0.38609000  1.0 -0.1595271324
C  C219  1  0.38609000  0.72219000  0.90929000  1.0 -0.1595271324
C  C220  1  0.09071000  0.61391000  0.27781000  1.0 -0.1595271324
C  C221  1  0.27781000  0.09071000  0.61391000  1.0 -0.1494147008
C  C222  1  0.61391000  0.27781000  0.09071000  1.0 -0.1494147008
C  C223  1  0.86082000  0.41022000  0.73912000  1.0 0.119899898
C  C224  1  0.73912000  0.86082000  0.41022000  1.0 0.119899898
C  C225  1  0.41022000  0.73912000  0.86082000  1.0 0.119899898
C  C226  1  0.13918000  0.58978000  0.26088000  1.0 0.119899898
C  C227  1  0.26088000  0.13918000  0.58978000  1.0 0.119899898
C  C228  1  0.58978000  0.26088000  0.13918000  1.0 0.119899898
C  C229  1  0.84880000  0.45240000  0.73950000  1.0 -0.1707542807
C  C230  1  0.73950000  0.84880000  0.45240000  1.0 -0.1707542807
C  C231  1  0.45240000  0.73950000  0.84880000  1.0 -0.1819770275
C  C232  1  0.15120000  0.54760000  0.26050000  1.0 -0.1707542807
C  C233  1  0.26050000  0.15120000  0.54760000  1.0 -0.1707542807
C  C234  1  0.54760000  0.26050000  0.15120000  1.0 -0.1707542807
C  C235  1  0.88016000  0.46846000  0.72766000  1.0 -0.1870333404
C  C236  1  0.72766000  0.88016000  0.46846000  1.0 -0.1870333404
C  C237  1  0.46846000  0.72766000  0.88016000  1.0 -0.1870333404
C  C238  1  0.11984000  0.53154000  0.27234000  1.0 -0.1870333404
C  C239  1  0.27234000  0.11984000  0.53154000  1.0 -0.1870333404
C  C240  1  0.53154000  0.27234000  0.11984000  1.0 -0.1870333404
C  C241  1  0.82646000  0.39976000  0.74986000  1.0 -0.1322771763
C  C242  1  0.74986000  0.82646000  0.39976000  1.0 -0.1322771763
C  C243  1  0.39976000  0.74986000  0.82646000  1.0 -0.1322771763
C  C244  1  0.17354000  0.60024000  0.25014000  1.0 -0.1322771763
C  C245  1  0.25014000  0.17354000  0.60024000  1.0 -0.1322771763
C  C246  1  0.60024000  0.25014000  0.17354000  1.0 -0.1322771763
C  C247  1  0.80017000  0.38507000  0.76027000  1.0 -0.1322771763
C  C248  1  0.76027000  0.80017000  0.38507000  1.0 -0.1322771763
C  C249  1  0.38507000  0.76027000  0.80017000  1.0 -0.1322771763
C  C250  1  0.19983000  0.61493000  0.23973000  1.0 -0.1322771763
C  C251  1  0.23973000  0.19983000  0.61493000  1.0 -0.1322771763
C  C252  1  0.61493000  0.23973000  0.19983000  1.0 -0.1322771763
C  C253  1  0.76258000  0.38108000  0.76408000  1.0 0.119899898
C  C254  1  0.76408000  0.76258000  0.38108000  1.0 0.119899898
C  C255  1  0.38108000  0.76408000  0.76258000  1.0 0.119899898
C  C256  1  0.23742000  0.61892000  0.23592000  1.0 0.119899898
C  C257  1  0.23592000  0.23742000  0.61892000  1.0 0.119899898
C  C258  1  0.61892000  0.23592000  0.23742000  1.0 0.119899898
C  C259  1  0.71952000  0.40972000  0.76692000  1.0 -0.1494147008
C  C260  1  0.76692000  0.71952000  0.40972000  1.0 -0.1494147008
C  C261  1  0.40972000  0.76692000  0.71952000  1.0 -0.1494147008
C  C262  1  0.28048000  0.59028000  0.23308000  1.0 -0.1494147008
C  C263  1  0.23308000  0.28048000  0.59028000  1.0 -0.1494147008
C  C264  1  0.59028000  0.23308000  0.28048000  1.0 -0.1494147008
C  C265  1  0.68677000  0.40377000  0.76857000  1.0 -0.120427137
C  C266  1  0.76857000  0.68677000  0.40377000  1.0 -0.120427137
C  C267  1  0.40377000  0.76857000  0.68677000  1.0 -0.120427137
C  C268  1  0.31323000  0.59623000  0.23143000  1.0 -0.120427137
C  C269  1  0.23143000  0.31323000  0.59623000  1.0 -0.120427137
C  C270  1  0.59623000  0.23143000  0.31323000  1.0 -0.120427137
C  C271  1  0.69956000  0.35846000  0.77196000  1.0 0.0023678447
C  C272  1  0.77196000  0.69956000  0.35846000  1.0 0.0023678447
C  C273  1  0.35846000  0.77196000  0.69956000  1.0 0.0023678447
C  C274  1  0.30044000  0.64154000  0.22804000  1.0 0.0023678447
C  C275  1  0.22804000  0.30044000  0.64154000  1.0 0.0023678447
C  C276  1  0.64154000  0.22804000  0.30044000  1.0 0.0023678447
C  C277  1  0.74472000  0.32732000  0.76622000  1.0 -0.091512427
C  C278  1  0.76622000  0.74472000  0.32732000  1.0 -0.091512427
C  C279  1  0.32732000  0.76622000  0.74472000  1.0 -0.091512427
C  C280  1  0.25528000  0.67268000  0.23378000  1.0 -0.091512427
C  C281  1  0.23378000  0.25528000  0.67268000  1.0 -0.091512427
C  C282  1  0.67268000  0.23378000  0.25528000  1.0 -0.091512427
C  C283  1  0.77586000  0.33726000  0.76516000  1.0 -0.1494147008
C  C284  1  0.76516000  0.77586000  0.33726000  1.0 -0.1595271324
C  C285  1  0.33726000  0.76516000  0.77586000  1.0 -0.1494147008
C  C286  1  0.22414000  0.66274000  0.23484000  1.0 -0.1595271324
C  C287  1  0.23484000  0.22414000  0.66274000  1.0 -0.1595271324
C  C288  1  0.66274000  0.23484000  0.22414000  1.0 -0.1595271324
C  C289  1  0.66304000  0.35614000  0.76844000  1.0 0.5276728583
C  C290  1  0.76844000  0.66304000  0.35614000  1.0 0.5276728583
C  C291  1  0.35614000  0.76844000  0.66304000  1.0 0.5276728583
C  C292  1  0.33696000  0.64386000  0.23156000  1.0 0.5276728583
C  C293  1  0.23156000  0.33696000  0.64386000  1.0 0.5276728583
C  C294  1  0.64386000  0.23156000  0.33696000  1.0 0.5276728583
C  C295  1  0.15720000  0.43350000  0.68970000  1.0 -0.091512427
C  C296  1  0.68970000  0.15720000  0.43350000  1.0 -0.091512427
C  C297  1  0.43350000  0.68970000  0.15720000  1.0 -0.091512427
C  C298  1  0.84280000  0.56650000  0.31030000  1.0 -0.091512427
C  C299  1  0.31030000  0.84280000  0.56650000  1.0 -0.091512427
C  C300  1  0.56650000  0.31030000  0.84280000  1.0 -0.091512427
C  C301  1  0.18324000  0.43934000  0.69004000  1.0 -0.1322771763
C  C302  1  0.69004000  0.18324000  0.43934000  1.0 -0.1322771763
C  C303  1  0.43934000  0.69004000  0.18324000  1.0 -0.1322771763
C  C304  1  0.81676000  0.56066000  0.30996000  1.0 -0.1322771763
C  C305  1  0.30996000  0.81676000  0.56066000  1.0 -0.1322771763
C  C306  1  0.56066000  0.30996000  0.81676000  1.0 -0.1322771763
C  C307  1  0.19858000  0.46788000  0.68678000  1.0 0.1298308161
C  C308  1  0.68678000  0.19858000  0.46788000  1.0 0.1298308161
C  C309  1  0.46788000  0.68678000  0.19858000  1.0 0.1298308161
C  C310  1  0.80142000  0.53212000  0.31322000  1.0 0.1298308161
C  C311  1  0.31322000  0.80142000  0.53212000  1.0 0.1298308161
C  C312  1  0.53212000  0.31322000  0.80142000  1.0 0.1298308161
C  C313  1  0.16535000  0.50365000  0.70365000  1.0 -0.120427137
C  C314  1  0.70365000  0.16535000  0.50365000  1.0 -0.120427137
C  C315  1  0.50365000  0.70365000  0.16535000  1.0 -0.120427137
C  C316  1  0.83465000  0.49635000  0.29635000  1.0 -0.120427137
C  C317  1  0.29635000  0.83465000  0.49635000  1.0 -0.120427137
C  C318  1  0.49635000  0.29635000  0.83465000  1.0 -0.120427137
C  C319  1  0.17913000  0.53153000  0.70093000  1.0 -0.1819770275
C  C320  1  0.70093000  0.17913000  0.53153000  1.0 -0.1819770275
C  C321  1  0.53153000  0.70093000  0.17913000  1.0 -0.1819770275
C  C322  1  0.82087000  0.46847000  0.29907000  1.0 -0.1819770275
C  C323  1  0.29907000  0.82087000  0.46847000  1.0 -0.1819770275
C  C324  1  0.46847000  0.29907000  0.82087000  1.0 -0.1819770275
C  C325  1  0.22605000  0.52365000  0.68145000  1.0 0.0905090743
C  C326  1  0.68145000  0.22605000  0.52365000  1.0 0.0905090743
C  C327  1  0.52365000  0.68145000  0.22605000  1.0 0.0905090743
C  C328  1  0.77395000  0.47635000  0.31855000  1.0 0.0905090743
C  C329  1  0.31855000  0.77395000  0.47635000  1.0 0.0905090743
C  C330  1  0.47635000  0.31855000  0.77395000  1.0 0.0905090743
C  C331  1  0.25928000  0.48788000  0.66458000  1.0 -0.1494147008
C  C332  1  0.66458000  0.25928000  0.48788000  1.0 -0.1494147008
C  C333  1  0.48788000  0.66458000  0.25928000  1.0 -0.1494147008
C  C334  1  0.74072000  0.51212000  0.33542000  1.0 -0.1494147008
C  C335  1  0.33542000  0.74072000  0.51212000  1.0 -0.1494147008
C  C336  1  0.51212000  0.33542000  0.74072000  1.0 -0.1494147008
C  C337  1  0.24550000  0.46000000  0.66730000  1.0 -0.1494147008
C  C338  1  0.66730000  0.24550000  0.46000000  1.0 -0.1494147008
C  C339  1  0.46000000  0.66730000  0.24550000  1.0 -0.1494147008
C  C340  1  0.75450000  0.54000000  0.33270000  1.0 -0.1494147008
C  C341  1  0.33270000  0.75450000  0.54000000  1.0 -0.1494147008
C  C342  1  0.54000000  0.33270000  0.75450000  1.0 -0.1494147008
C  C343  1  0.24270000  0.55580000  0.67960000  1.0 -0.0491268975
C  C344  1  0.67960000  0.24270000  0.55580000  1.0 -0.0491268975
C  C345  1  0.55580000  0.67960000  0.24270000  1.0 -0.0491268975
C  C346  1  0.75730000  0.44420000  0.32040000  1.0 -0.0491268975
C  C347  1  0.32040000  0.75730000  0.44420000  1.0 -0.0491268975
C  C348  1  0.44420000  0.32040000  0.75730000  1.0 -0.0491268975
C  C349  1  0.23870000  0.57810000  0.68950000  1.0 -0.0587849038
C  C350  1  0.68950000  0.23870000  0.57810000  1.0 -0.0587849038
C  C351  1  0.57810000  0.68950000  0.23870000  1.0 -0.0587849038
C  C352  1  0.76130000  0.42190000  0.31050000  1.0 -0.0587849038
C  C353  1  0.31050000  0.76130000  0.42190000  1.0 -0.0587849038
C  C354  1  0.42190000  0.31050000  0.76130000  1.0 -0.0587849038
C  C355  1  0.25431000  0.60541000  0.69101000  1.0 0.1015144466
C  C356  1  0.69101000  0.25431000  0.60541000  1.0 0.1015144466
C  C357  1  0.60541000  0.69101000  0.25431000  1.0 0.1015144466
C  C358  1  0.74569000  0.39459000  0.30899000  1.0 0.1015144466
C  C359  1  0.30899000  0.74569000  0.39459000  1.0 0.1015144466
C  C360  1  0.39459000  0.30899000  0.74569000  1.0 0.1015144466
C  C361  1  0.25875000  0.64595000  0.65245000  1.0 -0.1595271324
C  C362  1  0.65245000  0.25875000  0.64595000  1.0 -0.1595271324
C  C363  1  0.64595000  0.65245000  0.25875000  1.0 -0.1595271324
C  C364  1  0.74125000  0.35405000  0.34755000  1.0 -0.1595271324
C  C365  1  0.34755000  0.74125000  0.35405000  1.0 -0.1595271324
C  C366  1  0.35405000  0.34755000  0.74125000  1.0 -0.1595271324
C  C367  1  0.27103000  0.67403000  0.65133000  1.0 -0.101033193
C  C368  1  0.65133000  0.27103000  0.67403000  1.0 -0.101033193
C  C369  1  0.67403000  0.65133000  0.27103000  1.0 -0.101033193
C  C370  1  0.72897000  0.32597000  0.34867000  1.0 -0.101033193
C  C371  1  0.34867000  0.72897000  0.32597000  1.0 -0.101033193
C  C372  1  0.32597000  0.34867000  0.72897000  1.0 -0.101033193
C  C373  1  0.27887000  0.66157000  0.68877000  1.0 -0.0066716931
C  C374  1  0.68877000  0.27887000  0.66157000  1.0 -0.0066716931
C  C375  1  0.66157000  0.68877000  0.27887000  1.0 -0.0066716931
C  C376  1  0.72113000  0.33843000  0.31123000  1.0 -0.0066716931
C  C377  1  0.31123000  0.72113000  0.33843000  1.0 -0.0066716931
C  C378  1  0.33843000  0.31123000  0.72113000  1.0 -0.0066716931
C  C379  1  0.27443000  0.62093000  0.72743000  1.0 -0.1099741255
C  C380  1  0.72743000  0.27443000  0.62093000  1.0 -0.1099741255
C  C381  1  0.62093000  0.72743000  0.27443000  1.0 -0.1099741255
C  C382  1  0.72557000  0.37907000  0.27257000  1.0 -0.1099741255
C  C383  1  0.27257000  0.72557000  0.37907000  1.0 -0.1099741255
C  C384  1  0.37907000  0.27257000  0.72557000  1.0 -0.1099741255
C  C385  1  0.26215000  0.59295000  0.72845000  1.0 -0.1707542807
C  C386  1  0.72845000  0.26215000  0.59295000  1.0 -0.1707542807
C  C387  1  0.59295000  0.72845000  0.26215000  1.0 -0.1707542807
C  C388  1  0.73785000  0.40705000  0.27155000  1.0 -0.1707542807
C  C389  1  0.27155000  0.73785000  0.40705000  1.0 -0.1707542807
C  C390  1  0.40705000  0.27155000  0.73785000  1.0 -0.1707542807
C  C391  1  0.29730000  0.69910000  0.67940000  1.0 0.5729797147
C  C392  1  0.67940000  0.29730000  0.69910000  1.0 0.5729797147
C  C393  1  0.69910000  0.67940000  0.29730000  1.0 0.5729797147
C  C394  1  0.70270000  0.30090000  0.32060000  1.0 0.5729797147
C  C395  1  0.32060000  0.70270000  0.30090000  1.0 0.5729797147
C  C396  1  0.30090000  0.32060000  0.70270000  1.0 0.5729797147
C  C397  1  0.42047000  0.80957000  0.02187000  1.0 0.2005226071
C  C398  1  0.80957000  0.02187000  0.42047000  1.0 0.2005226071
C  C399  1  0.02187000  0.42047000  0.80957000  1.0 0.2005226071
C  C400  1  0.57953000  0.19043000  0.97813000  1.0 0.2005226071
C  C401  1  0.19043000  0.97813000  0.57953000  1.0 0.2005226071
C  C402  1  0.97813000  0.57953000  0.19043000  1.0 0.2005226071
C  C403  1  0.38387000  0.81027000  0.06287000  1.0 0.060511883
C  C404  1  0.81027000  0.06287000  0.38387000  1.0 0.060511883
C  C405  1  0.06287000  0.38387000  0.81027000  1.0 0.060511883
C  C406  1  0.61613000  0.18973000  0.93713000  1.0 0.060511883
C  C407  1  0.18973000  0.93713000  0.61613000  1.0 0.060511883
C  C408  1  0.93713000  0.61613000  0.18973000  1.0 0.060511883
C  C409  1  0.38611000  0.80651000  0.09811000  1.0 -0.2535819375
C  C410  1  0.80651000  0.09811000  0.38611000  1.0 -0.2535819375
C  C411  1  0.09811000  0.38611000  0.80651000  1.0 -0.2535819375
C  C412  1  0.61389000  0.19349000  0.90189000  1.0 -0.2535819375
C  C413  1  0.19349000  0.90189000  0.61389000  1.0 -0.2535819375
C  C414  1  0.90189000  0.61389000  0.19349000  1.0 -0.2535819375
C  C415  1  0.42887000  0.80327000  0.09267000  1.0 0.2247709842
C  C416  1  0.80327000  0.09267000  0.42887000  1.0 0.2247709842
C  C417  1  0.09267000  0.42887000  0.80327000  1.0 0.2247709842
C  C418  1  0.57113000  0.19673000  0.90733000  1.0 0.2247709842
C  C419  1  0.19673000  0.90733000  0.57113000  1.0 0.2247709842
C  C420  1  0.90733000  0.57113000  0.19673000  1.0 0.2247709842
C  C421  1  0.46307000  0.80687000  0.05037000  1.0 0.0415822757
C  C422  1  0.80687000  0.05037000  0.46307000  1.0 0.0415822757
C  C423  1  0.05037000  0.46307000  0.80687000  1.0 0.0415822757
C  C424  1  0.53693000  0.19313000  0.94963000  1.0 0.0415822757
C  C425  1  0.19313000  0.94963000  0.53693000  1.0 0.0415822757
C  C426  1  0.94963000  0.53693000  0.19313000  1.0 0.0415822757
C  C427  1  0.46461000  0.80821000  0.01311000  1.0 -0.2690481457
C  C428  1  0.80821000  0.01311000  0.46461000  1.0 -0.2690481457
C  C429  1  0.01311000  0.46461000  0.80821000  1.0 -0.2690481457
C  C430  1  0.53539000  0.19179000  0.98689000  1.0 -0.2690481457
C  C431  1  0.19179000  0.98689000  0.53539000  1.0 -0.2690481457
C  C432  1  0.98689000  0.53539000  0.19179000  1.0 -0.2690481457
C  C433  1  0.38961000  0.81061000  0.16701000  1.0 -0.0587849038
C  C434  1  0.81061000  0.16701000  0.38961000  1.0 -0.0587849038
C  C435  1  0.16701000  0.38961000  0.81061000  1.0 -0.0587849038
C  C436  1  0.61039000  0.18939000  0.83299000  1.0 -0.0587849038
C  C437  1  0.18939000  0.83299000  0.61039000  1.0 -0.0587849038
C  C438  1  0.83299000  0.61039000  0.18939000  1.0 -0.0587849038
C  C439  1  0.40649000  0.81419000  0.19089000  1.0 -0.0491268975
C  C440  1  0.81419000  0.19089000  0.40649000  1.0 -0.0491268975
C  C441  1  0.19089000  0.40649000  0.81419000  1.0 -0.0491268975
C  C442  1  0.59351000  0.18581000  0.80911000  1.0 -0.0491268975
C  C443  1  0.18581000  0.80911000  0.59351000  1.0 -0.0491268975
C  C444  1  0.80911000  0.59351000  0.18581000  1.0 -0.0491268975
C  C445  1  0.42345000  0.86105000  0.19445000  1.0 -0.1099741255
C  C446  1  0.86105000  0.19445000  0.42345000  1.0 -0.1099741255
C  C447  1  0.19445000  0.42345000  0.86105000  1.0 -0.1099741255
C  C448  1  0.57655000  0.13895000  0.80555000  1.0 -0.1099741255
C  C449  1  0.13895000  0.80555000  0.57655000  1.0 -0.1099741255
C  C450  1  0.80555000  0.57655000  0.13895000  1.0 -0.1099741255
C  C451  1  0.38774000  0.88764000  0.21974000  1.0 -0.091512427
C  C452  1  0.88764000  0.21974000  0.38774000  1.0 -0.091512427
C  C453  1  0.21974000  0.38774000  0.88764000  1.0 -0.091512427
C  C454  1  0.61226000  0.11236000  0.78026000  1.0 -0.091512427
C  C455  1  0.11236000  0.78026000  0.61226000  1.0 -0.091512427
C  C456  1  0.78026000  0.61226000  0.11236000  1.0 -0.091512427
C  C457  1  0.33162000  0.96362000  0.21242000  1.0 -0.101033193
C  C458  1  0.96362000  0.21242000  0.33162000  1.0 -0.101033193
C  C459  1  0.21242000  0.33162000  0.96362000  1.0 -0.101033193
C  C460  1  0.66838000  0.03638000  0.78758000  1.0 -0.101033193
C  C461  1  0.03638000  0.78758000  0.66838000  1.0 -0.101033193
C  C462  1  0.78758000  0.66838000  0.03638000  1.0 -0.101033193
C  C463  1  0.31022000  0.00872000  0.18182000  1.0 -0.0789785539
C  C464  1  0.00872000  0.18182000  0.31022000  1.0 -0.0789785539
C  C465  1  0.18182000  0.31022000  0.00872000  1.0 -0.0789785539
C  C466  1  0.68978000  0.99128000  0.81818000  1.0 -0.0789785539
C  C467  1  0.99128000  0.81818000  0.68978000  1.0 -0.0789785539
C  C468  1  0.81818000  0.68978000  0.99128000  1.0 -0.0789785539
C  C469  1  0.26416000  0.04556000  0.13986000  1.0 -0.0587849038
C  C470  1  0.04556000  0.13986000  0.26416000  1.0 -0.0587849038
C  C471  1  0.13986000  0.26416000  0.04556000  1.0 -0.0587849038
C  C472  1  0.73584000  0.95444000  0.86014000  1.0 -0.0587849038
C  C473  1  0.95444000  0.86014000  0.73584000  1.0 -0.0587849038
C  C474  1  0.86014000  0.73584000  0.95444000  1.0 -0.0587849038
C  C475  1  0.25321000  0.03791000  0.11331000  1.0 -0.0587849038
C  C476  1  0.03791000  0.11331000  0.25321000  1.0 -0.0587849038
C  C477  1  0.11331000  0.25321000  0.03791000  1.0 -0.0587849038
C  C478  1  0.74679000  0.96209000  0.88669000  1.0 -0.0587849038
C  C479  1  0.96209000  0.88669000  0.74679000  1.0 -0.0587849038
C  C480  1  0.88669000  0.74679000  0.96209000  1.0 -0.0587849038
C  C481  1  0.28337000  0.03207000  0.03937000  1.0 0.1921217019
C  C482  1  0.03207000  0.03937000  0.28337000  1.0 0.1921217019
C  C483  1  0.03937000  0.28337000  0.03207000  1.0 0.1921217019
C  C484  1  0.71663000  0.96793000  0.96063000  1.0 0.1921217019
C  C485  1  0.96793000  0.96063000  0.71663000  1.0 0.1921217019
C  C486  1  0.96063000  0.71663000  0.96793000  1.0 0.1921217019
C  C487  1  0.24220000  0.03260000  0.05370000  1.0 -0.2059285453
C  C488  1  0.03260000  0.05370000  0.24220000  1.0 -0.2059285453
C  C489  1  0.05370000  0.24220000  0.03260000  1.0 -0.2059285453
C  C490  1  0.75780000  0.96740000  0.94630000  1.0 -0.2059285453
C  C491  1  0.96740000  0.94630000  0.75780000  1.0 -0.2059285453
C  C492  1  0.94630000  0.75780000  0.96740000  1.0 -0.2059285453
C  C493  1  0.23000000  0.03660000  0.02380000  1.0 -0.0789785539
C  C494  1  0.03660000  0.02380000  0.23000000  1.0 -0.0789785539
C  C495  1  0.02380000  0.23000000  0.03660000  1.0 -0.0789785539
C  C496  1  0.77000000  0.96340000  0.97620000  1.0 -0.0789785539
C  C497  1  0.96340000  0.97620000  0.77000000  1.0 -0.0789785539
C  C498  1  0.97620000  0.77000000  0.96340000  1.0 -0.0789785539
C  C499  1  0.26392000  0.03912000  0.97752000  1.0 -0.1595271324
C  C500  1  0.03912000  0.97752000  0.26392000  1.0 -0.1595271324
C  C501  1  0.97752000  0.26392000  0.03912000  1.0 -0.1595271324
C  C502  1  0.73608000  0.96088000  0.02248000  1.0 -0.1595271324
C  C503  1  0.96088000  0.02248000  0.73608000  1.0 -0.1595271324
C  C504  1  0.02248000  0.73608000  0.96088000  1.0 -0.1595271324
C  C505  1  0.30680000  0.03790000  0.96430000  1.0 0.0094058212
C  C506  1  0.03790000  0.96430000  0.30680000  1.0 0.0094058212
C  C507  1  0.96430000  0.30680000  0.03790000  1.0 0.0094058212
C  C508  1  0.69320000  0.96210000  0.03570000  1.0 0.0094058212
C  C509  1  0.96210000  0.03570000  0.69320000  1.0 0.0094058212
C  C510  1  0.03570000  0.69320000  0.96210000  1.0 0.0094058212
C  C511  1  0.31940000  0.03480000  0.99500000  1.0 -0.0066716931
C  C512  1  0.03480000  0.99500000  0.31940000  1.0 -0.0066716931
C  C513  1  0.99500000  0.31940000  0.03480000  1.0 -0.0066716931
C  C514  1  0.68060000  0.96520000  0.00500000  1.0 -0.0066716931
C  C515  1  0.96520000  0.00500000  0.68060000  1.0 -0.0066716931
C  C516  1  0.00500000  0.68060000  0.96520000  1.0 -0.004305784
C  C517  1  0.35924000  0.03294000  0.98624000  1.0 -0.1707542807
C  C518  1  0.03294000  0.98624000  0.35924000  1.0 -0.1707542807
C  C519  1  0.98624000  0.35924000  0.03294000  1.0 -0.1595271324
C  C520  1  0.64076000  0.96706000  0.01376000  1.0 -0.1707542807
C  C521  1  0.96706000  0.01376000  0.64076000  1.0 -0.1707542807
C  C522  1  0.01376000  0.64076000  0.96706000  1.0 -0.1707542807
C  C523  1  0.39420000  0.03550000  0.93780000  1.0 -0.0706749398
C  C524  1  0.03550000  0.93780000  0.39420000  1.0 -0.0706749398
C  C525  1  0.93780000  0.39420000  0.03550000  1.0 -0.0789785539
C  C526  1  0.60580000  0.96450000  0.06220000  1.0 -0.0789785539
C  C527  1  0.96450000  0.06220000  0.60580000  1.0 -0.0706749398
C  C528  1  0.06220000  0.60580000  0.96450000  1.0 -0.0706749398
C  C529  1  0.38654000  0.03984000  0.90524000  1.0 -0.2391515983
C  C530  1  0.03984000  0.90524000  0.38654000  1.0 -0.2391515983
C  C531  1  0.90524000  0.38654000  0.03984000  1.0 -0.2391515983
C  C532  1  0.61346000  0.96016000  0.09476000  1.0 -0.2391515983
C  C533  1  0.96016000  0.09476000  0.61346000  1.0 -0.2391515983
C  C534  1  0.09476000  0.61346000  0.96016000  1.0 -0.2391515983
C  C535  1  0.34460000  0.04220000  0.91770000  1.0 0.2005226071
C  C536  1  0.04220000  0.91770000  0.34460000  1.0 0.2005226071
C  C537  1  0.91770000  0.34460000  0.04220000  1.0 0.2005226071
C  C538  1  0.65540000  0.95780000  0.08230000  1.0 0.2005226071
C  C539  1  0.95780000  0.08230000  0.65540000  1.0 0.2060287358
C  C540  1  0.08230000  0.65540000  0.95780000  1.0 0.2005226071
C  C541  1  0.36777000  0.05207000  0.84047000  1.0 -0.0706749398
C  C542  1  0.05207000  0.84047000  0.36777000  1.0 -0.0706749398
C  C543  1  0.84047000  0.36777000  0.05207000  1.0 -0.0706749398
C  C544  1  0.63223000  0.94793000  0.15953000  1.0 -0.0706749398
C  C545  1  0.94793000  0.15953000  0.63223000  1.0 -0.0706749398
C  C546  1  0.15953000  0.63223000  0.94793000  1.0 -0.0706749398
C  C547  1  0.34970000  0.05870000  0.81060000  1.0 -0.091512427
C  C548  1  0.05870000  0.81060000  0.34970000  1.0 -0.091512427
C  C549  1  0.81060000  0.34970000  0.05870000  1.0 -0.091512427
C  C550  1  0.65030000  0.94130000  0.18940000  1.0 -0.091512427
C  C551  1  0.94130000  0.18940000  0.65030000  1.0 -0.091512427
C  C552  1  0.18940000  0.65030000  0.94130000  1.0 -0.091512427
C  C553  1  0.34745000  0.00915000  0.79655000  1.0 -0.0706749398
C  C554  1  0.00915000  0.79655000  0.34745000  1.0 -0.0706749398
C  C555  1  0.79655000  0.34745000  0.00915000  1.0 -0.0706749398
C  C556  1  0.65255000  0.99085000  0.20345000  1.0 -0.0706749398
C  C557  1  0.99085000  0.20345000  0.65255000  1.0 -0.0706749398
C  C558  1  0.20345000  0.65255000  0.99085000  1.0 -0.0706749398
C  C559  1  0.35986000  0.95756000  0.80936000  1.0 -0.0066716931
C  C560  1  0.95756000  0.80936000  0.35986000  1.0 -0.0066716931
C  C561  1  0.80936000  0.35986000  0.95756000  1.0 -0.0066716931
C  C562  1  0.64014000  0.04244000  0.19064000  1.0 -0.0066716931
C  C563  1  0.04244000  0.19064000  0.64014000  1.0 -0.0066716931
C  C564  1  0.19064000  0.64014000  0.04244000  1.0 -0.0066716931
C  C565  1  0.34790000  0.88840000  0.86510000  1.0 -0.101033193
C  C566  1  0.88840000  0.86510000  0.34790000  1.0 -0.091512427
C  C567  1  0.86510000  0.34790000  0.88840000  1.0 -0.101033193
C  C568  1  0.65210000  0.11160000  0.13490000  1.0 -0.091512427
C  C569  1  0.11160000  0.13490000  0.65210000  1.0 -0.091512427
C  C570  1  0.13490000  0.65210000  0.11160000  1.0 -0.091512427
C  C571  1  0.40267000  0.85607000  0.86267000  1.0 -0.1383790939
C  C572  1  0.85607000  0.86267000  0.40267000  1.0 -0.1383790939
C  C573  1  0.86267000  0.40267000  0.85607000  1.0 -0.1383790939
C  C574  1  0.59733000  0.14393000  0.13733000  1.0 -0.1383790939
C  C575  1  0.14393000  0.13733000  0.59733000  1.0 -0.1383790939
C  C576  1  0.13733000  0.59733000  0.14393000  1.0 -0.1383790939
C  C577  1  0.44118000  0.81928000  0.91078000  1.0 -0.0491268975
C  C578  1  0.81928000  0.91078000  0.44118000  1.0 -0.0491268975
C  C579  1  0.91078000  0.44118000  0.81928000  1.0 -0.0491268975
C  C580  1  0.55882000  0.18072000  0.08922000  1.0 -0.0491268975
C  C581  1  0.18072000  0.08922000  0.55882000  1.0 -0.0491268975
C  C582  1  0.08922000  0.55882000  0.18072000  1.0 -0.0491268975
C  C583  1  0.45401000  0.81911000  0.93991000  1.0 -0.0587849038
C  C584  1  0.81911000  0.93991000  0.45401000  1.0 -0.0587849038
C  C585  1  0.93991000  0.45401000  0.81911000  1.0 -0.0587849038
C  C586  1  0.54599000  0.18089000  0.06009000  1.0 -0.0587849038
C  C587  1  0.18089000  0.06009000  0.54599000  1.0 -0.0587849038
C  C588  1  0.06009000  0.54599000  0.18089000  1.0 -0.0587849038
C  C589  1  0.50110000  0.80350000  0.04700000  1.0 -0.0789785539
C  C590  1  0.80350000  0.04700000  0.50110000  1.0 -0.0789785539
C  C591  1  0.04700000  0.50110000  0.80350000  1.0 -0.0789785539
C  C592  1  0.49890000  0.19650000  0.95300000  1.0 -0.0789785539
C  C593  1  0.19650000  0.95300000  0.49890000  1.0 -0.0789785539
C  C594  1  0.95300000  0.49890000  0.19650000  1.0 -0.0789785539
C  C595  1  0.53425000  0.79785000  0.04905000  1.0 -0.0789785539
C  C596  1  0.79785000  0.04905000  0.53425000  1.0 -0.0789785539
C  C597  1  0.04905000  0.53425000  0.79785000  1.0 -0.0789785539
C  C598  1  0.46575000  0.20215000  0.95095000  1.0 -0.0789785539
C  C599  1  0.20215000  0.95095000  0.46575000  1.0 -0.0789785539
C  C600  1  0.95095000  0.46575000  0.20215000  1.0 -0.0789785539
C  C601  1  0.57195000  0.78835000  0.06075000  1.0 0.1387095827
C  C602  1  0.78835000  0.06075000  0.57195000  1.0 0.1387095827
C  C603  1  0.06075000  0.57195000  0.78835000  1.0 0.1387095827
C  C604  1  0.42805000  0.21165000  0.93925000  1.0 0.1387095827
C  C605  1  0.21165000  0.93925000  0.42805000  1.0 0.1387095827
C  C606  1  0.93925000  0.42805000  0.21165000  1.0 0.1387095827
C  C607  1  0.55703000  0.79253000  0.10083000  1.0 -0.1494147008
C  C608  1  0.79253000  0.10083000  0.55703000  1.0 -0.1494147008
C  C609  1  0.10083000  0.55703000  0.79253000  1.0 -0.1494147008
C  C610  1  0.44297000  0.20747000  0.89917000  1.0 -0.1494147008
C  C611  1  0.20747000  0.89917000  0.44297000  1.0 -0.1494147008
C  C612  1  0.89917000  0.44297000  0.20747000  1.0 -0.1494147008
C  C613  1  0.59071000  0.77781000  0.11391000  1.0 -0.1494147008
C  C614  1  0.77781000  0.11391000  0.59071000  1.0 -0.1494147008
C  C615  1  0.11391000  0.59071000  0.77781000  1.0 -0.1595271324
C  C616  1  0.40929000  0.22219000  0.88609000  1.0 -0.1494147008
C  C617  1  0.22219000  0.88609000  0.40929000  1.0 -0.1494147008
C  C618  1  0.88609000  0.40929000  0.22219000  1.0 -0.1494147008
C  C619  1  0.63918000  0.76088000  0.08978000  1.0 0.119899898
C  C620  1  0.76088000  0.08978000  0.63918000  1.0 0.119899898
C  C621  1  0.08978000  0.63918000  0.76088000  1.0 0.119899898
C  C622  1  0.36082000  0.23912000  0.91022000  1.0 0.119899898
C  C623  1  0.23912000  0.91022000  0.36082000  1.0 0.119899898
C  C624  1  0.91022000  0.36082000  0.23912000  1.0 0.119899898
C  C625  1  0.65120000  0.76050000  0.04760000  1.0 -0.1707542807
C  C626  1  0.76050000  0.04760000  0.65120000  1.0 -0.1707542807
C  C627  1  0.04760000  0.65120000  0.76050000  1.0 -0.1819770275
C  C628  1  0.34880000  0.23950000  0.95240000  1.0 -0.1707542807
C  C629  1  0.23950000  0.95240000  0.34880000  1.0 -0.1819770275
C  C630  1  0.95240000  0.34880000  0.23950000  1.0 -0.1707542807
C  C631  1  0.61984000  0.77234000  0.03154000  1.0 -0.1870333404
C  C632  1  0.77234000  0.03154000  0.61984000  1.0 -0.1870333404
C  C633  1  0.03154000  0.61984000  0.77234000  1.0 -0.1870333404
C  C634  1  0.38016000  0.22766000  0.96846000  1.0 -0.1870333404
C  C635  1  0.22766000  0.96846000  0.38016000  1.0 -0.1870333404
C  C636  1  0.96846000  0.38016000  0.22766000  1.0 -0.1870333404
C  C637  1  0.67354000  0.75014000  0.10024000  1.0 -0.1322771763
C  C638  1  0.75014000  0.10024000  0.67354000  1.0 -0.1322771763
C  C639  1  0.10024000  0.67354000  0.75014000  1.0 -0.1322771763
C  C640  1  0.32646000  0.24986000  0.89976000  1.0 -0.1322771763
C  C641  1  0.24986000  0.89976000  0.32646000  1.0 -0.1322771763
C  C642  1  0.89976000  0.32646000  0.24986000  1.0 -0.1322771763
C  C643  1  0.69983000  0.73973000  0.11493000  1.0 -0.1322771763
C  C644  1  0.73973000  0.11493000  0.69983000  1.0 -0.1322771763
C  C645  1  0.11493000  0.69983000  0.73973000  1.0 -0.1322771763
C  C646  1  0.30017000  0.26027000  0.88507000  1.0 -0.1322771763
C  C647  1  0.26027000  0.88507000  0.30017000  1.0 -0.1322771763
C  C648  1  0.88507000  0.30017000  0.26027000  1.0 -0.1322771763
C  C649  1  0.73742000  0.73592000  0.11892000  1.0 0.119899898
C  C650  1  0.73592000  0.11892000  0.73742000  1.0 0.119899898
C  C651  1  0.11892000  0.73742000  0.73592000  1.0 0.119899898
C  C652  1  0.26258000  0.26408000  0.88108000  1.0 0.119899898
C  C653  1  0.26408000  0.88108000  0.26258000  1.0 0.119899898
C  C654  1  0.88108000  0.26258000  0.26408000  1.0 0.119899898
C  C655  1  0.78048000  0.73308000  0.09028000  1.0 -0.1494147008
C  C656  1  0.73308000  0.09028000  0.78048000  1.0 -0.1494147008
C  C657  1  0.09028000  0.78048000  0.73308000  1.0 -0.1494147008
C  C658  1  0.21952000  0.26692000  0.90972000  1.0 -0.1494147008
C  C659  1  0.26692000  0.90972000  0.21952000  1.0 -0.1494147008
C  C660  1  0.90972000  0.21952000  0.26692000  1.0 -0.1494147008
C  C661  1  0.81323000  0.73143000  0.09623000  1.0 -0.120427137
C  C662  1  0.73143000  0.09623000  0.81323000  1.0 -0.120427137
C  C663  1  0.09623000  0.81323000  0.73143000  1.0 -0.120427137
C  C664  1  0.18677000  0.26857000  0.90377000  1.0 -0.120427137
C  C665  1  0.26857000  0.90377000  0.18677000  1.0 -0.120427137
C  C666  1  0.90377000  0.18677000  0.26857000  1.0 -0.120427137
C  C667  1  0.80044000  0.72804000  0.14154000  1.0 0.0023678447
C  C668  1  0.72804000  0.14154000  0.80044000  1.0 0.0023678447
C  C669  1  0.14154000  0.80044000  0.72804000  1.0 0.0023678447
C  C670  1  0.19956000  0.27196000  0.85846000  1.0 0.0023678447
C  C671  1  0.27196000  0.85846000  0.19956000  1.0 0.0023678447
C  C672  1  0.85846000  0.19956000  0.27196000  1.0 0.0023678447
C  C673  1  0.75528000  0.73378000  0.17268000  1.0 -0.091512427
C  C674  1  0.73378000  0.17268000  0.75528000  1.0 -0.091512427
C  C675  1  0.17268000  0.75528000  0.73378000  1.0 -0.091512427
C  C676  1  0.24472000  0.26622000  0.82732000  1.0 -0.091512427
C  C677  1  0.26622000  0.82732000  0.24472000  1.0 -0.091512427
C  C678  1  0.82732000  0.24472000  0.26622000  1.0 -0.091512427
C  C679  1  0.72414000  0.73484000  0.16274000  1.0 -0.1595271324
C  C680  1  0.73484000  0.16274000  0.72414000  1.0 -0.1494147008
C  C681  1  0.16274000  0.72414000  0.73484000  1.0 -0.1595271324
C  C682  1  0.27586000  0.26516000  0.83726000  1.0 -0.1494147008
C  C683  1  0.26516000  0.83726000  0.27586000  1.0 -0.1595271324
C  C684  1  0.83726000  0.27586000  0.26516000  1.0 -0.1595271324
C  C685  1  0.83696000  0.73156000  0.14386000  1.0 0.5276728583
C  C686  1  0.73156000  0.14386000  0.83696000  1.0 0.5276728583
C  C687  1  0.14386000  0.83696000  0.73156000  1.0 0.5276728583
C  C688  1  0.16304000  0.26844000  0.85614000  1.0 0.5276728583
C  C689  1  0.26844000  0.85614000  0.16304000  1.0 0.5276728583
C  C690  1  0.85614000  0.16304000  0.26844000  1.0 0.5276728583
C  C691  1  0.34280000  0.81030000  0.06650000  1.0 -0.091512427
C  C692  1  0.81030000  0.06650000  0.34280000  1.0 -0.091512427
C  C693  1  0.06650000  0.34280000  0.81030000  1.0 -0.091512427
C  C694  1  0.65720000  0.18970000  0.93350000  1.0 -0.091512427
C  C695  1  0.18970000  0.93350000  0.65720000  1.0 -0.091512427
C  C696  1  0.93350000  0.65720000  0.18970000  1.0 -0.091512427
C  C697  1  0.31676000  0.80996000  0.06066000  1.0 -0.1322771763
C  C698  1  0.80996000  0.06066000  0.31676000  1.0 -0.1322771763
C  C699  1  0.06066000  0.31676000  0.80996000  1.0 -0.1322771763
C  C700  1  0.68324000  0.19004000  0.93934000  1.0 -0.1322771763
C  C701  1  0.19004000  0.93934000  0.68324000  1.0 -0.1322771763
C  C702  1  0.93934000  0.68324000  0.19004000  1.0 -0.1322771763
C  C703  1  0.30142000  0.81322000  0.03212000  1.0 0.1298308161
C  C704  1  0.81322000  0.03212000  0.30142000  1.0 0.1298308161
C  C705  1  0.03212000  0.30142000  0.81322000  1.0 0.1298308161
C  C706  1  0.69858000  0.18678000  0.96788000  1.0 0.1387095827
C  C707  1  0.18678000  0.96788000  0.69858000  1.0 0.1298308161
C  C708  1  0.96788000  0.69858000  0.18678000  1.0 0.1298308161
C  C709  1  0.33465000  0.79635000  0.99635000  1.0 -0.120427137
C  C710  1  0.79635000  0.99635000  0.33465000  1.0 -0.120427137
C  C711  1  0.99635000  0.33465000  0.79635000  1.0 -0.120427137
C  C712  1  0.66535000  0.20365000  0.00365000  1.0 -0.120427137
C  C713  1  0.20365000  0.00365000  0.66535000  1.0 -0.120427137
C  C714  1  0.00365000  0.66535000  0.20365000  1.0 -0.120427137
C  C715  1  0.32087000  0.79907000  0.96847000  1.0 -0.1819770275
C  C716  1  0.79907000  0.96847000  0.32087000  1.0 -0.1819770275
C  C717  1  0.96847000  0.32087000  0.79907000  1.0 -0.1819770275
C  C718  1  0.67913000  0.20093000  0.03153000  1.0 -0.1819770275
C  C719  1  0.20093000  0.03153000  0.67913000  1.0 -0.1819770275
C  C720  1  0.03153000  0.67913000  0.20093000  1.0 -0.1819770275
C  C721  1  0.27395000  0.81855000  0.97635000  1.0 0.0905090743
C  C722  1  0.81855000  0.97635000  0.27395000  1.0 0.0905090743
C  C723  1  0.97635000  0.27395000  0.81855000  1.0 0.0905090743
C  C724  1  0.72605000  0.18145000  0.02365000  1.0 0.0905090743
C  C725  1  0.18145000  0.02365000  0.72605000  1.0 0.0905090743
C  C726  1  0.02365000  0.72605000  0.18145000  1.0 0.0905090743
C  C727  1  0.24072000  0.83542000  0.01212000  1.0 -0.1494147008
C  C728  1  0.83542000  0.01212000  0.24072000  1.0 -0.1494147008
C  C729  1  0.01212000  0.24072000  0.83542000  1.0 -0.1494147008
C  C730  1  0.75928000  0.16458000  0.98788000  1.0 -0.1494147008
C  C731  1  0.16458000  0.98788000  0.75928000  1.0 -0.1494147008
C  C732  1  0.98788000  0.75928000  0.16458000  1.0 -0.1494147008
C  C733  1  0.25450000  0.83270000  0.04000000  1.0 -0.1494147008
C  C734  1  0.83270000  0.04000000  0.25450000  1.0 -0.1494147008
C  C735  1  0.04000000  0.25450000  0.83270000  1.0 -0.1494147008
C  C736  1  0.74550000  0.16730000  0.96000000  1.0 -0.1494147008
C  C737  1  0.16730000  0.96000000  0.74550000  1.0 -0.1494147008
C  C738  1  0.96000000  0.74550000  0.16730000  1.0 -0.1494147008
C  C739  1  0.25730000  0.82040000  0.94420000  1.0 -0.0491268975
C  C740  1  0.82040000  0.94420000  0.25730000  1.0 -0.0491268975
C  C741  1  0.94420000  0.25730000  0.82040000  1.0 -0.0491268975
C  C742  1  0.74270000  0.17960000  0.05580000  1.0 -0.0491268975
C  C743  1  0.17960000  0.05580000  0.74270000  1.0 -0.0491268975
C  C744  1  0.05580000  0.74270000  0.17960000  1.0 -0.0491268975
C  C745  1  0.26130000  0.81050000  0.92190000  1.0 -0.0587849038
C  C746  1  0.81050000  0.92190000  0.26130000  1.0 -0.0587849038
C  C747  1  0.92190000  0.26130000  0.81050000  1.0 -0.0587849038
C  C748  1  0.73870000  0.18950000  0.07810000  1.0 -0.0587849038
C  C749  1  0.18950000  0.07810000  0.73870000  1.0 -0.0587849038
C  C750  1  0.07810000  0.73870000  0.18950000  1.0 -0.0587849038
C  C751  1  0.24569000  0.80899000  0.89459000  1.0 0.1015144466
C  C752  1  0.80899000  0.89459000  0.24569000  1.0 0.1015144466
C  C753  1  0.89459000  0.24569000  0.80899000  1.0 0.1015144466
C  C754  1  0.75431000  0.19101000  0.10541000  1.0 0.1015144466
C  C755  1  0.19101000  0.10541000  0.75431000  1.0 0.1015144466
C  C756  1  0.10541000  0.75431000  0.19101000  1.0 0.1015144466
C  C757  1  0.24125000  0.84755000  0.85405000  1.0 -0.1595271324
C  C758  1  0.84755000  0.85405000  0.24125000  1.0 -0.1595271324
C  C759  1  0.85405000  0.24125000  0.84755000  1.0 -0.1595271324
C  C760  1  0.75875000  0.15245000  0.14595000  1.0 -0.1595271324
C  C761  1  0.15245000  0.14595000  0.75875000  1.0 -0.1595271324
C  C762  1  0.14595000  0.75875000  0.15245000  1.0 -0.1595271324
C  C763  1  0.22897000  0.84867000  0.82597000  1.0 -0.101033193
C  C764  1  0.84867000  0.82597000  0.22897000  1.0 -0.101033193
C  C765  1  0.82597000  0.22897000  0.84867000  1.0 -0.101033193
C  C766  1  0.77103000  0.15133000  0.17403000  1.0 -0.101033193
C  C767  1  0.15133000  0.17403000  0.77103000  1.0 -0.101033193
C  C768  1  0.17403000  0.77103000  0.15133000  1.0 -0.101033193
C  C769  1  0.22113000  0.81123000  0.83843000  1.0 -0.0066716931
C  C770  1  0.81123000  0.83843000  0.22113000  1.0 -0.0066716931
C  C771  1  0.83843000  0.22113000  0.81123000  1.0 -0.0066716931
C  C772  1  0.77887000  0.18877000  0.16157000  1.0 -0.0066716931
C  C773  1  0.18877000  0.16157000  0.77887000  1.0 -0.0066716931
C  C774  1  0.16157000  0.77887000  0.18877000  1.0 -0.0066716931
C  C775  1  0.22557000  0.77257000  0.87907000  1.0 -0.1099741255
C  C776  1  0.77257000  0.87907000  0.22557000  1.0 -0.1099741255
C  C777  1  0.87907000  0.22557000  0.77257000  1.0 -0.1099741255
C  C778  1  0.77443000  0.22743000  0.12093000  1.0 -0.1099741255
C  C779  1  0.22743000  0.12093000  0.77443000  1.0 -0.1099741255
C  C780  1  0.12093000  0.77443000  0.22743000  1.0 -0.1099741255
C  C781  1  0.23785000  0.77155000  0.90705000  1.0 -0.1707542807
C  C782  1  0.77155000  0.90705000  0.23785000  1.0 -0.1707542807
C  C783  1  0.90705000  0.23785000  0.77155000  1.0 -0.1707542807
C  C784  1  0.76215000  0.22845000  0.09295000  1.0 -0.1707542807
C  C785  1  0.22845000  0.09295000  0.76215000  1.0 -0.1707542807
C  C786  1  0.09295000  0.76215000  0.22845000  1.0 -0.1707542807
C  C787  1  0.20270000  0.82060000  0.80090000  1.0 0.5729797147
C  C788  1  0.82060000  0.80090000  0.20270000  1.0 0.5729797147
C  C789  1  0.80090000  0.20270000  0.82060000  1.0 0.5729797147
C  C790  1  0.79730000  0.17940000  0.19910000  1.0 0.5729797147
C  C791  1  0.17940000  0.19910000  0.79730000  1.0 0.5729797147
C  C792  1  0.19910000  0.79730000  0.17940000  1.0 0.5729797147
O  O1  1  0.06909000  0.37459000  0.69629000  1.0 -0.1383790939
O  O2  1  0.69629000  0.06909000  0.37459000  1.0 -0.1383790939
O  O3  1  0.37459000  0.69629000  0.06909000  1.0 -0.1383790939
O  O4  1  0.93091000  0.62541000  0.30371000  1.0 -0.1383790939
O  O5  1  0.30371000  0.93091000  0.62541000  1.0 -0.1383790939
O  O6  1  0.62541000  0.30371000  0.93091000  1.0 -0.1383790939
O  O7  1  0.08532000  0.33402000  0.64512000  1.0 -0.1595271324
O  O8  1  0.64512000  0.08532000  0.33402000  1.0 -0.1595271324
O  O9  1  0.33402000  0.64512000  0.08532000  1.0 -0.1595271324
O  O10  1  0.91468000  0.66598000  0.35488000  1.0 -0.1595271324
O  O11  1  0.35488000  0.91468000  0.66598000  1.0 -0.1595271324
O  O12  1  0.66598000  0.35488000  0.91468000  1.0 -0.1595271324
O  O13  1  0.12508000  0.31238000  0.56748000  1.0 -0.1494147008
O  O14  1  0.56748000  0.12508000  0.31238000  1.0 -0.1494147008
O  O15  1  0.31238000  0.56748000  0.12508000  1.0 -0.1494147008
O  O16  1  0.87492000  0.68762000  0.43252000  1.0 -0.1494147008
O  O17  1  0.43252000  0.87492000  0.68762000  1.0 -0.1494147008
O  O18  1  0.68762000  0.43252000  0.87492000  1.0 -0.1494147008
O  O19  1  0.20348000  0.34218000  0.49678000  1.0 -0.1707542807
O  O20  1  0.49678000  0.20348000  0.34218000  1.0 -0.1707542807
O  O21  1  0.34218000  0.49678000  0.20348000  1.0 -0.1707542807
O  O22  1  0.79652000  0.65782000  0.50322000  1.0 -0.1707542807
O  O23  1  0.50322000  0.79652000  0.65782000  1.0 -0.1707542807
O  O24  1  0.65782000  0.50322000  0.79652000  1.0 -0.1707542807
O  O25  1  0.20774000  0.42814000  0.47034000  1.0 -0.2025506066
O  O26  1  0.47034000  0.20774000  0.42814000  1.0 -0.2025506066
O  O27  1  0.42814000  0.47034000  0.20774000  1.0 -0.2025506066
O  O28  1  0.79226000  0.57186000  0.52966000  1.0 -0.2025506066
O  O29  1  0.52966000  0.79226000  0.57186000  1.0 -0.2025506066
O  O30  1  0.57186000  0.52966000  0.79226000  1.0 -0.2025506066
O  O31  1  0.16852000  0.61332000  0.45212000  1.0 -0.2025506066
O  O32  1  0.45212000  0.16852000  0.61332000  1.0 -0.2025506066
O  O33  1  0.61332000  0.45212000  0.16852000  1.0 -0.2025506066
O  O34  1  0.83148000  0.38668000  0.54788000  1.0 -0.2025506066
O  O35  1  0.54788000  0.83148000  0.38668000  1.0 -0.2025506066
O  O36  1  0.38668000  0.54788000  0.83148000  1.0 -0.2025506066
O  O37  1  0.14682000  0.67412000  0.48802000  1.0 -0.1494147008
O  O38  1  0.48802000  0.14682000  0.67412000  1.0 -0.1494147008
O  O39  1  0.67412000  0.48802000  0.14682000  1.0 -0.1595271324
O  O40  1  0.85318000  0.32588000  0.51198000  1.0 -0.1494147008
O  O41  1  0.51198000  0.85318000  0.32588000  1.0 -0.1494147008
O  O42  1  0.32588000  0.51198000  0.85318000  1.0 -0.1494147008
O  O43  1  0.16066000  0.64876000  0.56596000  1.0 -0.091512427
O  O44  1  0.56596000  0.16066000  0.64876000  1.0 -0.091512427
O  O45  1  0.64876000  0.56596000  0.16066000  1.0 -0.091512427
O  O46  1  0.83934000  0.35124000  0.43404000  1.0 -0.091512427
O  O47  1  0.43404000  0.83934000  0.35124000  1.0 -0.091512427
O  O48  1  0.35124000  0.43404000  0.83934000  1.0 -0.091512427
O  O49  1  0.09432000  0.60242000  0.64252000  1.0 -0.1595271324
O  O50  1  0.64252000  0.09432000  0.60242000  1.0 -0.1595271324
O  O51  1  0.60242000  0.64252000  0.09432000  1.0 -0.1595271324
O  O52  1  0.90568000  0.39758000  0.35748000  1.0 -0.1595271324
O  O53  1  0.35748000  0.90568000  0.39758000  1.0 -0.1595271324
O  O54  1  0.39758000  0.35748000  0.90568000  1.0 -0.1595271324
O  O55  1  0.08293000  0.51593000  0.68613000  1.0 -0.2196448471
O  O56  1  0.68613000  0.08293000  0.51593000  1.0 -0.2196448471
O  O57  1  0.51593000  0.68613000  0.08293000  1.0 -0.2196448471
O  O58  1  0.91707000  0.48407000  0.31387000  1.0 -0.2196448471
O  O59  1  0.31387000  0.91707000  0.48407000  1.0 -0.2196448471
O  O60  1  0.48407000  0.31387000  0.91707000  1.0 -0.2196448471
O  O61  1  0.29937000  0.68137000  0.72287000  1.0 -0.6278178631
O  O62  1  0.72287000  0.29937000  0.68137000  1.0 -0.6278178631
O  O63  1  0.68137000  0.72287000  0.29937000  1.0 -0.6278178631
O  O64  1  0.70063000  0.31863000  0.27713000  1.0 -0.6278178631
O  O65  1  0.27713000  0.70063000  0.31863000  1.0 -0.6278178631
O  O66  1  0.31863000  0.27713000  0.70063000  1.0 -0.6278178631
O  O67  1  0.30643000  0.72683000  0.64233000  1.0 -0.3827798305
O  O68  1  0.64233000  0.30643000  0.72683000  1.0 -0.3827798305
O  O69  1  0.72683000  0.64233000  0.30643000  1.0 -0.3827798305
O  O70  1  0.69357000  0.27317000  0.35767000  1.0 -0.3827798305
O  O71  1  0.35767000  0.69357000  0.27317000  1.0 -0.3875288008
O  O72  1  0.27317000  0.35767000  0.69357000  1.0 -0.3827798305
O  O73  1  0.67327000  0.31147000  0.78047000  1.0 -0.5528015483
O  O74  1  0.78047000  0.67327000  0.31147000  1.0 -0.5528015483
O  O75  1  0.31147000  0.78047000  0.67327000  1.0 -0.5528015483
O  O76  1  0.32673000  0.68853000  0.21953000  1.0 -0.5528015483
O  O77  1  0.21953000  0.32673000  0.68853000  1.0 -0.5528015483
O  O78  1  0.68853000  0.21953000  0.32673000  1.0 -0.5528015483
O  O79  1  0.63169000  0.38859000  0.75879000  1.0 -0.5155695168
O  O80  1  0.75879000  0.63169000  0.38859000  1.0 -0.5155695168
O  O81  1  0.38859000  0.75879000  0.63169000  1.0 -0.5155695168
O  O82  1  0.36831000  0.61141000  0.24121000  1.0 -0.5155695168
O  O83  1  0.24121000  0.36831000  0.61141000  1.0 -0.5155695168
O  O84  1  0.61141000  0.24121000  0.36831000  1.0 -0.5155695168
O  O85  1  0.43091000  0.80371000  0.12541000  1.0 -0.1383790939
O  O86  1  0.80371000  0.12541000  0.43091000  1.0 -0.1383790939
O  O87  1  0.12541000  0.43091000  0.80371000  1.0 -0.1383790939
O  O88  1  0.56909000  0.19629000  0.87459000  1.0 -0.1383790939
O  O89  1  0.19629000  0.87459000  0.56909000  1.0 -0.1383790939
O  O90  1  0.87459000  0.56909000  0.19629000  1.0 -0.1383790939
O  O91  1  0.41468000  0.85488000  0.16598000  1.0 -0.1595271324
O  O92  1  0.85488000  0.16598000  0.41468000  1.0 -0.1595271324
O  O93  1  0.16598000  0.41468000  0.85488000  1.0 -0.1595271324
O  O94  1  0.58532000  0.14512000  0.83402000  1.0 -0.1595271324
O  O95  1  0.14512000  0.83402000  0.58532000  1.0 -0.1595271324
O  O96  1  0.83402000  0.58532000  0.14512000  1.0 -0.1595271324
O  O97  1  0.37492000  0.93252000  0.18762000  1.0 -0.1494147008
O  O98  1  0.93252000  0.18762000  0.37492000  1.0 -0.1494147008
O  O99  1  0.18762000  0.37492000  0.93252000  1.0 -0.1494147008
O  O100  1  0.62508000  0.06748000  0.81238000  1.0 -0.1494147008
O  O101  1  0.06748000  0.81238000  0.62508000  1.0 -0.1494147008
O  O102  1  0.81238000  0.62508000  0.06748000  1.0 -0.1494147008
O  O103  1  0.29652000  0.00322000  0.15782000  1.0 -0.1707542807
O  O104  1  0.00322000  0.15782000  0.29652000  1.0 -0.1707542807
O  O105  1  0.15782000  0.29652000  0.00322000  1.0 -0.1707542807
O  O106  1  0.70348000  0.99678000  0.84218000  1.0 -0.1707542807
O  O107  1  0.99678000  0.84218000  0.70348000  1.0 -0.1707542807
O  O108  1  0.84218000  0.70348000  0.99678000  1.0 -0.1707542807
O  O109  1  0.29226000  0.02966000  0.07186000  1.0 -0.2025506066
O  O110  1  0.02966000  0.07186000  0.29226000  1.0 -0.2025506066
O  O111  1  0.07186000  0.29226000  0.02966000  1.0 -0.2025506066
O  O112  1  0.70774000  0.97034000  0.92814000  1.0 -0.2059285453
O  O113  1  0.97034000  0.92814000  0.70774000  1.0 -0.2025506066
O  O114  1  0.92814000  0.70774000  0.97034000  1.0 -0.2059285453
O  O115  1  0.33148000  0.04788000  0.88668000  1.0 -0.2025506066
O  O116  1  0.04788000  0.88668000  0.33148000  1.0 -0.2025506066
O  O117  1  0.88668000  0.33148000  0.04788000  1.0 -0.2025506066
O  O118  1  0.66852000  0.95212000  0.11332000  1.0 -0.2025506066
O  O119  1  0.95212000  0.11332000  0.66852000  1.0 -0.2025506066
O  O120  1  0.11332000  0.66852000  0.95212000  1.0 -0.2025506066
O  O121  1  0.35318000  0.01198000  0.82588000  1.0 -0.1494147008
O  O122  1  0.01198000  0.82588000  0.35318000  1.0 -0.1494147008
O  O123  1  0.82588000  0.35318000  0.01198000  1.0 -0.1494147008
O  O124  1  0.64682000  0.98802000  0.17412000  1.0 -0.1595271324
O  O125  1  0.98802000  0.17412000  0.64682000  1.0 -0.1494147008
O  O126  1  0.17412000  0.64682000  0.98802000  1.0 -0.1494147008
O  O127  1  0.33934000  0.93404000  0.85124000  1.0 -0.091512427
O  O128  1  0.93404000  0.85124000  0.33934000  1.0 -0.091512427
O  O129  1  0.85124000  0.33934000  0.93404000  1.0 -0.091512427
O  O130  1  0.66066000  0.06596000  0.14876000  1.0 -0.091512427
O  O131  1  0.06596000  0.14876000  0.66066000  1.0 -0.091512427
O  O132  1  0.14876000  0.66066000  0.06596000  1.0 -0.091512427
O  O133  1  0.40568000  0.85748000  0.89758000  1.0 -0.1595271324
O  O134  1  0.85748000  0.89758000  0.40568000  1.0 -0.1595271324
O  O135  1  0.89758000  0.40568000  0.85748000  1.0 -0.1595271324
O  O136  1  0.59432000  0.14252000  0.10242000  1.0 -0.1595271324
O  O137  1  0.14252000  0.10242000  0.59432000  1.0 -0.1595271324
O  O138  1  0.10242000  0.59432000  0.14252000  1.0 -0.1595271324
O  O139  1  0.41707000  0.81387000  0.98407000  1.0 -0.2196448471
O  O140  1  0.81387000  0.98407000  0.41707000  1.0 -0.2196448471
O  O141  1  0.98407000  0.41707000  0.81387000  1.0 -0.2196448471
O  O142  1  0.58293000  0.18613000  0.01593000  1.0 -0.2196448471
O  O143  1  0.18613000  0.01593000  0.58293000  1.0 -0.2196448471
O  O144  1  0.01593000  0.58293000  0.18613000  1.0 -0.2196448471
O  O145  1  0.20063000  0.77713000  0.81863000  1.0 -0.6278178631
O  O146  1  0.77713000  0.81863000  0.20063000  1.0 -0.6278178631
O  O147  1  0.81863000  0.20063000  0.77713000  1.0 -0.6278178631
O  O148  1  0.79937000  0.22287000  0.18137000  1.0 -0.6278178631
O  O149  1  0.22287000  0.18137000  0.79937000  1.0 -0.6278178631
O  O150  1  0.18137000  0.79937000  0.22287000  1.0 -0.6278178631
O  O151  1  0.19357000  0.85767000  0.77317000  1.0 -0.3875288008
O  O152  1  0.85767000  0.77317000  0.19357000  1.0 -0.3875288008
O  O153  1  0.77317000  0.19357000  0.85767000  1.0 -0.3875288008
O  O154  1  0.80643000  0.14233000  0.22683000  1.0 -0.3875288008
O  O155  1  0.14233000  0.22683000  0.80643000  1.0 -0.3875288008
O  O156  1  0.22683000  0.80643000  0.14233000  1.0 -0.3875288008
O  O157  1  0.82673000  0.71953000  0.18853000  1.0 -0.5528015483
O  O158  1  0.71953000  0.18853000  0.82673000  1.0 -0.5528015483
O  O159  1  0.18853000  0.82673000  0.71953000  1.0 -0.5528015483
O  O160  1  0.17327000  0.28047000  0.81147000  1.0 -0.5528015483
O  O161  1  0.28047000  0.81147000  0.17327000  1.0 -0.5528015483
O  O162  1  0.81147000  0.17327000  0.28047000  1.0 -0.5528015483
O  O163  1  0.86831000  0.74121000  0.11141000  1.0 -0.5137443332
O  O164  1  0.74121000  0.11141000  0.86831000  1.0 -0.5137443332
O  O165  1  0.11141000  0.86831000  0.74121000  1.0 -0.5137443332
O  O166  1  0.13169000  0.25879000  0.88859000  1.0 -0.5137443332
O  O167  1  0.25879000  0.88859000  0.13169000  1.0 -0.5155695168
O  O168  1  0.88859000  0.13169000  0.25879000  1.0 -0.5155695168
