# DDEC6 charges by PACMAN v1.1 (https://github.com/mtap-research/PACMAN-charge/)
data_FACMIH01_FSR_pacman
_symmetry_space_group_name_H-M   'P 1'
_cell_length_a   38.58960000
_cell_length_b   38.58960000
_cell_length_c   38.58960000
_cell_angle_alpha   53.38290000
_cell_angle_beta   53.38290000
_cell_angle_gamma   53.38290000
_symmetry_Int_Tables_number   1
_chemical_formula_structural   CuH56(C33O7)2
_chemical_formula_sum   'Cu12 H672 C792 O168'
_cell_volume   34340.36496583
_cell_formula_units_Z   12
loop_
 _symmetry_equiv_pos_site_id
 _symmetry_equiv_pos_as_xyz
  1  'x, y, z'
loop_
 _atom_site_type_symbol
 _atom_site_label
 _atom_site_symmetry_multiplicity
 _atom_site_fract_x
 _atom_site_fract_y
 _atom_site_fract_z
 _atom_site_occupancy
 _atom_site_charge
Cu  Cu1  1  0.21593000  0.37949000  0.69005000  1.0 0.5854610736
Cu  Cu2  1  0.69005000  0.21593000  0.37949000  1.0 0.5837814148
Cu  Cu3  1  0.37949000  0.69005000  0.21593000  1.0 0.5837814148
Cu  Cu4  1  0.78407000  0.62051000  0.30995000  1.0 0.5837814148
Cu  Cu5  1  0.30995000  0.78407000  0.62051000  1.0 0.5854610736
Cu  Cu6  1  0.62051000  0.30995000  0.78407000  1.0 0.5854610736
Cu  Cu7  1  0.28407000  0.80995000  0.12051000  1.0 0.5837814148
Cu  Cu8  1  0.80995000  0.12051000  0.28407000  1.0 0.5854610736
Cu  Cu9  1  0.12051000  0.28407000  0.80995000  1.0 0.5837814148
Cu  Cu10  1  0.71593000  0.19005000  0.87949000  1.0 0.5854610736
Cu  Cu11  1  0.19005000  0.87949000  0.71593000  1.0 0.5854610736
Cu  Cu12  1  0.87949000  0.71593000  0.19005000  1.0 0.5854610736
H  H1  1  0.13980000  0.37400000  0.69310000  1.0 0.1378308272
H  H2  1  0.69310000  0.13980000  0.37400000  1.0 0.1378308272
H  H3  1  0.37400000  0.69310000  0.13980000  1.0 0.1378308272
H  H4  1  0.86020000  0.62600000  0.30690000  1.0 0.1378308272
H  H5  1  0.30690000  0.86020000  0.62600000  1.0 0.1378308272
H  H6  1  0.62600000  0.30690000  0.86020000  1.0 0.1378308272
H  H7  1  0.00850000  0.51120000  0.69470000  1.0 0.1296825011
H  H8  1  0.69470000  0.00850000  0.51120000  1.0 0.1296825011
H  H9  1  0.51120000  0.69470000  0.00850000  1.0 0.1296825011
H  H10  1  0.99150000  0.48880000  0.30530000  1.0 0.1296825011
H  H11  1  0.30530000  0.99150000  0.48880000  1.0 0.1296825011
H  H12  1  0.48880000  0.30530000  0.99150000  1.0 0.1296825011
H  H13  1  0.13710000  0.33980000  0.66100000  1.0 0.109945804
H  H14  1  0.66100000  0.13710000  0.33980000  1.0 0.109945804
H  H15  1  0.33980000  0.66100000  0.13710000  1.0 0.109945804
H  H16  1  0.86290000  0.66020000  0.33900000  1.0 0.109945804
H  H17  1  0.33900000  0.86290000  0.66020000  1.0 0.109945804
H  H18  1  0.66020000  0.33900000  0.86290000  1.0 0.109945804
H  H19  1  0.12090000  0.31250000  0.71560000  1.0 0.109945804
H  H20  1  0.71560000  0.12090000  0.31250000  1.0 0.109945804
H  H21  1  0.31250000  0.71560000  0.12090000  1.0 0.109945804
H  H22  1  0.87910000  0.68750000  0.28440000  1.0 0.109945804
H  H23  1  0.28440000  0.87910000  0.68750000  1.0 0.109945804
H  H24  1  0.68750000  0.28440000  0.87910000  1.0 0.109945804
H  H25  1  0.06590000  0.30600000  0.71260000  1.0 0.109945804
H  H26  1  0.71260000  0.06590000  0.30600000  1.0 0.109945804
H  H27  1  0.30600000  0.71260000  0.06590000  1.0 0.109945804
H  H28  1  0.93410000  0.69400000  0.28740000  1.0 0.109945804
H  H29  1  0.28740000  0.93410000  0.69400000  1.0 0.109945804
H  H30  1  0.69400000  0.28740000  0.93410000  1.0 0.109945804
H  H31  1  0.11730000  0.27820000  0.68690000  1.0 0.1014122532
H  H32  1  0.68690000  0.11730000  0.27820000  1.0 0.1014122532
H  H33  1  0.27820000  0.68690000  0.11730000  1.0 0.1014122532
H  H34  1  0.88270000  0.72180000  0.31310000  1.0 0.1014122532
H  H35  1  0.31310000  0.88270000  0.72180000  1.0 0.1014122532
H  H36  1  0.72180000  0.31310000  0.88270000  1.0 0.1014122532
H  H37  1  0.05730000  0.32340000  0.62280000  1.0 0.109945804
H  H38  1  0.62280000  0.05730000  0.32340000  1.0 0.109945804
H  H39  1  0.32340000  0.62280000  0.05730000  1.0 0.109945804
H  H40  1  0.94270000  0.67660000  0.37720000  1.0 0.109945804
H  H41  1  0.37720000  0.94270000  0.67660000  1.0 0.109945804
H  H42  1  0.67660000  0.37720000  0.94270000  1.0 0.109945804
H  H43  1  0.06400000  0.28310000  0.66900000  1.0 0.1014122532
H  H44  1  0.66900000  0.06400000  0.28310000  1.0 0.1014122532
H  H45  1  0.28310000  0.66900000  0.06400000  1.0 0.1014122532
H  H46  1  0.93600000  0.71690000  0.33100000  1.0 0.1014122532
H  H47  1  0.33100000  0.93600000  0.71690000  1.0 0.1014122532
H  H48  1  0.71690000  0.33100000  0.93600000  1.0 0.1014122532
H  H49  1  0.10610000  0.25480000  0.61830000  1.0 0.0903943927
H  H50  1  0.61830000  0.10610000  0.25480000  1.0 0.0903943927
H  H51  1  0.25480000  0.61830000  0.10610000  1.0 0.0903943927
H  H52  1  0.89390000  0.74520000  0.38170000  1.0 0.0903943927
H  H53  1  0.38170000  0.89390000  0.74520000  1.0 0.0903943927
H  H54  1  0.74520000  0.38170000  0.89390000  1.0 0.0903943927
H  H55  1  0.14010000  0.25840000  0.62570000  1.0 0.109945804
H  H56  1  0.62570000  0.14010000  0.25840000  1.0 0.109945804
H  H57  1  0.25840000  0.62570000  0.14010000  1.0 0.109945804
H  H58  1  0.85990000  0.74160000  0.37430000  1.0 0.109945804
H  H59  1  0.37430000  0.85990000  0.74160000  1.0 0.109945804
H  H60  1  0.74160000  0.37430000  0.85990000  1.0 0.109945804
H  H61  1  0.15900000  0.27180000  0.53220000  1.0 0.0903943927
H  H62  1  0.53220000  0.15900000  0.27180000  1.0 0.0903943927
H  H63  1  0.27180000  0.53220000  0.15900000  1.0 0.0903943927
H  H64  1  0.84100000  0.72820000  0.46780000  1.0 0.0903943927
H  H65  1  0.46780000  0.84100000  0.72820000  1.0 0.0903943927
H  H66  1  0.72820000  0.46780000  0.84100000  1.0 0.0903943927
H  H67  1  0.18920000  0.26560000  0.55140000  1.0 0.1014122532
H  H68  1  0.55140000  0.18920000  0.26560000  1.0 0.1014122532
H  H69  1  0.26560000  0.55140000  0.18920000  1.0 0.1014122532
H  H70  1  0.81080000  0.73440000  0.44860000  1.0 0.1014122532
H  H71  1  0.44860000  0.81080000  0.73440000  1.0 0.1014122532
H  H72  1  0.73440000  0.44860000  0.81080000  1.0 0.1014122532
H  H73  1  0.21530000  0.30040000  0.47220000  1.0 0.0903943927
H  H74  1  0.47220000  0.21530000  0.30040000  1.0 0.0903943927
H  H75  1  0.30040000  0.47220000  0.21530000  1.0 0.0903943927
H  H76  1  0.78470000  0.69960000  0.52780000  1.0 0.0903943927
H  H77  1  0.52780000  0.78470000  0.69960000  1.0 0.0903943927
H  H78  1  0.69960000  0.52780000  0.78470000  1.0 0.0792397813
H  H79  1  0.16670000  0.34160000  0.47510000  1.0 0.109945804
H  H80  1  0.47510000  0.16670000  0.34160000  1.0 0.109945804
H  H81  1  0.34160000  0.47510000  0.16670000  1.0 0.109945804
H  H82  1  0.83330000  0.65840000  0.52490000  1.0 0.109945804
H  H83  1  0.52490000  0.83330000  0.65840000  1.0 0.109945804
H  H84  1  0.65840000  0.52490000  0.83330000  1.0 0.109945804
H  H85  1  0.26580000  0.33320000  0.44620000  1.0 0.0903943927
H  H86  1  0.44620000  0.26580000  0.33320000  1.0 0.0903943927
H  H87  1  0.33320000  0.44620000  0.26580000  1.0 0.0903943927
H  H88  1  0.73420000  0.66680000  0.55380000  1.0 0.0903943927
H  H89  1  0.55380000  0.73420000  0.66680000  1.0 0.0903943927
H  H90  1  0.66680000  0.55380000  0.73420000  1.0 0.0903943927
H  H91  1  0.22650000  0.37850000  0.42820000  1.0 0.0903943927
H  H92  1  0.42820000  0.22650000  0.37850000  1.0 0.0903943927
H  H93  1  0.37850000  0.42820000  0.22650000  1.0 0.0903943927
H  H94  1  0.77350000  0.62150000  0.57180000  1.0 0.0903943927
H  H95  1  0.57180000  0.77350000  0.62150000  1.0 0.0903943927
H  H96  1  0.62150000  0.57180000  0.77350000  1.0 0.0903943927
H  H97  1  0.27200000  0.39690000  0.43480000  1.0 0.0903943927
H  H98  1  0.43480000  0.27200000  0.39690000  1.0 0.0903943927
H  H99  1  0.39690000  0.43480000  0.27200000  1.0 0.0903943927
H  H100  1  0.72800000  0.60310000  0.56520000  1.0 0.0903943927
H  H101  1  0.56520000  0.72800000  0.60310000  1.0 0.0903943927
H  H102  1  0.60310000  0.56520000  0.72800000  1.0 0.0903943927
H  H103  1  0.25580000  0.36760000  0.48810000  1.0 0.109945804
H  H104  1  0.48810000  0.25580000  0.36760000  1.0 0.109945804
H  H105  1  0.36760000  0.48810000  0.25580000  1.0 0.109945804
H  H106  1  0.74420000  0.63240000  0.51190000  1.0 0.109945804
H  H107  1  0.51190000  0.74420000  0.63240000  1.0 0.109945804
H  H108  1  0.63240000  0.51190000  0.74420000  1.0 0.109945804
H  H109  1  0.27710000  0.41460000  0.47290000  1.0 0.1195696504
H  H110  1  0.47290000  0.27710000  0.41460000  1.0 0.1195696504
H  H111  1  0.41460000  0.47290000  0.27710000  1.0 0.1195696504
H  H112  1  0.72290000  0.58540000  0.52710000  1.0 0.1195696504
H  H113  1  0.52710000  0.72290000  0.58540000  1.0 0.1195696504
H  H114  1  0.58540000  0.52710000  0.72290000  1.0 0.1195696504
H  H115  1  0.29860000  0.47020000  0.45970000  1.0 0.109945804
H  H116  1  0.45970000  0.29860000  0.47020000  1.0 0.109945804
H  H117  1  0.47020000  0.45970000  0.29860000  1.0 0.109945804
H  H118  1  0.70140000  0.52980000  0.54030000  1.0 0.109945804
H  H119  1  0.54030000  0.70140000  0.52980000  1.0 0.109945804
H  H120  1  0.52980000  0.54030000  0.70140000  1.0 0.109945804
H  H121  1  0.23780000  0.54640000  0.45840000  1.0 0.1296825011
H  H122  1  0.45840000  0.23780000  0.54640000  1.0 0.1296825011
H  H123  1  0.54640000  0.45840000  0.23780000  1.0 0.1296825011
H  H124  1  0.76220000  0.45360000  0.54160000  1.0 0.1296825011
H  H125  1  0.54160000  0.76220000  0.45360000  1.0 0.1296825011
H  H126  1  0.45360000  0.54160000  0.76220000  1.0 0.1296825011
H  H127  1  0.14130000  0.48750000  0.46890000  1.0 0.1378308272
H  H128  1  0.46890000  0.14130000  0.48750000  1.0 0.1378308272
H  H129  1  0.48750000  0.46890000  0.14130000  1.0 0.1378308272
H  H130  1  0.85870000  0.51250000  0.53110000  1.0 0.1378308272
H  H131  1  0.53110000  0.85870000  0.51250000  1.0 0.1378308272
H  H132  1  0.51250000  0.53110000  0.85870000  1.0 0.1378308272
H  H133  1  0.07980000  0.56470000  0.46730000  1.0 0.109945804
H  H134  1  0.46730000  0.07980000  0.56470000  1.0 0.109945804
H  H135  1  0.56470000  0.46730000  0.07980000  1.0 0.109945804
H  H136  1  0.92020000  0.43530000  0.53270000  1.0 0.109945804
H  H137  1  0.53270000  0.92020000  0.43530000  1.0 0.109945804
H  H138  1  0.43530000  0.53270000  0.92020000  1.0 0.109945804
H  H139  1  0.08880000  0.62350000  0.45980000  1.0 0.1296825011
H  H140  1  0.45980000  0.08880000  0.62350000  1.0 0.1296825011
H  H141  1  0.62350000  0.45980000  0.08880000  1.0 0.1296825011
H  H142  1  0.91120000  0.37650000  0.54020000  1.0 0.1296825011
H  H143  1  0.54020000  0.91120000  0.37650000  1.0 0.1296825011
H  H144  1  0.37650000  0.54020000  0.91120000  1.0 0.1296825011
H  H145  1  0.12310000  0.67350000  0.42260000  1.0 0.1014122532
H  H146  1  0.42260000  0.12310000  0.67350000  1.0 0.1014122532
H  H147  1  0.67350000  0.42260000  0.12310000  1.0 0.1014122532
H  H148  1  0.87690000  0.32650000  0.57740000  1.0 0.1014122532
H  H149  1  0.57740000  0.87690000  0.32650000  1.0 0.1014122532
H  H150  1  0.32650000  0.57740000  0.87690000  1.0 0.0903943927
H  H151  1  0.10410000  0.65770000  0.47690000  1.0 0.1014122532
H  H152  1  0.47690000  0.10410000  0.65770000  1.0 0.1014122532
H  H153  1  0.65770000  0.47690000  0.10410000  1.0 0.109945804
H  H154  1  0.89590000  0.34230000  0.52310000  1.0 0.109945804
H  H155  1  0.52310000  0.89590000  0.34230000  1.0 0.109945804
H  H156  1  0.34230000  0.52310000  0.89590000  1.0 0.1014122532
H  H157  1  0.18160000  0.68680000  0.41920000  1.0 0.1195696504
H  H158  1  0.41920000  0.18160000  0.68680000  1.0 0.1195696504
H  H159  1  0.68680000  0.41920000  0.18160000  1.0 0.1195696504
H  H160  1  0.81840000  0.31320000  0.58080000  1.0 0.1195696504
H  H161  1  0.58080000  0.81840000  0.31320000  1.0 0.1195696504
H  H162  1  0.31320000  0.58080000  0.81840000  1.0 0.1195696504
H  H163  1  0.13020000  0.72390000  0.43140000  1.0 0.0792397813
H  H164  1  0.43140000  0.13020000  0.72390000  1.0 0.0792397813
H  H165  1  0.72390000  0.43140000  0.13020000  1.0 0.0792397813
H  H166  1  0.86980000  0.27610000  0.56860000  1.0 0.0792397813
H  H167  1  0.56860000  0.86980000  0.27610000  1.0 0.0792397813
H  H168  1  0.27610000  0.56860000  0.86980000  1.0 0.0792397813
H  H169  1  0.18640000  0.70050000  0.47360000  1.0 0.109945804
H  H170  1  0.47360000  0.18640000  0.70050000  1.0 0.109945804
H  H171  1  0.70050000  0.47360000  0.18640000  1.0 0.109945804
H  H172  1  0.81360000  0.29950000  0.52640000  1.0 0.109945804
H  H173  1  0.52640000  0.81360000  0.29950000  1.0 0.109945804
H  H174  1  0.29950000  0.52640000  0.81360000  1.0 0.109945804
H  H175  1  0.13500000  0.73570000  0.47780000  1.0 0.0903943927
H  H176  1  0.47780000  0.13500000  0.73570000  1.0 0.0903943927
H  H177  1  0.73570000  0.47780000  0.13500000  1.0 0.0903943927
H  H178  1  0.86500000  0.26430000  0.52220000  1.0 0.0903943927
H  H179  1  0.52220000  0.86500000  0.26430000  1.0 0.0903943927
H  H180  1  0.26430000  0.52220000  0.86500000  1.0 0.0903943927
H  H181  1  0.10770000  0.70090000  0.55880000  1.0 0.1014122532
H  H182  1  0.55880000  0.10770000  0.70090000  1.0 0.1014122532
H  H183  1  0.70090000  0.55880000  0.10770000  1.0 0.1014122532
H  H184  1  0.89230000  0.29910000  0.44120000  1.0 0.1014122532
H  H185  1  0.44120000  0.89230000  0.29910000  1.0 0.1014122532
H  H186  1  0.29910000  0.44120000  0.89230000  1.0 0.1014122532
H  H187  1  0.14940000  0.71170000  0.54290000  1.0 0.0903943927
H  H188  1  0.54290000  0.14940000  0.71170000  1.0 0.0903943927
H  H189  1  0.71170000  0.54290000  0.14940000  1.0 0.0903943927
H  H190  1  0.85060000  0.28830000  0.45710000  1.0 0.0903943927
H  H191  1  0.45710000  0.85060000  0.28830000  1.0 0.0903943927
H  H192  1  0.28830000  0.45710000  0.85060000  1.0 0.0903943927
H  H193  1  0.17700000  0.60420000  0.62010000  1.0 0.1296825011
H  H194  1  0.62010000  0.17700000  0.60420000  1.0 0.1296825011
H  H195  1  0.60420000  0.62010000  0.17700000  1.0 0.1296825011
H  H196  1  0.82300000  0.39580000  0.37990000  1.0 0.1296825011
H  H197  1  0.37990000  0.82300000  0.39580000  1.0 0.1296825011
H  H198  1  0.39580000  0.37990000  0.82300000  1.0 0.1296825011
H  H199  1  0.15800000  0.65620000  0.61290000  1.0 0.1014122532
H  H200  1  0.61290000  0.15800000  0.65620000  1.0 0.1014122532
H  H201  1  0.65620000  0.61290000  0.15800000  1.0 0.1014122532
H  H202  1  0.84200000  0.34380000  0.38710000  1.0 0.1014122532
H  H203  1  0.38710000  0.84200000  0.34380000  1.0 0.1014122532
H  H204  1  0.34380000  0.38710000  0.84200000  1.0 0.1014122532
H  H205  1  0.07740000  0.66590000  0.63640000  1.0 0.0903943927
H  H206  1  0.63640000  0.07740000  0.66590000  1.0 0.0903943927
H  H207  1  0.66590000  0.63640000  0.07740000  1.0 0.0903943927
H  H208  1  0.92260000  0.33410000  0.36360000  1.0 0.0903943927
H  H209  1  0.36360000  0.92260000  0.33410000  1.0 0.0903943927
H  H210  1  0.33410000  0.36360000  0.92260000  1.0 0.0903943927
H  H211  1  0.09480000  0.62520000  0.67740000  1.0 0.1014122532
H  H212  1  0.67740000  0.09480000  0.62520000  1.0 0.1014122532
H  H213  1  0.62520000  0.67740000  0.09480000  1.0 0.1014122532
H  H214  1  0.90520000  0.37480000  0.32260000  1.0 0.1014122532
H  H215  1  0.32260000  0.90520000  0.37480000  1.0 0.1014122532
H  H216  1  0.37480000  0.32260000  0.90520000  1.0 0.1014122532
H  H217  1  0.06510000  0.57020000  0.70870000  1.0 0.109945804
H  H218  1  0.70870000  0.06510000  0.57020000  1.0 0.109945804
H  H219  1  0.57020000  0.70870000  0.06510000  1.0 0.109945804
H  H220  1  0.93490000  0.42980000  0.29130000  1.0 0.109945804
H  H221  1  0.29130000  0.93490000  0.42980000  1.0 0.1014122532
H  H222  1  0.42980000  0.29130000  0.93490000  1.0 0.109945804
H  H223  1  0.02930000  0.61500000  0.68650000  1.0 0.0903943927
H  H224  1  0.68650000  0.02930000  0.61500000  1.0 0.0903943927
H  H225  1  0.61500000  0.68650000  0.02930000  1.0 0.0903943927
H  H226  1  0.97070000  0.38500000  0.31350000  1.0 0.0903943927
H  H227  1  0.31350000  0.97070000  0.38500000  1.0 0.0903943927
H  H228  1  0.38500000  0.31350000  0.97070000  1.0 0.0903943927
H  H229  1  0.03870000  0.57380000  0.65440000  1.0 0.109945804
H  H230  1  0.65440000  0.03870000  0.57380000  1.0 0.109945804
H  H231  1  0.57380000  0.65440000  0.03870000  1.0 0.109945804
H  H232  1  0.96130000  0.42620000  0.34560000  1.0 0.109945804
H  H233  1  0.34560000  0.96130000  0.42620000  1.0 0.109945804
H  H234  1  0.42620000  0.34560000  0.96130000  1.0 0.109945804
H  H235  1  0.01550000  0.55630000  0.70920000  1.0 0.1014122532
H  H236  1  0.70920000  0.01550000  0.55630000  1.0 0.1014122532
H  H237  1  0.55630000  0.70920000  0.01550000  1.0 0.1014122532
H  H238  1  0.98450000  0.44370000  0.29080000  1.0 0.1014122532
H  H239  1  0.29080000  0.98450000  0.44370000  1.0 0.1014122532
H  H240  1  0.44370000  0.29080000  0.98450000  1.0 0.1014122532
H  H241  1  0.97390000  0.38230000  0.69560000  1.0 0.1296825011
H  H242  1  0.69560000  0.97390000  0.38230000  1.0 0.1296825011
H  H243  1  0.38230000  0.69560000  0.97390000  1.0 0.1296825011
H  H244  1  0.02610000  0.61770000  0.30440000  1.0 0.1296825011
H  H245  1  0.30440000  0.02610000  0.61770000  1.0 0.1296825011
H  H246  1  0.61770000  0.30440000  0.02610000  1.0 0.1296825011
H  H247  1  0.91680000  0.35840000  0.72200000  1.0 0.1195696504
H  H248  1  0.72200000  0.91680000  0.35840000  1.0 0.1195696504
H  H249  1  0.35840000  0.72200000  0.91680000  1.0 0.1195696504
H  H250  1  0.08320000  0.64160000  0.27800000  1.0 0.1195696504
H  H251  1  0.27800000  0.08320000  0.64160000  1.0 0.1195696504
H  H252  1  0.64160000  0.27800000  0.08320000  1.0 0.1195696504
H  H253  1  0.81730000  0.47310000  0.74550000  1.0 0.1195696504
H  H254  1  0.74550000  0.81730000  0.47310000  1.0 0.1195696504
H  H255  1  0.47310000  0.74550000  0.81730000  1.0 0.1195696504
H  H256  1  0.18270000  0.52690000  0.25450000  1.0 0.1195696504
H  H257  1  0.25450000  0.18270000  0.52690000  1.0 0.1195696504
H  H258  1  0.52690000  0.25450000  0.18270000  1.0 0.1195696504
H  H259  1  0.86860000  0.49630000  0.73160000  1.0 0.1195696504
H  H260  1  0.73160000  0.86860000  0.49630000  1.0 0.1195696504
H  H261  1  0.49630000  0.73160000  0.86860000  1.0 0.1195696504
H  H262  1  0.13140000  0.50370000  0.26840000  1.0 0.1195696504
H  H263  1  0.26840000  0.13140000  0.50370000  1.0 0.1195696504
H  H264  1  0.50370000  0.26840000  0.13140000  1.0 0.1195696504
H  H265  1  0.71000000  0.43780000  0.76780000  1.0 0.1195696504
H  H266  1  0.76780000  0.71000000  0.43780000  1.0 0.1195696504
H  H267  1  0.43780000  0.76780000  0.71000000  1.0 0.1195696504
H  H268  1  0.29000000  0.56220000  0.23220000  1.0 0.1195696504
H  H269  1  0.23220000  0.29000000  0.56220000  1.0 0.1195696504
H  H270  1  0.56220000  0.23220000  0.29000000  1.0 0.1195696504
H  H271  1  0.66000000  0.42820000  0.76470000  1.0 0.109945804
H  H272  1  0.76470000  0.66000000  0.42820000  1.0 0.109945804
H  H273  1  0.42820000  0.76470000  0.66000000  1.0 0.109945804
H  H274  1  0.34000000  0.57180000  0.23530000  1.0 0.109945804
H  H275  1  0.23530000  0.34000000  0.57180000  1.0 0.109945804
H  H276  1  0.57180000  0.23530000  0.34000000  1.0 0.109945804
H  H277  1  0.75570000  0.30000000  0.76210000  1.0 0.1378308272
H  H278  1  0.76210000  0.75570000  0.30000000  1.0 0.1378308272
H  H279  1  0.30000000  0.76210000  0.75570000  1.0 0.1378308272
H  H280  1  0.24430000  0.70000000  0.23790000  1.0 0.1378308272
H  H281  1  0.23790000  0.24430000  0.70000000  1.0 0.1378308272
H  H282  1  0.70000000  0.23790000  0.24430000  1.0 0.1378308272
H  H283  1  0.80650000  0.31450000  0.76430000  1.0 0.109945804
H  H284  1  0.76430000  0.80650000  0.31450000  1.0 0.109945804
H  H285  1  0.31450000  0.76430000  0.80650000  1.0 0.109945804
H  H286  1  0.19350000  0.68550000  0.23570000  1.0 0.109945804
H  H287  1  0.23570000  0.19350000  0.68550000  1.0 0.109945804
H  H288  1  0.68550000  0.23570000  0.19350000  1.0 0.109945804
H  H289  1  0.13530000  0.50520000  0.71730000  1.0 0.109945804
H  H290  1  0.71730000  0.13530000  0.50520000  1.0 0.109945804
H  H291  1  0.50520000  0.71730000  0.13530000  1.0 0.109945804
H  H292  1  0.86470000  0.49480000  0.28270000  1.0 0.109945804
H  H293  1  0.28270000  0.86470000  0.49480000  1.0 0.109945804
H  H294  1  0.49480000  0.28270000  0.86470000  1.0 0.109945804
H  H295  1  0.15580000  0.55250000  0.71460000  1.0 0.1014122532
H  H296  1  0.71460000  0.15580000  0.55250000  1.0 0.1014122532
H  H297  1  0.55250000  0.71460000  0.15580000  1.0 0.1014122532
H  H298  1  0.84420000  0.44750000  0.28540000  1.0 0.1014122532
H  H299  1  0.28540000  0.84420000  0.44750000  1.0 0.1014122532
H  H300  1  0.44750000  0.28540000  0.84420000  1.0 0.1014122532
H  H301  1  0.29060000  0.48470000  0.65060000  1.0 0.1296825011
H  H302  1  0.65060000  0.29060000  0.48470000  1.0 0.1296825011
H  H303  1  0.48470000  0.65060000  0.29060000  1.0 0.1296825011
H  H304  1  0.70940000  0.51530000  0.34940000  1.0 0.1296825011
H  H305  1  0.34940000  0.70940000  0.51530000  1.0 0.1296825011
H  H306  1  0.51530000  0.34940000  0.70940000  1.0 0.1296825011
H  H307  1  0.27010000  0.43730000  0.65340000  1.0 0.1296825011
H  H308  1  0.65340000  0.27010000  0.43730000  1.0 0.1296825011
H  H309  1  0.43730000  0.65340000  0.27010000  1.0 0.1296825011
H  H310  1  0.72990000  0.56270000  0.34660000  1.0 0.1296825011
H  H311  1  0.34660000  0.72990000  0.56270000  1.0 0.1296825011
H  H312  1  0.56270000  0.34660000  0.72990000  1.0 0.1296825011
H  H313  1  0.25230000  0.65430000  0.62850000  1.0 0.109945804
H  H314  1  0.62850000  0.25230000  0.65430000  1.0 0.109945804
H  H315  1  0.65430000  0.62850000  0.25230000  1.0 0.109945804
H  H316  1  0.74770000  0.34570000  0.37150000  1.0 0.109945804
H  H317  1  0.37150000  0.74770000  0.34570000  1.0 0.109945804
H  H318  1  0.34570000  0.37150000  0.74770000  1.0 0.109945804
H  H319  1  0.27250000  0.70150000  0.62680000  1.0 0.1195696504
H  H320  1  0.62680000  0.27250000  0.70150000  1.0 0.1195696504
H  H321  1  0.70150000  0.62680000  0.27250000  1.0 0.1195696504
H  H322  1  0.72750000  0.29850000  0.37320000  1.0 0.1195696504
H  H323  1  0.37320000  0.72750000  0.29850000  1.0 0.1195696504
H  H324  1  0.29850000  0.37320000  0.72750000  1.0 0.1195696504
H  H325  1  0.28120000  0.61130000  0.75240000  1.0 0.1195696504
H  H326  1  0.75240000  0.28120000  0.61130000  1.0 0.1195696504
H  H327  1  0.61130000  0.75240000  0.28120000  1.0 0.1195696504
H  H328  1  0.71880000  0.38870000  0.24760000  1.0 0.1195696504
H  H329  1  0.24760000  0.71880000  0.38870000  1.0 0.1195696504
H  H330  1  0.38870000  0.24760000  0.71880000  1.0 0.1195696504
H  H331  1  0.26100000  0.56430000  0.75420000  1.0 0.109945804
H  H332  1  0.75420000  0.26100000  0.56430000  1.0 0.109945804
H  H333  1  0.56430000  0.75420000  0.26100000  1.0 0.109945804
H  H334  1  0.73900000  0.43570000  0.24580000  1.0 0.109945804
H  H335  1  0.24580000  0.73900000  0.43570000  1.0 0.109945804
H  H336  1  0.43570000  0.24580000  0.73900000  1.0 0.109945804
H  H337  1  0.36020000  0.80690000  0.12600000  1.0 0.1378308272
H  H338  1  0.80690000  0.12600000  0.36020000  1.0 0.1378308272
H  H339  1  0.12600000  0.36020000  0.80690000  1.0 0.1378308272
H  H340  1  0.63980000  0.19310000  0.87400000  1.0 0.1378308272
H  H341  1  0.19310000  0.87400000  0.63980000  1.0 0.1378308272
H  H342  1  0.87400000  0.63980000  0.19310000  1.0 0.1378308272
H  H343  1  0.49150000  0.80530000  0.98880000  1.0 0.1296825011
H  H344  1  0.80530000  0.98880000  0.49150000  1.0 0.1296825011
H  H345  1  0.98880000  0.49150000  0.80530000  1.0 0.1296825011
H  H346  1  0.50850000  0.19470000  0.01120000  1.0 0.1296825011
H  H347  1  0.19470000  0.01120000  0.50850000  1.0 0.1296825011
H  H348  1  0.01120000  0.50850000  0.19470000  1.0 0.1296825011
H  H349  1  0.36290000  0.83900000  0.16020000  1.0 0.109945804
H  H350  1  0.83900000  0.16020000  0.36290000  1.0 0.109945804
H  H351  1  0.16020000  0.36290000  0.83900000  1.0 0.109945804
H  H352  1  0.63710000  0.16100000  0.83980000  1.0 0.109945804
H  H353  1  0.16100000  0.83980000  0.63710000  1.0 0.109945804
H  H354  1  0.83980000  0.63710000  0.16100000  1.0 0.109945804
H  H355  1  0.37910000  0.78440000  0.18750000  1.0 0.109945804
H  H356  1  0.78440000  0.18750000  0.37910000  1.0 0.109945804
H  H357  1  0.18750000  0.37910000  0.78440000  1.0 0.109945804
H  H358  1  0.62090000  0.21560000  0.81250000  1.0 0.109945804
H  H359  1  0.21560000  0.81250000  0.62090000  1.0 0.109945804
H  H360  1  0.81250000  0.62090000  0.21560000  1.0 0.109945804
H  H361  1  0.43410000  0.78740000  0.19400000  1.0 0.109945804
H  H362  1  0.78740000  0.19400000  0.43410000  1.0 0.109945804
H  H363  1  0.19400000  0.43410000  0.78740000  1.0 0.109945804
H  H364  1  0.56590000  0.21260000  0.80600000  1.0 0.109945804
H  H365  1  0.21260000  0.80600000  0.56590000  1.0 0.109945804
H  H366  1  0.80600000  0.56590000  0.21260000  1.0 0.109945804
H  H367  1  0.38270000  0.81310000  0.22180000  1.0 0.1014122532
H  H368  1  0.81310000  0.22180000  0.38270000  1.0 0.1014122532
H  H369  1  0.22180000  0.38270000  0.81310000  1.0 0.1014122532
H  H370  1  0.61730000  0.18690000  0.77820000  1.0 0.1014122532
H  H371  1  0.18690000  0.77820000  0.61730000  1.0 0.1014122532
H  H372  1  0.77820000  0.61730000  0.18690000  1.0 0.1014122532
H  H373  1  0.44270000  0.87720000  0.17660000  1.0 0.109945804
H  H374  1  0.87720000  0.17660000  0.44270000  1.0 0.109945804
H  H375  1  0.17660000  0.44270000  0.87720000  1.0 0.109945804
H  H376  1  0.55730000  0.12280000  0.82340000  1.0 0.109945804
H  H377  1  0.12280000  0.82340000  0.55730000  1.0 0.109945804
H  H378  1  0.82340000  0.55730000  0.12280000  1.0 0.109945804
H  H379  1  0.43600000  0.83100000  0.21690000  1.0 0.1014122532
H  H380  1  0.83100000  0.21690000  0.43600000  1.0 0.1014122532
H  H381  1  0.21690000  0.43600000  0.83100000  1.0 0.1014122532
H  H382  1  0.56400000  0.16900000  0.78310000  1.0 0.1014122532
H  H383  1  0.16900000  0.78310000  0.56400000  1.0 0.1014122532
H  H384  1  0.78310000  0.56400000  0.16900000  1.0 0.1014122532
H  H385  1  0.39390000  0.88170000  0.24520000  1.0 0.0903943927
H  H386  1  0.88170000  0.24520000  0.39390000  1.0 0.0903943927
H  H387  1  0.24520000  0.39390000  0.88170000  1.0 0.0903943927
H  H388  1  0.60610000  0.11830000  0.75480000  1.0 0.0903943927
H  H389  1  0.11830000  0.75480000  0.60610000  1.0 0.0903943927
H  H390  1  0.75480000  0.60610000  0.11830000  1.0 0.0903943927
H  H391  1  0.35990000  0.87430000  0.24160000  1.0 0.109945804
H  H392  1  0.87430000  0.24160000  0.35990000  1.0 0.109945804
H  H393  1  0.24160000  0.35990000  0.87430000  1.0 0.109945804
H  H394  1  0.64010000  0.12570000  0.75840000  1.0 0.109945804
H  H395  1  0.12570000  0.75840000  0.64010000  1.0 0.109945804
H  H396  1  0.75840000  0.64010000  0.12570000  1.0 0.109945804
H  H397  1  0.34100000  0.96780000  0.22820000  1.0 0.0903943927
H  H398  1  0.96780000  0.22820000  0.34100000  1.0 0.0903943927
H  H399  1  0.22820000  0.34100000  0.96780000  1.0 0.0903943927
H  H400  1  0.65900000  0.03220000  0.77180000  1.0 0.0903943927
H  H401  1  0.03220000  0.77180000  0.65900000  1.0 0.0903943927
H  H402  1  0.77180000  0.65900000  0.03220000  1.0 0.0903943927
H  H403  1  0.31080000  0.94860000  0.23440000  1.0 0.1014122532
H  H404  1  0.94860000  0.23440000  0.31080000  1.0 0.1014122532
H  H405  1  0.23440000  0.31080000  0.94860000  1.0 0.1014122532
H  H406  1  0.68920000  0.05140000  0.76560000  1.0 0.1014122532
H  H407  1  0.05140000  0.76560000  0.68920000  1.0 0.1014122532
H  H408  1  0.76560000  0.68920000  0.05140000  1.0 0.1014122532
H  H409  1  0.28470000  0.02780000  0.19960000  1.0 0.0903943927
H  H410  1  0.02780000  0.19960000  0.28470000  1.0 0.0903943927
H  H411  1  0.19960000  0.28470000  0.02780000  1.0 0.0903943927
H  H412  1  0.71530000  0.97220000  0.80040000  1.0 0.0903943927
H  H413  1  0.97220000  0.80040000  0.71530000  1.0 0.0903943927
H  H414  1  0.80040000  0.71530000  0.97220000  1.0 0.0792397813
H  H415  1  0.33333333  0.02490000  0.15840000  1.0 0.109945804
H  H416  1  0.02490000  0.15840000  0.33333333  1.0 0.109945804
H  H417  1  0.15840000  0.33333333  0.02490000  1.0 0.109945804
H  H418  1  0.66666667  0.97510000  0.84160000  1.0 0.109945804
H  H419  1  0.97510000  0.84160000  0.66666667  1.0 0.109945804
H  H420  1  0.84160000  0.66666667  0.97510000  1.0 0.109945804
H  H421  1  0.23420000  0.05380000  0.16680000  1.0 0.0903943927
H  H422  1  0.05380000  0.16680000  0.23420000  1.0 0.0903943927
H  H423  1  0.16680000  0.23420000  0.05380000  1.0 0.0903943927
H  H424  1  0.76580000  0.94620000  0.83320000  1.0 0.0903943927
H  H425  1  0.94620000  0.83320000  0.76580000  1.0 0.0903943927
H  H426  1  0.83320000  0.76580000  0.94620000  1.0 0.0903943927
H  H427  1  0.27350000  0.07180000  0.12150000  1.0 0.0903943927
H  H428  1  0.07180000  0.12150000  0.27350000  1.0 0.0903943927
H  H429  1  0.12150000  0.27350000  0.07180000  1.0 0.0903943927
H  H430  1  0.72650000  0.92820000  0.87850000  1.0 0.0903943927
H  H431  1  0.92820000  0.87850000  0.72650000  1.0 0.0903943927
H  H432  1  0.87850000  0.72650000  0.92820000  1.0 0.0903943927
H  H433  1  0.22800000  0.06520000  0.10310000  1.0 0.0903943927
H  H434  1  0.06520000  0.10310000  0.22800000  1.0 0.0903943927
H  H435  1  0.10310000  0.22800000  0.06520000  1.0 0.0903943927
H  H436  1  0.77200000  0.93480000  0.89690000  1.0 0.0903943927
H  H437  1  0.93480000  0.89690000  0.77200000  1.0 0.0903943927
H  H438  1  0.89690000  0.77200000  0.93480000  1.0 0.0903943927
H  H439  1  0.24420000  0.01190000  0.13240000  1.0 0.109945804
H  H440  1  0.01190000  0.13240000  0.24420000  1.0 0.109945804
H  H441  1  0.13240000  0.24420000  0.01190000  1.0 0.109945804
H  H442  1  0.75580000  0.98810000  0.86760000  1.0 0.109945804
H  H443  1  0.98810000  0.86760000  0.75580000  1.0 0.109945804
H  H444  1  0.86760000  0.75580000  0.98810000  1.0 0.109945804
H  H445  1  0.22290000  0.02710000  0.08540000  1.0 0.1195696504
H  H446  1  0.02710000  0.08540000  0.22290000  1.0 0.1195696504
H  H447  1  0.08540000  0.22290000  0.02710000  1.0 0.1195696504
H  H448  1  0.77710000  0.97290000  0.91460000  1.0 0.1195696504
H  H449  1  0.97290000  0.91460000  0.77710000  1.0 0.1195696504
H  H450  1  0.91460000  0.77710000  0.97290000  1.0 0.1195696504
H  H451  1  0.20140000  0.04030000  0.02980000  1.0 0.109945804
H  H452  1  0.04030000  0.02980000  0.20140000  1.0 0.109945804
H  H453  1  0.02980000  0.20140000  0.04030000  1.0 0.109945804
H  H454  1  0.79860000  0.95970000  0.97020000  1.0 0.109945804
H  H455  1  0.95970000  0.97020000  0.79860000  1.0 0.109945804
H  H456  1  0.97020000  0.79860000  0.95970000  1.0 0.109945804
H  H457  1  0.26220000  0.04160000  0.95360000  1.0 0.1296825011
H  H458  1  0.04160000  0.95360000  0.26220000  1.0 0.1296825011
H  H459  1  0.95360000  0.26220000  0.04160000  1.0 0.1296825011
H  H460  1  0.73780000  0.95840000  0.04640000  1.0 0.1296825011
H  H461  1  0.95840000  0.04640000  0.73780000  1.0 0.1296825011
H  H462  1  0.04640000  0.73780000  0.95840000  1.0 0.1296825011
H  H463  1  0.35870000  0.03110000  0.01250000  1.0 0.1378308272
H  H464  1  0.03110000  0.01250000  0.35870000  1.0 0.1378308272
H  H465  1  0.01250000  0.35870000  0.03110000  1.0 0.1378308272
H  H466  1  0.64130000  0.96890000  0.98750000  1.0 0.1378308272
H  H467  1  0.96890000  0.98750000  0.64130000  1.0 0.1378308272
H  H468  1  0.98750000  0.64130000  0.96890000  1.0 0.1378308272
H  H469  1  0.42020000  0.03270000  0.93530000  1.0 0.109945804
H  H470  1  0.03270000  0.93530000  0.42020000  1.0 0.1014122532
H  H471  1  0.93530000  0.42020000  0.03270000  1.0 0.109945804
H  H472  1  0.57980000  0.96730000  0.06470000  1.0 0.109945804
H  H473  1  0.96730000  0.06470000  0.57980000  1.0 0.1014122532
H  H474  1  0.06470000  0.57980000  0.96730000  1.0 0.109945804
H  H475  1  0.41120000  0.04020000  0.87650000  1.0 0.1296825011
H  H476  1  0.04020000  0.87650000  0.41120000  1.0 0.1296825011
H  H477  1  0.87650000  0.41120000  0.04020000  1.0 0.1296825011
H  H478  1  0.58880000  0.95980000  0.12350000  1.0 0.1296825011
H  H479  1  0.95980000  0.12350000  0.58880000  1.0 0.1296825011
H  H480  1  0.12350000  0.58880000  0.95980000  1.0 0.1296825011
H  H481  1  0.37690000  0.07740000  0.82650000  1.0 0.1014122532
H  H482  1  0.07740000  0.82650000  0.37690000  1.0 0.1014122532
H  H483  1  0.82650000  0.37690000  0.07740000  1.0 0.1014122532
H  H484  1  0.62310000  0.92260000  0.17350000  1.0 0.1014122532
H  H485  1  0.92260000  0.17350000  0.62310000  1.0 0.1014122532
H  H486  1  0.17350000  0.62310000  0.92260000  1.0 0.1014122532
H  H487  1  0.39590000  0.02310000  0.84230000  1.0 0.109945804
H  H488  1  0.02310000  0.84230000  0.39590000  1.0 0.109945804
H  H489  1  0.84230000  0.39590000  0.02310000  1.0 0.109945804
H  H490  1  0.60410000  0.97690000  0.15770000  1.0 0.1014122532
H  H491  1  0.97690000  0.15770000  0.60410000  1.0 0.109945804
H  H492  1  0.15770000  0.60410000  0.97690000  1.0 0.109945804
H  H493  1  0.31840000  0.08080000  0.81320000  1.0 0.1195696504
H  H494  1  0.08080000  0.81320000  0.31840000  1.0 0.1195696504
H  H495  1  0.81320000  0.31840000  0.08080000  1.0 0.1195696504
H  H496  1  0.68160000  0.91920000  0.18680000  1.0 0.1195696504
H  H497  1  0.91920000  0.18680000  0.68160000  1.0 0.1195696504
H  H498  1  0.18680000  0.68160000  0.91920000  1.0 0.1195696504
H  H499  1  0.36980000  0.06860000  0.77610000  1.0 0.0792397813
H  H500  1  0.06860000  0.77610000  0.36980000  1.0 0.0792397813
H  H501  1  0.77610000  0.36980000  0.06860000  1.0 0.0792397813
H  H502  1  0.63020000  0.93140000  0.22390000  1.0 0.0792397813
H  H503  1  0.93140000  0.22390000  0.63020000  1.0 0.0792397813
H  H504  1  0.22390000  0.63020000  0.93140000  1.0 0.0792397813
H  H505  1  0.31360000  0.02640000  0.79950000  1.0 0.109945804
H  H506  1  0.02640000  0.79950000  0.31360000  1.0 0.109945804
H  H507  1  0.79950000  0.31360000  0.02640000  1.0 0.109945804
H  H508  1  0.68640000  0.97360000  0.20050000  1.0 0.109945804
H  H509  1  0.97360000  0.20050000  0.68640000  1.0 0.109945804
H  H510  1  0.20050000  0.68640000  0.97360000  1.0 0.109945804
H  H511  1  0.36500000  0.02220000  0.76430000  1.0 0.0903943927
H  H512  1  0.02220000  0.76430000  0.36500000  1.0 0.0903943927
H  H513  1  0.76430000  0.36500000  0.02220000  1.0 0.0903943927
H  H514  1  0.63500000  0.97780000  0.23570000  1.0 0.0903943927
H  H515  1  0.97780000  0.23570000  0.63500000  1.0 0.0903943927
H  H516  1  0.23570000  0.63500000  0.97780000  1.0 0.0903943927
H  H517  1  0.39230000  0.94120000  0.79910000  1.0 0.1014122532
H  H518  1  0.94120000  0.79910000  0.39230000  1.0 0.1014122532
H  H519  1  0.79910000  0.39230000  0.94120000  1.0 0.1014122532
H  H520  1  0.60770000  0.05880000  0.20090000  1.0 0.1014122532
H  H521  1  0.05880000  0.20090000  0.60770000  1.0 0.1014122532
H  H522  1  0.20090000  0.60770000  0.05880000  1.0 0.1014122532
H  H523  1  0.35060000  0.95710000  0.78830000  1.0 0.0903943927
H  H524  1  0.95710000  0.78830000  0.35060000  1.0 0.0903943927
H  H525  1  0.78830000  0.35060000  0.95710000  1.0 0.0903943927
H  H526  1  0.64940000  0.04290000  0.21170000  1.0 0.0903943927
H  H527  1  0.04290000  0.21170000  0.64940000  1.0 0.0903943927
H  H528  1  0.21170000  0.64940000  0.04290000  1.0 0.0903943927
H  H529  1  0.32300000  0.87990000  0.89580000  1.0 0.1296825011
H  H530  1  0.87990000  0.89580000  0.32300000  1.0 0.1296825011
H  H531  1  0.89580000  0.32300000  0.87990000  1.0 0.1296825011
H  H532  1  0.67700000  0.12010000  0.10420000  1.0 0.1296825011
H  H533  1  0.12010000  0.10420000  0.67700000  1.0 0.1296825011
H  H534  1  0.10420000  0.67700000  0.12010000  1.0 0.1296825011
H  H535  1  0.34200000  0.88710000  0.84380000  1.0 0.1014122532
H  H536  1  0.88710000  0.84380000  0.34200000  1.0 0.1014122532
H  H537  1  0.84380000  0.34200000  0.88710000  1.0 0.1014122532
H  H538  1  0.65800000  0.11290000  0.15620000  1.0 0.1014122532
H  H539  1  0.11290000  0.15620000  0.65800000  1.0 0.1014122532
H  H540  1  0.15620000  0.65800000  0.11290000  1.0 0.1014122532
H  H541  1  0.42260000  0.86360000  0.83410000  1.0 0.0903943927
H  H542  1  0.86360000  0.83410000  0.42260000  1.0 0.0903943927
H  H543  1  0.83410000  0.42260000  0.86360000  1.0 0.0903943927
H  H544  1  0.57740000  0.13640000  0.16590000  1.0 0.0903943927
H  H545  1  0.13640000  0.16590000  0.57740000  1.0 0.0903943927
H  H546  1  0.16590000  0.57740000  0.13640000  1.0 0.0903943927
H  H547  1  0.40520000  0.82260000  0.87480000  1.0 0.1014122532
H  H548  1  0.82260000  0.87480000  0.40520000  1.0 0.1014122532
H  H549  1  0.87480000  0.40520000  0.82260000  1.0 0.1014122532
H  H550  1  0.59480000  0.17740000  0.12520000  1.0 0.1014122532
H  H551  1  0.17740000  0.12520000  0.59480000  1.0 0.1014122532
H  H552  1  0.12520000  0.59480000  0.17740000  1.0 0.1014122532
H  H553  1  0.43490000  0.79130000  0.92980000  1.0 0.109945804
H  H554  1  0.79130000  0.92980000  0.43490000  1.0 0.109945804
H  H555  1  0.92980000  0.43490000  0.79130000  1.0 0.109945804
H  H556  1  0.56510000  0.20870000  0.07020000  1.0 0.109945804
H  H557  1  0.20870000  0.07020000  0.56510000  1.0 0.109945804
H  H558  1  0.07020000  0.56510000  0.20870000  1.0 0.109945804
H  H559  1  0.47070000  0.81350000  0.88500000  1.0 0.0903943927
H  H560  1  0.81350000  0.88500000  0.47070000  1.0 0.0903943927
H  H561  1  0.88500000  0.47070000  0.81350000  1.0 0.0903943927
H  H562  1  0.52930000  0.18650000  0.11500000  1.0 0.0903943927
H  H563  1  0.18650000  0.11500000  0.52930000  1.0 0.0903943927
H  H564  1  0.11500000  0.52930000  0.18650000  1.0 0.0903943927
H  H565  1  0.46130000  0.84560000  0.92620000  1.0 0.109945804
H  H566  1  0.84560000  0.92620000  0.46130000  1.0 0.109945804
H  H567  1  0.92620000  0.46130000  0.84560000  1.0 0.109945804
H  H568  1  0.53870000  0.15440000  0.07380000  1.0 0.109945804
H  H569  1  0.15440000  0.07380000  0.53870000  1.0 0.109945804
H  H570  1  0.07380000  0.53870000  0.15440000  1.0 0.109945804
H  H571  1  0.48450000  0.79080000  0.94370000  1.0 0.1014122532
H  H572  1  0.79080000  0.94370000  0.48450000  1.0 0.1014122532
H  H573  1  0.94370000  0.48450000  0.79080000  1.0 0.1014122532
H  H574  1  0.51550000  0.20920000  0.05630000  1.0 0.1014122532
H  H575  1  0.20920000  0.05630000  0.51550000  1.0 0.1014122532
H  H576  1  0.05630000  0.51550000  0.20920000  1.0 0.1014122532
H  H577  1  0.52610000  0.80440000  0.11770000  1.0 0.1296825011
H  H578  1  0.80440000  0.11770000  0.52610000  1.0 0.1296825011
H  H579  1  0.11770000  0.52610000  0.80440000  1.0 0.1296825011
H  H580  1  0.47390000  0.19560000  0.88230000  1.0 0.1296825011
H  H581  1  0.19560000  0.88230000  0.47390000  1.0 0.1296825011
H  H582  1  0.88230000  0.47390000  0.19560000  1.0 0.1296825011
H  H583  1  0.58320000  0.77800000  0.14160000  1.0 0.1195696504
H  H584  1  0.77800000  0.14160000  0.58320000  1.0 0.1195696504
H  H585  1  0.14160000  0.58320000  0.77800000  1.0 0.1195696504
H  H586  1  0.41680000  0.22200000  0.85840000  1.0 0.1195696504
H  H587  1  0.22200000  0.85840000  0.41680000  1.0 0.1195696504
H  H588  1  0.85840000  0.41680000  0.22200000  1.0 0.1195696504
H  H589  1  0.68270000  0.75450000  0.02690000  1.0 0.1195696504
H  H590  1  0.75450000  0.02690000  0.68270000  1.0 0.1195696504
H  H591  1  0.02690000  0.68270000  0.75450000  1.0 0.1195696504
H  H592  1  0.31730000  0.24550000  0.97310000  1.0 0.1195696504
H  H593  1  0.24550000  0.97310000  0.31730000  1.0 0.1195696504
H  H594  1  0.97310000  0.31730000  0.24550000  1.0 0.1195696504
H  H595  1  0.63140000  0.76840000  0.00370000  1.0 0.1195696504
H  H596  1  0.76840000  0.00370000  0.63140000  1.0 0.1195696504
H  H597  1  0.00370000  0.63140000  0.76840000  1.0 0.1195696504
H  H598  1  0.36860000  0.23160000  0.99630000  1.0 0.1195696504
H  H599  1  0.23160000  0.99630000  0.36860000  1.0 0.1195696504
H  H600  1  0.99630000  0.36860000  0.23160000  1.0 0.1195696504
H  H601  1  0.79000000  0.73220000  0.06220000  1.0 0.1195696504
H  H602  1  0.73220000  0.06220000  0.79000000  1.0 0.1195696504
H  H603  1  0.06220000  0.79000000  0.73220000  1.0 0.1195696504
H  H604  1  0.21000000  0.26780000  0.93780000  1.0 0.1195696504
H  H605  1  0.26780000  0.93780000  0.21000000  1.0 0.1195696504
H  H606  1  0.93780000  0.21000000  0.26780000  1.0 0.1195696504
H  H607  1  0.84000000  0.73530000  0.07180000  1.0 0.109945804
H  H608  1  0.73530000  0.07180000  0.84000000  1.0 0.109945804
H  H609  1  0.07180000  0.84000000  0.73530000  1.0 0.109945804
H  H610  1  0.16000000  0.26470000  0.92820000  1.0 0.109945804
H  H611  1  0.26470000  0.92820000  0.16000000  1.0 0.109945804
H  H612  1  0.92820000  0.16000000  0.26470000  1.0 0.109945804
H  H613  1  0.74430000  0.73790000  0.20000000  1.0 0.1378308272
H  H614  1  0.73790000  0.20000000  0.74430000  1.0 0.1378308272
H  H615  1  0.20000000  0.74430000  0.73790000  1.0 0.1378308272
H  H616  1  0.25570000  0.26210000  0.80000000  1.0 0.1378308272
H  H617  1  0.26210000  0.80000000  0.25570000  1.0 0.1378308272
H  H618  1  0.80000000  0.25570000  0.26210000  1.0 0.1378308272
H  H619  1  0.69350000  0.73570000  0.18550000  1.0 0.109945804
H  H620  1  0.73570000  0.18550000  0.69350000  1.0 0.109945804
H  H621  1  0.18550000  0.69350000  0.73570000  1.0 0.109945804
H  H622  1  0.30650000  0.26430000  0.81450000  1.0 0.109945804
H  H623  1  0.26430000  0.81450000  0.30650000  1.0 0.109945804
H  H624  1  0.81450000  0.30650000  0.26430000  1.0 0.109945804
H  H625  1  0.36470000  0.78270000  0.99480000  1.0 0.109945804
H  H626  1  0.78270000  0.99480000  0.36470000  1.0 0.109945804
H  H627  1  0.99480000  0.36470000  0.78270000  1.0 0.109945804
H  H628  1  0.63530000  0.21730000  0.00520000  1.0 0.109945804
H  H629  1  0.21730000  0.00520000  0.63530000  1.0 0.109945804
H  H630  1  0.00520000  0.63530000  0.21730000  1.0 0.109945804
H  H631  1  0.34420000  0.78540000  0.94750000  1.0 0.1014122532
H  H632  1  0.78540000  0.94750000  0.34420000  1.0 0.1014122532
H  H633  1  0.94750000  0.34420000  0.78540000  1.0 0.1014122532
H  H634  1  0.65580000  0.21460000  0.05250000  1.0 0.1014122532
H  H635  1  0.21460000  0.05250000  0.65580000  1.0 0.1014122532
H  H636  1  0.05250000  0.65580000  0.21460000  1.0 0.1014122532
H  H637  1  0.20940000  0.84940000  0.01530000  1.0 0.1296825011
H  H638  1  0.84940000  0.01530000  0.20940000  1.0 0.1296825011
H  H639  1  0.01530000  0.20940000  0.84940000  1.0 0.1296825011
H  H640  1  0.79060000  0.15060000  0.98470000  1.0 0.1296825011
H  H641  1  0.15060000  0.98470000  0.79060000  1.0 0.1296825011
H  H642  1  0.98470000  0.79060000  0.15060000  1.0 0.1296825011
H  H643  1  0.22990000  0.84660000  0.06270000  1.0 0.1296825011
H  H644  1  0.84660000  0.06270000  0.22990000  1.0 0.1296825011
H  H645  1  0.06270000  0.22990000  0.84660000  1.0 0.1296825011
H  H646  1  0.77010000  0.15340000  0.93730000  1.0 0.1296825011
H  H647  1  0.15340000  0.93730000  0.77010000  1.0 0.1296825011
H  H648  1  0.93730000  0.77010000  0.15340000  1.0 0.1296825011
H  H649  1  0.24770000  0.87150000  0.84570000  1.0 0.109945804
H  H650  1  0.87150000  0.84570000  0.24770000  1.0 0.109945804
H  H651  1  0.84570000  0.24770000  0.87150000  1.0 0.109945804
H  H652  1  0.75230000  0.12850000  0.15430000  1.0 0.109945804
H  H653  1  0.12850000  0.15430000  0.75230000  1.0 0.109945804
H  H654  1  0.15430000  0.75230000  0.12850000  1.0 0.109945804
H  H655  1  0.22750000  0.87320000  0.79850000  1.0 0.1195696504
H  H656  1  0.87320000  0.79850000  0.22750000  1.0 0.1195696504
H  H657  1  0.79850000  0.22750000  0.87320000  1.0 0.1195696504
H  H658  1  0.77250000  0.12680000  0.20150000  1.0 0.1195696504
H  H659  1  0.12680000  0.20150000  0.77250000  1.0 0.1195696504
H  H660  1  0.20150000  0.77250000  0.12680000  1.0 0.1195696504
H  H661  1  0.21880000  0.74760000  0.88870000  1.0 0.1195696504
H  H662  1  0.74760000  0.88870000  0.21880000  1.0 0.1195696504
H  H663  1  0.88870000  0.21880000  0.74760000  1.0 0.1195696504
H  H664  1  0.78120000  0.25240000  0.11130000  1.0 0.1195696504
H  H665  1  0.25240000  0.11130000  0.78120000  1.0 0.1195696504
H  H666  1  0.11130000  0.78120000  0.25240000  1.0 0.1195696504
H  H667  1  0.23900000  0.74580000  0.93570000  1.0 0.109945804
H  H668  1  0.74580000  0.93570000  0.23900000  1.0 0.109945804
H  H669  1  0.93570000  0.23900000  0.74580000  1.0 0.109945804
H  H670  1  0.76100000  0.25420000  0.06430000  1.0 0.109945804
H  H671  1  0.25420000  0.06430000  0.76100000  1.0 0.109945804
H  H672  1  0.06430000  0.76100000  0.25420000  1.0 0.109945804
C  C1  1  0.08090000  0.47750000  0.68990000  1.0 0.1953738297
C  C2  1  0.68990000  0.08090000  0.47750000  1.0 0.1953738297
C  C3  1  0.47750000  0.68990000  0.08090000  1.0 0.1953738297
C  C4  1  0.91910000  0.52250000  0.31010000  1.0 0.1953738297
C  C5  1  0.31010000  0.91910000  0.52250000  1.0 0.1889993537
C  C6  1  0.52250000  0.31010000  0.91910000  1.0 0.1953738297
C  C7  1  0.11630000  0.43540000  0.68970000  1.0 0.0655287613
C  C8  1  0.68970000  0.11630000  0.43540000  1.0 0.0655287613
C  C9  1  0.43540000  0.68970000  0.11630000  1.0 0.0655287613
C  C10  1  0.88370000  0.56460000  0.31030000  1.0 0.0655287613
C  C11  1  0.31030000  0.88370000  0.56460000  1.0 0.0655287613
C  C12  1  0.56460000  0.31030000  0.88370000  1.0 0.0655287613
C  C13  1  0.11400000  0.40170000  0.69300000  1.0 -0.2380065671
C  C14  1  0.69300000  0.11400000  0.40170000  1.0 -0.2380065671
C  C15  1  0.40170000  0.69300000  0.11400000  1.0 -0.2380065671
C  C16  1  0.88600000  0.59830000  0.30700000  1.0 -0.2380065671
C  C17  1  0.30700000  0.88600000  0.59830000  1.0 -0.2380065671
C  C18  1  0.59830000  0.30700000  0.88600000  1.0 -0.2380065671
C  C19  1  0.07070000  0.40600000  0.69660000  1.0 0.2593879735
C  C20  1  0.69660000  0.07070000  0.40600000  1.0 0.2593879735
C  C21  1  0.40600000  0.69660000  0.07070000  1.0 0.2593879735
C  C22  1  0.92930000  0.59400000  0.30340000  1.0 0.2593879735
C  C23  1  0.30340000  0.92930000  0.59400000  1.0 0.2593879735
C  C24  1  0.59400000  0.30340000  0.92930000  1.0 0.2593879735
C  C25  1  0.03680000  0.44970000  0.69250000  1.0 0.0282912097
C  C26  1  0.69250000  0.03680000  0.44970000  1.0 0.0282912097
C  C27  1  0.44970000  0.69250000  0.03680000  1.0 0.0282912097
C  C28  1  0.96320000  0.55030000  0.30750000  1.0 0.0282912097
C  C29  1  0.30750000  0.96320000  0.55030000  1.0 0.0282912097
C  C30  1  0.55030000  0.30750000  0.96320000  1.0 0.0245140484
C  C31  1  0.03500000  0.48440000  0.69290000  1.0 -0.2129393777
C  C32  1  0.69290000  0.03500000  0.48440000  1.0 -0.2129393777
C  C33  1  0.48440000  0.69290000  0.03500000  1.0 -0.2129393777
C  C34  1  0.96500000  0.51560000  0.30710000  1.0 -0.2129393777
C  C35  1  0.30710000  0.96500000  0.51560000  1.0 -0.2129393777
C  C36  1  0.51560000  0.30710000  0.96500000  1.0 -0.2129393777
C  C37  1  0.11130000  0.33190000  0.68930000  1.0 -0.0897364454
C  C38  1  0.68930000  0.11130000  0.33190000  1.0 -0.0791242317
C  C39  1  0.33190000  0.68930000  0.11130000  1.0 -0.0791242317
C  C40  1  0.88870000  0.66810000  0.31070000  1.0 -0.0791242317
C  C41  1  0.31070000  0.88870000  0.66810000  1.0 -0.0791242317
C  C42  1  0.66810000  0.31070000  0.88870000  1.0 -0.0791242317
C  C43  1  0.09440000  0.30910000  0.68580000  1.0 -0.050536582
C  C44  1  0.68580000  0.09440000  0.30910000  1.0 -0.050536582
C  C45  1  0.30910000  0.68580000  0.09440000  1.0 -0.050536582
C  C46  1  0.90560000  0.69090000  0.31420000  1.0 -0.050536582
C  C47  1  0.31420000  0.90560000  0.69090000  1.0 -0.050536582
C  C48  1  0.69090000  0.31420000  0.90560000  1.0 -0.050536582
C  C49  1  0.07900000  0.30260000  0.63840000  1.0 -0.0984365276
C  C50  1  0.63840000  0.07900000  0.30260000  1.0 -0.0984365276
C  C51  1  0.30260000  0.63840000  0.07900000  1.0 -0.0984365276
C  C52  1  0.92100000  0.69740000  0.36160000  1.0 -0.0984365276
C  C53  1  0.36160000  0.92100000  0.69740000  1.0 -0.0984365276
C  C54  1  0.69740000  0.36160000  0.92100000  1.0 -0.0984365276
C  C55  1  0.11380000  0.27630000  0.61580000  1.0 -0.0984365276
C  C56  1  0.61580000  0.11380000  0.27630000  1.0 -0.0984365276
C  C57  1  0.27630000  0.61580000  0.11380000  1.0 -0.0984365276
C  C58  1  0.88620000  0.72370000  0.38420000  1.0 -0.0984365276
C  C59  1  0.38420000  0.88620000  0.72370000  1.0 -0.0984365276
C  C60  1  0.72370000  0.38420000  0.88620000  1.0 -0.0984365276
C  C61  1  0.16660000  0.28860000  0.53660000  1.0 -0.0897364454
C  C62  1  0.53660000  0.16660000  0.28860000  1.0 -0.0897364454
C  C63  1  0.28860000  0.53660000  0.16660000  1.0 -0.0897364454
C  C64  1  0.83340000  0.71140000  0.46340000  1.0 -0.0897364454
C  C65  1  0.46340000  0.83340000  0.71140000  1.0 -0.0897364454
C  C66  1  0.71140000  0.46340000  0.83340000  1.0 -0.0897364454
C  C67  1  0.18840000  0.31880000  0.49090000  1.0 -0.0791242317
C  C68  1  0.49090000  0.18840000  0.31880000  1.0 -0.0791242317
C  C69  1  0.31880000  0.49090000  0.18840000  1.0 -0.0791242317
C  C70  1  0.81160000  0.68120000  0.50910000  1.0 -0.0791242317
C  C71  1  0.50910000  0.81160000  0.68120000  1.0 -0.0791242317
C  C72  1  0.68120000  0.50910000  0.81160000  1.0 -0.0791242317
C  C73  1  0.23750000  0.35910000  0.45370000  1.0 -0.0607196604
C  C74  1  0.45370000  0.23750000  0.35910000  1.0 -0.0607196604
C  C75  1  0.35910000  0.45370000  0.23750000  1.0 -0.0607196604
C  C76  1  0.76250000  0.64090000  0.54630000  1.0 -0.0607196604
C  C77  1  0.54630000  0.76250000  0.64090000  1.0 -0.0607196604
C  C78  1  0.64090000  0.54630000  0.76250000  1.0 -0.0607196604
C  C79  1  0.24620000  0.38790000  0.46180000  1.0 -0.050536582
C  C80  1  0.46180000  0.24620000  0.38790000  1.0 -0.050536582
C  C81  1  0.38790000  0.46180000  0.24620000  1.0 -0.050536582
C  C82  1  0.75380000  0.61210000  0.53820000  1.0 -0.050536582
C  C83  1  0.53820000  0.75380000  0.61210000  1.0 -0.050536582
C  C84  1  0.61210000  0.53820000  0.75380000  1.0 -0.050536582
C  C85  1  0.21880000  0.45880000  0.46780000  1.0 0.1685392693
C  C86  1  0.46780000  0.21880000  0.45880000  1.0 0.1685392693
C  C87  1  0.45880000  0.46780000  0.21880000  1.0 0.1685392693
C  C88  1  0.78120000  0.54120000  0.53220000  1.0 0.1685392693
C  C89  1  0.53220000  0.78120000  0.54120000  1.0 0.1685392693
C  C90  1  0.54120000  0.53220000  0.78120000  1.0 0.1685392693
C  C91  1  0.25670000  0.44540000  0.46850000  1.0 -0.189184872
C  C92  1  0.46850000  0.25670000  0.44540000  1.0 -0.189184872
C  C93  1  0.44540000  0.46850000  0.25670000  1.0 -0.189184872
C  C94  1  0.74330000  0.55460000  0.53150000  1.0 -0.189184872
C  C95  1  0.53150000  0.74330000  0.55460000  1.0 -0.189184872
C  C96  1  0.55460000  0.53150000  0.74330000  1.0 -0.189184872
C  C97  1  0.26940000  0.47810000  0.46240000  1.0 -0.0897364454
C  C98  1  0.46240000  0.26940000  0.47810000  1.0 -0.0897364454
C  C99  1  0.47810000  0.46240000  0.26940000  1.0 -0.0897364454
C  C100  1  0.73060000  0.52190000  0.53760000  1.0 -0.0897364454
C  C101  1  0.53760000  0.73060000  0.52190000  1.0 -0.0897364454
C  C102  1  0.52190000  0.53760000  0.73060000  1.0 -0.0897364454
C  C103  1  0.23290000  0.52390000  0.46090000  1.0 -0.1495070959
C  C104  1  0.46090000  0.23290000  0.52390000  1.0 -0.1495070959
C  C105  1  0.52390000  0.46090000  0.23290000  1.0 -0.1495070959
C  C106  1  0.76710000  0.47610000  0.53910000  1.0 -0.1495070959
C  C107  1  0.53910000  0.76710000  0.47610000  1.0 -0.1495070959
C  C108  1  0.47610000  0.53910000  0.76710000  1.0 -0.1495070959
C  C109  1  0.19300000  0.53400000  0.46220000  1.0 0.0282912097
C  C110  1  0.46220000  0.19300000  0.53400000  1.0 0.0282912097
C  C111  1  0.53400000  0.46220000  0.19300000  1.0 0.0282912097
C  C112  1  0.80700000  0.46600000  0.53780000  1.0 0.0282912097
C  C113  1  0.53780000  0.80700000  0.46600000  1.0 0.0282912097
C  C114  1  0.46600000  0.53780000  0.80700000  1.0 0.0282912097
C  C115  1  0.18360000  0.50260000  0.46460000  1.0 -0.0040575638
C  C116  1  0.46460000  0.18360000  0.50260000  1.0 0.0008136236
C  C117  1  0.50260000  0.46460000  0.18360000  1.0 0.0008136236
C  C118  1  0.81640000  0.49740000  0.53540000  1.0 0.0008136236
C  C119  1  0.53540000  0.81640000  0.49740000  1.0 0.0008136236
C  C120  1  0.49740000  0.53540000  0.81640000  1.0 0.0008136236
C  C121  1  0.14590000  0.51010000  0.46630000  1.0 -0.1397639492
C  C122  1  0.46630000  0.14590000  0.51010000  1.0 -0.1495070959
C  C123  1  0.51010000  0.46630000  0.14590000  1.0 -0.1495070959
C  C124  1  0.85410000  0.48990000  0.53370000  1.0 -0.1495070959
C  C125  1  0.53370000  0.85410000  0.48990000  1.0 -0.1495070959
C  C126  1  0.48990000  0.53370000  0.85410000  1.0 -0.1495070959
C  C127  1  0.10830000  0.55830000  0.46530000  1.0 -0.0897364454
C  C128  1  0.46530000  0.10830000  0.55830000  1.0 -0.0897364454
C  C129  1  0.55830000  0.46530000  0.10830000  1.0 -0.0897364454
C  C130  1  0.89170000  0.44170000  0.53470000  1.0 -0.0897364454
C  C131  1  0.53470000  0.89170000  0.44170000  1.0 -0.0897364454
C  C132  1  0.44170000  0.53470000  0.89170000  1.0 -0.0897364454
C  C133  1  0.11220000  0.59420000  0.46060000  1.0 -0.2380065671
C  C134  1  0.46060000  0.11220000  0.59420000  1.0 -0.2380065671
C  C135  1  0.59420000  0.46060000  0.11220000  1.0 -0.2380065671
C  C136  1  0.88780000  0.40580000  0.53940000  1.0 -0.2380065671
C  C137  1  0.53940000  0.88780000  0.40580000  1.0 -0.2380065671
C  C138  1  0.40580000  0.53940000  0.88780000  1.0 -0.2380065671
C  C139  1  0.15390000  0.58110000  0.45750000  1.0 0.1889993537
C  C140  1  0.45750000  0.15390000  0.58110000  1.0 0.1889993537
C  C141  1  0.58110000  0.45750000  0.15390000  1.0 0.1889993537
C  C142  1  0.84610000  0.41890000  0.54250000  1.0 0.1889993537
C  C143  1  0.54250000  0.84610000  0.41890000  1.0 0.1889993537
C  C144  1  0.41890000  0.54250000  0.84610000  1.0 0.1889993537
C  C145  1  0.13150000  0.66000000  0.44840000  1.0 -0.0705524424
C  C146  1  0.44840000  0.13150000  0.66000000  1.0 -0.0705524424
C  C147  1  0.66000000  0.44840000  0.13150000  1.0 -0.0705524424
C  C148  1  0.86850000  0.34000000  0.55160000  1.0 -0.0705524424
C  C149  1  0.55160000  0.86850000  0.34000000  1.0 -0.0705524424
C  C150  1  0.34000000  0.55160000  0.86850000  1.0 -0.0705524424
C  C151  1  0.14980000  0.69120000  0.44150000  1.0 -0.0791242317
C  C152  1  0.44150000  0.14980000  0.69120000  1.0 -0.0705524424
C  C153  1  0.69120000  0.44150000  0.14980000  1.0 -0.0705524424
C  C154  1  0.85020000  0.30880000  0.55850000  1.0 -0.0705524424
C  C155  1  0.55850000  0.85020000  0.30880000  1.0 -0.0791242317
C  C156  1  0.30880000  0.55850000  0.85020000  1.0 -0.0791242317
C  C157  1  0.15400000  0.70380000  0.49130000  1.0 -0.0897364454
C  C158  1  0.49130000  0.15400000  0.70380000  1.0 -0.0897364454
C  C159  1  0.70380000  0.49130000  0.15400000  1.0 -0.0897364454
C  C160  1  0.84600000  0.29620000  0.50870000  1.0 -0.0897364454
C  C161  1  0.50870000  0.84600000  0.29620000  1.0 -0.0897364454
C  C162  1  0.29620000  0.50870000  0.84600000  1.0 -0.0897364454
C  C163  1  0.14110000  0.69240000  0.54260000  1.0 -0.0180075457
C  C164  1  0.54260000  0.14110000  0.69240000  1.0 -0.0180075457
C  C165  1  0.69240000  0.54260000  0.14110000  1.0 -0.0180075457
C  C166  1  0.85890000  0.30760000  0.45740000  1.0 -0.0180075457
C  C167  1  0.45740000  0.85890000  0.30760000  1.0 -0.0180075457
C  C168  1  0.30760000  0.45740000  0.85890000  1.0 -0.0180075457
C  C169  1  0.15420000  0.63510000  0.61050000  1.0 -0.0897364454
C  C170  1  0.61050000  0.15420000  0.63510000  1.0 -0.0897364454
C  C171  1  0.63510000  0.61050000  0.15420000  1.0 -0.0897364454
C  C172  1  0.84580000  0.36490000  0.38950000  1.0 -0.0897364454
C  C173  1  0.38950000  0.84580000  0.36490000  1.0 -0.0897364454
C  C174  1  0.36490000  0.38950000  0.84580000  1.0 -0.0897364454
C  C175  1  0.09980000  0.63460000  0.64560000  1.0 -0.1297131135
C  C176  1  0.64560000  0.09980000  0.63460000  1.0 -0.1297131135
C  C177  1  0.63460000  0.64560000  0.09980000  1.0 -0.1297131135
C  C178  1  0.90020000  0.36540000  0.35440000  1.0 -0.1297131135
C  C179  1  0.35440000  0.90020000  0.36540000  1.0 -0.1297131135
C  C180  1  0.36540000  0.35440000  0.90020000  1.0 -0.1297131135
C  C181  1  0.05670000  0.58750000  0.68180000  1.0 -0.0705524424
C  C182  1  0.68180000  0.05670000  0.58750000  1.0 -0.0705524424
C  C183  1  0.58750000  0.68180000  0.05670000  1.0 -0.0705524424
C  C184  1  0.94330000  0.41250000  0.31820000  1.0 -0.0705524424
C  C185  1  0.31820000  0.94330000  0.41250000  1.0 -0.0705524424
C  C186  1  0.41250000  0.31820000  0.94330000  1.0 -0.0705524424
C  C187  1  0.04370000  0.56010000  0.68260000  1.0 -0.0705524424
C  C188  1  0.68260000  0.04370000  0.56010000  1.0 -0.0705524424
C  C189  1  0.56010000  0.68260000  0.04370000  1.0 -0.0705524424
C  C190  1  0.95630000  0.43990000  0.31740000  1.0 -0.0705524424
C  C191  1  0.31740000  0.95630000  0.43990000  1.0 -0.0705524424
C  C192  1  0.43990000  0.31740000  0.95630000  1.0 -0.0705524424
C  C193  1  0.99930000  0.45310000  0.69600000  1.0 -0.0705524424
C  C194  1  0.69600000  0.99930000  0.45310000  1.0 -0.0705524424
C  C195  1  0.45310000  0.69600000  0.99930000  1.0 -0.0705524424
C  C196  1  0.00070000  0.54690000  0.30400000  1.0 -0.0705524424
C  C197  1  0.30400000  0.00070000  0.54690000  1.0 -0.0705524424
C  C198  1  0.54690000  0.30400000  0.00070000  1.0 -0.0705524424
C  C199  1  0.96720000  0.45090000  0.70120000  1.0 -0.0705524424
C  C200  1  0.70120000  0.96720000  0.45090000  1.0 -0.0705524424
C  C201  1  0.45090000  0.70120000  0.96720000  1.0 -0.0705524424
C  C202  1  0.03280000  0.54910000  0.29880000  1.0 -0.0705524424
C  C203  1  0.29880000  0.03280000  0.54910000  1.0 -0.0705524424
C  C204  1  0.54910000  0.29880000  0.03280000  1.0 -0.0705524424
C  C205  1  0.93000000  0.43930000  0.71130000  1.0 0.1378308272
C  C206  1  0.71130000  0.93000000  0.43930000  1.0 0.1378308272
C  C207  1  0.43930000  0.71130000  0.93000000  1.0 0.1378308272
C  C208  1  0.07000000  0.56070000  0.28870000  1.0 0.1378308272
C  C209  1  0.28870000  0.07000000  0.56070000  1.0 0.1378308272
C  C210  1  0.56070000  0.28870000  0.07000000  1.0 0.1378308272
C  C211  1  0.94260000  0.40000000  0.70770000  1.0 -0.1598680405
C  C212  1  0.70770000  0.94260000  0.40000000  1.0 -0.1598680405
C  C213  1  0.40000000  0.70770000  0.94260000  1.0 -0.1598680405
C  C214  1  0.05740000  0.60000000  0.29230000  1.0 -0.1598680405
C  C215  1  0.29230000  0.05740000  0.60000000  1.0 -0.1598680405
C  C216  1  0.60000000  0.29230000  0.05740000  1.0 -0.1598680405
C  C217  1  0.90720000  0.38650000  0.72300000  1.0 -0.1495070959
C  C218  1  0.72300000  0.90720000  0.38650000  1.0 -0.1495070959
C  C219  1  0.38650000  0.72300000  0.90720000  1.0 -0.1495070959
C  C220  1  0.09280000  0.61350000  0.27700000  1.0 -0.1495070959
C  C221  1  0.27700000  0.09280000  0.61350000  1.0 -0.1495070959
C  C222  1  0.61350000  0.27700000  0.09280000  1.0 -0.1495070959
C  C223  1  0.85970000  0.41110000  0.73930000  1.0 0.1195696504
C  C224  1  0.73930000  0.85970000  0.41110000  1.0 0.1195696504
C  C225  1  0.41110000  0.73930000  0.85970000  1.0 0.1195696504
C  C226  1  0.14030000  0.58890000  0.26070000  1.0 0.1195696504
C  C227  1  0.26070000  0.14030000  0.58890000  1.0 0.1195696504
C  C228  1  0.58890000  0.26070000  0.14030000  1.0 0.1195696504
C  C229  1  0.84850000  0.45350000  0.73840000  1.0 -0.1702154019
C  C230  1  0.73840000  0.84850000  0.45350000  1.0 -0.1702154019
C  C231  1  0.45350000  0.73840000  0.84850000  1.0 -0.1702154019
C  C232  1  0.15150000  0.54650000  0.26160000  1.0 -0.1702154019
C  C233  1  0.26160000  0.15150000  0.54650000  1.0 -0.1702154019
C  C234  1  0.54650000  0.26160000  0.15150000  1.0 -0.1702154019
C  C235  1  0.87890000  0.46930000  0.72820000  1.0 -0.1702154019
C  C236  1  0.72820000  0.87890000  0.46930000  1.0 -0.1702154019
C  C237  1  0.46930000  0.72820000  0.87890000  1.0 -0.1702154019
C  C238  1  0.12110000  0.53070000  0.27180000  1.0 -0.1702154019
C  C239  1  0.27180000  0.12110000  0.53070000  1.0 -0.1702154019
C  C240  1  0.53070000  0.27180000  0.12110000  1.0 -0.1702154019
C  C241  1  0.82520000  0.40050000  0.75110000  1.0 -0.1202740685
C  C242  1  0.75110000  0.82520000  0.40050000  1.0 -0.1297131135
C  C243  1  0.40050000  0.75110000  0.82520000  1.0 -0.1297131135
C  C244  1  0.17480000  0.59950000  0.24890000  1.0 -0.1297131135
C  C245  1  0.24890000  0.17480000  0.59950000  1.0 -0.1297131135
C  C246  1  0.59950000  0.24890000  0.17480000  1.0 -0.1297131135
C  C247  1  0.79950000  0.38440000  0.76140000  1.0 -0.1397639492
C  C248  1  0.76140000  0.79950000  0.38440000  1.0 -0.1397639492
C  C249  1  0.38440000  0.76140000  0.79950000  1.0 -0.1397639492
C  C250  1  0.20050000  0.61560000  0.23860000  1.0 -0.1397639492
C  C251  1  0.23860000  0.20050000  0.61560000  1.0 -0.1397639492
C  C252  1  0.61560000  0.23860000  0.20050000  1.0 -0.1397639492
C  C253  1  0.76330000  0.38140000  0.76400000  1.0 0.109945804
C  C254  1  0.76400000  0.76330000  0.38140000  1.0 0.109945804
C  C255  1  0.38140000  0.76400000  0.76330000  1.0 0.109945804
C  C256  1  0.23670000  0.61860000  0.23600000  1.0 0.109945804
C  C257  1  0.23600000  0.23670000  0.61860000  1.0 0.109945804
C  C258  1  0.61860000  0.23600000  0.23670000  1.0 0.109945804
C  C259  1  0.72010000  0.40970000  0.76630000  1.0 -0.1397639492
C  C260  1  0.76630000  0.72010000  0.40970000  1.0 -0.1397639492
C  C261  1  0.40970000  0.76630000  0.72010000  1.0 -0.1397639492
C  C262  1  0.27990000  0.59030000  0.23370000  1.0 -0.1397639492
C  C263  1  0.23370000  0.27990000  0.59030000  1.0 -0.1397639492
C  C264  1  0.59030000  0.23370000  0.27990000  1.0 -0.1397639492
C  C265  1  0.68820000  0.40410000  0.76690000  1.0 -0.1297131135
C  C266  1  0.76690000  0.68820000  0.40410000  1.0 -0.1297131135
C  C267  1  0.40410000  0.76690000  0.68820000  1.0 -0.1297131135
C  C268  1  0.31180000  0.59590000  0.23310000  1.0 -0.1297131135
C  C269  1  0.23310000  0.31180000  0.59590000  1.0 -0.1297131135
C  C270  1  0.59590000  0.23310000  0.31180000  1.0 -0.1297131135
C  C271  1  0.70070000  0.35870000  0.77130000  1.0 0.0087434517
C  C272  1  0.77130000  0.70070000  0.35870000  1.0 0.0087434517
C  C273  1  0.35870000  0.77130000  0.70070000  1.0 0.0087434517
C  C274  1  0.29930000  0.64130000  0.22870000  1.0 0.0087434517
C  C275  1  0.22870000  0.29930000  0.64130000  1.0 0.0087434517
C  C276  1  0.64130000  0.22870000  0.29930000  1.0 0.0087434517
C  C277  1  0.74560000  0.32690000  0.76540000  1.0 -0.0984365276
C  C278  1  0.76540000  0.74560000  0.32690000  1.0 -0.0984365276
C  C279  1  0.32690000  0.76540000  0.74560000  1.0 -0.0984365276
C  C280  1  0.25440000  0.67310000  0.23460000  1.0 -0.0984365276
C  C281  1  0.23460000  0.25440000  0.67310000  1.0 -0.0984365276
C  C282  1  0.67310000  0.23460000  0.25440000  1.0 -0.0984365276
C  C283  1  0.77710000  0.33700000  0.76460000  1.0 -0.1397639492
C  C284  1  0.76460000  0.77710000  0.33700000  1.0 -0.1397639492
C  C285  1  0.33700000  0.76460000  0.77710000  1.0 -0.1397639492
C  C286  1  0.22290000  0.66300000  0.23540000  1.0 -0.1397639492
C  C287  1  0.23540000  0.22290000  0.66300000  1.0 -0.1397639492
C  C288  1  0.66300000  0.23540000  0.22290000  1.0 -0.1397639492
C  C289  1  0.66160000  0.35770000  0.76790000  1.0 0.5179148252
C  C290  1  0.76790000  0.66160000  0.35770000  1.0 0.5179148252
C  C291  1  0.35770000  0.76790000  0.66160000  1.0 0.5179148252
C  C292  1  0.33840000  0.64230000  0.23210000  1.0 0.5179148252
C  C293  1  0.23210000  0.33840000  0.64230000  1.0 0.5179148252
C  C294  1  0.64230000  0.23210000  0.33840000  1.0 0.5179148252
C  C295  1  0.15820000  0.43410000  0.68930000  1.0 -0.0984365276
C  C296  1  0.68930000  0.15820000  0.43410000  1.0 -0.0984365276
C  C297  1  0.43410000  0.68930000  0.15820000  1.0 -0.0984365276
C  C298  1  0.84180000  0.56590000  0.31070000  1.0 -0.0984365276
C  C299  1  0.31070000  0.84180000  0.56590000  1.0 -0.0984365276
C  C300  1  0.56590000  0.31070000  0.84180000  1.0 -0.0984365276
C  C301  1  0.18610000  0.43750000  0.69010000  1.0 -0.1297131135
C  C302  1  0.69010000  0.18610000  0.43750000  1.0 -0.1297131135
C  C303  1  0.43750000  0.69010000  0.18610000  1.0 -0.1297131135
C  C304  1  0.81390000  0.56250000  0.30990000  1.0 -0.1297131135
C  C305  1  0.30990000  0.81390000  0.56250000  1.0 -0.1297131135
C  C306  1  0.56250000  0.30990000  0.81390000  1.0 -0.1297131135
C  C307  1  0.20070000  0.46650000  0.68550000  1.0 0.1296825011
C  C308  1  0.68550000  0.20070000  0.46650000  1.0 0.1296825011
C  C309  1  0.46650000  0.68550000  0.20070000  1.0 0.1296825011
C  C310  1  0.79930000  0.53350000  0.31450000  1.0 0.1296825011
C  C311  1  0.31450000  0.79930000  0.53350000  1.0 0.1296825011
C  C312  1  0.53350000  0.31450000  0.79930000  1.0 0.1296825011
C  C313  1  0.16650000  0.50110000  0.70400000  1.0 -0.1202740685
C  C314  1  0.70400000  0.16650000  0.50110000  1.0 -0.1202740685
C  C315  1  0.50110000  0.70400000  0.16650000  1.0 -0.1202740685
C  C316  1  0.83350000  0.49890000  0.29600000  1.0 -0.1202740685
C  C317  1  0.29600000  0.83350000  0.49890000  1.0 -0.1202740685
C  C318  1  0.49890000  0.29600000  0.83350000  1.0 -0.1202740685
C  C319  1  0.17880000  0.52950000  0.70230000  1.0 -0.1805246072
C  C320  1  0.70230000  0.17880000  0.52950000  1.0 -0.1805246072
C  C321  1  0.52950000  0.70230000  0.17880000  1.0 -0.1805246072
C  C322  1  0.82120000  0.47050000  0.29770000  1.0 -0.1805246072
C  C323  1  0.29770000  0.82120000  0.47050000  1.0 -0.1805246072
C  C324  1  0.47050000  0.29770000  0.82120000  1.0 -0.189184872
C  C325  1  0.22520000  0.52340000  0.68240000  1.0 0.109945804
C  C326  1  0.68240000  0.22520000  0.52340000  1.0 0.109945804
C  C327  1  0.52340000  0.68240000  0.22520000  1.0 0.109945804
C  C328  1  0.77480000  0.47660000  0.31760000  1.0 0.109945804
C  C329  1  0.31760000  0.77480000  0.47660000  1.0 0.109945804
C  C330  1  0.47660000  0.31760000  0.77480000  1.0 0.109945804
C  C331  1  0.25950000  0.48890000  0.66400000  1.0 -0.1495070959
C  C332  1  0.66400000  0.25950000  0.48890000  1.0 -0.1598680405
C  C333  1  0.48890000  0.66400000  0.25950000  1.0 -0.1598680405
C  C334  1  0.74050000  0.51110000  0.33600000  1.0 -0.1598680405
C  C335  1  0.33600000  0.74050000  0.51110000  1.0 -0.1598680405
C  C336  1  0.51110000  0.33600000  0.74050000  1.0 -0.1598680405
C  C337  1  0.24710000  0.46040000  0.66560000  1.0 -0.1397639492
C  C338  1  0.66560000  0.24710000  0.46040000  1.0 -0.1397639492
C  C339  1  0.46040000  0.66560000  0.24710000  1.0 -0.1397639492
C  C340  1  0.75290000  0.53960000  0.33440000  1.0 -0.1397639492
C  C341  1  0.33440000  0.75290000  0.53960000  1.0 -0.1397639492
C  C342  1  0.53960000  0.33440000  0.75290000  1.0 -0.1397639492
C  C343  1  0.24380000  0.55780000  0.67380000  1.0 -0.0791242317
C  C344  1  0.67380000  0.24380000  0.55780000  1.0 -0.0791242317
C  C345  1  0.55780000  0.67380000  0.24380000  1.0 -0.0791242317
C  C346  1  0.75620000  0.44220000  0.32620000  1.0 -0.0791242317
C  C347  1  0.32620000  0.75620000  0.44220000  1.0 -0.0791242317
C  C348  1  0.44220000  0.32620000  0.75620000  1.0 -0.0791242317
C  C349  1  0.24190000  0.57690000  0.68990000  1.0 -0.1099608137
C  C350  1  0.68990000  0.24190000  0.57690000  1.0 -0.1099608137
C  C351  1  0.57690000  0.68990000  0.24190000  1.0 -0.1099608137
C  C352  1  0.75810000  0.42310000  0.31010000  1.0 -0.1099608137
C  C353  1  0.31010000  0.75810000  0.42310000  1.0 -0.1099608137
C  C354  1  0.42310000  0.31010000  0.75810000  1.0 -0.1099608137
C  C355  1  0.25460000  0.60460000  0.69150000  1.0 0.1195696504
C  C356  1  0.69150000  0.25460000  0.60460000  1.0 0.1195696504
C  C357  1  0.60460000  0.69150000  0.25460000  1.0 0.1195696504
C  C358  1  0.74540000  0.39540000  0.30850000  1.0 0.1195696504
C  C359  1  0.30850000  0.74540000  0.39540000  1.0 0.1195696504
C  C360  1  0.39540000  0.30850000  0.74540000  1.0 0.1195696504
C  C361  1  0.25810000  0.64580000  0.65340000  1.0 -0.1495070959
C  C362  1  0.65340000  0.25810000  0.64580000  1.0 -0.1495070959
C  C363  1  0.64580000  0.65340000  0.25810000  1.0 -0.1495070959
C  C364  1  0.74190000  0.35420000  0.34660000  1.0 -0.1495070959
C  C365  1  0.34660000  0.74190000  0.35420000  1.0 -0.1495070959
C  C366  1  0.35420000  0.34660000  0.74190000  1.0 -0.1495070959
C  C367  1  0.27010000  0.67390000  0.65230000  1.0 -0.1099608137
C  C368  1  0.65230000  0.27010000  0.67390000  1.0 -0.1099608137
C  C369  1  0.67390000  0.65230000  0.27010000  1.0 -0.1099608137
C  C370  1  0.72990000  0.32610000  0.34770000  1.0 -0.1099608137
C  C371  1  0.34770000  0.72990000  0.32610000  1.0 -0.1099608137
C  C372  1  0.32610000  0.34770000  0.72990000  1.0 -0.1099608137
C  C373  1  0.27880000  0.66110000  0.68940000  1.0 -0.0040575638
C  C374  1  0.68940000  0.27880000  0.66110000  1.0 -0.0040575638
C  C375  1  0.66110000  0.68940000  0.27880000  1.0 -0.0040575638
C  C376  1  0.72120000  0.33890000  0.31060000  1.0 -0.0040575638
C  C377  1  0.31060000  0.72120000  0.33890000  1.0 -0.0040575638
C  C378  1  0.33890000  0.31060000  0.72120000  1.0 -0.0040575638
C  C379  1  0.27540000  0.62000000  0.72760000  1.0 -0.1202740685
C  C380  1  0.72760000  0.27540000  0.62000000  1.0 -0.1202740685
C  C381  1  0.62000000  0.72760000  0.27540000  1.0 -0.1202740685
C  C382  1  0.72460000  0.38000000  0.27240000  1.0 -0.1202740685
C  C383  1  0.27240000  0.72460000  0.38000000  1.0 -0.1202740685
C  C384  1  0.38000000  0.27240000  0.72460000  1.0 -0.1202740685
C  C385  1  0.26330000  0.59180000  0.72860000  1.0 -0.1598680405
C  C386  1  0.72860000  0.26330000  0.59180000  1.0 -0.1598680405
C  C387  1  0.59180000  0.72860000  0.26330000  1.0 -0.1598680405
C  C388  1  0.73670000  0.40820000  0.27140000  1.0 -0.1598680405
C  C389  1  0.27140000  0.73670000  0.40820000  1.0 -0.1598680405
C  C390  1  0.40820000  0.27140000  0.73670000  1.0 -0.1598680405
C  C391  1  0.29790000  0.69690000  0.68190000  1.0 0.5837814148
C  C392  1  0.68190000  0.29790000  0.69690000  1.0 0.5837814148
C  C393  1  0.69690000  0.68190000  0.29790000  1.0 0.5837814148
C  C394  1  0.70210000  0.30310000  0.31810000  1.0 0.5837814148
C  C395  1  0.31810000  0.70210000  0.30310000  1.0 0.5837814148
C  C396  1  0.30310000  0.31810000  0.70210000  1.0 0.5837814148
C  C397  1  0.41910000  0.81010000  0.02250000  1.0 0.1953738297
C  C398  1  0.81010000  0.02250000  0.41910000  1.0 0.1953738297
C  C399  1  0.02250000  0.41910000  0.81010000  1.0 0.1953738297
C  C400  1  0.58090000  0.18990000  0.97750000  1.0 0.1953738297
C  C401  1  0.18990000  0.97750000  0.58090000  1.0 0.1889993537
C  C402  1  0.97750000  0.58090000  0.18990000  1.0 0.1953738297
C  C403  1  0.38370000  0.81030000  0.06460000  1.0 0.0655287613
C  C404  1  0.81030000  0.06460000  0.38370000  1.0 0.0655287613
C  C405  1  0.06460000  0.38370000  0.81030000  1.0 0.0655287613
C  C406  1  0.61630000  0.18970000  0.93540000  1.0 0.0655287613
C  C407  1  0.18970000  0.93540000  0.61630000  1.0 0.0655287613
C  C408  1  0.93540000  0.61630000  0.18970000  1.0 0.0655287613
C  C409  1  0.38600000  0.80700000  0.09830000  1.0 -0.2380065671
C  C410  1  0.80700000  0.09830000  0.38600000  1.0 -0.2380065671
C  C411  1  0.09830000  0.38600000  0.80700000  1.0 -0.2380065671
C  C412  1  0.61400000  0.19300000  0.90170000  1.0 -0.2380065671
C  C413  1  0.19300000  0.90170000  0.61400000  1.0 -0.2380065671
C  C414  1  0.90170000  0.61400000  0.19300000  1.0 -0.2380065671
C  C415  1  0.42930000  0.80340000  0.09400000  1.0 0.2593879735
C  C416  1  0.80340000  0.09400000  0.42930000  1.0 0.2593879735
C  C417  1  0.09400000  0.42930000  0.80340000  1.0 0.2593879735
C  C418  1  0.57070000  0.19660000  0.90600000  1.0 0.2593879735
C  C419  1  0.19660000  0.90600000  0.57070000  1.0 0.2593879735
C  C420  1  0.90600000  0.57070000  0.19660000  1.0 0.2593879735
C  C421  1  0.46320000  0.80750000  0.05030000  1.0 0.0282912097
C  C422  1  0.80750000  0.05030000  0.46320000  1.0 0.0245140484
C  C423  1  0.05030000  0.46320000  0.80750000  1.0 0.0282912097
C  C424  1  0.53680000  0.19250000  0.94970000  1.0 0.0245140484
C  C425  1  0.19250000  0.94970000  0.53680000  1.0 0.0282912097
C  C426  1  0.94970000  0.53680000  0.19250000  1.0 0.0245140484
C  C427  1  0.46500000  0.80710000  0.01560000  1.0 -0.2129393777
C  C428  1  0.80710000  0.01560000  0.46500000  1.0 -0.2129393777
C  C429  1  0.01560000  0.46500000  0.80710000  1.0 -0.2129393777
C  C430  1  0.53500000  0.19290000  0.98440000  1.0 -0.2129393777
C  C431  1  0.19290000  0.98440000  0.53500000  1.0 -0.2129393777
C  C432  1  0.98440000  0.53500000  0.19290000  1.0 -0.2129393777
C  C433  1  0.38870000  0.81070000  0.16810000  1.0 -0.0791242317
C  C434  1  0.81070000  0.16810000  0.38870000  1.0 -0.0791242317
C  C435  1  0.16810000  0.38870000  0.81070000  1.0 -0.0897364454
C  C436  1  0.61130000  0.18930000  0.83190000  1.0 -0.0791242317
C  C437  1  0.18930000  0.83190000  0.61130000  1.0 -0.0897364454
C  C438  1  0.83190000  0.61130000  0.18930000  1.0 -0.0791242317
C  C439  1  0.40560000  0.81420000  0.19090000  1.0 -0.050536582
C  C440  1  0.81420000  0.19090000  0.40560000  1.0 -0.050536582
C  C441  1  0.19090000  0.40560000  0.81420000  1.0 -0.050536582
C  C442  1  0.59440000  0.18580000  0.80910000  1.0 -0.050536582
C  C443  1  0.18580000  0.80910000  0.59440000  1.0 -0.050536582
C  C444  1  0.80910000  0.59440000  0.18580000  1.0 -0.050536582
C  C445  1  0.42100000  0.86160000  0.19740000  1.0 -0.0984365276
C  C446  1  0.86160000  0.19740000  0.42100000  1.0 -0.0984365276
C  C447  1  0.19740000  0.42100000  0.86160000  1.0 -0.0984365276
C  C448  1  0.57900000  0.13840000  0.80260000  1.0 -0.0984365276
C  C449  1  0.13840000  0.80260000  0.57900000  1.0 -0.0984365276
C  C450  1  0.80260000  0.57900000  0.13840000  1.0 -0.0984365276
C  C451  1  0.38620000  0.88420000  0.22370000  1.0 -0.0984365276
C  C452  1  0.88420000  0.22370000  0.38620000  1.0 -0.0984365276
C  C453  1  0.22370000  0.38620000  0.88420000  1.0 -0.0984365276
C  C454  1  0.61380000  0.11580000  0.77630000  1.0 -0.0984365276
C  C455  1  0.11580000  0.77630000  0.61380000  1.0 -0.0984365276
C  C456  1  0.77630000  0.61380000  0.11580000  1.0 -0.0984365276
C  C457  1  0.33340000  0.96340000  0.21140000  1.0 -0.0897364454
C  C458  1  0.96340000  0.21140000  0.33340000  1.0 -0.0897364454
C  C459  1  0.21140000  0.33340000  0.96340000  1.0 -0.0897364454
C  C460  1  0.66666667  0.03660000  0.78860000  1.0 -0.0897364454
C  C461  1  0.03660000  0.78860000  0.66666667  1.0 -0.0897364454
C  C462  1  0.78860000  0.66666667  0.03660000  1.0 -0.0897364454
C  C463  1  0.31160000  0.00910000  0.18120000  1.0 -0.0791242317
C  C464  1  0.00910000  0.18120000  0.31160000  1.0 -0.0791242317
C  C465  1  0.18120000  0.31160000  0.00910000  1.0 -0.0791242317
C  C466  1  0.68840000  0.99090000  0.81880000  1.0 -0.0791242317
C  C467  1  0.99090000  0.81880000  0.68840000  1.0 -0.0791242317
C  C468  1  0.81880000  0.68840000  0.99090000  1.0 -0.0791242317
C  C469  1  0.26250000  0.04630000  0.14090000  1.0 -0.0607196604
C  C470  1  0.04630000  0.14090000  0.26250000  1.0 -0.0607196604
C  C471  1  0.14090000  0.26250000  0.04630000  1.0 -0.0607196604
C  C472  1  0.73750000  0.95370000  0.85910000  1.0 -0.0607196604
C  C473  1  0.95370000  0.85910000  0.73750000  1.0 -0.0607196604
C  C474  1  0.85910000  0.73750000  0.95370000  1.0 -0.0607196604
C  C475  1  0.25380000  0.03820000  0.11210000  1.0 -0.050536582
C  C476  1  0.03820000  0.11210000  0.25380000  1.0 -0.050536582
C  C477  1  0.11210000  0.25380000  0.03820000  1.0 -0.050536582
C  C478  1  0.74620000  0.96180000  0.88790000  1.0 -0.050536582
C  C479  1  0.96180000  0.88790000  0.74620000  1.0 -0.050536582
C  C480  1  0.88790000  0.74620000  0.96180000  1.0 -0.050536582
C  C481  1  0.28120000  0.03220000  0.04120000  1.0 0.1685392693
C  C482  1  0.03220000  0.04120000  0.28120000  1.0 0.1685392693
C  C483  1  0.04120000  0.28120000  0.03220000  1.0 0.1685392693
C  C484  1  0.71880000  0.96780000  0.95880000  1.0 0.1685392693
C  C485  1  0.96780000  0.95880000  0.71880000  1.0 0.1685392693
C  C486  1  0.95880000  0.71880000  0.96780000  1.0 0.1685392693
C  C487  1  0.24330000  0.03150000  0.05460000  1.0 -0.189184872
C  C488  1  0.03150000  0.05460000  0.24330000  1.0 -0.189184872
C  C489  1  0.05460000  0.24330000  0.03150000  1.0 -0.189184872
C  C490  1  0.75670000  0.96850000  0.94540000  1.0 -0.189184872
C  C491  1  0.96850000  0.94540000  0.75670000  1.0 -0.189184872
C  C492  1  0.94540000  0.75670000  0.96850000  1.0 -0.189184872
C  C493  1  0.23060000  0.03760000  0.02190000  1.0 -0.0897364454
C  C494  1  0.03760000  0.02190000  0.23060000  1.0 -0.0897364454
C  C495  1  0.02190000  0.23060000  0.03760000  1.0 -0.0897364454
C  C496  1  0.76940000  0.96240000  0.97810000  1.0 -0.0897364454
C  C497  1  0.96240000  0.97810000  0.76940000  1.0 -0.0897364454
C  C498  1  0.97810000  0.76940000  0.96240000  1.0 -0.0897364454
C  C499  1  0.26710000  0.03910000  0.97610000  1.0 -0.1495070959
C  C500  1  0.03910000  0.97610000  0.26710000  1.0 -0.1495070959
C  C501  1  0.97610000  0.26710000  0.03910000  1.0 -0.1495070959
C  C502  1  0.73290000  0.96090000  0.02390000  1.0 -0.1495070959
C  C503  1  0.96090000  0.02390000  0.73290000  1.0 -0.1495070959
C  C504  1  0.02390000  0.73290000  0.96090000  1.0 -0.1495070959
C  C505  1  0.30700000  0.03780000  0.96600000  1.0 0.0282912097
C  C506  1  0.03780000  0.96600000  0.30700000  1.0 0.0282912097
C  C507  1  0.96600000  0.30700000  0.03780000  1.0 0.0282912097
C  C508  1  0.69300000  0.96220000  0.03400000  1.0 0.0282912097
C  C509  1  0.96220000  0.03400000  0.69300000  1.0 0.0282912097
C  C510  1  0.03400000  0.69300000  0.96220000  1.0 0.0282912097
C  C511  1  0.31640000  0.03540000  0.99740000  1.0 0.0008136236
C  C512  1  0.03540000  0.99740000  0.31640000  1.0 0.0008136236
C  C513  1  0.99740000  0.31640000  0.03540000  1.0 0.0008136236
C  C514  1  0.68360000  0.96460000  0.00260000  1.0 0.0008136236
C  C515  1  0.96460000  0.00260000  0.68360000  1.0 0.0008136236
C  C516  1  0.00260000  0.68360000  0.96460000  1.0 -0.0040575638
C  C517  1  0.35410000  0.03370000  0.98990000  1.0 -0.1495070959
C  C518  1  0.03370000  0.98990000  0.35410000  1.0 -0.1495070959
C  C519  1  0.98990000  0.35410000  0.03370000  1.0 -0.1495070959
C  C520  1  0.64590000  0.96630000  0.01010000  1.0 -0.1495070959
C  C521  1  0.96630000  0.01010000  0.64590000  1.0 -0.1495070959
C  C522  1  0.01010000  0.64590000  0.96630000  1.0 -0.1495070959
C  C523  1  0.39170000  0.03470000  0.94170000  1.0 -0.0897364454
C  C524  1  0.03470000  0.94170000  0.39170000  1.0 -0.0897364454
C  C525  1  0.94170000  0.39170000  0.03470000  1.0 -0.0897364454
C  C526  1  0.60830000  0.96530000  0.05830000  1.0 -0.0984365276
C  C527  1  0.96530000  0.05830000  0.60830000  1.0 -0.0897364454
C  C528  1  0.05830000  0.60830000  0.96530000  1.0 -0.0984365276
C  C529  1  0.38780000  0.03940000  0.90580000  1.0 -0.2380065671
C  C530  1  0.03940000  0.90580000  0.38780000  1.0 -0.2380065671
C  C531  1  0.90580000  0.38780000  0.03940000  1.0 -0.2380065671
C  C532  1  0.61220000  0.96060000  0.09420000  1.0 -0.2380065671
C  C533  1  0.96060000  0.09420000  0.61220000  1.0 -0.2380065671
C  C534  1  0.09420000  0.61220000  0.96060000  1.0 -0.2380065671
C  C535  1  0.34610000  0.04250000  0.91890000  1.0 0.1889993537
C  C536  1  0.04250000  0.91890000  0.34610000  1.0 0.1889993537
C  C537  1  0.91890000  0.34610000  0.04250000  1.0 0.1889993537
C  C538  1  0.65390000  0.95750000  0.08110000  1.0 0.1889993537
C  C539  1  0.95750000  0.08110000  0.65390000  1.0 0.1889993537
C  C540  1  0.08110000  0.65390000  0.95750000  1.0 0.1889993537
C  C541  1  0.36850000  0.05160000  0.84000000  1.0 -0.0705524424
C  C542  1  0.05160000  0.84000000  0.36850000  1.0 -0.0705524424
C  C543  1  0.84000000  0.36850000  0.05160000  1.0 -0.0705524424
C  C544  1  0.63150000  0.94840000  0.16000000  1.0 -0.0705524424
C  C545  1  0.94840000  0.16000000  0.63150000  1.0 -0.0705524424
C  C546  1  0.16000000  0.63150000  0.94840000  1.0 -0.0705524424
C  C547  1  0.35020000  0.05850000  0.80880000  1.0 -0.0791242317
C  C548  1  0.05850000  0.80880000  0.35020000  1.0 -0.0791242317
C  C549  1  0.80880000  0.35020000  0.05850000  1.0 -0.0705524424
C  C550  1  0.64980000  0.94150000  0.19120000  1.0 -0.0791242317
C  C551  1  0.94150000  0.19120000  0.64980000  1.0 -0.0705524424
C  C552  1  0.19120000  0.64980000  0.94150000  1.0 -0.0791242317
C  C553  1  0.34600000  0.00870000  0.79620000  1.0 -0.0897364454
C  C554  1  0.00870000  0.79620000  0.34600000  1.0 -0.0897364454
C  C555  1  0.79620000  0.34600000  0.00870000  1.0 -0.0897364454
C  C556  1  0.65400000  0.99130000  0.20380000  1.0 -0.0897364454
C  C557  1  0.99130000  0.20380000  0.65400000  1.0 -0.0897364454
C  C558  1  0.20380000  0.65400000  0.99130000  1.0 -0.0897364454
C  C559  1  0.35890000  0.95740000  0.80760000  1.0 -0.0180075457
C  C560  1  0.95740000  0.80760000  0.35890000  1.0 -0.0180075457
C  C561  1  0.80760000  0.35890000  0.95740000  1.0 -0.0180075457
C  C562  1  0.64110000  0.04260000  0.19240000  1.0 -0.0180075457
C  C563  1  0.04260000  0.19240000  0.64110000  1.0 -0.0180075457
C  C564  1  0.19240000  0.64110000  0.04260000  1.0 -0.0180075457
C  C565  1  0.34580000  0.88950000  0.86490000  1.0 -0.0897364454
C  C566  1  0.88950000  0.86490000  0.34580000  1.0 -0.0897364454
C  C567  1  0.86490000  0.34580000  0.88950000  1.0 -0.0897364454
C  C568  1  0.65420000  0.11050000  0.13510000  1.0 -0.0897364454
C  C569  1  0.11050000  0.13510000  0.65420000  1.0 -0.0897364454
C  C570  1  0.13510000  0.65420000  0.11050000  1.0 -0.0897364454
C  C571  1  0.40020000  0.85440000  0.86540000  1.0 -0.1297131135
C  C572  1  0.85440000  0.86540000  0.40020000  1.0 -0.1297131135
C  C573  1  0.86540000  0.40020000  0.85440000  1.0 -0.1297131135
C  C574  1  0.59980000  0.14560000  0.13460000  1.0 -0.1297131135
C  C575  1  0.14560000  0.13460000  0.59980000  1.0 -0.1297131135
C  C576  1  0.13460000  0.59980000  0.14560000  1.0 -0.1297131135
C  C577  1  0.44330000  0.81820000  0.91250000  1.0 -0.0705524424
C  C578  1  0.81820000  0.91250000  0.44330000  1.0 -0.0705524424
C  C579  1  0.91250000  0.44330000  0.81820000  1.0 -0.0705524424
C  C580  1  0.55670000  0.18180000  0.08750000  1.0 -0.0705524424
C  C581  1  0.18180000  0.08750000  0.55670000  1.0 -0.0705524424
C  C582  1  0.08750000  0.55670000  0.18180000  1.0 -0.0705524424
C  C583  1  0.45630000  0.81740000  0.93990000  1.0 -0.0705524424
C  C584  1  0.81740000  0.93990000  0.45630000  1.0 -0.0705524424
C  C585  1  0.93990000  0.45630000  0.81740000  1.0 -0.0705524424
C  C586  1  0.54370000  0.18260000  0.06010000  1.0 -0.0705524424
C  C587  1  0.18260000  0.06010000  0.54370000  1.0 -0.0705524424
C  C588  1  0.06010000  0.54370000  0.18260000  1.0 -0.0705524424
C  C589  1  0.50070000  0.80400000  0.04690000  1.0 -0.0705524424
C  C590  1  0.80400000  0.04690000  0.50070000  1.0 -0.0705524424
C  C591  1  0.04690000  0.50070000  0.80400000  1.0 -0.0705524424
C  C592  1  0.49930000  0.19600000  0.95310000  1.0 -0.0705524424
C  C593  1  0.19600000  0.95310000  0.49930000  1.0 -0.0705524424
C  C594  1  0.95310000  0.49930000  0.19600000  1.0 -0.0705524424
C  C595  1  0.53280000  0.79880000  0.04910000  1.0 -0.0705524424
C  C596  1  0.79880000  0.04910000  0.53280000  1.0 -0.0705524424
C  C597  1  0.04910000  0.53280000  0.79880000  1.0 -0.0705524424
C  C598  1  0.46720000  0.20120000  0.95090000  1.0 -0.0705524424
C  C599  1  0.20120000  0.95090000  0.46720000  1.0 -0.0705524424
C  C600  1  0.95090000  0.46720000  0.20120000  1.0 -0.0705524424
C  C601  1  0.57000000  0.78870000  0.06070000  1.0 0.1378308272
C  C602  1  0.78870000  0.06070000  0.57000000  1.0 0.1378308272
C  C603  1  0.06070000  0.57000000  0.78870000  1.0 0.1378308272
C  C604  1  0.43000000  0.21130000  0.93930000  1.0 0.1378308272
C  C605  1  0.21130000  0.93930000  0.43000000  1.0 0.1378308272
C  C606  1  0.93930000  0.43000000  0.21130000  1.0 0.1378308272
C  C607  1  0.55740000  0.79230000  0.10000000  1.0 -0.1598680405
C  C608  1  0.79230000  0.10000000  0.55740000  1.0 -0.1598680405
C  C609  1  0.10000000  0.55740000  0.79230000  1.0 -0.1598680405
C  C610  1  0.44260000  0.20770000  0.90000000  1.0 -0.1598680405
C  C611  1  0.20770000  0.90000000  0.44260000  1.0 -0.1598680405
C  C612  1  0.90000000  0.44260000  0.20770000  1.0 -0.1598680405
C  C613  1  0.59280000  0.77700000  0.11350000  1.0 -0.1495070959
C  C614  1  0.77700000  0.11350000  0.59280000  1.0 -0.1495070959
C  C615  1  0.11350000  0.59280000  0.77700000  1.0 -0.1495070959
C  C616  1  0.40720000  0.22300000  0.88650000  1.0 -0.1495070959
C  C617  1  0.22300000  0.88650000  0.40720000  1.0 -0.1495070959
C  C618  1  0.88650000  0.40720000  0.22300000  1.0 -0.1495070959
C  C619  1  0.64030000  0.76070000  0.08890000  1.0 0.1195696504
C  C620  1  0.76070000  0.08890000  0.64030000  1.0 0.1195696504
C  C621  1  0.08890000  0.64030000  0.76070000  1.0 0.1195696504
C  C622  1  0.35970000  0.23930000  0.91110000  1.0 0.1195696504
C  C623  1  0.23930000  0.91110000  0.35970000  1.0 0.1195696504
C  C624  1  0.91110000  0.35970000  0.23930000  1.0 0.1195696504
C  C625  1  0.65150000  0.76160000  0.04650000  1.0 -0.1702154019
C  C626  1  0.76160000  0.04650000  0.65150000  1.0 -0.1702154019
C  C627  1  0.04650000  0.65150000  0.76160000  1.0 -0.1702154019
C  C628  1  0.34850000  0.23840000  0.95350000  1.0 -0.1702154019
C  C629  1  0.23840000  0.95350000  0.34850000  1.0 -0.1702154019
C  C630  1  0.95350000  0.34850000  0.23840000  1.0 -0.1702154019
C  C631  1  0.62110000  0.77180000  0.03070000  1.0 -0.1702154019
C  C632  1  0.77180000  0.03070000  0.62110000  1.0 -0.1702154019
C  C633  1  0.03070000  0.62110000  0.77180000  1.0 -0.1702154019
C  C634  1  0.37890000  0.22820000  0.96930000  1.0 -0.1702154019
C  C635  1  0.22820000  0.96930000  0.37890000  1.0 -0.1702154019
C  C636  1  0.96930000  0.37890000  0.22820000  1.0 -0.1702154019
C  C637  1  0.67480000  0.74890000  0.09950000  1.0 -0.1202740685
C  C638  1  0.74890000  0.09950000  0.67480000  1.0 -0.1297131135
C  C639  1  0.09950000  0.67480000  0.74890000  1.0 -0.1297131135
C  C640  1  0.32520000  0.25110000  0.90050000  1.0 -0.1297131135
C  C641  1  0.25110000  0.90050000  0.32520000  1.0 -0.1297131135
C  C642  1  0.90050000  0.32520000  0.25110000  1.0 -0.1297131135
C  C643  1  0.70050000  0.73860000  0.11560000  1.0 -0.1397639492
C  C644  1  0.73860000  0.11560000  0.70050000  1.0 -0.1397639492
C  C645  1  0.11560000  0.70050000  0.73860000  1.0 -0.1397639492
C  C646  1  0.29950000  0.26140000  0.88440000  1.0 -0.1397639492
C  C647  1  0.26140000  0.88440000  0.29950000  1.0 -0.1397639492
C  C648  1  0.88440000  0.29950000  0.26140000  1.0 -0.1397639492
C  C649  1  0.73670000  0.73600000  0.11860000  1.0 0.109945804
C  C650  1  0.73600000  0.11860000  0.73670000  1.0 0.109945804
C  C651  1  0.11860000  0.73670000  0.73600000  1.0 0.109945804
C  C652  1  0.26330000  0.26400000  0.88140000  1.0 0.109945804
C  C653  1  0.26400000  0.88140000  0.26330000  1.0 0.109945804
C  C654  1  0.88140000  0.26330000  0.26400000  1.0 0.109945804
C  C655  1  0.77990000  0.73370000  0.09030000  1.0 -0.1397639492
C  C656  1  0.73370000  0.09030000  0.77990000  1.0 -0.1397639492
C  C657  1  0.09030000  0.77990000  0.73370000  1.0 -0.1397639492
C  C658  1  0.22010000  0.26630000  0.90970000  1.0 -0.1397639492
C  C659  1  0.26630000  0.90970000  0.22010000  1.0 -0.1397639492
C  C660  1  0.90970000  0.22010000  0.26630000  1.0 -0.1397639492
C  C661  1  0.81180000  0.73310000  0.09590000  1.0 -0.1297131135
C  C662  1  0.73310000  0.09590000  0.81180000  1.0 -0.1297131135
C  C663  1  0.09590000  0.81180000  0.73310000  1.0 -0.1297131135
C  C664  1  0.18820000  0.26690000  0.90410000  1.0 -0.1297131135
C  C665  1  0.26690000  0.90410000  0.18820000  1.0 -0.1297131135
C  C666  1  0.90410000  0.18820000  0.26690000  1.0 -0.1297131135
C  C667  1  0.79930000  0.72870000  0.14130000  1.0 0.0087434517
C  C668  1  0.72870000  0.14130000  0.79930000  1.0 0.0087434517
C  C669  1  0.14130000  0.79930000  0.72870000  1.0 0.0087434517
C  C670  1  0.20070000  0.27130000  0.85870000  1.0 0.0087434517
C  C671  1  0.27130000  0.85870000  0.20070000  1.0 0.0087434517
C  C672  1  0.85870000  0.20070000  0.27130000  1.0 0.0087434517
C  C673  1  0.75440000  0.73460000  0.17310000  1.0 -0.0984365276
C  C674  1  0.73460000  0.17310000  0.75440000  1.0 -0.0984365276
C  C675  1  0.17310000  0.75440000  0.73460000  1.0 -0.0984365276
C  C676  1  0.24560000  0.26540000  0.82690000  1.0 -0.0984365276
C  C677  1  0.26540000  0.82690000  0.24560000  1.0 -0.0984365276
C  C678  1  0.82690000  0.24560000  0.26540000  1.0 -0.0984365276
C  C679  1  0.72290000  0.73540000  0.16300000  1.0 -0.1397639492
C  C680  1  0.73540000  0.16300000  0.72290000  1.0 -0.1397639492
C  C681  1  0.16300000  0.72290000  0.73540000  1.0 -0.1397639492
C  C682  1  0.27710000  0.26460000  0.83700000  1.0 -0.1397639492
C  C683  1  0.26460000  0.83700000  0.27710000  1.0 -0.1397639492
C  C684  1  0.83700000  0.27710000  0.26460000  1.0 -0.1397639492
C  C685  1  0.83840000  0.73210000  0.14230000  1.0 0.5179148252
C  C686  1  0.73210000  0.14230000  0.83840000  1.0 0.5179148252
C  C687  1  0.14230000  0.83840000  0.73210000  1.0 0.5179148252
C  C688  1  0.16160000  0.26790000  0.85770000  1.0 0.5179148252
C  C689  1  0.26790000  0.85770000  0.16160000  1.0 0.5179148252
C  C690  1  0.85770000  0.16160000  0.26790000  1.0 0.5179148252
C  C691  1  0.34180000  0.81070000  0.06590000  1.0 -0.0984365276
C  C692  1  0.81070000  0.06590000  0.34180000  1.0 -0.0984365276
C  C693  1  0.06590000  0.34180000  0.81070000  1.0 -0.0984365276
C  C694  1  0.65820000  0.18930000  0.93410000  1.0 -0.0984365276
C  C695  1  0.18930000  0.93410000  0.65820000  1.0 -0.0984365276
C  C696  1  0.93410000  0.65820000  0.18930000  1.0 -0.0984365276
C  C697  1  0.31390000  0.80990000  0.06250000  1.0 -0.1297131135
C  C698  1  0.80990000  0.06250000  0.31390000  1.0 -0.1297131135
C  C699  1  0.06250000  0.31390000  0.80990000  1.0 -0.1297131135
C  C700  1  0.68610000  0.19010000  0.93750000  1.0 -0.1297131135
C  C701  1  0.19010000  0.93750000  0.68610000  1.0 -0.1297131135
C  C702  1  0.93750000  0.68610000  0.19010000  1.0 -0.1297131135
C  C703  1  0.29930000  0.81450000  0.03350000  1.0 0.1296825011
C  C704  1  0.81450000  0.03350000  0.29930000  1.0 0.1296825011
C  C705  1  0.03350000  0.29930000  0.81450000  1.0 0.1296825011
C  C706  1  0.70070000  0.18550000  0.96650000  1.0 0.1296825011
C  C707  1  0.18550000  0.96650000  0.70070000  1.0 0.1296825011
C  C708  1  0.96650000  0.70070000  0.18550000  1.0 0.1296825011
C  C709  1  0.33350000  0.79600000  0.99890000  1.0 -0.1202740685
C  C710  1  0.79600000  0.99890000  0.33350000  1.0 -0.1202740685
C  C711  1  0.99890000  0.33350000  0.79600000  1.0 -0.1202740685
C  C712  1  0.66650000  0.20400000  0.00110000  1.0 -0.1202740685
C  C713  1  0.20400000  0.00110000  0.66650000  1.0 -0.1202740685
C  C714  1  0.00110000  0.66650000  0.20400000  1.0 -0.1202740685
C  C715  1  0.32120000  0.79770000  0.97050000  1.0 -0.1805246072
C  C716  1  0.79770000  0.97050000  0.32120000  1.0 -0.1805246072
C  C717  1  0.97050000  0.32120000  0.79770000  1.0 -0.1805246072
C  C718  1  0.67880000  0.20230000  0.02950000  1.0 -0.1805246072
C  C719  1  0.20230000  0.02950000  0.67880000  1.0 -0.1805246072
C  C720  1  0.02950000  0.67880000  0.20230000  1.0 -0.1805246072
C  C721  1  0.27480000  0.81760000  0.97660000  1.0 0.109945804
C  C722  1  0.81760000  0.97660000  0.27480000  1.0 0.109945804
C  C723  1  0.97660000  0.27480000  0.81760000  1.0 0.109945804
C  C724  1  0.72520000  0.18240000  0.02340000  1.0 0.109945804
C  C725  1  0.18240000  0.02340000  0.72520000  1.0 0.109945804
C  C726  1  0.02340000  0.72520000  0.18240000  1.0 0.109945804
C  C727  1  0.24050000  0.83600000  0.01110000  1.0 -0.1598680405
C  C728  1  0.83600000  0.01110000  0.24050000  1.0 -0.1495070959
C  C729  1  0.01110000  0.24050000  0.83600000  1.0 -0.1598680405
C  C730  1  0.75950000  0.16400000  0.98890000  1.0 -0.1598680405
C  C731  1  0.16400000  0.98890000  0.75950000  1.0 -0.1598680405
C  C732  1  0.98890000  0.75950000  0.16400000  1.0 -0.1495070959
C  C733  1  0.25290000  0.83440000  0.03960000  1.0 -0.1397639492
C  C734  1  0.83440000  0.03960000  0.25290000  1.0 -0.1397639492
C  C735  1  0.03960000  0.25290000  0.83440000  1.0 -0.1397639492
C  C736  1  0.74710000  0.16560000  0.96040000  1.0 -0.1397639492
C  C737  1  0.16560000  0.96040000  0.74710000  1.0 -0.1397639492
C  C738  1  0.96040000  0.74710000  0.16560000  1.0 -0.1397639492
C  C739  1  0.25620000  0.82620000  0.94220000  1.0 -0.0791242317
C  C740  1  0.82620000  0.94220000  0.25620000  1.0 -0.0791242317
C  C741  1  0.94220000  0.25620000  0.82620000  1.0 -0.0791242317
C  C742  1  0.74380000  0.17380000  0.05780000  1.0 -0.0791242317
C  C743  1  0.17380000  0.05780000  0.74380000  1.0 -0.0791242317
C  C744  1  0.05780000  0.74380000  0.17380000  1.0 -0.0791242317
C  C745  1  0.25810000  0.81010000  0.92310000  1.0 -0.1099608137
C  C746  1  0.81010000  0.92310000  0.25810000  1.0 -0.1099608137
C  C747  1  0.92310000  0.25810000  0.81010000  1.0 -0.1099608137
C  C748  1  0.74190000  0.18990000  0.07690000  1.0 -0.1099608137
C  C749  1  0.18990000  0.07690000  0.74190000  1.0 -0.1099608137
C  C750  1  0.07690000  0.74190000  0.18990000  1.0 -0.1099608137
C  C751  1  0.24540000  0.80850000  0.89540000  1.0 0.1195696504
C  C752  1  0.80850000  0.89540000  0.24540000  1.0 0.1195696504
C  C753  1  0.89540000  0.24540000  0.80850000  1.0 0.1195696504
C  C754  1  0.75460000  0.19150000  0.10460000  1.0 0.1195696504
C  C755  1  0.19150000  0.10460000  0.75460000  1.0 0.1195696504
C  C756  1  0.10460000  0.75460000  0.19150000  1.0 0.1195696504
C  C757  1  0.24190000  0.84660000  0.85420000  1.0 -0.1495070959
C  C758  1  0.84660000  0.85420000  0.24190000  1.0 -0.1495070959
C  C759  1  0.85420000  0.24190000  0.84660000  1.0 -0.1495070959
C  C760  1  0.75810000  0.15340000  0.14580000  1.0 -0.1495070959
C  C761  1  0.15340000  0.14580000  0.75810000  1.0 -0.1495070959
C  C762  1  0.14580000  0.75810000  0.15340000  1.0 -0.1495070959
C  C763  1  0.22990000  0.84770000  0.82610000  1.0 -0.1099608137
C  C764  1  0.84770000  0.82610000  0.22990000  1.0 -0.1099608137
C  C765  1  0.82610000  0.22990000  0.84770000  1.0 -0.1099608137
C  C766  1  0.77010000  0.15230000  0.17390000  1.0 -0.1099608137
C  C767  1  0.15230000  0.17390000  0.77010000  1.0 -0.1099608137
C  C768  1  0.17390000  0.77010000  0.15230000  1.0 -0.1099608137
C  C769  1  0.22120000  0.81060000  0.83890000  1.0 -0.0040575638
C  C770  1  0.81060000  0.83890000  0.22120000  1.0 -0.0040575638
C  C771  1  0.83890000  0.22120000  0.81060000  1.0 -0.0040575638
C  C772  1  0.77880000  0.18940000  0.16110000  1.0 -0.0040575638
C  C773  1  0.18940000  0.16110000  0.77880000  1.0 -0.0040575638
C  C774  1  0.16110000  0.77880000  0.18940000  1.0 -0.0040575638
C  C775  1  0.22460000  0.77240000  0.88000000  1.0 -0.1202740685
C  C776  1  0.77240000  0.88000000  0.22460000  1.0 -0.1202740685
C  C777  1  0.88000000  0.22460000  0.77240000  1.0 -0.1202740685
C  C778  1  0.77540000  0.22760000  0.12000000  1.0 -0.1202740685
C  C779  1  0.22760000  0.12000000  0.77540000  1.0 -0.1202740685
C  C780  1  0.12000000  0.77540000  0.22760000  1.0 -0.1202740685
C  C781  1  0.23670000  0.77140000  0.90820000  1.0 -0.1598680405
C  C782  1  0.77140000  0.90820000  0.23670000  1.0 -0.1598680405
C  C783  1  0.90820000  0.23670000  0.77140000  1.0 -0.1598680405
C  C784  1  0.76330000  0.22860000  0.09180000  1.0 -0.1598680405
C  C785  1  0.22860000  0.09180000  0.76330000  1.0 -0.1598680405
C  C786  1  0.09180000  0.76330000  0.22860000  1.0 -0.1598680405
C  C787  1  0.20210000  0.81810000  0.80310000  1.0 0.5837814148
C  C788  1  0.81810000  0.80310000  0.20210000  1.0 0.5837814148
C  C789  1  0.80310000  0.20210000  0.81810000  1.0 0.5837814148
C  C790  1  0.79790000  0.18190000  0.19690000  1.0 0.5837814148
C  C791  1  0.18190000  0.19690000  0.79790000  1.0 0.5837814148
C  C792  1  0.19690000  0.79790000  0.18190000  1.0 0.5837814148
O  O1  1  0.06930000  0.37420000  0.69590000  1.0 -0.1099608137
O  O2  1  0.69590000  0.06930000  0.37420000  1.0 -0.1099608137
O  O3  1  0.37420000  0.69590000  0.06930000  1.0 -0.1099608137
O  O4  1  0.93070000  0.62580000  0.30410000  1.0 -0.1099608137
O  O5  1  0.30410000  0.93070000  0.62580000  1.0 -0.1099608137
O  O6  1  0.62580000  0.30410000  0.93070000  1.0 -0.1099608137
O  O7  1  0.08560000  0.33300000  0.64610000  1.0 -0.1598680405
O  O8  1  0.64610000  0.08560000  0.33300000  1.0 -0.1598680405
O  O9  1  0.33300000  0.64610000  0.08560000  1.0 -0.1598680405
O  O10  1  0.91440000  0.66700000  0.35390000  1.0 -0.1598680405
O  O11  1  0.35390000  0.91440000  0.66700000  1.0 -0.1598680405
O  O12  1  0.66700000  0.35390000  0.91440000  1.0 -0.1598680405
O  O13  1  0.12370000  0.31120000  0.56950000  1.0 -0.1495070959
O  O14  1  0.56950000  0.12370000  0.31120000  1.0 -0.1495070959
O  O15  1  0.31120000  0.56950000  0.12370000  1.0 -0.1495070959
O  O16  1  0.87630000  0.68880000  0.43050000  1.0 -0.1495070959
O  O17  1  0.43050000  0.87630000  0.68880000  1.0 -0.1495070959
O  O18  1  0.68880000  0.43050000  0.87630000  1.0 -0.1495070959
O  O19  1  0.20300000  0.34290000  0.49630000  1.0 -0.1805246072
O  O20  1  0.49630000  0.20300000  0.34290000  1.0 -0.189184872
O  O21  1  0.34290000  0.49630000  0.20300000  1.0 -0.189184872
O  O22  1  0.79700000  0.65710000  0.50370000  1.0 -0.189184872
O  O23  1  0.50370000  0.79700000  0.65710000  1.0 -0.1805246072
O  O24  1  0.65710000  0.50370000  0.79700000  1.0 -0.189184872
O  O25  1  0.20780000  0.42870000  0.47020000  1.0 -0.2129393777
O  O26  1  0.47020000  0.20780000  0.42870000  1.0 -0.2129393777
O  O27  1  0.42870000  0.47020000  0.20780000  1.0 -0.2129393777
O  O28  1  0.79220000  0.57130000  0.52980000  1.0 -0.2129393777
O  O29  1  0.52980000  0.79220000  0.57130000  1.0 -0.2129393777
O  O30  1  0.57130000  0.52980000  0.79220000  1.0 -0.2129393777
O  O31  1  0.16810000  0.61450000  0.45130000  1.0 -0.189184872
O  O32  1  0.45130000  0.16810000  0.61450000  1.0 -0.189184872
O  O33  1  0.61450000  0.45130000  0.16810000  1.0 -0.189184872
O  O34  1  0.83190000  0.38550000  0.54870000  1.0 -0.189184872
O  O35  1  0.54870000  0.83190000  0.38550000  1.0 -0.189184872
O  O36  1  0.38550000  0.54870000  0.83190000  1.0 -0.189184872
O  O37  1  0.14690000  0.67390000  0.48840000  1.0 -0.1805246072
O  O38  1  0.48840000  0.14690000  0.67390000  1.0 -0.1702154019
O  O39  1  0.67390000  0.48840000  0.14690000  1.0 -0.1805246072
O  O40  1  0.85310000  0.32610000  0.51160000  1.0 -0.1805246072
O  O41  1  0.51160000  0.85310000  0.32610000  1.0 -0.1702154019
O  O42  1  0.32610000  0.51160000  0.85310000  1.0 -0.1805246072
O  O43  1  0.16130000  0.64920000  0.56560000  1.0 -0.0791242317
O  O44  1  0.56560000  0.16130000  0.64920000  1.0 -0.0791242317
O  O45  1  0.64920000  0.56560000  0.16130000  1.0 -0.0791242317
O  O46  1  0.83870000  0.35080000  0.43440000  1.0 -0.0791242317
O  O47  1  0.43440000  0.83870000  0.35080000  1.0 -0.0791242317
O  O48  1  0.35080000  0.43440000  0.83870000  1.0 -0.0791242317
O  O49  1  0.09240000  0.60260000  0.64360000  1.0 -0.1805246072
O  O50  1  0.64360000  0.09240000  0.60260000  1.0 -0.1805246072
O  O51  1  0.60260000  0.64360000  0.09240000  1.0 -0.1805246072
O  O52  1  0.90760000  0.39740000  0.35640000  1.0 -0.1805246072
O  O53  1  0.35640000  0.90760000  0.39740000  1.0 -0.1805246072
O  O54  1  0.39740000  0.35640000  0.90760000  1.0 -0.1805246072
O  O55  1  0.08270000  0.51610000  0.68580000  1.0 -0.2129393777
O  O56  1  0.68580000  0.08270000  0.51610000  1.0 -0.2129393777
O  O57  1  0.51610000  0.68580000  0.08270000  1.0 -0.2129393777
O  O58  1  0.91730000  0.48390000  0.31420000  1.0 -0.2129393777
O  O59  1  0.31420000  0.91730000  0.48390000  1.0 -0.2129393777
O  O60  1  0.48390000  0.31420000  0.91730000  1.0 -0.2129393777
O  O61  1  0.29960000  0.68120000  0.72290000  1.0 -0.5967348332
O  O62  1  0.72290000  0.29960000  0.68120000  1.0 -0.5967348332
O  O63  1  0.68120000  0.72290000  0.29960000  1.0 -0.5967348332
O  O64  1  0.70040000  0.31880000  0.27710000  1.0 -0.5967348332
O  O65  1  0.27710000  0.70040000  0.31880000  1.0 -0.5967348332
O  O66  1  0.31880000  0.27710000  0.70040000  1.0 -0.5967348332
O  O67  1  0.30675000  0.72605000  0.64315000  1.0 -0.4868626838
O  O68  1  0.64315000  0.30675000  0.72605000  1.0 -0.4868626838
O  O69  1  0.72605000  0.64315000  0.30675000  1.0 -0.4868626838
O  O70  1  0.69325000  0.27395000  0.35685000  1.0 -0.4868626838
O  O71  1  0.35685000  0.69325000  0.27395000  1.0 -0.4868626838
O  O72  1  0.27395000  0.35685000  0.69325000  1.0 -0.4868626838
O  O73  1  0.67350000  0.31120000  0.78060000  1.0 -0.5729268804
O  O74  1  0.78060000  0.67350000  0.31120000  1.0 -0.5729268804
O  O75  1  0.31120000  0.78060000  0.67350000  1.0 -0.5729268804
O  O76  1  0.32650000  0.68880000  0.21940000  1.0 -0.5729268804
O  O77  1  0.21940000  0.32650000  0.68880000  1.0 -0.5729268804
O  O78  1  0.68880000  0.21940000  0.32650000  1.0 -0.5729268804
O  O79  1  0.63040000  0.38930000  0.75910000  1.0 -0.4791931254
O  O80  1  0.75910000  0.63040000  0.38930000  1.0 -0.4708564942
O  O81  1  0.38930000  0.75910000  0.63040000  1.0 -0.4791931254
O  O82  1  0.36960000  0.61070000  0.24090000  1.0 -0.4791931254
O  O83  1  0.24090000  0.36960000  0.61070000  1.0 -0.4791931254
O  O84  1  0.61070000  0.24090000  0.36960000  1.0 -0.4791931254
O  O85  1  0.43070000  0.80410000  0.12580000  1.0 -0.1099608137
O  O86  1  0.80410000  0.12580000  0.43070000  1.0 -0.1099608137
O  O87  1  0.12580000  0.43070000  0.80410000  1.0 -0.1099608137
O  O88  1  0.56930000  0.19590000  0.87420000  1.0 -0.1099608137
O  O89  1  0.19590000  0.87420000  0.56930000  1.0 -0.1099608137
O  O90  1  0.87420000  0.56930000  0.19590000  1.0 -0.1099608137
O  O91  1  0.41440000  0.85390000  0.16700000  1.0 -0.1598680405
O  O92  1  0.85390000  0.16700000  0.41440000  1.0 -0.1598680405
O  O93  1  0.16700000  0.41440000  0.85390000  1.0 -0.1598680405
O  O94  1  0.58560000  0.14610000  0.83300000  1.0 -0.1598680405
O  O95  1  0.14610000  0.83300000  0.58560000  1.0 -0.1598680405
O  O96  1  0.83300000  0.58560000  0.14610000  1.0 -0.1598680405
O  O97  1  0.37630000  0.93050000  0.18880000  1.0 -0.1495070959
O  O98  1  0.93050000  0.18880000  0.37630000  1.0 -0.1495070959
O  O99  1  0.18880000  0.37630000  0.93050000  1.0 -0.1495070959
O  O100  1  0.62370000  0.06950000  0.81120000  1.0 -0.1495070959
O  O101  1  0.06950000  0.81120000  0.62370000  1.0 -0.1495070959
O  O102  1  0.81120000  0.62370000  0.06950000  1.0 -0.1495070959
O  O103  1  0.29700000  0.00370000  0.15710000  1.0 -0.1805246072
O  O104  1  0.00370000  0.15710000  0.29700000  1.0 -0.189184872
O  O105  1  0.15710000  0.29700000  0.00370000  1.0 -0.189184872
O  O106  1  0.70300000  0.99630000  0.84290000  1.0 -0.189184872
O  O107  1  0.99630000  0.84290000  0.70300000  1.0 -0.189184872
O  O108  1  0.84290000  0.70300000  0.99630000  1.0 -0.189184872
O  O109  1  0.29220000  0.02980000  0.07130000  1.0 -0.2129393777
O  O110  1  0.02980000  0.07130000  0.29220000  1.0 -0.2129393777
O  O111  1  0.07130000  0.29220000  0.02980000  1.0 -0.2129393777
O  O112  1  0.70780000  0.97020000  0.92870000  1.0 -0.2129393777
O  O113  1  0.97020000  0.92870000  0.70780000  1.0 -0.2129393777
O  O114  1  0.92870000  0.70780000  0.97020000  1.0 -0.2129393777
O  O115  1  0.33190000  0.04870000  0.88550000  1.0 -0.189184872
O  O116  1  0.04870000  0.88550000  0.33190000  1.0 -0.189184872
O  O117  1  0.88550000  0.33190000  0.04870000  1.0 -0.189184872
O  O118  1  0.66810000  0.95130000  0.11450000  1.0 -0.189184872
O  O119  1  0.95130000  0.11450000  0.66810000  1.0 -0.189184872
O  O120  1  0.11450000  0.66810000  0.95130000  1.0 -0.189184872
O  O121  1  0.35310000  0.01160000  0.82610000  1.0 -0.1702154019
O  O122  1  0.01160000  0.82610000  0.35310000  1.0 -0.1805246072
O  O123  1  0.82610000  0.35310000  0.01160000  1.0 -0.1805246072
O  O124  1  0.64690000  0.98840000  0.17390000  1.0 -0.1805246072
O  O125  1  0.98840000  0.17390000  0.64690000  1.0 -0.1805246072
O  O126  1  0.17390000  0.64690000  0.98840000  1.0 -0.1702154019
O  O127  1  0.33870000  0.93440000  0.85080000  1.0 -0.0791242317
O  O128  1  0.93440000  0.85080000  0.33870000  1.0 -0.0791242317
O  O129  1  0.85080000  0.33870000  0.93440000  1.0 -0.0791242317
O  O130  1  0.66130000  0.06560000  0.14920000  1.0 -0.0791242317
O  O131  1  0.06560000  0.14920000  0.66130000  1.0 -0.0791242317
O  O132  1  0.14920000  0.66130000  0.06560000  1.0 -0.0791242317
O  O133  1  0.40760000  0.85640000  0.89740000  1.0 -0.1805246072
O  O134  1  0.85640000  0.89740000  0.40760000  1.0 -0.1805246072
O  O135  1  0.89740000  0.40760000  0.85640000  1.0 -0.1805246072
O  O136  1  0.59240000  0.14360000  0.10260000  1.0 -0.1805246072
O  O137  1  0.14360000  0.10260000  0.59240000  1.0 -0.1805246072
O  O138  1  0.10260000  0.59240000  0.14360000  1.0 -0.1805246072
O  O139  1  0.41730000  0.81420000  0.98390000  1.0 -0.2129393777
O  O140  1  0.81420000  0.98390000  0.41730000  1.0 -0.2129393777
O  O141  1  0.98390000  0.41730000  0.81420000  1.0 -0.2129393777
O  O142  1  0.58270000  0.18580000  0.01610000  1.0 -0.2129393777
O  O143  1  0.18580000  0.01610000  0.58270000  1.0 -0.2129393777
O  O144  1  0.01610000  0.58270000  0.18580000  1.0 -0.2129393777
O  O145  1  0.20040000  0.77710000  0.81880000  1.0 -0.5967348332
O  O146  1  0.77710000  0.81880000  0.20040000  1.0 -0.5967348332
O  O147  1  0.81880000  0.20040000  0.77710000  1.0 -0.5967348332
O  O148  1  0.79960000  0.22290000  0.18120000  1.0 -0.5967348332
O  O149  1  0.22290000  0.18120000  0.79960000  1.0 -0.5967348332
O  O150  1  0.18120000  0.79960000  0.22290000  1.0 -0.5967348332
O  O151  1  0.19325000  0.85685000  0.77395000  1.0 -0.4868626838
O  O152  1  0.85685000  0.77395000  0.19325000  1.0 -0.4868626838
O  O153  1  0.77395000  0.19325000  0.85685000  1.0 -0.4791931254
O  O154  1  0.80675000  0.14315000  0.22605000  1.0 -0.4868626838
O  O155  1  0.14315000  0.22605000  0.80675000  1.0 -0.4791931254
O  O156  1  0.22605000  0.80675000  0.14315000  1.0 -0.4868626838
O  O157  1  0.82650000  0.71940000  0.18880000  1.0 -0.5729268804
O  O158  1  0.71940000  0.18880000  0.82650000  1.0 -0.5729268804
O  O159  1  0.18880000  0.82650000  0.71940000  1.0 -0.5729268804
O  O160  1  0.17350000  0.28060000  0.81120000  1.0 -0.5729268804
O  O161  1  0.28060000  0.81120000  0.17350000  1.0 -0.5729268804
O  O162  1  0.81120000  0.17350000  0.28060000  1.0 -0.5729268804
O  O163  1  0.86960000  0.74090000  0.11070000  1.0 -0.4791931254
O  O164  1  0.74090000  0.11070000  0.86960000  1.0 -0.4791931254
O  O165  1  0.11070000  0.86960000  0.74090000  1.0 -0.4791931254
O  O166  1  0.13040000  0.25910000  0.88930000  1.0 -0.4791931254
O  O167  1  0.25910000  0.88930000  0.13040000  1.0 -0.4791931254
O  O168  1  0.88930000  0.13040000  0.25910000  1.0 -0.4791931254
