# DDEC6 charges by PACMAN v1.1 (https://github.com/mtap-research/PACMAN-charge/)
data_FAFJIH_FSR_pacman
_symmetry_space_group_name_H-M   'P 1'
_cell_length_a   12.48950000
_cell_length_b   12.48950000
_cell_length_c   18.25400000
_cell_angle_alpha   81.24330000
_cell_angle_beta   98.75670000
_cell_angle_gamma   63.62180000
_symmetry_Int_Tables_number   1
_chemical_formula_structural   Zn3B2H30C40N16O9
_chemical_formula_sum   'Zn6 B4 H60 C80 N32 O18'
_cell_volume   2442.22190227
_cell_formula_units_Z   2
loop_
 _symmetry_equiv_pos_site_id
 _symmetry_equiv_pos_as_xyz
  1  'x, y, z'
loop_
 _atom_site_type_symbol
 _atom_site_label
 _atom_site_symmetry_multiplicity
 _atom_site_fract_x
 _atom_site_fract_y
 _atom_site_fract_z
 _atom_site_occupancy
 _atom_site_charge
Zn  Zn1  1  0.75145000  0.75145000  0.75000000  1.0 0.6555066612
Zn  Zn2  1  0.24855000  0.24855000  0.25000000  1.0 0.65438818
Zn  Zn3  1  0.65906000  0.19782000  0.04091000  1.0 0.8016640451
Zn  Zn4  1  0.19782000  0.65906000  0.45909000  1.0 0.8016640451
Zn  Zn5  1  0.34094000  0.80218000  0.95909000  1.0 0.8016640451
Zn  Zn6  1  0.80218000  0.34094000  0.54091000  1.0 0.8016640451
B  B1  1  0.02950000  0.28410000  0.95000000  1.0 0.520741066
B  B2  1  0.28410000  0.02950000  0.55000000  1.0 0.520741066
B  B3  1  0.97050000  0.71590000  0.05000000  1.0 0.520741066
B  B4  1  0.71590000  0.97050000  0.45000000  1.0 0.520741066
H  H1  1  0.96900000  0.20100000  0.82000000  1.0 0.1398649942
H  H2  1  0.20100000  0.96900000  0.68000000  1.0 0.1398649942
H  H3  1  0.03100000  0.79900000  0.18000000  1.0 0.1398649942
H  H4  1  0.79900000  0.03100000  0.32000000  1.0 0.1398649942
H  H5  1  0.11600000  0.96400000  0.83100000  1.0 0.1472216677
H  H6  1  0.96400000  0.11600000  0.66900000  1.0 0.1472216677
H  H7  1  0.88400000  0.03600000  0.16900000  1.0 0.1472216677
H  H8  1  0.03600000  0.88400000  0.33100000  1.0 0.1472216677
H  H9  1  0.23800000  0.04600000  0.00900000  1.0 0.131016088
H  H10  1  0.04600000  0.23800000  0.49100000  1.0 0.131016088
H  H11  1  0.76200000  0.95400000  0.99100000  1.0 0.131016088
H  H12  1  0.95400000  0.76200000  0.50900000  1.0 0.131016088
H  H13  1  0.70500000  0.41900000  0.07200000  1.0 0.131016088
H  H14  1  0.41900000  0.70500000  0.42800000  1.0 0.131016088
H  H15  1  0.29500000  0.58100000  0.92800000  1.0 0.131016088
H  H16  1  0.58100000  0.29500000  0.57200000  1.0 0.131016088
H  H17  1  0.88000000  0.46400000  0.03900000  1.0 0.0883326512
H  H18  1  0.46400000  0.88000000  0.46100000  1.0 0.0883326512
H  H19  1  0.12000000  0.53600000  0.96100000  1.0 0.0883326512
H  H20  1  0.53600000  0.12000000  0.53900000  1.0 0.0883326512
H  H21  1  0.89600000  0.16200000  0.96400000  1.0 0.1219282703
H  H22  1  0.16200000  0.89600000  0.53600000  1.0 0.1219282703
H  H23  1  0.10400000  0.83800000  0.03600000  1.0 0.1219282703
H  H24  1  0.83800000  0.10400000  0.46400000  1.0 0.1219282703
H  H25  1  0.06700000  0.21300000  0.11800000  1.0 0.0883326512
H  H26  1  0.21300000  0.06700000  0.38200000  1.0 0.0883326512
H  H27  1  0.93300000  0.78700000  0.88200000  1.0 0.0883326512
H  H28  1  0.78700000  0.93300000  0.61800000  1.0 0.0883326512
H  H29  1  0.35500000  0.24700000  0.11000000  1.0 0.1653529536
H  H30  1  0.24700000  0.35500000  0.39000000  1.0 0.1653529536
H  H31  1  0.64500000  0.75300000  0.89000000  1.0 0.1653529536
H  H32  1  0.75300000  0.64500000  0.61000000  1.0 0.1653529536
H  H33  1  0.26800000  0.29200000  0.96300000  1.0 0.131016088
H  H34  1  0.29200000  0.26800000  0.53700000  1.0 0.131016088
H  H35  1  0.73200000  0.70800000  0.03700000  1.0 0.131016088
H  H36  1  0.70800000  0.73200000  0.46300000  1.0 0.131016088
H  H37  1  0.12490000  0.33750000  0.82160000  1.0 0.131016088
H  H38  1  0.33750000  0.12490000  0.67840000  1.0 0.131016088
H  H39  1  0.87510000  0.66250000  0.17840000  1.0 0.131016088
H  H40  1  0.66250000  0.87510000  0.32160000  1.0 0.131016088
H  H41  1  0.97600000  0.51800000  0.72600000  1.0 0.1472216677
H  H42  1  0.51800000  0.97600000  0.77400000  1.0 0.1472216677
H  H43  1  0.02400000  0.48200000  0.27400000  1.0 0.1472216677
H  H44  1  0.48200000  0.02400000  0.22600000  1.0 0.1472216677
H  H45  1  0.81700000  0.48700000  0.88900000  1.0 0.069950875
H  H46  1  0.48700000  0.81700000  0.61100000  1.0 0.069950875
H  H47  1  0.18300000  0.51300000  0.11100000  1.0 0.069950875
H  H48  1  0.51300000  0.18300000  0.38900000  1.0 0.069950875
H  H49  1  0.53500000  0.20700000  0.74000000  1.0 0.131016088
H  H50  1  0.20700000  0.53500000  0.76000000  1.0 0.131016088
H  H51  1  0.46500000  0.79300000  0.26000000  1.0 0.131016088
H  H52  1  0.79300000  0.46500000  0.24000000  1.0 0.131016088
H  H53  1  0.35500000  0.41700000  0.87000000  1.0 0.1219282703
H  H54  1  0.41700000  0.35500000  0.63000000  1.0 0.1219282703
H  H55  1  0.64500000  0.58300000  0.13000000  1.0 0.1219282703
H  H56  1  0.58300000  0.64500000  0.37000000  1.0 0.1219282703
H  H57  1  0.63900000  0.26500000  0.31500000  1.0 0.1219282703
H  H58  1  0.26500000  0.63900000  0.18500000  1.0 0.1219282703
H  H59  1  0.36100000  0.73500000  0.68500000  1.0 0.1219282703
H  H60  1  0.73500000  0.36100000  0.81500000  1.0 0.1219282703
C  C1  1  0.03410000  0.14190000  0.85540000  1.0 -0.0675289454
C  C2  1  0.14190000  0.03410000  0.64460000  1.0 -0.0675289454
C  C3  1  0.96590000  0.85810000  0.14460000  1.0 -0.0675289454
C  C4  1  0.85810000  0.96590000  0.35540000  1.0 -0.0675289454
C  C5  1  0.11450000  0.02630000  0.85480000  1.0 -0.0290394425
C  C6  1  0.02630000  0.11450000  0.64520000  1.0 -0.0290394425
C  C7  1  0.88550000  0.97370000  0.14520000  1.0 -0.0290394425
C  C8  1  0.97370000  0.88550000  0.35480000  1.0 -0.0290394425
C  C9  1  0.18770000  0.06090000  0.96040000  1.0 0.131016088
C  C10  1  0.06090000  0.18770000  0.53960000  1.0 0.131016088
C  C11  1  0.81230000  0.93910000  0.03960000  1.0 0.131016088
C  C12  1  0.93910000  0.81230000  0.46040000  1.0 0.131016088
C  C13  1  0.76120000  0.37740000  0.03820000  1.0 -0.0245864252
C  C14  1  0.37740000  0.76120000  0.46180000  1.0 -0.0245864252
C  C15  1  0.23880000  0.62260000  0.96180000  1.0 -0.0245864252
C  C16  1  0.62260000  0.23880000  0.53820000  1.0 -0.0245864252
C  C17  1  0.85230000  0.39550000  0.01930000  1.0 -0.06221552
C  C18  1  0.39550000  0.85230000  0.48070000  1.0 -0.06221552
C  C19  1  0.14770000  0.60450000  0.98070000  1.0 -0.06221552
C  C20  1  0.60450000  0.14770000  0.51930000  1.0 -0.06221552
C  C21  1  0.85610000  0.23630000  0.98080000  1.0 0.1398649942
C  C22  1  0.23630000  0.85610000  0.51920000  1.0 0.1398649942
C  C23  1  0.14390000  0.76370000  0.01920000  1.0 0.1398649942
C  C24  1  0.76370000  0.14390000  0.48080000  1.0 0.1398649942
C  C25  1  0.13310000  0.24270000  0.09230000  1.0 0.1398649942
C  C26  1  0.24270000  0.13310000  0.40770000  1.0 0.1398649942
C  C27  1  0.86690000  0.75730000  0.90770000  1.0 0.1398649942
C  C28  1  0.75730000  0.86690000  0.59230000  1.0 0.1398649942
C  C29  1  0.30260000  0.24400000  0.08700000  1.0 -0.0462239713
C  C30  1  0.24400000  0.30260000  0.41300000  1.0 -0.0462239713
C  C31  1  0.69740000  0.75600000  0.91300000  1.0 -0.0462239713
C  C32  1  0.75600000  0.69740000  0.58700000  1.0 -0.0462239713
C  C33  1  0.23610000  0.27870000  0.01310000  1.0 -0.0462239713
C  C34  1  0.27870000  0.23610000  0.48690000  1.0 -0.0462239713
C  C35  1  0.76390000  0.72130000  0.98690000  1.0 -0.0462239713
C  C36  1  0.72130000  0.76390000  0.51310000  1.0 -0.0462239713
C  C37  1  0.04780000  0.39860000  0.82240000  1.0 -0.0675289454
C  C38  1  0.39860000  0.04780000  0.67760000  1.0 -0.0675289454
C  C39  1  0.95220000  0.60140000  0.17760000  1.0 -0.0675289454
C  C40  1  0.60140000  0.95220000  0.32240000  1.0 -0.0675289454
C  C41  1  0.97810000  0.50370000  0.76920000  1.0 -0.0388849759
C  C42  1  0.50370000  0.97810000  0.73080000  1.0 -0.0388849759
C  C43  1  0.02190000  0.49630000  0.23080000  1.0 -0.0388849759
C  C44  1  0.49630000  0.02190000  0.26920000  1.0 -0.0388849759
C  C45  1  0.88150000  0.50270000  0.85550000  1.0 0.1653529536
C  C46  1  0.50270000  0.88150000  0.64450000  1.0 0.1653529536
C  C47  1  0.11850000  0.49730000  0.14450000  1.0 0.1653529536
C  C48  1  0.49730000  0.11850000  0.35550000  1.0 0.1653529536
C  C49  1  0.55160000  0.20660000  0.89080000  1.0 0.5642324668
C  C50  1  0.20660000  0.55160000  0.60920000  1.0 0.5642324668
C  C51  1  0.44840000  0.79340000  0.10920000  1.0 0.5642324668
C  C52  1  0.79340000  0.44840000  0.39080000  1.0 0.5642324668
C  C53  1  0.47460000  0.26960000  0.74660000  1.0 -0.091976542
C  C54  1  0.26960000  0.47460000  0.75340000  1.0 -0.091976542
C  C55  1  0.52540000  0.73040000  0.25340000  1.0 -0.091976542
C  C56  1  0.73040000  0.52540000  0.24660000  1.0 -0.091976542
C  C57  1  0.45530000  0.29170000  0.81660000  1.0 -0.0045697528
C  C58  1  0.29170000  0.45530000  0.68340000  1.0 -0.0045697528
C  C59  1  0.54470000  0.70830000  0.18340000  1.0 -0.0045697528
C  C60  1  0.70830000  0.54470000  0.31660000  1.0 -0.0045697528
C  C61  1  0.35180000  0.39280000  0.81950000  1.0 -0.1239069849
C  C62  1  0.39280000  0.35180000  0.68050000  1.0 -0.1239069849
C  C63  1  0.64820000  0.60720000  0.18050000  1.0 -0.1239069849
C  C64  1  0.60720000  0.64820000  0.31950000  1.0 -0.1239069849
C  C65  1  0.61330000  0.28170000  0.17250000  1.0 0.5642324668
C  C66  1  0.28170000  0.61330000  0.32750000  1.0 0.5642324668
C  C67  1  0.38670000  0.71830000  0.82750000  1.0 0.5642324668
C  C68  1  0.71830000  0.38670000  0.67250000  1.0 0.5642324668
C  C69  1  0.52890000  0.37110000  0.21220000  1.0 -0.0462239713
C  C70  1  0.37110000  0.52890000  0.28780000  1.0 -0.0462239713
C  C71  1  0.47110000  0.62890000  0.78780000  1.0 -0.0462239713
C  C72  1  0.62890000  0.47110000  0.71220000  1.0 -0.0462239713
C  C73  1  0.55980000  0.34860000  0.29220000  1.0 -0.1437941063
C  C74  1  0.34860000  0.55980000  0.20780000  1.0 -0.1437941063
C  C75  1  0.44020000  0.65140000  0.70780000  1.0 -0.1437941063
C  C76  1  0.65140000  0.44020000  0.79220000  1.0 -0.1437941063
C  C77  1  0.42570000  0.47870000  0.16930000  1.0 0.0040408068
C  C78  1  0.47870000  0.42570000  0.33070000  1.0 0.0053442926
C  C79  1  0.57430000  0.52130000  0.83070000  1.0 0.0040408068
C  C80  1  0.52130000  0.57430000  0.66930000  1.0 0.0040408068
N  N1  1  0.21200000  0.97560000  0.92060000  1.0 -0.2896472011
N  N2  1  0.97560000  0.21200000  0.57940000  1.0 -0.2896472011
N  N3  1  0.78800000  0.02440000  0.07940000  1.0 -0.2896472011
N  N4  1  0.02440000  0.78800000  0.42060000  1.0 -0.2896472011
N  N5  1  0.08110000  0.16550000  0.92260000  1.0 -0.211559074
N  N6  1  0.16550000  0.08110000  0.57740000  1.0 -0.211559074
N  N7  1  0.91890000  0.83450000  0.07740000  1.0 -0.211559074
N  N8  1  0.83450000  0.91890000  0.42260000  1.0 -0.211559074
N  N9  1  0.76200000  0.27780000  0.01430000  1.0 -0.2801552657
N  N10  1  0.27780000  0.76200000  0.48570000  1.0 -0.2801552657
N  N11  1  0.23800000  0.72220000  0.98570000  1.0 -0.2801552657
N  N12  1  0.72220000  0.23800000  0.51430000  1.0 -0.2801552657
N  N13  1  0.91460000  0.30460000  0.98220000  1.0 -0.2182753775
N  N14  1  0.30460000  0.91460000  0.51780000  1.0 -0.2182753775
N  N15  1  0.08540000  0.69540000  0.01780000  1.0 -0.2182753775
N  N16  1  0.69540000  0.08540000  0.48220000  1.0 -0.2182753775
N  N17  1  0.23800000  0.22660000  0.13720000  1.0 -0.2663388941
N  N18  1  0.22660000  0.23800000  0.36280000  1.0 -0.2663388941
N  N19  1  0.76200000  0.77340000  0.86280000  1.0 -0.2663388941
N  N20  1  0.77340000  0.76200000  0.63720000  1.0 -0.2663388941
N  N21  1  0.12870000  0.27730000  0.01670000  1.0 -0.2283916566
N  N22  1  0.27730000  0.12870000  0.48330000  1.0 -0.2283916566
N  N23  1  0.87130000  0.72270000  0.98330000  1.0 -0.2283916566
N  N24  1  0.72270000  0.87130000  0.51670000  1.0 -0.2283916566
N  N25  1  0.98720000  0.39460000  0.87920000  1.0 -0.211559074
N  N26  1  0.39460000  0.98720000  0.62080000  1.0 -0.211559074
N  N27  1  0.01280000  0.60540000  0.12080000  1.0 -0.211559074
N  N28  1  0.60540000  0.01280000  0.37920000  1.0 -0.211559074
N  N29  1  0.87200000  0.57140000  0.78980000  1.0 -0.2896472011
N  N30  1  0.57140000  0.87200000  0.71020000  1.0 -0.2896472011
N  N31  1  0.12800000  0.42860000  0.21020000  1.0 -0.2896472011
N  N32  1  0.42860000  0.12800000  0.28980000  1.0 -0.2896472011
O  O1  1  0.65040000  0.12420000  0.88770000  1.0 -0.5506631775
O  O2  1  0.12420000  0.65040000  0.61230000  1.0 -0.5506631775
O  O3  1  0.34960000  0.87580000  0.11230000  1.0 -0.5506631775
O  O4  1  0.87580000  0.34960000  0.38770000  1.0 -0.5506631775
O  O5  1  0.52590000  0.23670000  0.95370000  1.0 -0.5745729301
O  O6  1  0.23670000  0.52590000  0.54630000  1.0 -0.5745729301
O  O7  1  0.47410000  0.76330000  0.04630000  1.0 -0.5745729301
O  O8  1  0.76330000  0.47410000  0.45370000  1.0 -0.5745729301
O  O9  1  0.72070000  0.20610000  0.20720000  1.0 -0.5506631775
O  O10  1  0.20610000  0.72070000  0.29280000  1.0 -0.5506631775
O  O11  1  0.27930000  0.79390000  0.79280000  1.0 -0.5506631775
O  O12  1  0.79390000  0.27930000  0.70720000  1.0 -0.5506631775
O  O13  1  0.56210000  0.29410000  0.10270000  1.0 -0.5506631775
O  O14  1  0.29410000  0.56210000  0.39730000  1.0 -0.5506631775
O  O15  1  0.43790000  0.70590000  0.89730000  1.0 -0.5506631775
O  O16  1  0.70590000  0.43790000  0.60270000  1.0 -0.5506631775
O  O17  1  0.85930000  0.85930000  0.75000000  1.0 -0.4222248289
O  O18  1  0.14070000  0.14070000  0.25000000  1.0 -0.4222248289
