# DDEC6 charges by PACMAN v1.1 (https://github.com/mtap-research/PACMAN-charge/)
data_FAGQAI_ASR_pacman
_symmetry_space_group_name_H-M   'P 1'
_cell_length_a   17.11610000
_cell_length_b   38.68620000
_cell_length_c   25.64670000
_cell_angle_alpha   90.00000000
_cell_angle_beta   101.44100000
_cell_angle_gamma   90.00000000
_symmetry_Int_Tables_number   1
_chemical_formula_structural   CuH10(C11O2)2
_chemical_formula_sum   'Cu12 H120 C264 O48'
_cell_volume   16644.69466979
_cell_formula_units_Z   12
loop_
 _symmetry_equiv_pos_site_id
 _symmetry_equiv_pos_as_xyz
  1  'x, y, z'
loop_
 _atom_site_type_symbol
 _atom_site_label
 _atom_site_symmetry_multiplicity
 _atom_site_fract_x
 _atom_site_fract_y
 _atom_site_fract_z
 _atom_site_occupancy
 _atom_site_charge
Cu  Cu1  1  0.05980000  0.73400000  0.79494000  1.0 0.8527392222
Cu  Cu2  1  0.94020000  0.23400000  0.70506000  1.0 0.8527392222
Cu  Cu3  1  0.94020000  0.26600000  0.20506000  1.0 0.8527392222
Cu  Cu4  1  0.05980000  0.76600000  0.29494000  1.0 0.8527392222
Cu  Cu5  1  0.92783000  0.74768000  0.72580000  1.0 0.8567115886
Cu  Cu6  1  0.07217000  0.24768000  0.77420000  1.0 0.8567115886
Cu  Cu7  1  0.07217000  0.25232000  0.27420000  1.0 0.8567115886
Cu  Cu8  1  0.92783000  0.75232000  0.22580000  1.0 0.8567115886
Cu  Cu9  1  0.99391000  0.03399000  0.50033000  1.0 0.811752565
Cu  Cu10  1  0.00609000  0.53399000  0.99967000  1.0 0.811752565
Cu  Cu11  1  0.00609000  0.96601000  0.49967000  1.0 0.811752565
Cu  Cu12  1  0.99391000  0.46601000  0.00033000  1.0 0.811752565
H  H1  1  0.77180000  0.93830000  0.52490000  1.0 0.1218980403
H  H2  1  0.22820000  0.43830000  0.97510000  1.0 0.1218980403
H  H3  1  0.22820000  0.06170000  0.47510000  1.0 0.1218980403
H  H4  1  0.77180000  0.56170000  0.02490000  1.0 0.1218980403
H  H5  1  0.64490000  0.93450000  0.54750000  1.0 0.1305717966
H  H6  1  0.35510000  0.43450000  0.95250000  1.0 0.1305717966
H  H7  1  0.35510000  0.06550000  0.45250000  1.0 0.1305717966
H  H8  1  0.64490000  0.56550000  0.04750000  1.0 0.1305717966
H  H9  1  0.63010000  0.03760000  0.54740000  1.0 0.1305717966
H  H10  1  0.36990000  0.53760000  0.95260000  1.0 0.1305717966
H  H11  1  0.36990000  0.96240000  0.45260000  1.0 0.1305717966
H  H12  1  0.63010000  0.46240000  0.04740000  1.0 0.1305717966
H  H13  1  0.75760000  0.04190000  0.52730000  1.0 0.1218980403
H  H14  1  0.24240000  0.54190000  0.97270000  1.0 0.1218980403
H  H15  1  0.24240000  0.95810000  0.47270000  1.0 0.1218980403
H  H16  1  0.75760000  0.45810000  0.02730000  1.0 0.1218980403
H  H17  1  0.39880000  0.03680000  0.58990000  1.0 0.1305717966
H  H18  1  0.60120000  0.53680000  0.91010000  1.0 0.1390777164
H  H19  1  0.60120000  0.96320000  0.41010000  1.0 0.1305717966
H  H20  1  0.39880000  0.46320000  0.08990000  1.0 0.1305717966
H  H21  1  0.20890000  0.98810000  0.62880000  1.0 0.1305717966
H  H22  1  0.79110000  0.48810000  0.87120000  1.0 0.1218980403
H  H23  1  0.79110000  0.01190000  0.37120000  1.0 0.1218980403
H  H24  1  0.20890000  0.51190000  0.12880000  1.0 0.1218980403
H  H25  1  0.39590000  0.93320000  0.59910000  1.0 0.1390777164
H  H26  1  0.60410000  0.43320000  0.90090000  1.0 0.1390777164
H  H27  1  0.60410000  0.06680000  0.40090000  1.0 0.1390777164
H  H28  1  0.39590000  0.56680000  0.09910000  1.0 0.1390777164
H  H29  1  0.28840000  0.12530000  0.69300000  1.0 0.1218980403
H  H30  1  0.71160000  0.62530000  0.80700000  1.0 0.1218980403
H  H31  1  0.71160000  0.87470000  0.30700000  1.0 0.1218980403
H  H32  1  0.28840000  0.37470000  0.19300000  1.0 0.1218980403
H  H33  1  0.22260000  0.17160000  0.72320000  1.0 0.1305717966
H  H34  1  0.77740000  0.67160000  0.77680000  1.0 0.1305717966
H  H35  1  0.77740000  0.82840000  0.27680000  1.0 0.1305717966
H  H36  1  0.22260000  0.32840000  0.22320000  1.0 0.1305717966
H  H37  1  0.02440000  0.14860000  0.62060000  1.0 0.1305717966
H  H38  1  0.97560000  0.64860000  0.87940000  1.0 0.1305717966
H  H39  1  0.97560000  0.85140000  0.37940000  1.0 0.1305717966
H  H40  1  0.02440000  0.35140000  0.12060000  1.0 0.1305717966
H  H41  1  0.08520000  0.10020000  0.59410000  1.0 0.1305717966
H  H42  1  0.91480000  0.60020000  0.90590000  1.0 0.1305717966
H  H43  1  0.91480000  0.89980000  0.40590000  1.0 0.1305717966
H  H44  1  0.08520000  0.39980000  0.09410000  1.0 0.1305717966
H  H45  1  0.07390000  0.88290000  0.61890000  1.0 0.1218980403
H  H46  1  0.92610000  0.38290000  0.88110000  1.0 0.1218980403
H  H47  1  0.92610000  0.11710000  0.38110000  1.0 0.1218980403
H  H48  1  0.07390000  0.61710000  0.11890000  1.0 0.1218980403
H  H49  1  0.00820000  0.83580000  0.64770000  1.0 0.1305717966
H  H50  1  0.99180000  0.33580000  0.85230000  1.0 0.1305717966
H  H51  1  0.99180000  0.16420000  0.35230000  1.0 0.1305717966
H  H52  1  0.00820000  0.66420000  0.14770000  1.0 0.1305717966
H  H53  1  0.21730000  0.80230000  0.73410000  1.0 0.1305717966
H  H54  1  0.78270000  0.30230000  0.76590000  1.0 0.1305717966
H  H55  1  0.78270000  0.19770000  0.26590000  1.0 0.1305717966
H  H56  1  0.21730000  0.69770000  0.23410000  1.0 0.1305717966
H  H57  1  0.28490000  0.84800000  0.69900000  1.0 0.1218980403
H  H58  1  0.71510000  0.34800000  0.80100000  1.0 0.1218980403
H  H59  1  0.71510000  0.15200000  0.30100000  1.0 0.1218980403
H  H60  1  0.28490000  0.65200000  0.19900000  1.0 0.1218980403
H  H61  1  0.93050000  0.05190000  0.33140000  1.0 0.1218980403
H  H62  1  0.06950000  0.55190000  0.16860000  1.0 0.1218980403
H  H63  1  0.06950000  0.94810000  0.66860000  1.0 0.1218980403
H  H64  1  0.93050000  0.44810000  0.83140000  1.0 0.1218980403
H  H65  1  0.90720000  0.05220000  0.24010000  1.0 0.1305717966
H  H66  1  0.09280000  0.55220000  0.25990000  1.0 0.1305717966
H  H67  1  0.09280000  0.94780000  0.75990000  1.0 0.1305717966
H  H68  1  0.90720000  0.44780000  0.74010000  1.0 0.1305717966
H  H69  1  0.90680000  0.94890000  0.23880000  1.0 0.1218980403
H  H70  1  0.09320000  0.44890000  0.26120000  1.0 0.1218980403
H  H71  1  0.09320000  0.05110000  0.76120000  1.0 0.1218980403
H  H72  1  0.90680000  0.55110000  0.73880000  1.0 0.1218980403
H  H73  1  0.93240000  0.94840000  0.33140000  1.0 0.1218980403
H  H74  1  0.06760000  0.44840000  0.16860000  1.0 0.1218980403
H  H75  1  0.06760000  0.05160000  0.66860000  1.0 0.1218980403
H  H76  1  0.93240000  0.55160000  0.83140000  1.0 0.1218980403
H  H77  1  0.89870000  0.94570000  0.06520000  1.0 0.1305717966
H  H78  1  0.10130000  0.44570000  0.43480000  1.0 0.1305717966
H  H79  1  0.10130000  0.05430000  0.93480000  1.0 0.1305717966
H  H80  1  0.89870000  0.55430000  0.56520000  1.0 0.1305717966
H  H81  1  0.89540000  0.99330000  0.92620000  1.0 0.1390777164
H  H82  1  0.10460000  0.49330000  0.57380000  1.0 0.1390777164
H  H83  1  0.10460000  0.00670000  0.07380000  1.0 0.1390777164
H  H84  1  0.89540000  0.50670000  0.42620000  1.0 0.1390777164
H  H85  1  0.89770000  0.04980000  0.05760000  1.0 0.1390777164
H  H86  1  0.10230000  0.54980000  0.44240000  1.0 0.1390777164
H  H87  1  0.10230000  0.95020000  0.94240000  1.0 0.1390777164
H  H88  1  0.89770000  0.45020000  0.55760000  1.0 0.1390777164
H  H89  1  0.01780000  0.85870000  0.96160000  1.0 0.11226881
H  H90  1  0.98220000  0.35870000  0.53840000  1.0 0.11226881
H  H91  1  0.98220000  0.14130000  0.03840000  1.0 0.11226881
H  H92  1  0.01780000  0.64130000  0.46160000  1.0 0.11226881
H  H93  1  0.04110000  0.81120000  0.91170000  1.0 0.1305717966
H  H94  1  0.95890000  0.31120000  0.58830000  1.0 0.1305717966
H  H95  1  0.95890000  0.18880000  0.08830000  1.0 0.1305717966
H  H96  1  0.04110000  0.68880000  0.41170000  1.0 0.1305717966
H  H97  1  0.83730000  0.83010000  0.80840000  1.0 0.1305717966
H  H98  1  0.16270000  0.33010000  0.69160000  1.0 0.1305717966
H  H99  1  0.16270000  0.16990000  0.19160000  1.0 0.1305717966
H  H100  1  0.83730000  0.66990000  0.30840000  1.0 0.1305717966
H  H101  1  0.81860000  0.88030000  0.85590000  1.0 0.1218980403
H  H102  1  0.18140000  0.38030000  0.64410000  1.0 0.1218980403
H  H103  1  0.18140000  0.11970000  0.14410000  1.0 0.1218980403
H  H104  1  0.81860000  0.61970000  0.35590000  1.0 0.1218980403
H  H105  1  0.02520000  0.12630000  0.94640000  1.0 0.11226881
H  H106  1  0.97480000  0.62630000  0.55360000  1.0 0.11226881
H  H107  1  0.97480000  0.87370000  0.05360000  1.0 0.11226881
H  H108  1  0.02520000  0.37370000  0.44640000  1.0 0.11226881
H  H109  1  0.04890000  0.17300000  0.89330000  1.0 0.1305717966
H  H110  1  0.95110000  0.67300000  0.60670000  1.0 0.1305717966
H  H111  1  0.95110000  0.82700000  0.10670000  1.0 0.1305717966
H  H112  1  0.04890000  0.32700000  0.39330000  1.0 0.1305717966
H  H113  1  0.84980000  0.15250000  0.78940000  1.0 0.1305717966
H  H114  1  0.15020000  0.65250000  0.71060000  1.0 0.1305717966
H  H115  1  0.15020000  0.84750000  0.21060000  1.0 0.1305717966
H  H116  1  0.84980000  0.34750000  0.28940000  1.0 0.1305717966
H  H117  1  0.82140000  0.10550000  0.84280000  1.0 0.1218980403
H  H118  1  0.17860000  0.60550000  0.65720000  1.0 0.1218980403
H  H119  1  0.17860000  0.89450000  0.15720000  1.0 0.1218980403
H  H120  1  0.82140000  0.39450000  0.34280000  1.0 0.1218980403
C  C1  1  0.85860000  0.99336000  0.51248000  1.0 0.5634848474
C  C2  1  0.14140000  0.49336000  0.98752000  1.0 0.5634848474
C  C3  1  0.14140000  0.00664000  0.48752000  1.0 0.5634848474
C  C4  1  0.85860000  0.50664000  0.01248000  1.0 0.5634848474
C  C5  1  0.77610000  0.99033000  0.52471000  1.0 -0.0205348117
C  C6  1  0.22390000  0.49033000  0.97529000  1.0 -0.0205348117
C  C7  1  0.22390000  0.00967000  0.47529000  1.0 -0.0205348117
C  C8  1  0.77610000  0.50967000  0.02471000  1.0 -0.0205348117
C  C9  1  0.74370000  0.95844000  0.53010000  1.0 -0.0991631762
C  C10  1  0.25630000  0.45844000  0.96990000  1.0 -0.0991631762
C  C11  1  0.25630000  0.04156000  0.46990000  1.0 -0.0991631762
C  C12  1  0.74370000  0.54156000  0.03010000  1.0 -0.0991631762
C  C13  1  0.66750000  0.95626000  0.54340000  1.0 -0.150603749
C  C14  1  0.33250000  0.45626000  0.95660000  1.0 -0.150603749
C  C15  1  0.33250000  0.04374000  0.45660000  1.0 -0.150603749
C  C16  1  0.66750000  0.54374000  0.04340000  1.0 -0.150603749
C  C17  1  0.62690000  0.98573000  0.55040000  1.0 0.1390777164
C  C18  1  0.37310000  0.48573000  0.94960000  1.0 0.1390777164
C  C19  1  0.37310000  0.01427000  0.44960000  1.0 0.1390777164
C  C20  1  0.62690000  0.51427000  0.05040000  1.0 0.1390777164
C  C21  1  0.65920000  0.01740000  0.54370000  1.0 -0.150603749
C  C22  1  0.34080000  0.51740000  0.95630000  1.0 -0.150603749
C  C23  1  0.34080000  0.98260000  0.45630000  1.0 -0.150603749
C  C24  1  0.65920000  0.48260000  0.04370000  1.0 -0.150603749
C  C25  1  0.73510000  0.02007000  0.53120000  1.0 -0.0909698567
C  C26  1  0.26490000  0.52007000  0.96880000  1.0 -0.0909698567
C  C27  1  0.26490000  0.97993000  0.46880000  1.0 -0.0909698567
C  C28  1  0.73510000  0.47993000  0.03120000  1.0 -0.0909698567
C  C29  1  0.54950000  0.98351000  0.56480000  1.0 -0.1193239671
C  C30  1  0.45050000  0.48351000  0.93520000  1.0 -0.1193239671
C  C31  1  0.45050000  0.01649000  0.43520000  1.0 -0.1193239671
C  C32  1  0.54950000  0.51649000  0.06480000  1.0 -0.1193239671
C  C33  1  0.48330000  0.98371000  0.57760000  1.0 -0.0991631762
C  C34  1  0.51670000  0.48371000  0.92240000  1.0 -0.0991631762
C  C35  1  0.51670000  0.01629000  0.42240000  1.0 -0.0991631762
C  C36  1  0.48330000  0.51629000  0.07760000  1.0 -0.0991631762
C  C37  1  0.40880000  0.98489000  0.59152000  1.0 0.1305717966
C  C38  1  0.59120000  0.48489000  0.90848000  1.0 0.1305717966
C  C39  1  0.59120000  0.01511000  0.40848000  1.0 0.1305717966
C  C40  1  0.40880000  0.51511000  0.09152000  1.0 0.1305717966
C  C41  1  0.37330000  0.01626000  0.59656000  1.0 -0.1729106439
C  C42  1  0.62670000  0.51626000  0.90344000  1.0 -0.1729106439
C  C43  1  0.62670000  0.98374000  0.40344000  1.0 -0.1729106439
C  C44  1  0.37330000  0.48374000  0.09656000  1.0 -0.1729106439
C  C45  1  0.29830000  0.01750000  0.61181000  1.0 0.1390777164
C  C46  1  0.70170000  0.51750000  0.88819000  1.0 0.1390777164
C  C47  1  0.70170000  0.98250000  0.38819000  1.0 0.1390777164
C  C48  1  0.29830000  0.48250000  0.11181000  1.0 0.1390777164
C  C49  1  0.25990000  0.98726000  0.62030000  1.0 -0.1808187814
C  C50  1  0.74010000  0.48726000  0.87970000  1.0 -0.1808187814
C  C51  1  0.74010000  0.01274000  0.37970000  1.0 -0.1808187814
C  C52  1  0.25990000  0.51274000  0.12030000  1.0 -0.1808187814
C  C53  1  0.29630000  0.95598000  0.61640000  1.0 0.1390777164
C  C54  1  0.70370000  0.45598000  0.88360000  1.0 0.1390777164
C  C55  1  0.70370000  0.04402000  0.38360000  1.0 0.1390777164
C  C56  1  0.29630000  0.54402000  0.11640000  1.0 0.1390777164
C  C57  1  0.37120000  0.95465000  0.60183000  1.0 -0.1808187814
C  C58  1  0.62880000  0.45465000  0.89817000  1.0 -0.1808187814
C  C59  1  0.62880000  0.04535000  0.39817000  1.0 -0.1808187814
C  C60  1  0.37120000  0.54535000  0.10183000  1.0 -0.1808187814
C  C61  1  0.26090000  0.05065000  0.61810000  1.0 -0.0830753431
C  C62  1  0.73910000  0.55065000  0.88190000  1.0 -0.0830753431
C  C63  1  0.73910000  0.94935000  0.38190000  1.0 -0.0830753431
C  C64  1  0.26090000  0.44935000  0.11810000  1.0 -0.0830753431
C  C65  1  0.22900000  0.07664000  0.62760000  1.0 -0.1193239671
C  C66  1  0.77100000  0.57664000  0.87240000  1.0 -0.1193239671
C  C67  1  0.77100000  0.92336000  0.37240000  1.0 -0.1193239671
C  C68  1  0.22900000  0.42336000  0.12760000  1.0 -0.1193239671
C  C69  1  0.19200000  0.10714000  0.64060000  1.0 0.1218980403
C  C70  1  0.80800000  0.60714000  0.85940000  1.0 0.1218980403
C  C71  1  0.80800000  0.89286000  0.35940000  1.0 0.1218980403
C  C72  1  0.19200000  0.39286000  0.14060000  1.0 0.1218980403
C  C73  1  0.23410000  0.12922000  0.67900000  1.0 -0.1323493777
C  C74  1  0.76590000  0.62922000  0.82100000  1.0 -0.1323493777
C  C75  1  0.76590000  0.87078000  0.32100000  1.0 -0.1323493777
C  C76  1  0.23410000  0.37078000  0.17900000  1.0 -0.1323493777
C  C77  1  0.19470000  0.15721000  0.69620000  1.0 -0.0991631762
C  C78  1  0.80530000  0.65721000  0.80380000  1.0 -0.0991631762
C  C79  1  0.80530000  0.84279000  0.30380000  1.0 -0.0991631762
C  C80  1  0.19470000  0.34279000  0.19620000  1.0 -0.0991631762
C  C81  1  0.11750000  0.16436000  0.67540000  1.0 -0.0205348117
C  C82  1  0.88250000  0.66436000  0.82460000  1.0 -0.0205348117
C  C83  1  0.88250000  0.83564000  0.32460000  1.0 -0.0205348117
C  C84  1  0.11750000  0.33564000  0.17540000  1.0 -0.0205348117
C  C85  1  0.07750000  0.14354000  0.63650000  1.0 -0.0991631762
C  C86  1  0.92250000  0.64354000  0.86350000  1.0 -0.0991631762
C  C87  1  0.92250000  0.85646000  0.36350000  1.0 -0.0991631762
C  C88  1  0.07750000  0.35646000  0.13650000  1.0 -0.0991631762
C  C89  1  0.11450000  0.11479000  0.62010000  1.0 -0.150603749
C  C90  1  0.88550000  0.61479000  0.87990000  1.0 -0.150603749
C  C91  1  0.88550000  0.88521000  0.37990000  1.0 -0.1426222798
C  C92  1  0.11450000  0.38521000  0.12010000  1.0 -0.150603749
C  C93  1  0.07680000  0.19485000  0.69720000  1.0 0.5778688861
C  C94  1  0.92320000  0.69485000  0.80280000  1.0 0.5778688861
C  C95  1  0.92320000  0.80515000  0.30280000  1.0 0.5778688861
C  C96  1  0.07680000  0.30515000  0.19720000  1.0 0.5778688861
C  C97  1  0.25730000  0.92505000  0.62850000  1.0 -0.0830753431
C  C98  1  0.74270000  0.42505000  0.87150000  1.0 -0.0830753431
C  C99  1  0.74270000  0.07495000  0.37150000  1.0 -0.0830753431
C  C100  1  0.25730000  0.57495000  0.12850000  1.0 -0.0830753431
C  C101  1  0.22430000  0.90048000  0.64040000  1.0 -0.1193239671
C  C102  1  0.77570000  0.40048000  0.85960000  1.0 -0.1193239671
C  C103  1  0.77570000  0.09952000  0.35960000  1.0 -0.1193239671
C  C104  1  0.22430000  0.59952000  0.14040000  1.0 -0.1193239671
C  C105  1  0.18400000  0.87057000  0.65710000  1.0 0.1218980403
C  C106  1  0.81600000  0.37057000  0.84290000  1.0 0.1218980403
C  C107  1  0.81600000  0.12943000  0.34290000  1.0 0.1218980403
C  C108  1  0.18400000  0.62943000  0.15710000  1.0 0.1218980403
C  C109  1  0.10330000  0.86648000  0.64180000  1.0 -0.150603749
C  C110  1  0.89670000  0.36648000  0.85820000  1.0 -0.150603749
C  C111  1  0.89670000  0.13352000  0.35820000  1.0 -0.150603749
C  C112  1  0.10330000  0.63352000  0.14180000  1.0 -0.150603749
C  C113  1  0.06350000  0.83856000  0.65930000  1.0 -0.0909698567
C  C114  1  0.93650000  0.33856000  0.84070000  1.0 -0.0909698567
C  C115  1  0.93650000  0.16144000  0.34070000  1.0 -0.0909698567
C  C116  1  0.06350000  0.66144000  0.15930000  1.0 -0.0909698567
C  C117  1  0.10760000  0.81479000  0.69430000  1.0 -0.0205348117
C  C118  1  0.89240000  0.31479000  0.80570000  1.0 -0.0205348117
C  C119  1  0.89240000  0.18521000  0.30570000  1.0 -0.0205348117
C  C120  1  0.10760000  0.68521000  0.19430000  1.0 -0.0205348117
C  C121  1  0.18840000  0.81823000  0.71010000  1.0 -0.0909698567
C  C122  1  0.81160000  0.31823000  0.78990000  1.0 -0.0909698567
C  C123  1  0.81160000  0.18177000  0.28990000  1.0 -0.0909698567
C  C124  1  0.18840000  0.68177000  0.21010000  1.0 -0.0909698567
C  C125  1  0.22910000  0.84617000  0.69010000  1.0 -0.1426222798
C  C126  1  0.77090000  0.34617000  0.80990000  1.0 -0.1426222798
C  C127  1  0.77090000  0.15383000  0.30990000  1.0 -0.1426222798
C  C128  1  0.22910000  0.65383000  0.19010000  1.0 -0.1426222798
C  C129  1  0.06660000  0.78593000  0.71830000  1.0 0.5698187126
C  C130  1  0.93340000  0.28593000  0.78170000  1.0 0.5698187126
C  C131  1  0.93340000  0.21407000  0.28170000  1.0 0.5698187126
C  C132  1  0.06660000  0.71407000  0.21830000  1.0 0.5698187126
C  C133  1  0.95750000  0.99988000  0.40126000  1.0 0.5634848474
C  C134  1  0.04250000  0.49988000  0.09874000  1.0 0.5634848474
C  C135  1  0.04250000  0.00012000  0.59874000  1.0 0.5634848474
C  C136  1  0.95750000  0.50012000  0.90126000  1.0 0.5634848474
C  C137  1  0.93770000  0.00025000  0.34100000  1.0 -0.0131230094
C  C138  1  0.06230000  0.50025000  0.15900000  1.0 -0.0131230094
C  C139  1  0.06230000  0.99975000  0.65900000  1.0 -0.0131230094
C  C140  1  0.93770000  0.49975000  0.84100000  1.0 -0.0131230094
C  C141  1  0.92780000  0.03085000  0.31290000  1.0 -0.0991631762
C  C142  1  0.07220000  0.53085000  0.18710000  1.0 -0.0991631762
C  C143  1  0.07220000  0.96915000  0.68710000  1.0 -0.0991631762
C  C144  1  0.92780000  0.46915000  0.81290000  1.0 -0.0991631762
C  C145  1  0.91410000  0.03100000  0.25840000  1.0 -0.1323493777
C  C146  1  0.08590000  0.53100000  0.24160000  1.0 -0.1323493777
C  C147  1  0.08590000  0.96900000  0.74160000  1.0 -0.1323493777
C  C148  1  0.91410000  0.46900000  0.75840000  1.0 -0.1323493777
C  C149  1  0.91030000  0.00025000  0.22990000  1.0 0.1305717966
C  C150  1  0.08970000  0.50025000  0.27010000  1.0 0.1305717966
C  C151  1  0.08970000  0.99975000  0.77010000  1.0 0.1305717966
C  C152  1  0.91030000  0.49975000  0.72990000  1.0 0.1390777164
C  C153  1  0.91410000  0.96989000  0.25750000  1.0 -0.1426222798
C  C154  1  0.08590000  0.46989000  0.24250000  1.0 -0.1426222798
C  C155  1  0.08590000  0.03011000  0.74250000  1.0 -0.1426222798
C  C156  1  0.91410000  0.53011000  0.75750000  1.0 -0.1426222798
C  C157  1  0.92870000  0.96958000  0.31310000  1.0 -0.0991631762
C  C158  1  0.07130000  0.46958000  0.18690000  1.0 -0.0991631762
C  C159  1  0.07130000  0.03042000  0.68690000  1.0 -0.0991631762
C  C160  1  0.92870000  0.53042000  0.81310000  1.0 -0.0991631762
C  C161  1  0.90150000  0.99992000  0.17310000  1.0 -0.0991631762
C  C162  1  0.09850000  0.49992000  0.32690000  1.0 -0.0991631762
C  C163  1  0.09850000  0.00008000  0.82690000  1.0 -0.0991631762
C  C164  1  0.90150000  0.50008000  0.67310000  1.0 -0.0991631762
C  C165  1  0.89700000  0.99927000  0.12680000  1.0 -0.0830753431
C  C166  1  0.10300000  0.49927000  0.37320000  1.0 -0.0830753431
C  C167  1  0.10300000  0.00073000  0.87320000  1.0 -0.0830753431
C  C168  1  0.89700000  0.50073000  0.62680000  1.0 -0.0830753431
C  C169  1  0.89560000  0.99774000  0.06960000  1.0 0.1390777164
C  C170  1  0.10440000  0.49774000  0.43040000  1.0 0.1390777164
C  C171  1  0.10440000  0.00226000  0.93040000  1.0 0.1390777164
C  C172  1  0.89560000  0.50226000  0.56960000  1.0 0.1390777164
C  C173  1  0.89740000  0.96614000  0.04530000  1.0 -0.1898199899
C  C174  1  0.10260000  0.46614000  0.45470000  1.0 -0.1898199899
C  C175  1  0.10260000  0.03386000  0.95470000  1.0 -0.1898199899
C  C176  1  0.89740000  0.53386000  0.54530000  1.0 -0.1898199899
C  C177  1  0.89720000  0.96461000  0.99160000  1.0 0.1468639446
C  C178  1  0.10280000  0.46461000  0.50840000  1.0 0.1468639446
C  C179  1  0.10280000  0.03539000  0.00840000  1.0 0.1468639446
C  C180  1  0.89720000  0.53539000  0.49160000  1.0 0.1468639446
C  C181  1  0.89560000  0.99449000  0.96290000  1.0 -0.1729106439
C  C182  1  0.10440000  0.49449000  0.53710000  1.0 -0.1729106439
C  C183  1  0.10440000  0.00551000  0.03710000  1.0 -0.1729106439
C  C184  1  0.89560000  0.50551000  0.46290000  1.0 -0.1729106439
C  C185  1  0.89420000  0.02640000  0.98700000  1.0 0.1468639446
C  C186  1  0.10580000  0.52640000  0.51300000  1.0 0.1390777164
C  C187  1  0.10580000  0.97360000  0.01300000  1.0 0.1468639446
C  C188  1  0.89420000  0.47360000  0.48700000  1.0 0.1468639446
C  C189  1  0.89610000  0.02822000  0.04050000  1.0 -0.1898199899
C  C190  1  0.10390000  0.52822000  0.45950000  1.0 -0.1898199899
C  C191  1  0.10390000  0.97178000  0.95950000  1.0 -0.1898199899
C  C192  1  0.89610000  0.47178000  0.54050000  1.0 -0.1898199899
C  C193  1  0.89970000  0.93132000  0.96580000  1.0 -0.0830753431
C  C194  1  0.10030000  0.43132000  0.53420000  1.0 -0.0830753431
C  C195  1  0.10030000  0.06868000  0.03420000  1.0 -0.0830753431
C  C196  1  0.89970000  0.56868000  0.46580000  1.0 -0.0830753431
C  C197  1  0.90710000  0.90455000  0.94290000  1.0 -0.1193239671
C  C198  1  0.09290000  0.40455000  0.55710000  1.0 -0.1144598277
C  C199  1  0.09290000  0.09545000  0.05710000  1.0 -0.1193239671
C  C200  1  0.90710000  0.59545000  0.44290000  1.0 -0.1193239671
C  C201  1  0.91730000  0.87438000  0.91430000  1.0 0.1305717966
C  C202  1  0.08270000  0.37438000  0.58570000  1.0 0.1305717966
C  C203  1  0.08270000  0.12562000  0.08570000  1.0 0.1305717966
C  C204  1  0.91730000  0.62562000  0.41430000  1.0 0.1305717966
C  C205  1  0.98160000  0.85356000  0.92990000  1.0 -0.150603749
C  C206  1  0.01840000  0.35356000  0.57010000  1.0 -0.150603749
C  C207  1  0.01840000  0.14644000  0.07010000  1.0 -0.150603749
C  C208  1  0.98160000  0.64644000  0.42990000  1.0 -0.150603749
C  C209  1  0.99560000  0.82494000  0.90050000  1.0 -0.0830753431
C  C210  1  0.00440000  0.32494000  0.59950000  1.0 -0.0830753431
C  C211  1  0.00440000  0.17506000  0.09950000  1.0 -0.0830753431
C  C212  1  0.99560000  0.67506000  0.40050000  1.0 -0.0830753431
C  C213  1  0.94170000  0.81701000  0.85470000  1.0 -0.0285835939
C  C214  1  0.05830000  0.31701000  0.64530000  1.0 -0.0285835939
C  C215  1  0.05830000  0.18299000  0.14530000  1.0 -0.0285835939
C  C216  1  0.94170000  0.68299000  0.35470000  1.0 -0.0285835939
C  C217  1  0.87510000  0.83646000  0.83870000  1.0 -0.0909698567
C  C218  1  0.12490000  0.33646000  0.66130000  1.0 -0.0909698567
C  C219  1  0.12490000  0.16354000  0.16130000  1.0 -0.0909698567
C  C220  1  0.87510000  0.66354000  0.33870000  1.0 -0.0909698567
C  C221  1  0.86310000  0.86609000  0.86780000  1.0 -0.1323493777
C  C222  1  0.13690000  0.36609000  0.63220000  1.0 -0.1323493777
C  C223  1  0.13690000  0.13391000  0.13220000  1.0 -0.1323493777
C  C224  1  0.86310000  0.63391000  0.36780000  1.0 -0.1323493777
C  C225  1  0.95730000  0.78784000  0.82020000  1.0 0.5778688861
C  C226  1  0.04270000  0.28784000  0.67980000  1.0 0.5778688861
C  C227  1  0.04270000  0.21216000  0.17980000  1.0 0.5778688861
C  C228  1  0.95730000  0.71216000  0.32020000  1.0 0.5778688861
C  C229  1  0.89920000  0.05796000  0.95590000  1.0 -0.0830753431
C  C230  1  0.10080000  0.55796000  0.54410000  1.0 -0.0830753431
C  C231  1  0.10080000  0.94204000  0.04410000  1.0 -0.0830753431
C  C232  1  0.89920000  0.44204000  0.45590000  1.0 -0.0830753431
C  C233  1  0.90980000  0.08247000  0.93130000  1.0 -0.1193239671
C  C234  1  0.09020000  0.58247000  0.56870000  1.0 -0.1193239671
C  C235  1  0.09020000  0.91753000  0.06870000  1.0 -0.1193239671
C  C236  1  0.90980000  0.41753000  0.43130000  1.0 -0.1193239671
C  C237  1  0.92260000  0.11154000  0.90000000  1.0 0.1305717966
C  C238  1  0.07740000  0.61154000  0.60000000  1.0 0.1305717966
C  C239  1  0.07740000  0.88846000  0.10000000  1.0 0.1305717966
C  C240  1  0.92260000  0.38846000  0.40000000  1.0 0.1305717966
C  C241  1  0.98890000  0.13129000  0.91470000  1.0 -0.150603749
C  C242  1  0.01110000  0.63129000  0.58530000  1.0 -0.150603749
C  C243  1  0.01110000  0.86871000  0.08530000  1.0 -0.150603749
C  C244  1  0.98890000  0.36871000  0.41470000  1.0 -0.150603749
C  C245  1  0.00340000  0.15915000  0.88260000  1.0 -0.0909698567
C  C246  1  0.99660000  0.65915000  0.61740000  1.0 -0.0909698567
C  C247  1  0.99660000  0.84085000  0.11740000  1.0 -0.0909698567
C  C248  1  0.00340000  0.34085000  0.38260000  1.0 -0.0909698567
C  C249  1  0.95150000  0.16608000  0.83590000  1.0 -0.0205348117
C  C250  1  0.04850000  0.66608000  0.66410000  1.0 -0.0205348117
C  C251  1  0.04850000  0.83392000  0.16410000  1.0 -0.0205348117
C  C252  1  0.95150000  0.33392000  0.33590000  1.0 -0.0205348117
C  C253  1  0.88540000  0.14710000  0.82120000  1.0 -0.0909698567
C  C254  1  0.11460000  0.64710000  0.67880000  1.0 -0.0909698567
C  C255  1  0.11460000  0.85290000  0.17880000  1.0 -0.0909698567
C  C256  1  0.88540000  0.35290000  0.32120000  1.0 -0.0909698567
C  C257  1  0.86800000  0.11878000  0.85310000  1.0 -0.1323493777
C  C258  1  0.13200000  0.61878000  0.64690000  1.0 -0.1323493777
C  C259  1  0.13200000  0.88122000  0.14690000  1.0 -0.1323493777
C  C260  1  0.86800000  0.38122000  0.35310000  1.0 -0.1323493777
C  C261  1  0.96960000  0.19498000  0.80110000  1.0 0.5778688861
C  C262  1  0.03040000  0.69498000  0.69890000  1.0 0.5778688861
C  C263  1  0.03040000  0.80502000  0.19890000  1.0 0.5778688861
C  C264  1  0.96960000  0.30502000  0.30110000  1.0 0.5778688861
O  O1  1  0.88496000  0.02344000  0.50912000  1.0 -0.5113658683
O  O2  1  0.11504000  0.52344000  0.99088000  1.0 -0.5113658683
O  O3  1  0.11504000  0.97656000  0.49088000  1.0 -0.5113658683
O  O4  1  0.88496000  0.47656000  0.00912000  1.0 -0.5113658683
O  O5  1  0.11570000  0.21097000  0.73568000  1.0 -0.4997080283
O  O6  1  0.88430000  0.71097000  0.76432000  1.0 -0.4997080283
O  O7  1  0.88430000  0.78903000  0.26432000  1.0 -0.4997080283
O  O8  1  0.11570000  0.28903000  0.23568000  1.0 -0.4997080283
O  O9  1  0.00500000  0.20008000  0.67579000  1.0 -0.5113658683
O  O10  1  0.99500000  0.70008000  0.82421000  1.0 -0.5113658683
O  O11  1  0.99500000  0.79992000  0.32421000  1.0 -0.5113658683
O  O12  1  0.00500000  0.29992000  0.17579000  1.0 -0.5113658683
O  O13  1  0.10530000  0.76900000  0.75577000  1.0 -0.4997080283
O  O14  1  0.89470000  0.26900000  0.74423000  1.0 -0.4997080283
O  O15  1  0.89470000  0.23100000  0.24423000  1.0 -0.4997080283
O  O16  1  0.10530000  0.73100000  0.25577000  1.0 -0.4997080283
O  O17  1  0.99120000  0.78249000  0.69757000  1.0 -0.539418258
O  O18  1  0.00880000  0.28249000  0.80243000  1.0 -0.539418258
O  O19  1  0.00880000  0.21751000  0.30243000  1.0 -0.539418258
O  O20  1  0.99120000  0.71751000  0.19757000  1.0 -0.539418258
O  O21  1  0.96130000  0.02870000  0.42370000  1.0 -0.4997080283
O  O22  1  0.03870000  0.52870000  0.07630000  1.0 -0.4997080283
O  O23  1  0.03870000  0.97130000  0.57630000  1.0 -0.4997080283
O  O24  1  0.96130000  0.47130000  0.92370000  1.0 -0.4997080283
O  O25  1  0.02100000  0.77115000  0.83571000  1.0 -0.5191983433
O  O26  1  0.97900000  0.27115000  0.66429000  1.0 -0.5191983433
O  O27  1  0.97900000  0.22885000  0.16429000  1.0 -0.5191983433
O  O28  1  0.02100000  0.72885000  0.33571000  1.0 -0.5191983433
O  O29  1  0.90830000  0.78166000  0.77793000  1.0 -0.5113658683
O  O30  1  0.09170000  0.28166000  0.72207000  1.0 -0.5113658683
O  O31  1  0.09170000  0.21834000  0.22207000  1.0 -0.5113658683
O  O32  1  0.90830000  0.71834000  0.27793000  1.0 -0.5113658683
O  O33  1  0.92210000  0.19917000  0.75672000  1.0 -0.5191983433
O  O34  1  0.07790000  0.69917000  0.74328000  1.0 -0.5191983433
O  O35  1  0.07790000  0.80083000  0.24328000  1.0 -0.5191983433
O  O36  1  0.92210000  0.30083000  0.25672000  1.0 -0.5191983433
O  O37  1  0.03260000  0.21183000  0.81639000  1.0 -0.5113658683
O  O38  1  0.96740000  0.71183000  0.68361000  1.0 -0.5113658683
O  O39  1  0.96740000  0.78817000  0.18361000  1.0 -0.5113658683
O  O40  1  0.03260000  0.28817000  0.31639000  1.0 -0.5113658683
O  O41  1  0.89493000  0.96582000  0.50866000  1.0 -0.4997080283
O  O42  1  0.10507000  0.46582000  0.99134000  1.0 -0.4997080283
O  O43  1  0.10507000  0.03418000  0.49134000  1.0 -0.4997080283
O  O44  1  0.89493000  0.53418000  0.00866000  1.0 -0.4997080283
O  O45  1  0.97043000  0.97085000  0.42330000  1.0 -0.4997080283
O  O46  1  0.02957000  0.47085000  0.07670000  1.0 -0.4997080283
O  O47  1  0.02957000  0.02915000  0.57670000  1.0 -0.4997080283
O  O48  1  0.97043000  0.52915000  0.92330000  1.0 -0.4997080283
