# DDEC6 charges by PACMAN v1.1 (https://github.com/mtap-research/PACMAN-charge/)
data_FAGREM_ASR_pacman
_symmetry_space_group_name_H-M   'P 1'
_cell_length_a   10.91800000
_cell_length_b   17.12530000
_cell_length_c   17.20920000
_cell_angle_alpha   90.00000000
_cell_angle_beta   90.00000000
_cell_angle_gamma   90.00000000
_symmetry_Int_Tables_number   1
_chemical_formula_structural   Zn2H4C9O8
_chemical_formula_sum   'Zn16 H32 C72 O64'
_cell_volume   3217.67339791
_cell_formula_units_Z   8
loop_
 _symmetry_equiv_pos_site_id
 _symmetry_equiv_pos_as_xyz
  1  'x, y, z'
loop_
 _atom_site_type_symbol
 _atom_site_label
 _atom_site_symmetry_multiplicity
 _atom_site_fract_x
 _atom_site_fract_y
 _atom_site_fract_z
 _atom_site_occupancy
 _atom_site_charge
Zn  Zn1  1  0.82362000  0.78366000  0.50402000  1.0 0.9940563837
Zn  Zn2  1  0.67638000  0.21634000  0.00402000  1.0 0.9940563837
Zn  Zn3  1  0.32362000  0.71634000  0.49598000  1.0 0.9940563837
Zn  Zn4  1  0.17638000  0.28366000  0.99598000  1.0 0.9940563837
Zn  Zn5  1  0.44471000  0.35215000  0.06669000  1.0 0.9667491415
Zn  Zn6  1  0.05529000  0.64785000  0.56669000  1.0 0.9667491415
Zn  Zn7  1  0.94471000  0.14785000  0.93331000  1.0 0.9667491415
Zn  Zn8  1  0.55529000  0.85215000  0.43331000  1.0 0.9667491415
Zn  Zn9  1  0.33478000  0.40164000  0.88969000  1.0 0.9782061526
Zn  Zn10  1  0.16522000  0.59836000  0.38969000  1.0 0.9782061526
Zn  Zn11  1  0.83478000  0.09836000  0.11031000  1.0 0.9782061526
Zn  Zn12  1  0.66522000  0.90164000  0.61031000  1.0 0.9782061526
Zn  Zn13  1  0.71374000  0.39585000  0.99027000  1.0 0.9940563837
Zn  Zn14  1  0.78626000  0.60415000  0.49027000  1.0 0.9940563837
Zn  Zn15  1  0.21374000  0.10415000  0.00973000  1.0 0.9940563837
Zn  Zn16  1  0.28626000  0.89585000  0.50973000  1.0 0.9940563837
H  H1  1  0.96600000  0.68060000  0.44170000  1.0 0.363427023
H  H2  1  0.53400000  0.31940000  0.94170000  1.0 0.363427023
H  H3  1  0.46600000  0.81940000  0.55830000  1.0 0.363427023
H  H4  1  0.03400000  0.18060000  0.05830000  1.0 0.363427023
H  H5  1  0.74080000  0.91890000  0.47630000  1.0 0.3153577843
H  H6  1  0.75920000  0.08110000  0.97630000  1.0 0.3149419525
H  H7  1  0.24080000  0.58110000  0.52370000  1.0 0.3149419525
H  H8  1  0.25920000  0.41890000  0.02370000  1.0 0.3153577843
H  H9  1  0.76280000  0.58390000  0.83570000  1.0 0.120100056
H  H10  1  0.73720000  0.41610000  0.33570000  1.0 0.120100056
H  H11  1  0.26280000  0.91610000  0.16430000  1.0 0.120100056
H  H12  1  0.23720000  0.08390000  0.66430000  1.0 0.120100056
H  H13  1  0.78790000  0.67790000  0.74070000  1.0 0.1346815625
H  H14  1  0.71210000  0.32210000  0.24070000  1.0 0.1346815625
H  H15  1  0.28790000  0.82210000  0.25930000  1.0 0.1346815625
H  H16  1  0.21210000  0.17790000  0.75930000  1.0 0.1346815625
H  H17  1  0.44090000  0.52300000  0.74410000  1.0 0.1032372215
H  H18  1  0.05910000  0.47700000  0.24410000  1.0 0.1032372215
H  H19  1  0.94090000  0.97700000  0.25590000  1.0 0.1032372215
H  H20  1  0.55910000  0.02300000  0.75590000  1.0 0.1032372215
H  H21  1  0.78420000  0.56640000  0.16710000  1.0 0.1111349562
H  H22  1  0.71580000  0.43360000  0.66710000  1.0 0.1111349562
H  H23  1  0.28420000  0.93360000  0.83290000  1.0 0.1111349562
H  H24  1  0.21580000  0.06640000  0.33290000  1.0 0.1111349562
H  H25  1  0.80530000  0.65710000  0.26490000  1.0 0.120100056
H  H26  1  0.69470000  0.34290000  0.76490000  1.0 0.120100056
H  H27  1  0.30530000  0.84290000  0.73510000  1.0 0.120100056
H  H28  1  0.19470000  0.15710000  0.23510000  1.0 0.120100056
H  H29  1  0.43230000  0.53420000  0.22840000  1.0 0.120100056
H  H30  1  0.06770000  0.46580000  0.72840000  1.0 0.120100056
H  H31  1  0.93230000  0.96580000  0.77160000  1.0 0.120100056
H  H32  1  0.56770000  0.03420000  0.27160000  1.0 0.120100056
C  C1  1  0.59880000  0.54411000  0.79962000  1.0 -0.0311670631
C  C2  1  0.90120000  0.45589000  0.29962000  1.0 -0.0311670631
C  C3  1  0.09880000  0.95589000  0.20038000  1.0 -0.0311670631
C  C4  1  0.40120000  0.04411000  0.70038000  1.0 -0.0311670631
C  C5  1  0.70240000  0.59080000  0.79822000  1.0 -0.0814496032
C  C6  1  0.79760000  0.40920000  0.29822000  1.0 -0.0814496032
C  C7  1  0.20240000  0.90920000  0.20178000  1.0 -0.0814496032
C  C8  1  0.29760000  0.09080000  0.70178000  1.0 -0.0814496032
C  C9  1  0.71720000  0.64761000  0.74163000  1.0 -0.1285623189
C  C10  1  0.78280000  0.35239000  0.24163000  1.0 -0.1285623189
C  C11  1  0.21720000  0.85239000  0.25837000  1.0 -0.1285623189
C  C12  1  0.28280000  0.14761000  0.75837000  1.0 -0.1285623189
C  C13  1  0.62510000  0.65938000  0.68548000  1.0 -0.0117547153
C  C14  1  0.87490000  0.34062000  0.18548000  1.0 -0.0117547153
C  C15  1  0.12510000  0.84062000  0.31452000  1.0 -0.0117547153
C  C16  1  0.37490000  0.15938000  0.81452000  1.0 -0.0117547153
C  C17  1  0.52150000  0.61220000  0.68621000  1.0 -0.1285623189
C  C18  1  0.97850000  0.38780000  0.18621000  1.0 -0.1285623189
C  C19  1  0.02150000  0.88780000  0.31379000  1.0 -0.1285623189
C  C20  1  0.47850000  0.11220000  0.81379000  1.0 -0.1285623189
C  C21  1  0.51010000  0.55474000  0.74366000  1.0 -0.1613898589
C  C22  1  0.98990000  0.44526000  0.24366000  1.0 -0.1613898589
C  C23  1  0.01010000  0.94526000  0.25634000  1.0 -0.1613898589
C  C24  1  0.48990000  0.05474000  0.75634000  1.0 -0.1613898589
C  C25  1  0.58590000  0.48055000  0.85918000  1.0 0.597658793
C  C26  1  0.91410000  0.51945000  0.35918000  1.0 0.597658793
C  C27  1  0.08590000  0.01945000  0.14082000  1.0 0.597658793
C  C28  1  0.41410000  0.98055000  0.64082000  1.0 0.597658793
C  C29  1  0.65110000  0.72382000  0.62854000  1.0 0.6113164225
C  C30  1  0.84890000  0.27618000  0.12854000  1.0 0.6113164225
C  C31  1  0.15110000  0.77618000  0.37146000  1.0 0.6113164225
C  C32  1  0.34890000  0.22382000  0.87146000  1.0 0.6113164225
C  C33  1  0.42290000  0.62070000  0.62580000  1.0 0.3942336836
C  C34  1  0.07710000  0.37930000  0.12580000  1.0 0.3942336836
C  C35  1  0.92290000  0.87930000  0.37420000  1.0 0.3953822353
C  C36  1  0.57710000  0.12070000  0.87420000  1.0 0.3942336836
C  C37  1  0.60480000  0.54018000  0.18841000  1.0 -0.0350262313
C  C38  1  0.89520000  0.45982000  0.68841000  1.0 -0.0350262313
C  C39  1  0.10480000  0.95982000  0.81159000  1.0 -0.0350262313
C  C40  1  0.39520000  0.04018000  0.31159000  1.0 -0.0350262313
C  C41  1  0.71800000  0.57826000  0.19900000  1.0 -0.0963817513
C  C42  1  0.78200000  0.42174000  0.69900000  1.0 -0.0963817513
C  C43  1  0.21800000  0.92174000  0.80100000  1.0 -0.0963817513
C  C44  1  0.28200000  0.07826000  0.30100000  1.0 -0.0963817513
C  C45  1  0.72990000  0.63308000  0.25701000  1.0 -0.1285623189
C  C46  1  0.77010000  0.36692000  0.75701000  1.0 -0.1285623189
C  C47  1  0.22990000  0.86692000  0.74299000  1.0 -0.1285623189
C  C48  1  0.27010000  0.13308000  0.24299000  1.0 -0.1285623189
C  C49  1  0.63150000  0.65317000  0.30402000  1.0 -0.0311670631
C  C50  1  0.86850000  0.34683000  0.80402000  1.0 -0.0311670631
C  C51  1  0.13150000  0.84683000  0.69598000  1.0 -0.0311670631
C  C52  1  0.36850000  0.15317000  0.19598000  1.0 -0.0311670631
C  C53  1  0.51820000  0.61552000  0.29308000  1.0 -0.0504115596
C  C54  1  0.98180000  0.38448000  0.79308000  1.0 -0.0504115596
C  C55  1  0.01820000  0.88448000  0.70692000  1.0 -0.0504115596
C  C56  1  0.48180000  0.11552000  0.20692000  1.0 -0.0504115596
C  C57  1  0.50690000  0.55935000  0.23543000  1.0 -0.1186718619
C  C58  1  0.99310000  0.44065000  0.73543000  1.0 -0.1186718619
C  C59  1  0.00690000  0.94065000  0.76457000  1.0 -0.1186718619
C  C60  1  0.49310000  0.05935000  0.26457000  1.0 -0.1186718619
C  C61  1  0.59130000  0.47891000  0.12684000  1.0 0.5888411799
C  C62  1  0.90870000  0.52109000  0.62684000  1.0 0.5888411799
C  C63  1  0.09130000  0.02109000  0.87316000  1.0 0.5888411799
C  C64  1  0.40870000  0.97891000  0.37316000  1.0 0.5888411799
C  C65  1  0.64640000  0.71704000  0.36259000  1.0 0.597658793
C  C66  1  0.85360000  0.28296000  0.86259000  1.0 0.597658793
C  C67  1  0.14640000  0.78296000  0.63741000  1.0 0.597658793
C  C68  1  0.35360000  0.21704000  0.13741000  1.0 0.597658793
C  C69  1  0.40990000  0.63192000  0.34453000  1.0 0.5888411799
C  C70  1  0.09010000  0.36808000  0.84453000  1.0 0.5888411799
C  C71  1  0.90990000  0.86808000  0.65547000  1.0 0.5888411799
C  C72  1  0.59010000  0.13192000  0.15547000  1.0 0.5888411799
O  O1  1  0.49690000  0.43377000  0.85312000  1.0 -0.576608505
O  O2  1  0.00310000  0.56623000  0.35312000  1.0 -0.576608505
O  O3  1  0.99690000  0.06623000  0.14688000  1.0 -0.576608505
O  O4  1  0.50310000  0.93377000  0.64688000  1.0 -0.576608505
O  O5  1  0.66750000  0.47665000  0.91039000  1.0 -0.538348665
O  O6  1  0.83250000  0.52335000  0.41039000  1.0 -0.538348665
O  O7  1  0.16750000  0.02335000  0.08961000  1.0 -0.538348665
O  O8  1  0.33250000  0.97665000  0.58961000  1.0 -0.538348665
O  O9  1  0.60200000  0.78894000  0.64034000  1.0 -0.538348665
O  O10  1  0.89800000  0.21106000  0.14034000  1.0 -0.538348665
O  O11  1  0.10200000  0.71106000  0.35966000  1.0 -0.538348665
O  O12  1  0.39800000  0.28894000  0.85966000  1.0 -0.538348665
O  O13  1  0.72811000  0.70911000  0.57606000  1.0 -0.5606552761
O  O14  1  0.77189000  0.29089000  0.07606000  1.0 -0.5606552761
O  O15  1  0.22811000  0.79089000  0.42394000  1.0 -0.5606552761
O  O16  1  0.27189000  0.20911000  0.92394000  1.0 -0.5606552761
O  O17  1  0.33340000  0.57600000  0.62690000  1.0 0.1759896004
O  O18  1  0.16660000  0.42400000  0.12690000  1.0 0.1759896004
O  O19  1  0.83340000  0.92400000  0.37310000  1.0 0.1759896004
O  O20  1  0.66666667  0.07600000  0.87310000  1.0 0.1759896004
O  O21  1  0.43849000  0.67176000  0.57564000  1.0 -0.5121641359
O  O22  1  0.06151000  0.32824000  0.07564000  1.0 -0.5121641359
O  O23  1  0.93849000  0.82824000  0.42436000  1.0 -0.5121641359
O  O24  1  0.56151000  0.17176000  0.92436000  1.0 -0.5121641359
O  O25  1  0.48989000  0.44444000  0.12462000  1.0 -0.576608505
O  O26  1  0.01011000  0.55556000  0.62462000  1.0 -0.576608505
O  O27  1  0.98989000  0.05556000  0.87538000  1.0 -0.576608505
O  O28  1  0.51011000  0.94444000  0.37538000  1.0 -0.576608505
O  O29  1  0.68073000  0.46528000  0.08334000  1.0 -0.5606552761
O  O30  1  0.81927000  0.53472000  0.58334000  1.0 -0.5606552761
O  O31  1  0.18073000  0.03472000  0.91666000  1.0 -0.5606552761
O  O32  1  0.31927000  0.96528000  0.41666000  1.0 -0.5606552761
O  O33  1  0.58637000  0.77931000  0.34888000  1.0 -0.5331172398
O  O34  1  0.91363000  0.22069000  0.84888000  1.0 -0.5331172398
O  O35  1  0.08637000  0.72069000  0.65112000  1.0 -0.5331172398
O  O36  1  0.41363000  0.27931000  0.15112000  1.0 -0.5331172398
O  O37  1  0.71978000  0.70777000  0.41751000  1.0 -0.588011851
O  O38  1  0.78022000  0.29223000  0.91751000  1.0 -0.588011851
O  O39  1  0.21978000  0.79223000  0.58249000  1.0 -0.588011851
O  O40  1  0.28022000  0.20777000  0.08249000  1.0 -0.588011851
O  O41  1  0.30582000  0.61352000  0.31800000  1.0 -0.576608505
O  O42  1  0.19418000  0.38648000  0.81800000  1.0 -0.576608505
O  O43  1  0.80582000  0.88648000  0.68200000  1.0 -0.5744011602
O  O44  1  0.69418000  0.11352000  0.18200000  1.0 -0.5744011602
O  O45  1  0.42785000  0.66260000  0.40945000  1.0 -0.5606552761
O  O46  1  0.07215000  0.33740000  0.90945000  1.0 -0.5606552761
O  O47  1  0.92785000  0.83740000  0.59055000  1.0 -0.5606552761
O  O48  1  0.57215000  0.16260000  0.09055000  1.0 -0.5606552761
O  O49  1  0.92882000  0.68024000  0.49352000  1.0 -0.8711492023
O  O50  1  0.57118000  0.31976000  0.99352000  1.0 -0.8711492023
O  O51  1  0.42882000  0.81976000  0.50648000  1.0 -0.8711492023
O  O52  1  0.07118000  0.18024000  0.00648000  1.0 -0.8711492023
O  O53  1  0.69837000  0.87410000  0.49941000  1.0 -0.8828396848
O  O54  1  0.80163000  0.12590000  0.99941000  1.0 -0.8828396848
O  O55  1  0.19837000  0.62590000  0.50059000  1.0 -0.8828396848
O  O56  1  0.30163000  0.37410000  0.00059000  1.0 -0.8828396848
O  O57  1  0.19580000  0.37880000  0.15830000  1.0 -0.0504115596
O  O58  1  0.30420000  0.62120000  0.65830000  1.0 -0.0504115596
O  O59  1  0.69580000  0.12120000  0.84170000  1.0 -0.0504115596
O  O60  1  0.80420000  0.87880000  0.34170000  1.0 -0.0504115596
O  O61  1  0.14400000  0.44190000  0.10390000  1.0 0.0510860655
O  O62  1  0.35600000  0.55810000  0.60390000  1.0 0.0510860655
O  O63  1  0.64400000  0.05810000  0.89610000  1.0 0.0510860655
O  O64  1  0.85600000  0.94190000  0.39610000  1.0 0.056180554
