# DDEC6 charges by PACMAN v1.1 (https://github.com/mtap-research/PACMAN-charge/)
data_FAGXIX_ASR_pacman
_symmetry_space_group_name_H-M   'P 1'
_cell_length_a   11.04850000
_cell_length_b   11.04850000
_cell_length_c   25.80500000
_cell_angle_alpha   88.27090000
_cell_angle_beta   91.72910000
_cell_angle_gamma   129.10300000
_symmetry_Int_Tables_number   1
_chemical_formula_structural   Zn3H22(C7O2)6
_chemical_formula_sum   'Zn6 H44 C84 O24'
_cell_volume   2443.07670925
_cell_formula_units_Z   2
loop_
 _symmetry_equiv_pos_site_id
 _symmetry_equiv_pos_as_xyz
  1  'x, y, z'
loop_
 _atom_site_type_symbol
 _atom_site_label
 _atom_site_symmetry_multiplicity
 _atom_site_fract_x
 _atom_site_fract_y
 _atom_site_fract_z
 _atom_site_occupancy
 _atom_site_charge
Zn  Zn1  1  0.46331000  0.63277000  0.52725000  1.0 0.9294288124
Zn  Zn2  1  0.63277000  0.46331000  0.97275000  1.0 0.9294288124
Zn  Zn3  1  0.53669000  0.36723000  0.47275000  1.0 0.9294288124
Zn  Zn4  1  0.36723000  0.53669000  0.02725000  1.0 0.9294288124
Zn  Zn5  1  0.50000000  0.00000000  0.50000000  1.0 0.9629731739
Zn  Zn6  1  0.00000000  0.50000000  0.00000000  1.0 0.9629731739
H  H1  1  0.01500000  0.78980000  0.50920000  1.0 0.1374915505
H  H2  1  0.78980000  0.01500000  0.99080000  1.0 0.1374915505
H  H3  1  0.98500000  0.21020000  0.49080000  1.0 0.1374915505
H  H4  1  0.21020000  0.98500000  0.00920000  1.0 0.1374915505
H  H5  1  0.19430000  0.17330000  0.59030000  1.0 0.1302950943
H  H6  1  0.17330000  0.19430000  0.90970000  1.0 0.1302950943
H  H7  1  0.80570000  0.82670000  0.40970000  1.0 0.1302950943
H  H8  1  0.82670000  0.80570000  0.09030000  1.0 0.1302950943
H  H9  1  0.74070000  0.79570000  0.60270000  1.0 0.1192266776
H  H10  1  0.79570000  0.74070000  0.89730000  1.0 0.1192266776
H  H11  1  0.25930000  0.20430000  0.39730000  1.0 0.1192266776
H  H12  1  0.20430000  0.25930000  0.10270000  1.0 0.1192266776
H  H13  1  0.15620000  0.20660000  0.67640000  1.0 0.1124974648
H  H14  1  0.20660000  0.15620000  0.82360000  1.0 0.1124974648
H  H15  1  0.84380000  0.79340000  0.32360000  1.0 0.1124974648
H  H16  1  0.79340000  0.84380000  0.17640000  1.0 0.1124974648
H  H17  1  0.11250000  0.30530000  0.74330000  1.0 0.1124974648
H  H18  1  0.30530000  0.11250000  0.75670000  1.0 0.1124974648
H  H19  1  0.88750000  0.69470000  0.25670000  1.0 0.1124974648
H  H20  1  0.69470000  0.88750000  0.24330000  1.0 0.1124974648
H  H21  1  0.67310000  0.07690000  0.69220000  1.0 0.1124974648
H  H22  1  0.07690000  0.67310000  0.80780000  1.0 0.1124974648
H  H23  1  0.32690000  0.92310000  0.30780000  1.0 0.1124974648
H  H24  1  0.92310000  0.32690000  0.19220000  1.0 0.1124974648
H  H25  1  0.71750000  0.97890000  0.62570000  1.0 0.1192266776
H  H26  1  0.97890000  0.71750000  0.87430000  1.0 0.1192266776
H  H27  1  0.28250000  0.02110000  0.37430000  1.0 0.1192266776
H  H28  1  0.02110000  0.28250000  0.12570000  1.0 0.1192266776
H  H29  1  0.00300000  0.26120000  0.82120000  1.0 0.1124974648
H  H30  1  0.26120000  0.00300000  0.67880000  1.0 0.1124974648
H  H31  1  0.99700000  0.73880000  0.17880000  1.0 0.1124974648
H  H32  1  0.73880000  0.99700000  0.32120000  1.0 0.1124974648
H  H33  1  0.93770000  0.32530000  0.89310000  1.0 0.1124974648
H  H34  1  0.32530000  0.93770000  0.60690000  1.0 0.1124974648
H  H35  1  0.06230000  0.67470000  0.10690000  1.0 0.1124974648
H  H36  1  0.67470000  0.06230000  0.39310000  1.0 0.1124974648
H  H37  1  0.63890000  0.33870000  0.80980000  1.0 0.1192266776
H  H38  1  0.33870000  0.63890000  0.69020000  1.0 0.1192266776
H  H39  1  0.36110000  0.66130000  0.19020000  1.0 0.1192266776
H  H40  1  0.66130000  0.36110000  0.30980000  1.0 0.1192266776
H  H41  1  0.69320000  0.26320000  0.73840000  1.0 0.1192266776
H  H42  1  0.26320000  0.69320000  0.76160000  1.0 0.1192266776
H  H43  1  0.30680000  0.73680000  0.26160000  1.0 0.1192266776
H  H44  1  0.73680000  0.30680000  0.23840000  1.0 0.1192266776
C  C1  1  0.00150000  0.84330000  0.53227000  1.0 -0.1122141515
C  C2  1  0.84330000  0.00150000  0.96773000  1.0 -0.1122141515
C  C3  1  0.99850000  0.15670000  0.46773000  1.0 -0.1122141515
C  C4  1  0.15670000  0.99850000  0.03227000  1.0 -0.1122141515
C  C5  1  0.12650000  0.99410000  0.54599000  1.0 -0.0194612343
C  C6  1  0.99410000  0.12650000  0.95401000  1.0 -0.0194612343
C  C7  1  0.87350000  0.00590000  0.45401000  1.0 -0.0194612343
C  C8  1  0.00590000  0.87350000  0.04599000  1.0 -0.0194612343
C  C9  1  0.10920000  0.07180000  0.58148000  1.0 -0.1483203236
C  C10  1  0.07180000  0.10920000  0.91852000  1.0 -0.1483203236
C  C11  1  0.89080000  0.92820000  0.41852000  1.0 -0.1483203236
C  C12  1  0.92820000  0.89080000  0.08148000  1.0 -0.1483203236
C  C13  1  0.96370000  0.99990000  0.60475000  1.0 0.0706153021
C  C14  1  0.99990000  0.96370000  0.89525000  1.0 0.0706153021
C  C15  1  0.03630000  0.00010000  0.39525000  1.0 0.0706153021
C  C16  1  0.00010000  0.03630000  0.10475000  1.0 0.0706153021
C  C17  1  0.83860000  0.84680000  0.58845000  1.0 -0.1415335198
C  C18  1  0.84680000  0.83860000  0.91155000  1.0 -0.1415335198
C  C19  1  0.16140000  0.15320000  0.41155000  1.0 -0.1415335198
C  C20  1  0.15320000  0.16140000  0.08845000  1.0 -0.1415335198
C  C21  1  0.85720000  0.77280000  0.55281000  1.0 -0.0194612343
C  C22  1  0.77280000  0.85720000  0.94719000  1.0 -0.0194612343
C  C23  1  0.14280000  0.22720000  0.44719000  1.0 -0.0194612343
C  C24  1  0.22720000  0.14280000  0.05281000  1.0 -0.0194612343
C  C25  1  0.94130000  0.07790000  0.64400000  1.0 0.0706153021
C  C26  1  0.07790000  0.94130000  0.85600000  1.0 0.0706153021
C  C27  1  0.05870000  0.92210000  0.35600000  1.0 0.0706153021
C  C28  1  0.92210000  0.05870000  0.14400000  1.0 0.0706153021
C  C29  1  0.05790000  0.17870000  0.67970000  1.0 -0.1415335198
C  C30  1  0.17870000  0.05790000  0.82030000  1.0 -0.1415335198
C  C31  1  0.94210000  0.82130000  0.32030000  1.0 -0.1415335198
C  C32  1  0.82130000  0.94210000  0.17970000  1.0 -0.1415335198
C  C33  1  0.03180000  0.23880000  0.72000000  1.0 -0.1483203236
C  C34  1  0.23880000  0.03180000  0.78000000  1.0 -0.1483203236
C  C35  1  0.96820000  0.76120000  0.28000000  1.0 -0.1483203236
C  C36  1  0.76120000  0.96820000  0.22000000  1.0 -0.1483203236
C  C37  1  0.88790000  0.20210000  0.72630000  1.0 0.0632862116
C  C38  1  0.20210000  0.88790000  0.77370000  1.0 0.0632862116
C  C39  1  0.11210000  0.79790000  0.27370000  1.0 0.0632862116
C  C40  1  0.79790000  0.11210000  0.22630000  1.0 0.0632862116
C  C41  1  0.77070000  0.10270000  0.68940000  1.0 -0.1329521423
C  C42  1  0.10270000  0.77070000  0.81060000  1.0 -0.1329521423
C  C43  1  0.22930000  0.89730000  0.31060000  1.0 -0.1329521423
C  C44  1  0.89730000  0.22930000  0.18940000  1.0 -0.1329521423
C  C45  1  0.79720000  0.04340000  0.64960000  1.0 -0.1245510203
C  C46  1  0.04340000  0.79720000  0.85040000  1.0 -0.1245510203
C  C47  1  0.20280000  0.95660000  0.35040000  1.0 -0.1245510203
C  C48  1  0.95660000  0.20280000  0.14960000  1.0 -0.1245510203
C  C49  1  0.85370000  0.25310000  0.77140000  1.0 0.0778602699
C  C50  1  0.25310000  0.85370000  0.72860000  1.0 0.0778602699
C  C51  1  0.14630000  0.74690000  0.22860000  1.0 0.0778602699
C  C52  1  0.74690000  0.14630000  0.27140000  1.0 0.0778602699
C  C53  1  0.92810000  0.27470000  0.81850000  1.0 -0.1483203236
C  C54  1  0.27470000  0.92810000  0.68150000  1.0 -0.1483203236
C  C55  1  0.07190000  0.72530000  0.18150000  1.0 -0.1483203236
C  C56  1  0.72530000  0.07190000  0.31850000  1.0 -0.1483203236
C  C57  1  0.89050000  0.31630000  0.86140000  1.0 -0.0963952278
C  C58  1  0.31630000  0.89050000  0.63860000  1.0 -0.0963952278
C  C59  1  0.10950000  0.68370000  0.13860000  1.0 -0.0963952278
C  C60  1  0.68370000  0.10950000  0.36140000  1.0 -0.0963952278
C  C61  1  0.78580000  0.34500000  0.85910000  1.0 -0.0453101208
C  C62  1  0.34500000  0.78580000  0.64090000  1.0 -0.0453101208
C  C63  1  0.21420000  0.65500000  0.14090000  1.0 -0.0448528004
C  C64  1  0.65500000  0.21420000  0.35910000  1.0 -0.0453101208
C  C65  1  0.71230000  0.32290000  0.81250000  1.0 -0.0963952278
C  C66  1  0.32290000  0.71230000  0.68750000  1.0 -0.0963952278
C  C67  1  0.28770000  0.67710000  0.18750000  1.0 -0.0963952278
C  C68  1  0.67710000  0.28770000  0.31250000  1.0 -0.0963952278
C  C69  1  0.74530000  0.27770000  0.76950000  1.0 -0.1483203236
C  C70  1  0.27770000  0.74530000  0.73050000  1.0 -0.1483203236
C  C71  1  0.25470000  0.72230000  0.23050000  1.0 -0.1483203236
C  C72  1  0.72230000  0.25470000  0.26950000  1.0 -0.1483203236
C  C73  1  0.28370000  0.07270000  0.52083000  1.0 0.5705232511
C  C74  1  0.07270000  0.28370000  0.97917000  1.0 0.5705232511
C  C75  1  0.71630000  0.92730000  0.47917000  1.0 0.5705232511
C  C76  1  0.92730000  0.71630000  0.02083000  1.0 0.5705232511
C  C77  1  0.71700000  0.61500000  0.53495000  1.0 0.5855596031
C  C78  1  0.61500000  0.71700000  0.96505000  1.0 0.5855596031
C  C79  1  0.28300000  0.38500000  0.46505000  1.0 0.5855596031
C  C80  1  0.38500000  0.28300000  0.03495000  1.0 0.5855596031
C  C81  1  0.74760000  0.38700000  0.90610000  1.0 0.5705232511
C  C82  1  0.38700000  0.74760000  0.59390000  1.0 0.5705232511
C  C83  1  0.25240000  0.61300000  0.09390000  1.0 0.5705232511
C  C84  1  0.61300000  0.25240000  0.40610000  1.0 0.5705232511
O  O1  1  0.58497000  0.56023000  0.55152000  1.0 -0.5571118926
O  O2  1  0.56023000  0.58497000  0.94848000  1.0 -0.5571118926
O  O3  1  0.41503000  0.43977000  0.44848000  1.0 -0.5571118926
O  O4  1  0.43977000  0.41503000  0.05152000  1.0 -0.5571118926
O  O5  1  0.66240000  0.42560000  0.90151000  1.0 -0.5100929077
O  O6  1  0.42560000  0.66240000  0.59849000  1.0 -0.5100929077
O  O7  1  0.33760000  0.57440000  0.09849000  1.0 -0.5100929077
O  O8  1  0.57440000  0.33760000  0.40151000  1.0 -0.5100929077
O  O9  1  0.37643000  0.21877000  0.52231000  1.0 -0.5380316858
O  O10  1  0.21877000  0.37643000  0.97769000  1.0 -0.5380316858
O  O11  1  0.62357000  0.78123000  0.47769000  1.0 -0.5380316858
O  O12  1  0.78123000  0.62357000  0.02231000  1.0 -0.5380316858
O  O13  1  0.73778000  0.54742000  0.50315000  1.0 -0.5100929077
O  O14  1  0.54742000  0.73778000  0.99685000  1.0 -0.5100929077
O  O15  1  0.26222000  0.45258000  0.49685000  1.0 -0.5100929077
O  O16  1  0.45258000  0.26222000  0.00315000  1.0 -0.5100929077
O  O17  1  0.30328000  0.99052000  0.50029000  1.0 -0.5100929077
O  O18  1  0.99052000  0.30328000  0.99971000  1.0 -0.5100929077
O  O19  1  0.69672000  0.00948000  0.49971000  1.0 -0.5100929077
O  O20  1  0.00948000  0.69672000  0.00029000  1.0 -0.5100929077
O  O21  1  0.79560000  0.38100000  0.95032000  1.0 -0.5786826049
O  O22  1  0.38100000  0.79560000  0.54968000  1.0 -0.5786826049
O  O23  1  0.20440000  0.61900000  0.04968000  1.0 -0.5786826049
O  O24  1  0.61900000  0.20440000  0.45032000  1.0 -0.5786826049
