# DDEC6 charges by PACMAN v1.1 (https://github.com/mtap-research/PACMAN-charge/)
data_FAHCEA_ASR_pacman
_symmetry_space_group_name_H-M   'P 1'
_cell_length_a   20.67300000
_cell_length_b   15.91600000
_cell_length_c   17.34900000
_cell_angle_alpha   90.00000000
_cell_angle_beta   102.26600000
_cell_angle_gamma   90.00000000
_symmetry_Int_Tables_number   1
_chemical_formula_structural   Cd5H58C96(NO2)12
_chemical_formula_sum   'Cd10 H116 C192 N24 O48'
_cell_volume   5578.05529424
_cell_formula_units_Z   2
loop_
 _symmetry_equiv_pos_site_id
 _symmetry_equiv_pos_as_xyz
  1  'x, y, z'
loop_
 _atom_site_type_symbol
 _atom_site_label
 _atom_site_symmetry_multiplicity
 _atom_site_fract_x
 _atom_site_fract_y
 _atom_site_fract_z
 _atom_site_occupancy
 _atom_site_charge
Cd  Cd1  1  0.80651000  0.17589000  0.67751000  1.0 0.8809512687
Cd  Cd2  1  0.69700000  0.19125000  0.83674000  1.0 0.8641716373
Cd  Cd3  1  0.19349000  0.17589000  0.82249000  1.0 0.8809512687
Cd  Cd4  1  0.30300000  0.19125000  0.66326000  1.0 0.8651192916
Cd  Cd5  1  0.19349000  0.82411000  0.32249000  1.0 0.8809512687
Cd  Cd6  1  0.30300000  0.80875000  0.16326000  1.0 0.8641716373
Cd  Cd7  1  0.80651000  0.82411000  0.17751000  1.0 0.8809512687
Cd  Cd8  1  0.69700000  0.80875000  0.33674000  1.0 0.8641716373
Cd  Cd9  1  0.00000000  0.03650000  0.75000000  1.0 0.981593026
Cd  Cd10  1  0.00000000  0.96350000  0.25000000  1.0 0.981593026
H  H1  1  0.84690000  0.01290000  0.78030000  1.0 0.1111475936
H  H2  1  0.85390000  0.87040000  0.77500000  1.0 0.1199314101
H  H3  1  0.73980000  0.87830000  0.55730000  1.0 0.1500365021
H  H4  1  0.73480000  0.02070000  0.56910000  1.0 0.1111475936
H  H5  1  0.87500000  0.75110000  0.75390000  1.0 0.1297546976
H  H6  1  0.88490000  0.61220000  0.75600000  1.0 0.1199314101
H  H7  1  0.74680000  0.59910000  0.56050000  1.0 0.0988832794
H  H8  1  0.86580000  0.34300000  0.78440000  1.0 0.1111475936
H  H9  1  0.87330000  0.48580000  0.77780000  1.0 0.1297546976
H  H10  1  0.76520000  0.47170000  0.55460000  1.0 0.1297546976
H  H11  1  0.76750000  0.32870000  0.56940000  1.0 0.1111475936
H  H12  1  0.76660000  0.03380000  0.93860000  1.0 0.1111475936
H  H13  1  0.77680000  0.88920000  0.93910000  1.0 0.1416022965
H  H14  1  0.64310000  0.88580000  0.73570000  1.0 0.1500365021
H  H15  1  0.63740000  0.02740000  0.73860000  1.0 0.1297546976
H  H16  1  0.67140000  0.76390000  0.72290000  1.0 0.2969369126
H  H17  1  0.77880000  0.34610000  0.92370000  1.0 0.1199314101
H  H18  1  0.78530000  0.48960000  0.92680000  1.0 0.1297546976
H  H19  1  0.64690000  0.49430000  0.72520000  1.0 0.1416022965
H  H20  1  0.64550000  0.35160000  0.73040000  1.0 0.1199314101
H  H21  1  0.76150000  0.75510000  0.94500000  1.0 0.1500365021
H  H22  1  0.76340000  0.61370000  0.94060000  1.0 0.1111475936
H  H23  1  0.67400000  0.62170000  0.71620000  1.0 0.1199314101
H  H24  1  0.42390000  0.21330000  0.45270000  1.0 0.1199314101
H  H25  1  0.88460000  0.11900000  0.02860000  1.0 0.1199314101
H  H26  1  0.54380000  0.19770000  0.66790000  1.0 0.1297546976
H  H27  1  0.62040000  0.21190000  0.47320000  1.0 0.1111475936
H  H28  1  0.95520000  0.18970000  0.83780000  1.0 0.1297546976
H  H29  1  0.07760000  0.10030000  0.02990000  1.0 0.1297546976
H  H30  1  0.15310000  0.01290000  0.71970000  1.0 0.1111475936
H  H31  1  0.14610000  0.87040000  0.72500000  1.0 0.1199314101
H  H32  1  0.26020000  0.87830000  0.94270000  1.0 0.1500365021
H  H33  1  0.26520000  0.02070000  0.93090000  1.0 0.1111475936
H  H34  1  0.12500000  0.75110000  0.74610000  1.0 0.1297546976
H  H35  1  0.11510000  0.61220000  0.74400000  1.0 0.1199314101
H  H36  1  0.25320000  0.59910000  0.93950000  1.0 0.0988832794
H  H37  1  0.13420000  0.34300000  0.71560000  1.0 0.1111475936
H  H38  1  0.12670000  0.48580000  0.72220000  1.0 0.1297546976
H  H39  1  0.23480000  0.47170000  0.94540000  1.0 0.1297546976
H  H40  1  0.23250000  0.32870000  0.93060000  1.0 0.1111475936
H  H41  1  0.23340000  0.03380000  0.56140000  1.0 0.1111475936
H  H42  1  0.22320000  0.88920000  0.56090000  1.0 0.1416022965
H  H43  1  0.35690000  0.88580000  0.76430000  1.0 0.1500365021
H  H44  1  0.36260000  0.02740000  0.76140000  1.0 0.1297546976
H  H45  1  0.32860000  0.76390000  0.77710000  1.0 0.2969369126
H  H46  1  0.22120000  0.34610000  0.57630000  1.0 0.1199314101
H  H47  1  0.21470000  0.48960000  0.57320000  1.0 0.1297546976
H  H48  1  0.35310000  0.49430000  0.77480000  1.0 0.1416022965
H  H49  1  0.35450000  0.35160000  0.76960000  1.0 0.1199314101
H  H50  1  0.23850000  0.75510000  0.55500000  1.0 0.1500365021
H  H51  1  0.23660000  0.61370000  0.55940000  1.0 0.1111475936
H  H52  1  0.32600000  0.62170000  0.78380000  1.0 0.1199314101
H  H53  1  0.57610000  0.21330000  0.04730000  1.0 0.1199314101
H  H54  1  0.11540000  0.11900000  0.47140000  1.0 0.1199314101
H  H55  1  0.45620000  0.19770000  0.83210000  1.0 0.1297546976
H  H56  1  0.37960000  0.21190000  0.02680000  1.0 0.1111475936
H  H57  1  0.04480000  0.18970000  0.66220000  1.0 0.1297546976
H  H58  1  0.92240000  0.10030000  0.47010000  1.0 0.1297546976
H  H59  1  0.15310000  0.98710000  0.21970000  1.0 0.1111475936
H  H60  1  0.14610000  0.12960000  0.22500000  1.0 0.1199314101
H  H61  1  0.26020000  0.12170000  0.44270000  1.0 0.1500365021
H  H62  1  0.26520000  0.97930000  0.43090000  1.0 0.1111475936
H  H63  1  0.12500000  0.24890000  0.24610000  1.0 0.1297546976
H  H64  1  0.11510000  0.38780000  0.24400000  1.0 0.1199314101
H  H65  1  0.25320000  0.40090000  0.43950000  1.0 0.0988832794
H  H66  1  0.13420000  0.65700000  0.21560000  1.0 0.1111475936
H  H67  1  0.12670000  0.51420000  0.22220000  1.0 0.1297546976
H  H68  1  0.23480000  0.52830000  0.44540000  1.0 0.1297546976
H  H69  1  0.23250000  0.67130000  0.43060000  1.0 0.1111475936
H  H70  1  0.23340000  0.96620000  0.06140000  1.0 0.1111475936
H  H71  1  0.22320000  0.11080000  0.06090000  1.0 0.1416022965
H  H72  1  0.35690000  0.11420000  0.26430000  1.0 0.1500365021
H  H73  1  0.36260000  0.97260000  0.26140000  1.0 0.1297546976
H  H74  1  0.32860000  0.23610000  0.27710000  1.0 0.2969369126
H  H75  1  0.22120000  0.65390000  0.07630000  1.0 0.1199314101
H  H76  1  0.21470000  0.51040000  0.07320000  1.0 0.1297546976
H  H77  1  0.35310000  0.50570000  0.27480000  1.0 0.1416022965
H  H78  1  0.35450000  0.64840000  0.26960000  1.0 0.1199314101
H  H79  1  0.23850000  0.24490000  0.05500000  1.0 0.1500365021
H  H80  1  0.23660000  0.38630000  0.05940000  1.0 0.1111475936
H  H81  1  0.32600000  0.37830000  0.28380000  1.0 0.1199314101
H  H82  1  0.57610000  0.78670000  0.54730000  1.0 0.1199314101
H  H83  1  0.11540000  0.88100000  0.97140000  1.0 0.1199314101
H  H84  1  0.45620000  0.80230000  0.33210000  1.0 0.1297546976
H  H85  1  0.37960000  0.78810000  0.52680000  1.0 0.1111475936
H  H86  1  0.04480000  0.81030000  0.16220000  1.0 0.1297546976
H  H87  1  0.92240000  0.89970000  0.97010000  1.0 0.1297546976
H  H88  1  0.84690000  0.98710000  0.28030000  1.0 0.1111475936
H  H89  1  0.85390000  0.12960000  0.27500000  1.0 0.1199314101
H  H90  1  0.73980000  0.12170000  0.05730000  1.0 0.1500365021
H  H91  1  0.73480000  0.97930000  0.06910000  1.0 0.1111475936
H  H92  1  0.87500000  0.24890000  0.25390000  1.0 0.1297546976
H  H93  1  0.88490000  0.38780000  0.25600000  1.0 0.1111475936
H  H94  1  0.74680000  0.40090000  0.06050000  1.0 0.0988832794
H  H95  1  0.86580000  0.65700000  0.28440000  1.0 0.1111475936
H  H96  1  0.87330000  0.51420000  0.27780000  1.0 0.1297546976
H  H97  1  0.76520000  0.52830000  0.05460000  1.0 0.1297546976
H  H98  1  0.76750000  0.67130000  0.06940000  1.0 0.1111475936
H  H99  1  0.76660000  0.96620000  0.43860000  1.0 0.1111475936
H  H100  1  0.77680000  0.11080000  0.43910000  1.0 0.1416022965
H  H101  1  0.64310000  0.11420000  0.23570000  1.0 0.1500365021
H  H102  1  0.63740000  0.97260000  0.23860000  1.0 0.1297546976
H  H103  1  0.67140000  0.23610000  0.22290000  1.0 0.2969369126
H  H104  1  0.77880000  0.65390000  0.42370000  1.0 0.1199314101
H  H105  1  0.78530000  0.51040000  0.42680000  1.0 0.1297546976
H  H106  1  0.64690000  0.50570000  0.22520000  1.0 0.1416022965
H  H107  1  0.64550000  0.64840000  0.23040000  1.0 0.1199314101
H  H108  1  0.76150000  0.24490000  0.44500000  1.0 0.1500365021
H  H109  1  0.76340000  0.38630000  0.44060000  1.0 0.1111475936
H  H110  1  0.67400000  0.37830000  0.21620000  1.0 0.1199314101
H  H111  1  0.42390000  0.78670000  0.95270000  1.0 0.1199314101
H  H112  1  0.88460000  0.88100000  0.52860000  1.0 0.1199314101
H  H113  1  0.54380000  0.80230000  0.16790000  1.0 0.1297546976
H  H114  1  0.62040000  0.78810000  0.97320000  1.0 0.1111475936
H  H115  1  0.95520000  0.81030000  0.33780000  1.0 0.1297546976
H  H116  1  0.07760000  0.89970000  0.52990000  1.0 0.1297546976
C  C1  1  0.82510000  0.98580000  0.73460000  1.0 0.0988832794
C  C2  1  0.83000000  0.89970000  0.73180000  1.0 -0.1816929596
C  C3  1  0.79980000  0.85720000  0.66530000  1.0 0.0988832794
C  C4  1  0.76240000  0.90460000  0.60300000  1.0 -0.1609207707
C  C5  1  0.75960000  0.99000000  0.61070000  1.0 0.0411908842
C  C6  1  0.80740000  0.76360000  0.66080000  1.0 0.1558528972
C  C7  1  0.84780000  0.72080000  0.71380000  1.0 -0.1520937903
C  C8  1  0.85410000  0.63780000  0.71600000  1.0 -0.1099663941
C  C9  1  0.81620000  0.59190000  0.66060000  1.0 0.0031747116
C  C10  1  0.77220000  0.63150000  0.60030000  1.0 -0.0316807304
C  C11  1  0.84730000  0.36930000  0.73700000  1.0 0.0988832794
C  C12  1  0.85080000  0.45580000  0.73430000  1.0 -0.2174780983
C  C13  1  0.82000000  0.49790000  0.66540000  1.0 0.1297546976
C  C14  1  0.78730000  0.44750000  0.60170000  1.0 -0.2174780983
C  C15  1  0.78900000  0.36140000  0.61150000  1.0 0.0778553022
C  C16  1  0.74220000  0.00350000  0.89650000  1.0 0.0727894512
C  C17  1  0.74810000  0.91630000  0.89810000  1.0 -0.1889382469
C  C18  1  0.70990000  0.87090000  0.83630000  1.0 0.0778553022
C  C19  1  0.66920000  0.91480000  0.77750000  1.0 -0.1520937903
C  C20  1  0.66620000  0.99990000  0.77930000  1.0 0.0988832794
C  C21  1  0.71560000  0.77590000  0.83300000  1.0 0.2000368965
C  C22  1  0.75110000  0.37670000  0.88440000  1.0 0.0864677375
C  C23  1  0.75560000  0.46320000  0.88630000  1.0 -0.2174780983
C  C24  1  0.71530000  0.51150000  0.82670000  1.0 0.1199314101
C  C25  1  0.67380000  0.46640000  0.76720000  1.0 -0.2094652484
C  C26  1  0.67310000  0.38030000  0.77130000  1.0 0.0988832794
C  C27  1  0.74310000  0.72800000  0.89790000  1.0 -0.1681679207
C  C28  1  0.74430000  0.64430000  0.89580000  1.0 -0.0874779596
C  C29  1  0.71750000  0.60440000  0.82780000  1.0 -0.0020472718
C  C30  1  0.69120000  0.64970000  0.76310000  1.0 -0.0020472718
C  C31  1  0.08200000  0.15300000  0.88760000  1.0 0.5659357441
C  C32  1  0.02480000  0.14550000  0.92700000  1.0 -0.0316807304
C  C33  1  0.66330000  0.19320000  0.62600000  1.0 0.5558554066
C  C34  1  0.59390000  0.20110000  0.57870000  1.0 -0.0371958668
C  C35  1  0.41320000  0.19930000  0.59970000  1.0 0.5404307378
C  C36  1  0.47430000  0.20350000  0.56640000  1.0 -0.0204172878
C  C37  1  0.46630000  0.21130000  0.48430000  1.0 -0.1020395475
C  C38  1  0.52100000  0.21590000  0.44970000  1.0 -0.0316807304
C  C39  1  0.83880000  0.18050000  0.88550000  1.0 0.5523667393
C  C40  1  0.90870000  0.15990000  0.92560000  1.0 -0.0144392344
C  C41  1  0.91950000  0.12550000  0.00300000  1.0 -0.1099663941
C  C42  1  0.98420000  0.10150000  0.04030000  1.0 -0.0020472718
C  C43  1  0.53810000  0.20040000  0.61330000  1.0 -0.1172441411
C  C44  1  0.58390000  0.21000000  0.49660000  1.0 -0.1172441411
C  C45  1  0.51170000  0.22370000  0.36310000  1.0 0.5523667393
C  C46  1  0.96210000  0.16830000  0.88880000  1.0 -0.1346056926
C  C47  1  0.03480000  0.11360000  0.00350000  1.0 -0.1099663941
C  C48  1  0.99170000  0.05640000  0.11860000  1.0 0.5404307378
C  C49  1  0.17490000  0.98580000  0.76540000  1.0 0.0988832794
C  C50  1  0.17000000  0.89970000  0.76820000  1.0 -0.1816929596
C  C51  1  0.20020000  0.85720000  0.83470000  1.0 0.0988832794
C  C52  1  0.23760000  0.90460000  0.89700000  1.0 -0.1609207707
C  C53  1  0.24040000  0.99000000  0.88930000  1.0 0.0411908842
C  C54  1  0.19260000  0.76360000  0.83920000  1.0 0.1558528972
C  C55  1  0.15220000  0.72080000  0.78620000  1.0 -0.1520937903
C  C56  1  0.14590000  0.63780000  0.78400000  1.0 -0.1099663941
C  C57  1  0.18380000  0.59190000  0.83940000  1.0 0.0031747116
C  C58  1  0.22780000  0.63150000  0.89970000  1.0 -0.0316807304
C  C59  1  0.15270000  0.36930000  0.76300000  1.0 0.0988832794
C  C60  1  0.14920000  0.45580000  0.76570000  1.0 -0.2174780983
C  C61  1  0.18000000  0.49790000  0.83460000  1.0 0.1297546976
C  C62  1  0.21270000  0.44750000  0.89830000  1.0 -0.2174780983
C  C63  1  0.21100000  0.36140000  0.88850000  1.0 0.0778553022
C  C64  1  0.25780000  0.00350000  0.60350000  1.0 0.0727894512
C  C65  1  0.25190000  0.91630000  0.60190000  1.0 -0.1889382469
C  C66  1  0.29010000  0.87090000  0.66370000  1.0 0.0778553022
C  C67  1  0.33080000  0.91480000  0.72250000  1.0 -0.1520937903
C  C68  1  0.33380000  0.99990000  0.72070000  1.0 0.0988832794
C  C69  1  0.28440000  0.77590000  0.66700000  1.0 0.2000368965
C  C70  1  0.24890000  0.37670000  0.61560000  1.0 0.0864677375
C  C71  1  0.24440000  0.46320000  0.61370000  1.0 -0.2174780983
C  C72  1  0.28470000  0.51150000  0.67330000  1.0 0.1199314101
C  C73  1  0.32620000  0.46640000  0.73280000  1.0 -0.2094652484
C  C74  1  0.32690000  0.38030000  0.72870000  1.0 0.0988832794
C  C75  1  0.25690000  0.72800000  0.60210000  1.0 -0.1681679207
C  C76  1  0.25570000  0.64430000  0.60420000  1.0 -0.0874779596
C  C77  1  0.28250000  0.60440000  0.67220000  1.0 -0.0020472718
C  C78  1  0.30880000  0.64970000  0.73690000  1.0 -0.0020472718
C  C79  1  0.91800000  0.15300000  0.61240000  1.0 0.5659357441
C  C80  1  0.97520000  0.14550000  0.57300000  1.0 -0.0316807304
C  C81  1  0.33670000  0.19320000  0.87400000  1.0 0.5558554066
C  C82  1  0.40610000  0.20110000  0.92130000  1.0 -0.0371958668
C  C83  1  0.58680000  0.19930000  0.90030000  1.0 0.5404307378
C  C84  1  0.52570000  0.20350000  0.93360000  1.0 -0.0204172878
C  C85  1  0.53370000  0.21130000  0.01570000  1.0 -0.1020395475
C  C86  1  0.47900000  0.21590000  0.05030000  1.0 -0.0316807304
C  C87  1  0.16120000  0.18050000  0.61450000  1.0 0.5523667393
C  C88  1  0.09130000  0.15990000  0.57440000  1.0 -0.0144392344
C  C89  1  0.08050000  0.12550000  0.49700000  1.0 -0.1099663941
C  C90  1  0.01580000  0.10150000  0.45970000  1.0 -0.0020472718
C  C91  1  0.46190000  0.20040000  0.88670000  1.0 -0.1172441411
C  C92  1  0.41610000  0.21000000  0.00340000  1.0 -0.1172441411
C  C93  1  0.48830000  0.22370000  0.13690000  1.0 0.5523667393
C  C94  1  0.03790000  0.16830000  0.61120000  1.0 -0.1382049148
C  C95  1  0.96520000  0.11360000  0.49650000  1.0 -0.1099663941
C  C96  1  0.00830000  0.05640000  0.38140000  1.0 0.5404307378
C  C97  1  0.17490000  0.01420000  0.26540000  1.0 0.0988832794
C  C98  1  0.17000000  0.10030000  0.26820000  1.0 -0.1816929596
C  C99  1  0.20020000  0.14280000  0.33470000  1.0 0.0988832794
C  C100  1  0.23760000  0.09540000  0.39700000  1.0 -0.1609207707
C  C101  1  0.24040000  0.01000000  0.38930000  1.0 0.0411908842
C  C102  1  0.19260000  0.23640000  0.33920000  1.0 0.1558528972
C  C103  1  0.15220000  0.27920000  0.28620000  1.0 -0.1520937903
C  C104  1  0.14590000  0.36220000  0.28400000  1.0 -0.1099663941
C  C105  1  0.18380000  0.40810000  0.33940000  1.0 0.0031747116
C  C106  1  0.22780000  0.36850000  0.39970000  1.0 -0.0316807304
C  C107  1  0.15270000  0.63070000  0.26300000  1.0 0.0988832794
C  C108  1  0.14920000  0.54420000  0.26570000  1.0 -0.2174780983
C  C109  1  0.18000000  0.50210000  0.33460000  1.0 0.1297546976
C  C110  1  0.21270000  0.55250000  0.39830000  1.0 -0.2174780983
C  C111  1  0.21100000  0.63860000  0.38850000  1.0 0.0778553022
C  C112  1  0.25780000  0.99650000  0.10350000  1.0 0.0727894512
C  C113  1  0.25190000  0.08370000  0.10190000  1.0 -0.1889382469
C  C114  1  0.29010000  0.12910000  0.16370000  1.0 0.0778553022
C  C115  1  0.33080000  0.08520000  0.22250000  1.0 -0.1520937903
C  C116  1  0.33380000  0.00010000  0.22070000  1.0 0.0988832794
C  C117  1  0.28440000  0.22410000  0.16700000  1.0 0.2000368965
C  C118  1  0.24890000  0.62330000  0.11560000  1.0 0.0864677375
C  C119  1  0.24440000  0.53680000  0.11370000  1.0 -0.2174780983
C  C120  1  0.28470000  0.48850000  0.17330000  1.0 0.1199314101
C  C121  1  0.32620000  0.53360000  0.23280000  1.0 -0.2094652484
C  C122  1  0.32690000  0.61970000  0.22870000  1.0 0.0988832794
C  C123  1  0.25690000  0.27200000  0.10210000  1.0 -0.1681679207
C  C124  1  0.25570000  0.35570000  0.10420000  1.0 -0.0874779596
C  C125  1  0.28250000  0.39560000  0.17220000  1.0 -0.0020472718
C  C126  1  0.30880000  0.35030000  0.23690000  1.0 -0.0020472718
C  C127  1  0.91800000  0.84700000  0.11240000  1.0 0.5659357441
C  C128  1  0.97520000  0.85450000  0.07300000  1.0 -0.0316807304
C  C129  1  0.33670000  0.80680000  0.37400000  1.0 0.5558554066
C  C130  1  0.40610000  0.79890000  0.42130000  1.0 -0.0371958668
C  C131  1  0.58680000  0.80070000  0.40030000  1.0 0.5404307378
C  C132  1  0.52570000  0.79650000  0.43360000  1.0 -0.0204172878
C  C133  1  0.53370000  0.78870000  0.51570000  1.0 -0.1020395475
C  C134  1  0.47900000  0.78410000  0.55030000  1.0 -0.0316807304
C  C135  1  0.16120000  0.81950000  0.11450000  1.0 0.5523667393
C  C136  1  0.09130000  0.84010000  0.07440000  1.0 -0.0144392344
C  C137  1  0.08050000  0.87450000  0.99700000  1.0 -0.1099663941
C  C138  1  0.01580000  0.89850000  0.95970000  1.0 -0.0020472718
C  C139  1  0.46190000  0.79960000  0.38670000  1.0 -0.1172441411
C  C140  1  0.41610000  0.79000000  0.50340000  1.0 -0.1172441411
C  C141  1  0.48830000  0.77630000  0.63690000  1.0 0.5523667393
C  C142  1  0.03790000  0.83170000  0.11120000  1.0 -0.1382049148
C  C143  1  0.96520000  0.88640000  0.99650000  1.0 -0.1099663941
C  C144  1  0.00830000  0.94360000  0.88140000  1.0 0.5404307378
C  C145  1  0.82510000  0.01420000  0.23460000  1.0 0.0988832794
C  C146  1  0.83000000  0.10030000  0.23180000  1.0 -0.1816929596
C  C147  1  0.79980000  0.14280000  0.16530000  1.0 0.0988832794
C  C148  1  0.76240000  0.09540000  0.10300000  1.0 -0.1609207707
C  C149  1  0.75960000  0.01000000  0.11070000  1.0 0.0411908842
C  C150  1  0.80740000  0.23640000  0.16080000  1.0 0.1558528972
C  C151  1  0.84780000  0.27920000  0.21380000  1.0 -0.1520937903
C  C152  1  0.85410000  0.36220000  0.21600000  1.0 -0.1099663941
C  C153  1  0.81620000  0.40810000  0.16060000  1.0 0.0031747116
C  C154  1  0.77220000  0.36850000  0.10030000  1.0 -0.0316807304
C  C155  1  0.84730000  0.63070000  0.23700000  1.0 0.0988832794
C  C156  1  0.85080000  0.54420000  0.23430000  1.0 -0.2174780983
C  C157  1  0.82000000  0.50210000  0.16540000  1.0 0.1297546976
C  C158  1  0.78730000  0.55250000  0.10170000  1.0 -0.2174780983
C  C159  1  0.78900000  0.63860000  0.11150000  1.0 0.0778553022
C  C160  1  0.74220000  0.99650000  0.39650000  1.0 0.0727894512
C  C161  1  0.74810000  0.08370000  0.39810000  1.0 -0.1889382469
C  C162  1  0.70990000  0.12910000  0.33630000  1.0 0.0778553022
C  C163  1  0.66920000  0.08520000  0.27750000  1.0 -0.1520937903
C  C164  1  0.66620000  0.00010000  0.27930000  1.0 0.0988832794
C  C165  1  0.71560000  0.22410000  0.33300000  1.0 0.2000368965
C  C166  1  0.75110000  0.62330000  0.38440000  1.0 0.0864677375
C  C167  1  0.75560000  0.53680000  0.38630000  1.0 -0.2174780983
C  C168  1  0.71530000  0.48850000  0.32670000  1.0 0.1199314101
C  C169  1  0.67380000  0.53360000  0.26720000  1.0 -0.2094652484
C  C170  1  0.67310000  0.61970000  0.27130000  1.0 0.0988832794
C  C171  1  0.74310000  0.27200000  0.39790000  1.0 -0.1681679207
C  C172  1  0.74430000  0.35570000  0.39580000  1.0 -0.0874779596
C  C173  1  0.71750000  0.39560000  0.32780000  1.0 -0.0020472718
C  C174  1  0.69120000  0.35030000  0.26310000  1.0 -0.0020472718
C  C175  1  0.08200000  0.84700000  0.38760000  1.0 0.5659357441
C  C176  1  0.02480000  0.85450000  0.42700000  1.0 -0.0316807304
C  C177  1  0.66330000  0.80680000  0.12600000  1.0 0.5558554066
C  C178  1  0.59390000  0.79890000  0.07870000  1.0 -0.0371958668
C  C179  1  0.41320000  0.80070000  0.09970000  1.0 0.5404307378
C  C180  1  0.47430000  0.79650000  0.06640000  1.0 -0.0204172878
C  C181  1  0.46630000  0.78870000  0.98430000  1.0 -0.1020395475
C  C182  1  0.52100000  0.78410000  0.94970000  1.0 -0.0316807304
C  C183  1  0.83880000  0.81950000  0.38550000  1.0 0.5523667393
C  C184  1  0.90870000  0.84010000  0.42560000  1.0 -0.0144392344
C  C185  1  0.91950000  0.87450000  0.50300000  1.0 -0.1099663941
C  C186  1  0.98420000  0.89850000  0.54030000  1.0 -0.0020472718
C  C187  1  0.53810000  0.79960000  0.11330000  1.0 -0.1172441411
C  C188  1  0.58390000  0.79000000  0.99660000  1.0 -0.1172441411
C  C189  1  0.51170000  0.77630000  0.86310000  1.0 0.5523667393
C  C190  1  0.96210000  0.83170000  0.38880000  1.0 -0.1382049148
C  C191  1  0.03480000  0.88640000  0.50350000  1.0 -0.1099663941
C  C192  1  0.99170000  0.94360000  0.61860000  1.0 0.5404307378
N  N1  1  0.79170000  0.03280000  0.67680000  1.0 -0.2453629243
N  N2  1  0.81950000  0.32140000  0.67730000  1.0 -0.2286200448
N  N3  1  0.70870000  0.33520000  0.82870000  1.0 -0.2174780983
N  N4  1  0.70300000  0.04650000  0.83740000  1.0 -0.2286200448
N  N5  1  0.76470000  0.71890000  0.59750000  1.0 -0.2666321265
N  N6  1  0.68910000  0.73590000  0.76450000  1.0 -0.1382049148
N  N7  1  0.20830000  0.03280000  0.82320000  1.0 -0.2453629243
N  N8  1  0.18050000  0.32140000  0.82270000  1.0 -0.2286200448
N  N9  1  0.29130000  0.33520000  0.67130000  1.0 -0.2174780983
N  N10  1  0.29700000  0.04650000  0.66260000  1.0 -0.2286200448
N  N11  1  0.23530000  0.71890000  0.90250000  1.0 -0.2666321265
N  N12  1  0.31090000  0.73590000  0.73550000  1.0 -0.1382049148
N  N13  1  0.20830000  0.96720000  0.32320000  1.0 -0.2453629243
N  N14  1  0.18050000  0.67860000  0.32270000  1.0 -0.2286200448
N  N15  1  0.29130000  0.66480000  0.17130000  1.0 -0.2174780983
N  N16  1  0.29700000  0.95350000  0.16260000  1.0 -0.2286200448
N  N17  1  0.23530000  0.28110000  0.40250000  1.0 -0.2666321265
N  N18  1  0.31090000  0.26410000  0.23550000  1.0 -0.1382049148
N  N19  1  0.79170000  0.96720000  0.17680000  1.0 -0.2453629243
N  N20  1  0.81950000  0.67860000  0.17730000  1.0 -0.2286200448
N  N21  1  0.70870000  0.66480000  0.32870000  1.0 -0.2174780983
N  N22  1  0.70300000  0.95350000  0.33740000  1.0 -0.2286200448
N  N23  1  0.76470000  0.28110000  0.09750000  1.0 -0.2666321265
N  N24  1  0.68910000  0.26410000  0.26450000  1.0 -0.1382049148
O  O1  1  0.79690000  0.18860000  0.92680000  1.0 -0.5177848431
O  O2  1  0.82360000  0.18590000  0.81120000  1.0 -0.589459883
O  O3  1  0.07190000  0.14430000  0.81280000  1.0 -0.5739630478
O  O4  1  0.13870000  0.16870000  0.92810000  1.0 -0.5314956549
O  O5  1  0.67230000  0.18740000  0.69960000  1.0 -0.580476241
O  O6  1  0.70830000  0.19190000  0.58940000  1.0 -0.5382828879
O  O7  1  0.35740000  0.20010000  0.55490000  1.0 -0.5382828879
O  O8  1  0.41970000  0.19600000  0.67410000  1.0 -0.5482081639
O  O9  1  0.45420000  0.22920000  0.32130000  1.0 -0.5314956549
O  O10  1  0.56280000  0.22720000  0.33430000  1.0 -0.5314956549
O  O11  1  0.04680000  0.02690000  0.14980000  1.0 -0.5314956549
O  O12  1  0.94310000  0.04710000  0.14910000  1.0 -0.5177848431
O  O13  1  0.20310000  0.18860000  0.57320000  1.0 -0.5177848431
O  O14  1  0.17640000  0.18590000  0.68880000  1.0 -0.589459883
O  O15  1  0.92810000  0.14430000  0.68720000  1.0 -0.5739630478
O  O16  1  0.86130000  0.16870000  0.57190000  1.0 -0.5314956549
O  O17  1  0.32770000  0.18740000  0.80040000  1.0 -0.580476241
O  O18  1  0.29170000  0.19190000  0.91060000  1.0 -0.5382828879
O  O19  1  0.64260000  0.20010000  0.94510000  1.0 -0.5382828879
O  O20  1  0.58030000  0.19600000  0.82590000  1.0 -0.5482081639
O  O21  1  0.54580000  0.22920000  0.17870000  1.0 -0.5314956549
O  O22  1  0.43720000  0.22720000  0.16570000  1.0 -0.5314956549
O  O23  1  0.95320000  0.02690000  0.35020000  1.0 -0.5314956549
O  O24  1  0.05690000  0.04710000  0.35090000  1.0 -0.5177848431
O  O25  1  0.20310000  0.81140000  0.07320000  1.0 -0.5177848431
O  O26  1  0.17640000  0.81410000  0.18880000  1.0 -0.589459883
O  O27  1  0.92810000  0.85570000  0.18720000  1.0 -0.5739630478
O  O28  1  0.86130000  0.83130000  0.07190000  1.0 -0.5314956549
O  O29  1  0.32770000  0.81260000  0.30040000  1.0 -0.580476241
O  O30  1  0.29170000  0.80810000  0.41060000  1.0 -0.5382828879
O  O31  1  0.64260000  0.79990000  0.44510000  1.0 -0.5382828879
O  O32  1  0.58030000  0.80400000  0.32590000  1.0 -0.5482081639
O  O33  1  0.54580000  0.77080000  0.67870000  1.0 -0.5314956549
O  O34  1  0.43720000  0.77280000  0.66570000  1.0 -0.5314956549
O  O35  1  0.95320000  0.97310000  0.85020000  1.0 -0.5314956549
O  O36  1  0.05690000  0.95290000  0.85090000  1.0 -0.5177848431
O  O37  1  0.79690000  0.81140000  0.42680000  1.0 -0.5177848431
O  O38  1  0.82360000  0.81410000  0.31120000  1.0 -0.589459883
O  O39  1  0.07190000  0.85570000  0.31280000  1.0 -0.5739630478
O  O40  1  0.13870000  0.83130000  0.42810000  1.0 -0.5314956549
O  O41  1  0.67230000  0.81260000  0.19960000  1.0 -0.580476241
O  O42  1  0.70830000  0.80810000  0.08940000  1.0 -0.5382828879
O  O43  1  0.35740000  0.79990000  0.05490000  1.0 -0.5382828879
O  O44  1  0.41970000  0.80400000  0.17410000  1.0 -0.5482081639
O  O45  1  0.45420000  0.77080000  0.82130000  1.0 -0.5314956549
O  O46  1  0.56280000  0.77280000  0.83430000  1.0 -0.5314956549
O  O47  1  0.04680000  0.97310000  0.64980000  1.0 -0.5314956549
O  O48  1  0.94310000  0.95290000  0.64910000  1.0 -0.5177848431
