# DDEC6 charges by PACMAN v1.1 (https://github.com/mtap-research/PACMAN-charge/)
data_FAHDEB_FSR_pacman
_symmetry_space_group_name_H-M   'P 1'
_cell_length_a   11.76310000
_cell_length_b   11.76310000
_cell_length_c   14.09900000
_cell_angle_alpha   81.99290000
_cell_angle_beta   98.00710000
_cell_angle_gamma   111.35700000
_symmetry_Int_Tables_number   1
_chemical_formula_structural   CdH8C14S(NO)4
_chemical_formula_sum   'Cd4 H32 C56 S4 N16 O16'
_cell_volume   1790.88816246
_cell_formula_units_Z   4
loop_
 _symmetry_equiv_pos_site_id
 _symmetry_equiv_pos_as_xyz
  1  'x, y, z'
loop_
 _atom_site_type_symbol
 _atom_site_label
 _atom_site_symmetry_multiplicity
 _atom_site_fract_x
 _atom_site_fract_y
 _atom_site_fract_z
 _atom_site_occupancy
 _atom_site_charge
Cd  Cd1  1  0.52004000  0.11890000  0.88554000  1.0 0.8440853566
Cd  Cd2  1  0.11890000  0.52004000  0.61446000  1.0 0.8440853566
Cd  Cd3  1  0.47996000  0.88110000  0.11446000  1.0 0.8440853566
Cd  Cd4  1  0.88110000  0.47996000  0.38554000  1.0 0.8451690286
H  H1  1  0.66820000  0.94880000  0.85680000  1.0 0.1156087205
H  H2  1  0.23560000  0.93800000  0.87030000  1.0 0.1101269161
H  H3  1  0.00220000  0.28860000  0.90990000  1.0 0.1417309999
H  H4  1  0.03880000  0.93180000  0.86980000  1.0 0.1287138819
H  H5  1  0.85790000  0.94070000  0.85050000  1.0 0.1287138819
H  H6  1  0.17220000  0.29480000  0.88130000  1.0 0.1417309999
H  H7  1  0.36400000  0.29100000  0.88000000  1.0 0.1101269161
H  H8  1  0.80860000  0.28620000  0.91500000  1.0 0.1101269161
H  H9  1  0.94880000  0.66820000  0.64320000  1.0 0.1156087205
H  H10  1  0.93800000  0.23560000  0.62970000  1.0 0.1101269161
H  H11  1  0.28860000  0.00220000  0.59010000  1.0 0.1417309999
H  H12  1  0.93180000  0.03880000  0.63020000  1.0 0.1287138819
H  H13  1  0.94070000  0.85790000  0.64950000  1.0 0.1287138819
H  H14  1  0.29480000  0.17220000  0.61870000  1.0 0.1417309999
H  H15  1  0.29100000  0.36400000  0.62000000  1.0 0.1101269161
H  H16  1  0.28620000  0.80860000  0.58500000  1.0 0.1101269161
H  H17  1  0.33180000  0.05120000  0.14320000  1.0 0.1156087205
H  H18  1  0.76440000  0.06200000  0.12970000  1.0 0.1101269161
H  H19  1  0.99780000  0.71140000  0.09010000  1.0 0.1417309999
H  H20  1  0.96120000  0.06820000  0.13020000  1.0 0.1287138819
H  H21  1  0.14210000  0.05930000  0.14950000  1.0 0.1287138819
H  H22  1  0.82780000  0.70520000  0.11870000  1.0 0.1417309999
H  H23  1  0.63600000  0.70900000  0.12000000  1.0 0.1101269161
H  H24  1  0.19140000  0.71380000  0.08500000  1.0 0.1101269161
H  H25  1  0.05120000  0.33180000  0.35680000  1.0 0.1156087205
H  H26  1  0.06200000  0.76440000  0.37030000  1.0 0.1101269161
H  H27  1  0.71140000  0.99780000  0.40990000  1.0 0.1417309999
H  H28  1  0.06820000  0.96120000  0.36980000  1.0 0.1287138819
H  H29  1  0.05930000  0.14210000  0.35050000  1.0 0.1287138819
H  H30  1  0.70520000  0.82780000  0.38130000  1.0 0.1417309999
H  H31  1  0.70900000  0.63600000  0.38000000  1.0 0.1101269161
H  H32  1  0.71380000  0.19140000  0.41500000  1.0 0.1101269161
C  C1  1  0.73650000  0.01870000  0.86780000  1.0 0.090527217
C  C2  1  0.72630000  0.44410000  0.19870000  1.0 0.5298603534
C  C3  1  0.59176000  0.17624000  0.11470000  1.0 0.5298603534
C  C4  1  0.62461000  0.30059000  0.05870000  1.0 0.0616970624
C  C5  1  0.95506000  0.11454000  0.87960000  1.0 0.1015733627
C  C6  1  0.22273000  0.01087000  0.87310000  1.0 0.0746359363
C  C7  1  0.08092000  0.11268000  0.87770000  1.0 0.1015733627
C  C8  1  0.68400000  0.41780000  0.09460000  1.0 0.1015733627
C  C9  1  0.93570000  0.21730000  0.89870000  1.0 -0.1770310492
C  C10  1  0.10352000  0.00628000  0.87300000  1.0 -0.2012629617
C  C11  1  0.85090000  0.01290000  0.86380000  1.0 -0.2012629617
C  C12  1  0.18240000  0.22040000  0.87960000  1.0 -0.1737095357
C  C13  1  0.29790000  0.21730000  0.87890000  1.0 0.090527217
C  C14  1  0.81820000  0.21520000  0.90160000  1.0 0.090527217
C  C15  1  0.01870000  0.73650000  0.63220000  1.0 0.090527217
C  C16  1  0.44410000  0.72630000  0.30130000  1.0 0.5298603534
C  C17  1  0.17624000  0.59176000  0.38530000  1.0 0.5298603534
C  C18  1  0.30059000  0.62461000  0.44130000  1.0 0.0616970624
C  C19  1  0.11454000  0.95506000  0.62040000  1.0 0.1015733627
C  C20  1  0.01087000  0.22273000  0.62690000  1.0 0.0746359363
C  C21  1  0.11268000  0.08092000  0.62230000  1.0 0.1015733627
C  C22  1  0.41780000  0.68400000  0.40540000  1.0 0.1015733627
C  C23  1  0.21730000  0.93570000  0.60130000  1.0 -0.1770310492
C  C24  1  0.00628000  0.10352000  0.62700000  1.0 -0.2012629617
C  C25  1  0.01290000  0.85090000  0.63620000  1.0 -0.2012629617
C  C26  1  0.22040000  0.18240000  0.62040000  1.0 -0.1737095357
C  C27  1  0.21730000  0.29790000  0.62110000  1.0 0.090527217
C  C28  1  0.21520000  0.81820000  0.59840000  1.0 0.090527217
C  C29  1  0.26350000  0.98130000  0.13220000  1.0 0.090527217
C  C30  1  0.27370000  0.55590000  0.80130000  1.0 0.5298603534
C  C31  1  0.40824000  0.82376000  0.88530000  1.0 0.5298603534
C  C32  1  0.37539000  0.69941000  0.94130000  1.0 0.0616970624
C  C33  1  0.04494000  0.88546000  0.12040000  1.0 0.1015733627
C  C34  1  0.77727000  0.98913000  0.12690000  1.0 0.0746359363
C  C35  1  0.91908000  0.88732000  0.12230000  1.0 0.1015733627
C  C36  1  0.31600000  0.58220000  0.90540000  1.0 0.1015733627
C  C37  1  0.06430000  0.78270000  0.10130000  1.0 -0.1770310492
C  C38  1  0.89648000  0.99372000  0.12700000  1.0 -0.2012629617
C  C39  1  0.14910000  0.98710000  0.13620000  1.0 -0.2012629617
C  C40  1  0.81760000  0.77960000  0.12040000  1.0 -0.1737095357
C  C41  1  0.70210000  0.78270000  0.12110000  1.0 0.090527217
C  C42  1  0.18180000  0.78480000  0.09840000  1.0 0.090527217
C  C43  1  0.98130000  0.26350000  0.36780000  1.0 0.090527217
C  C44  1  0.55590000  0.27370000  0.69870000  1.0 0.5298603534
C  C45  1  0.82376000  0.40824000  0.61470000  1.0 0.5298603534
C  C46  1  0.69941000  0.37539000  0.55870000  1.0 0.0616970624
C  C47  1  0.88546000  0.04494000  0.37960000  1.0 0.1015733627
C  C48  1  0.98913000  0.77727000  0.37310000  1.0 0.0746359363
C  C49  1  0.88732000  0.91908000  0.37770000  1.0 0.1015733627
C  C50  1  0.58220000  0.31600000  0.59460000  1.0 0.1015733627
C  C51  1  0.78270000  0.06430000  0.39870000  1.0 -0.1770310492
C  C52  1  0.99372000  0.89648000  0.37300000  1.0 -0.2012629617
C  C53  1  0.98710000  0.14910000  0.36380000  1.0 -0.2012629617
C  C54  1  0.77960000  0.81760000  0.37960000  1.0 -0.1737095357
C  C55  1  0.78270000  0.70210000  0.37890000  1.0 0.090527217
C  C56  1  0.78480000  0.18180000  0.40160000  1.0 0.090527217
S  S1  1  0.64512000  0.45394000  0.92337000  1.0 0.4618134111
S  S2  1  0.45394000  0.64512000  0.57663000  1.0 0.4618134111
S  S3  1  0.35488000  0.54606000  0.07663000  1.0 0.4618134111
S  S4  1  0.54606000  0.35488000  0.42337000  1.0 0.4618134111
N  N1  1  0.71816000  0.11764000  0.88630000  1.0 -0.2173324429
N  N2  1  0.59932000  0.30868000  0.96410000  1.0 -0.3677656144
N  N3  1  0.32066000  0.11434000  0.87690000  1.0 -0.2304068335
N  N4  1  0.69960000  0.50980000  0.02690000  1.0 -0.3677656144
N  N5  1  0.11764000  0.71816000  0.61370000  1.0 -0.2173324429
N  N6  1  0.30868000  0.59932000  0.53590000  1.0 -0.3677656144
N  N7  1  0.11434000  0.32066000  0.62310000  1.0 -0.2304068335
N  N8  1  0.50980000  0.69960000  0.47310000  1.0 -0.3677656144
N  N9  1  0.28184000  0.88236000  0.11370000  1.0 -0.2173324429
N  N10  1  0.40068000  0.69132000  0.03590000  1.0 -0.3677656144
N  N11  1  0.67934000  0.88566000  0.12310000  1.0 -0.2304068335
N  N12  1  0.30040000  0.49020000  0.97310000  1.0 -0.3677656144
N  N13  1  0.88236000  0.28184000  0.38630000  1.0 -0.2173324429
N  N14  1  0.69132000  0.40068000  0.46410000  1.0 -0.3677656144
N  N15  1  0.88566000  0.67934000  0.37690000  1.0 -0.2304068335
N  N16  1  0.49020000  0.30040000  0.52690000  1.0 -0.3677656144
O  O1  1  0.64970000  0.44310000  0.24970000  1.0 -0.5337880641
O  O2  1  0.83949000  0.47011000  0.22210000  1.0 -0.5381566078
O  O3  1  0.54236000  0.08640000  0.06395000  1.0 -0.5640861631
O  O4  1  0.61560000  0.17040000  0.20220000  1.0 -0.4928365141
O  O5  1  0.44310000  0.64970000  0.25030000  1.0 -0.5337880641
O  O6  1  0.47011000  0.83949000  0.27790000  1.0 -0.5381566078
O  O7  1  0.08640000  0.54236000  0.43605000  1.0 -0.5640861631
O  O8  1  0.17040000  0.61560000  0.29780000  1.0 -0.4928365141
O  O9  1  0.35030000  0.55690000  0.75030000  1.0 -0.5337880641
O  O10  1  0.16051000  0.52989000  0.77790000  1.0 -0.5381566078
O  O11  1  0.45764000  0.91360000  0.93605000  1.0 -0.5640861631
O  O12  1  0.38440000  0.82960000  0.79780000  1.0 -0.4928365141
O  O13  1  0.55690000  0.35030000  0.74970000  1.0 -0.5337880641
O  O14  1  0.52989000  0.16051000  0.72210000  1.0 -0.5381566078
O  O15  1  0.91360000  0.45764000  0.56395000  1.0 -0.5640861631
O  O16  1  0.82960000  0.38440000  0.70220000  1.0 -0.4928365141
