# DDEC6 charges by PACMAN v1.1 (https://github.com/mtap-research/PACMAN-charge/)
data_FAKMUD_FSR_pacman
_symmetry_space_group_name_H-M   'P 1'
_cell_length_a   39.46930000
_cell_length_b   39.46930000
_cell_length_c   16.49030000
_cell_angle_alpha   90.00000000
_cell_angle_beta   90.00000000
_cell_angle_gamma   120.00000000
_symmetry_Int_Tables_number   1
_chemical_formula_structural   Zr3H22(C22O9)2
_chemical_formula_sum   'Zr18 H132 C264 O108'
_cell_volume   22247.33715671
_cell_formula_units_Z   6
loop_
 _symmetry_equiv_pos_site_id
 _symmetry_equiv_pos_as_xyz
  1  'x, y, z'
loop_
 _atom_site_type_symbol
 _atom_site_label
 _atom_site_symmetry_multiplicity
 _atom_site_fract_x
 _atom_site_fract_y
 _atom_site_fract_z
 _atom_site_occupancy
 _atom_site_charge
Zr  Zr1  1  0.53572000  0.46428000  0.50000000  1.0 2.1823204424
Zr  Zr2  1  0.92856000  0.46428000  0.50000000  1.0 2.1823204424
Zr  Zr3  1  0.53572000  0.07144000  0.50000000  1.0 2.1823204424
Zr  Zr4  1  0.46428000  0.53572000  0.50000000  1.0 2.1823204424
Zr  Zr5  1  0.07144000  0.53572000  0.50000000  1.0 2.1823204424
Zr  Zr6  1  0.46428000  0.92856000  0.50000000  1.0 2.1823204424
Zr  Zr7  1  0.45504000  0.45504000  0.60744000  1.0 2.1879608697
Zr  Zr8  1  0.00000000  0.54495000  0.60744000  1.0 2.1879608697
Zr  Zr9  1  0.54495000  0.00000000  0.60744000  1.0 2.1879608697
Zr  Zr10  1  0.54495000  0.54495000  0.60744000  1.0 2.1879608697
Zr  Zr11  1  0.00000000  0.45504000  0.60744000  1.0 2.1879608697
Zr  Zr12  1  0.45504000  0.00000000  0.60744000  1.0 2.1879608697
Zr  Zr13  1  0.00000000  0.54495000  0.39256000  1.0 2.1879608697
Zr  Zr14  1  0.45504000  0.45504000  0.39256000  1.0 2.1879608697
Zr  Zr15  1  0.54495000  0.00000000  0.39256000  1.0 2.1879608697
Zr  Zr16  1  0.00000000  0.45504000  0.39256000  1.0 2.1879608697
Zr  Zr17  1  0.54495000  0.54495000  0.39256000  1.0 2.1879608697
Zr  Zr18  1  0.45504000  0.00000000  0.39256000  1.0 2.1879608697
H  H1  1  0.44241000  0.35230000  0.74730000  1.0 0.1397100808
H  H2  1  0.44471000  0.30530000  0.83110000  1.0 0.1313424765
H  H3  1  0.54231000  0.32280000  0.71170000  1.0 0.1313424765
H  H4  1  0.54091000  0.37050000  0.63160000  1.0 0.1397100808
H  H5  1  0.49781000  0.33200000  0.93250000  1.0 0.1313424765
H  H6  1  0.90989000  0.55759000  0.74730000  1.0 0.1397100808
H  H7  1  0.86059000  0.55529000  0.83110000  1.0 0.1313424765
H  H8  1  0.78049000  0.45769000  0.71170000  1.0 0.1313424765
H  H9  1  0.82959000  0.45909000  0.63160000  1.0 0.1397100808
H  H10  1  0.83419000  0.50219000  0.93250000  1.0 0.1313424765
H  H11  1  0.64770000  0.09011000  0.74730000  1.0 0.1397100808
H  H12  1  0.69470000  0.13941000  0.83110000  1.0 0.1313424765
H  H13  1  0.67720000  0.21951000  0.71170000  1.0 0.1313424765
H  H14  1  0.62950000  0.17041000  0.63160000  1.0 0.1397100808
H  H15  1  0.66800000  0.16581000  0.93250000  1.0 0.1313424765
H  H16  1  0.55759000  0.64770000  0.74730000  1.0 0.1397100808
H  H17  1  0.55529000  0.69470000  0.83110000  1.0 0.1313424765
H  H18  1  0.45769000  0.67720000  0.71170000  1.0 0.1313424765
H  H19  1  0.45909000  0.62950000  0.63160000  1.0 0.1397100808
H  H20  1  0.50219000  0.66800000  0.93250000  1.0 0.1313424765
H  H21  1  0.09011000  0.44241000  0.74730000  1.0 0.1397100808
H  H22  1  0.13941000  0.44471000  0.83110000  1.0 0.1313424765
H  H23  1  0.21951000  0.54231000  0.71170000  1.0 0.1313424765
H  H24  1  0.17041000  0.54091000  0.63160000  1.0 0.1397100808
H  H25  1  0.16581000  0.49781000  0.93250000  1.0 0.1313424765
H  H26  1  0.35230000  0.90989000  0.74730000  1.0 0.1397100808
H  H27  1  0.30530000  0.86059000  0.83110000  1.0 0.1313424765
H  H28  1  0.32280000  0.78049000  0.71170000  1.0 0.1313424765
H  H29  1  0.37050000  0.82959000  0.63160000  1.0 0.1397100808
H  H30  1  0.33200000  0.83419000  0.93250000  1.0 0.1313424765
H  H31  1  0.09011000  0.64770000  0.25270000  1.0 0.1397100808
H  H32  1  0.13941000  0.69470000  0.16890000  1.0 0.1313424765
H  H33  1  0.21951000  0.67720000  0.28830000  1.0 0.1313424765
H  H34  1  0.17041000  0.62950000  0.36840000  1.0 0.1397100808
H  H35  1  0.16581000  0.66800000  0.06750000  1.0 0.1313424765
H  H36  1  0.35230000  0.44241000  0.25270000  1.0 0.1397100808
H  H37  1  0.30530000  0.44471000  0.16890000  1.0 0.1313424765
H  H38  1  0.32280000  0.54231000  0.28830000  1.0 0.1313424765
H  H39  1  0.37050000  0.54091000  0.36840000  1.0 0.1397100808
H  H40  1  0.33200000  0.49781000  0.06750000  1.0 0.1313424765
H  H41  1  0.55759000  0.90989000  0.25270000  1.0 0.1397100808
H  H42  1  0.55529000  0.86059000  0.16890000  1.0 0.1313424765
H  H43  1  0.45769000  0.78049000  0.28830000  1.0 0.1313424765
H  H44  1  0.45909000  0.82959000  0.36840000  1.0 0.1397100808
H  H45  1  0.50219000  0.83419000  0.06750000  1.0 0.1313424765
H  H46  1  0.90989000  0.35230000  0.25270000  1.0 0.1397100808
H  H47  1  0.86059000  0.30530000  0.16890000  1.0 0.1313424765
H  H48  1  0.78049000  0.32280000  0.28830000  1.0 0.1313424765
H  H49  1  0.82959000  0.37050000  0.36840000  1.0 0.1397100808
H  H50  1  0.83419000  0.33200000  0.06750000  1.0 0.1313424765
H  H51  1  0.64770000  0.55759000  0.25270000  1.0 0.1397100808
H  H52  1  0.69470000  0.55529000  0.16890000  1.0 0.1313424765
H  H53  1  0.67720000  0.45769000  0.28830000  1.0 0.1313424765
H  H54  1  0.62950000  0.45909000  0.36840000  1.0 0.1397100808
H  H55  1  0.66800000  0.50219000  0.06750000  1.0 0.1313424765
H  H56  1  0.44241000  0.09011000  0.25270000  1.0 0.1397100808
H  H57  1  0.44471000  0.13941000  0.16890000  1.0 0.1313424765
H  H58  1  0.54231000  0.21951000  0.28830000  1.0 0.1313424765
H  H59  1  0.54091000  0.17041000  0.36840000  1.0 0.1397100808
H  H60  1  0.49781000  0.16581000  0.06750000  1.0 0.1313424765
H  H61  1  0.55759000  0.64770000  0.25270000  1.0 0.1397100808
H  H62  1  0.55529000  0.69470000  0.16890000  1.0 0.1313424765
H  H63  1  0.45769000  0.67720000  0.28830000  1.0 0.1313424765
H  H64  1  0.45909000  0.62950000  0.36840000  1.0 0.1397100808
H  H65  1  0.50219000  0.66800000  0.06750000  1.0 0.1313424765
H  H66  1  0.09011000  0.44241000  0.25270000  1.0 0.1397100808
H  H67  1  0.13941000  0.44471000  0.16890000  1.0 0.1313424765
H  H68  1  0.21951000  0.54231000  0.28830000  1.0 0.1313424765
H  H69  1  0.17041000  0.54091000  0.36840000  1.0 0.1397100808
H  H70  1  0.16581000  0.49781000  0.06750000  1.0 0.1313424765
H  H71  1  0.35230000  0.90989000  0.25270000  1.0 0.1397100808
H  H72  1  0.30530000  0.86059000  0.16890000  1.0 0.1313424765
H  H73  1  0.32280000  0.78049000  0.28830000  1.0 0.1313424765
H  H74  1  0.37050000  0.82959000  0.36840000  1.0 0.1397100808
H  H75  1  0.33200000  0.83419000  0.06750000  1.0 0.1313424765
H  H76  1  0.44241000  0.35230000  0.25270000  1.0 0.1397100808
H  H77  1  0.44471000  0.30530000  0.16890000  1.0 0.1313424765
H  H78  1  0.54231000  0.32280000  0.28830000  1.0 0.1313424765
H  H79  1  0.54091000  0.37050000  0.36840000  1.0 0.1397100808
H  H80  1  0.49781000  0.33200000  0.06750000  1.0 0.1313424765
H  H81  1  0.90989000  0.55759000  0.25270000  1.0 0.1397100808
H  H82  1  0.86059000  0.55529000  0.16890000  1.0 0.1313424765
H  H83  1  0.78049000  0.45769000  0.28830000  1.0 0.1313424765
H  H84  1  0.82959000  0.45909000  0.36840000  1.0 0.1397100808
H  H85  1  0.83419000  0.50219000  0.06750000  1.0 0.1313424765
H  H86  1  0.64770000  0.09011000  0.25270000  1.0 0.1397100808
H  H87  1  0.69470000  0.13941000  0.16890000  1.0 0.1313424765
H  H88  1  0.67720000  0.21951000  0.28830000  1.0 0.1313424765
H  H89  1  0.62950000  0.17041000  0.36840000  1.0 0.1397100808
H  H90  1  0.66800000  0.16581000  0.06750000  1.0 0.1313424765
H  H91  1  0.90989000  0.35230000  0.74730000  1.0 0.1397100808
H  H92  1  0.86059000  0.30530000  0.83110000  1.0 0.1313424765
H  H93  1  0.78049000  0.32280000  0.71170000  1.0 0.1313424765
H  H94  1  0.82959000  0.37050000  0.63160000  1.0 0.1397100808
H  H95  1  0.83419000  0.33200000  0.93250000  1.0 0.1313424765
H  H96  1  0.64770000  0.55759000  0.74730000  1.0 0.1397100808
H  H97  1  0.69470000  0.55529000  0.83110000  1.0 0.1313424765
H  H98  1  0.67720000  0.45769000  0.71170000  1.0 0.1313424765
H  H99  1  0.62950000  0.45909000  0.63160000  1.0 0.1397100808
H  H100  1  0.66800000  0.50219000  0.93250000  1.0 0.1313424765
H  H101  1  0.44241000  0.09011000  0.74730000  1.0 0.1397100808
H  H102  1  0.44471000  0.13941000  0.83110000  1.0 0.1313424765
H  H103  1  0.54231000  0.21951000  0.71170000  1.0 0.1313424765
H  H104  1  0.54091000  0.17041000  0.63160000  1.0 0.1397100808
H  H105  1  0.49781000  0.16581000  0.93250000  1.0 0.1313424765
H  H106  1  0.09011000  0.64770000  0.74730000  1.0 0.1397100808
H  H107  1  0.13941000  0.69470000  0.83110000  1.0 0.1313424765
H  H108  1  0.21951000  0.67720000  0.71170000  1.0 0.1313424765
H  H109  1  0.17041000  0.62950000  0.63160000  1.0 0.1397100808
H  H110  1  0.16581000  0.66800000  0.93250000  1.0 0.1313424765
H  H111  1  0.35230000  0.44241000  0.74730000  1.0 0.1397100808
H  H112  1  0.30530000  0.44471000  0.83110000  1.0 0.1313424765
H  H113  1  0.32280000  0.54231000  0.71170000  1.0 0.1313424765
H  H114  1  0.37050000  0.54091000  0.63160000  1.0 0.1397100808
H  H115  1  0.33200000  0.49781000  0.93250000  1.0 0.1313424765
H  H116  1  0.55759000  0.90989000  0.74730000  1.0 0.1397100808
H  H117  1  0.55529000  0.86059000  0.83110000  1.0 0.1313424765
H  H118  1  0.45769000  0.78049000  0.71170000  1.0 0.1313424765
H  H119  1  0.45909000  0.82959000  0.63160000  1.0 0.1397100808
H  H120  1  0.50219000  0.83419000  0.93250000  1.0 0.1313424765
H  H121  1  0.49571000  0.24785000  0.73080000  1.0 0.1313424765
H  H122  1  0.75214000  0.50429000  0.73080000  1.0 0.1313424765
H  H123  1  0.75214000  0.24785000  0.73080000  1.0 0.1313424765
H  H124  1  0.50429000  0.75214000  0.73080000  1.0 0.1313424765
H  H125  1  0.24785000  0.49571000  0.73080000  1.0 0.1313424765
H  H126  1  0.24785000  0.75214000  0.73080000  1.0 0.1313424765
H  H127  1  0.24785000  0.75214000  0.26920000  1.0 0.1313424765
H  H128  1  0.24785000  0.49571000  0.26920000  1.0 0.1313424765
H  H129  1  0.50429000  0.75214000  0.26920000  1.0 0.1313424765
H  H130  1  0.75214000  0.24785000  0.26920000  1.0 0.1313424765
H  H131  1  0.75214000  0.50429000  0.26920000  1.0 0.1313424765
H  H132  1  0.49571000  0.24785000  0.26920000  1.0 0.1313424765
C  C1  1  0.49283000  0.39954000  0.63420000  1.0 0.6283620165
C  C2  1  0.49241000  0.36729000  0.68280000  1.0 -0.0259540708
C  C3  1  0.46301000  0.34660000  0.74110000  1.0 -0.0727136411
C  C4  1  0.46391000  0.31800000  0.79020000  1.0 -0.15248092
C  C5  1  0.49311000  0.30840000  0.77880000  1.0 0.097320159
C  C6  1  0.52201000  0.32880000  0.71930000  1.0 -0.15248092
C  C7  1  0.52141000  0.35745000  0.67190000  1.0 -0.080274394
C  C8  1  0.49441000  0.27780000  0.82910000  1.0 0.0267752148
C  C9  1  0.49441000  0.27820000  0.91390000  1.0 0.04034182
C  C10  1  0.49641000  0.31030000  0.96040000  1.0 -0.1244698847
C  C11  1  0.90671000  0.50717000  0.63420000  1.0 0.6283620165
C  C12  1  0.87488000  0.50759000  0.68280000  1.0 -0.0259540708
C  C13  1  0.88359000  0.53699000  0.74110000  1.0 -0.0727136411
C  C14  1  0.85409000  0.53609000  0.79020000  1.0 -0.15248092
C  C15  1  0.81529000  0.50689000  0.77880000  1.0 0.097320159
C  C16  1  0.80679000  0.47799000  0.71930000  1.0 -0.15248092
C  C17  1  0.83604000  0.47859000  0.67190000  1.0 -0.080274394
C  C18  1  0.78339000  0.50559000  0.82910000  1.0 0.0267752148
C  C19  1  0.78379000  0.50559000  0.91390000  1.0 0.04034182
C  C20  1  0.81389000  0.50359000  0.96040000  1.0 -0.1244698847
C  C21  1  0.60046000  0.09329000  0.63420000  1.0 0.6283620165
C  C22  1  0.63271000  0.12512000  0.68280000  1.0 -0.0259540708
C  C23  1  0.65340000  0.11641000  0.74110000  1.0 -0.0727136411
C  C24  1  0.68200000  0.14591000  0.79020000  1.0 -0.15248092
C  C25  1  0.69160000  0.18471000  0.77880000  1.0 0.097320159
C  C26  1  0.67120000  0.19321000  0.71930000  1.0 -0.15248092
C  C27  1  0.64255000  0.16396000  0.67190000  1.0 -0.080274394
C  C28  1  0.72220000  0.21661000  0.82910000  1.0 0.0267752148
C  C29  1  0.72180000  0.21621000  0.91390000  1.0 0.04034182
C  C30  1  0.68970000  0.18611000  0.96040000  1.0 -0.1244698847
C  C31  1  0.50717000  0.60046000  0.63420000  1.0 0.6283620165
C  C32  1  0.50759000  0.63271000  0.68280000  1.0 -0.0259540708
C  C33  1  0.53699000  0.65340000  0.74110000  1.0 -0.0727136411
C  C34  1  0.53609000  0.68200000  0.79020000  1.0 -0.15248092
C  C35  1  0.50689000  0.69160000  0.77880000  1.0 0.097320159
C  C36  1  0.47799000  0.67120000  0.71930000  1.0 -0.15248092
C  C37  1  0.47859000  0.64255000  0.67190000  1.0 -0.080274394
C  C38  1  0.50559000  0.72220000  0.82910000  1.0 0.0267752148
C  C39  1  0.50559000  0.72180000  0.91390000  1.0 0.04034182
C  C40  1  0.50359000  0.68970000  0.96040000  1.0 -0.1244698847
C  C41  1  0.09329000  0.49283000  0.63420000  1.0 0.6283620165
C  C42  1  0.12512000  0.49241000  0.68280000  1.0 -0.0259540708
C  C43  1  0.11641000  0.46301000  0.74110000  1.0 -0.0727136411
C  C44  1  0.14591000  0.46391000  0.79020000  1.0 -0.15248092
C  C45  1  0.18471000  0.49311000  0.77880000  1.0 0.097320159
C  C46  1  0.19321000  0.52201000  0.71930000  1.0 -0.15248092
C  C47  1  0.16396000  0.52141000  0.67190000  1.0 -0.080274394
C  C48  1  0.21661000  0.49441000  0.82910000  1.0 0.0267752148
C  C49  1  0.21621000  0.49441000  0.91390000  1.0 0.04034182
C  C50  1  0.18611000  0.49641000  0.96040000  1.0 -0.1244698847
C  C51  1  0.39954000  0.90671000  0.63420000  1.0 0.6283620165
C  C52  1  0.36729000  0.87488000  0.68280000  1.0 -0.0259540708
C  C53  1  0.34660000  0.88359000  0.74110000  1.0 -0.0727136411
C  C54  1  0.31800000  0.85409000  0.79020000  1.0 -0.1550174191
C  C55  1  0.30840000  0.81529000  0.77880000  1.0 0.097320159
C  C56  1  0.32880000  0.80679000  0.71930000  1.0 -0.15248092
C  C57  1  0.35745000  0.83604000  0.67190000  1.0 -0.080274394
C  C58  1  0.27780000  0.78339000  0.82910000  1.0 0.0267752148
C  C59  1  0.27820000  0.78379000  0.91390000  1.0 0.04034182
C  C60  1  0.31030000  0.81389000  0.96040000  1.0 -0.1244698847
C  C61  1  0.09329000  0.60046000  0.36580000  1.0 0.6283620165
C  C62  1  0.12512000  0.63271000  0.31720000  1.0 -0.0259540708
C  C63  1  0.11641000  0.65340000  0.25890000  1.0 -0.0727136411
C  C64  1  0.14591000  0.68200000  0.20980000  1.0 -0.1550174191
C  C65  1  0.18471000  0.69160000  0.22120000  1.0 0.097320159
C  C66  1  0.19321000  0.67120000  0.28070000  1.0 -0.15248092
C  C67  1  0.16396000  0.64255000  0.32810000  1.0 -0.080274394
C  C68  1  0.21661000  0.72220000  0.17090000  1.0 0.0267752148
C  C69  1  0.21621000  0.72180000  0.08610000  1.0 0.04034182
C  C70  1  0.18611000  0.68970000  0.03960000  1.0 -0.1244698847
C  C71  1  0.39954000  0.49283000  0.36580000  1.0 0.6283620165
C  C72  1  0.36729000  0.49241000  0.31720000  1.0 -0.0259540708
C  C73  1  0.34660000  0.46301000  0.25890000  1.0 -0.0727136411
C  C74  1  0.31800000  0.46391000  0.20980000  1.0 -0.15248092
C  C75  1  0.30840000  0.49311000  0.22120000  1.0 0.097320159
C  C76  1  0.32880000  0.52201000  0.28070000  1.0 -0.15248092
C  C77  1  0.35745000  0.52141000  0.32810000  1.0 -0.080274394
C  C78  1  0.27780000  0.49441000  0.17090000  1.0 0.0267752148
C  C79  1  0.27820000  0.49441000  0.08610000  1.0 0.04034182
C  C80  1  0.31030000  0.49641000  0.03960000  1.0 -0.1244698847
C  C81  1  0.50717000  0.90671000  0.36580000  1.0 0.6283620165
C  C82  1  0.50759000  0.87488000  0.31720000  1.0 -0.0259540708
C  C83  1  0.53699000  0.88359000  0.25890000  1.0 -0.0727136411
C  C84  1  0.53609000  0.85409000  0.20980000  1.0 -0.1550174191
C  C85  1  0.50689000  0.81529000  0.22120000  1.0 0.097320159
C  C86  1  0.47799000  0.80679000  0.28070000  1.0 -0.15248092
C  C87  1  0.47859000  0.83604000  0.32810000  1.0 -0.080274394
C  C88  1  0.50559000  0.78339000  0.17090000  1.0 0.0267752148
C  C89  1  0.50559000  0.78379000  0.08610000  1.0 0.04034182
C  C90  1  0.50359000  0.81389000  0.03960000  1.0 -0.1244698847
C  C91  1  0.90671000  0.39954000  0.36580000  1.0 0.6283620165
C  C92  1  0.87488000  0.36729000  0.31720000  1.0 -0.0259540708
C  C93  1  0.88359000  0.34660000  0.25890000  1.0 -0.0727136411
C  C94  1  0.85409000  0.31800000  0.20980000  1.0 -0.15248092
C  C95  1  0.81529000  0.30840000  0.22120000  1.0 0.097320159
C  C96  1  0.80679000  0.32880000  0.28070000  1.0 -0.15248092
C  C97  1  0.83604000  0.35745000  0.32810000  1.0 -0.080274394
C  C98  1  0.78339000  0.27780000  0.17090000  1.0 0.0267752148
C  C99  1  0.78379000  0.27820000  0.08610000  1.0 0.04034182
C  C100  1  0.81389000  0.31030000  0.03960000  1.0 -0.1244698847
C  C101  1  0.60046000  0.50717000  0.36580000  1.0 0.6283620165
C  C102  1  0.63271000  0.50759000  0.31720000  1.0 -0.0259540708
C  C103  1  0.65340000  0.53699000  0.25890000  1.0 -0.0727136411
C  C104  1  0.68200000  0.53609000  0.20980000  1.0 -0.15248092
C  C105  1  0.69160000  0.50689000  0.22120000  1.0 0.097320159
C  C106  1  0.67120000  0.47799000  0.28070000  1.0 -0.15248092
C  C107  1  0.64255000  0.47859000  0.32810000  1.0 -0.080274394
C  C108  1  0.72220000  0.50559000  0.17090000  1.0 0.0267752148
C  C109  1  0.72180000  0.50559000  0.08610000  1.0 0.04034182
C  C110  1  0.68970000  0.50359000  0.03960000  1.0 -0.1244698847
C  C111  1  0.49283000  0.09329000  0.36580000  1.0 0.6283620165
C  C112  1  0.49241000  0.12512000  0.31720000  1.0 -0.0259540708
C  C113  1  0.46301000  0.11641000  0.25890000  1.0 -0.0727136411
C  C114  1  0.46391000  0.14591000  0.20980000  1.0 -0.15248092
C  C115  1  0.49311000  0.18471000  0.22120000  1.0 0.097320159
C  C116  1  0.52201000  0.19321000  0.28070000  1.0 -0.15248092
C  C117  1  0.52141000  0.16396000  0.32810000  1.0 -0.080274394
C  C118  1  0.49441000  0.21661000  0.17090000  1.0 0.0267752148
C  C119  1  0.49441000  0.21621000  0.08610000  1.0 0.04034182
C  C120  1  0.49641000  0.18611000  0.03960000  1.0 -0.1244698847
C  C121  1  0.50717000  0.60046000  0.36580000  1.0 0.6283620165
C  C122  1  0.50759000  0.63271000  0.31720000  1.0 -0.0259540708
C  C123  1  0.53699000  0.65340000  0.25890000  1.0 -0.0727136411
C  C124  1  0.53609000  0.68200000  0.20980000  1.0 -0.1550174191
C  C125  1  0.50689000  0.69160000  0.22120000  1.0 0.097320159
C  C126  1  0.47799000  0.67120000  0.28070000  1.0 -0.15248092
C  C127  1  0.47859000  0.64255000  0.32810000  1.0 -0.080274394
C  C128  1  0.50559000  0.72220000  0.17090000  1.0 0.0267752148
C  C129  1  0.50559000  0.72180000  0.08610000  1.0 0.04034182
C  C130  1  0.50359000  0.68970000  0.03960000  1.0 -0.1244698847
C  C131  1  0.09329000  0.49283000  0.36580000  1.0 0.6283620165
C  C132  1  0.12512000  0.49241000  0.31720000  1.0 -0.0259540708
C  C133  1  0.11641000  0.46301000  0.25890000  1.0 -0.0727136411
C  C134  1  0.14591000  0.46391000  0.20980000  1.0 -0.15248092
C  C135  1  0.18471000  0.49311000  0.22120000  1.0 0.097320159
C  C136  1  0.19321000  0.52201000  0.28070000  1.0 -0.15248092
C  C137  1  0.16396000  0.52141000  0.32810000  1.0 -0.080274394
C  C138  1  0.21661000  0.49441000  0.17090000  1.0 0.0267752148
C  C139  1  0.21621000  0.49441000  0.08610000  1.0 0.04034182
C  C140  1  0.18611000  0.49641000  0.03960000  1.0 -0.1244698847
C  C141  1  0.39954000  0.90671000  0.36580000  1.0 0.6283620165
C  C142  1  0.36729000  0.87488000  0.31720000  1.0 -0.0259540708
C  C143  1  0.34660000  0.88359000  0.25890000  1.0 -0.0727136411
C  C144  1  0.31800000  0.85409000  0.20980000  1.0 -0.1550174191
C  C145  1  0.30840000  0.81529000  0.22120000  1.0 0.097320159
C  C146  1  0.32880000  0.80679000  0.28070000  1.0 -0.15248092
C  C147  1  0.35745000  0.83604000  0.32810000  1.0 -0.080274394
C  C148  1  0.27780000  0.78339000  0.17090000  1.0 0.0267752148
C  C149  1  0.27820000  0.78379000  0.08610000  1.0 0.04034182
C  C150  1  0.31030000  0.81389000  0.03960000  1.0 -0.1244698847
C  C151  1  0.49283000  0.39954000  0.36580000  1.0 0.6283620165
C  C152  1  0.49241000  0.36729000  0.31720000  1.0 -0.0259540708
C  C153  1  0.46301000  0.34660000  0.25890000  1.0 -0.0727136411
C  C154  1  0.46391000  0.31800000  0.20980000  1.0 -0.15248092
C  C155  1  0.49311000  0.30840000  0.22120000  1.0 0.097320159
C  C156  1  0.52201000  0.32880000  0.28070000  1.0 -0.15248092
C  C157  1  0.52141000  0.35745000  0.32810000  1.0 -0.080274394
C  C158  1  0.49441000  0.27780000  0.17090000  1.0 0.0267752148
C  C159  1  0.49441000  0.27820000  0.08610000  1.0 0.04034182
C  C160  1  0.49641000  0.31030000  0.03960000  1.0 -0.1244698847
C  C161  1  0.90671000  0.50717000  0.36580000  1.0 0.6283620165
C  C162  1  0.87488000  0.50759000  0.31720000  1.0 -0.0259540708
C  C163  1  0.88359000  0.53699000  0.25890000  1.0 -0.0727136411
C  C164  1  0.85409000  0.53609000  0.20980000  1.0 -0.15248092
C  C165  1  0.81529000  0.50689000  0.22120000  1.0 0.097320159
C  C166  1  0.80679000  0.47799000  0.28070000  1.0 -0.15248092
C  C167  1  0.83604000  0.47859000  0.32810000  1.0 -0.080274394
C  C168  1  0.78339000  0.50559000  0.17090000  1.0 0.0267752148
C  C169  1  0.78379000  0.50559000  0.08610000  1.0 0.04034182
C  C170  1  0.81389000  0.50359000  0.03960000  1.0 -0.1244698847
C  C171  1  0.60046000  0.09329000  0.36580000  1.0 0.6283620165
C  C172  1  0.63271000  0.12512000  0.31720000  1.0 -0.0259540708
C  C173  1  0.65340000  0.11641000  0.25890000  1.0 -0.0727136411
C  C174  1  0.68200000  0.14591000  0.20980000  1.0 -0.15248092
C  C175  1  0.69160000  0.18471000  0.22120000  1.0 0.097320159
C  C176  1  0.67120000  0.19321000  0.28070000  1.0 -0.15248092
C  C177  1  0.64255000  0.16396000  0.32810000  1.0 -0.080274394
C  C178  1  0.72220000  0.21661000  0.17090000  1.0 0.0267752148
C  C179  1  0.72180000  0.21621000  0.08610000  1.0 0.04034182
C  C180  1  0.68970000  0.18611000  0.03960000  1.0 -0.1244698847
C  C181  1  0.90671000  0.39954000  0.63420000  1.0 0.6283620165
C  C182  1  0.87488000  0.36729000  0.68280000  1.0 -0.0259540708
C  C183  1  0.88359000  0.34660000  0.74110000  1.0 -0.0727136411
C  C184  1  0.85409000  0.31800000  0.79020000  1.0 -0.15248092
C  C185  1  0.81529000  0.30840000  0.77880000  1.0 0.097320159
C  C186  1  0.80679000  0.32880000  0.71930000  1.0 -0.15248092
C  C187  1  0.83604000  0.35745000  0.67190000  1.0 -0.080274394
C  C188  1  0.78339000  0.27780000  0.82910000  1.0 0.0267752148
C  C189  1  0.78379000  0.27820000  0.91390000  1.0 0.04034182
C  C190  1  0.81389000  0.31030000  0.96040000  1.0 -0.1244698847
C  C191  1  0.60046000  0.50717000  0.63420000  1.0 0.6283620165
C  C192  1  0.63271000  0.50759000  0.68280000  1.0 -0.0259540708
C  C193  1  0.65340000  0.53699000  0.74110000  1.0 -0.0727136411
C  C194  1  0.68200000  0.53609000  0.79020000  1.0 -0.15248092
C  C195  1  0.69160000  0.50689000  0.77880000  1.0 0.097320159
C  C196  1  0.67120000  0.47799000  0.71930000  1.0 -0.15248092
C  C197  1  0.64255000  0.47859000  0.67190000  1.0 -0.080274394
C  C198  1  0.72220000  0.50559000  0.82910000  1.0 0.0267752148
C  C199  1  0.72180000  0.50559000  0.91390000  1.0 0.04034182
C  C200  1  0.68970000  0.50359000  0.96040000  1.0 -0.1244698847
C  C201  1  0.49283000  0.09329000  0.63420000  1.0 0.6283620165
C  C202  1  0.49241000  0.12512000  0.68280000  1.0 -0.0259540708
C  C203  1  0.46301000  0.11641000  0.74110000  1.0 -0.0727136411
C  C204  1  0.46391000  0.14591000  0.79020000  1.0 -0.15248092
C  C205  1  0.49311000  0.18471000  0.77880000  1.0 0.097320159
C  C206  1  0.52201000  0.19321000  0.71930000  1.0 -0.15248092
C  C207  1  0.52141000  0.16396000  0.67190000  1.0 -0.080274394
C  C208  1  0.49441000  0.21661000  0.82910000  1.0 0.0267752148
C  C209  1  0.49441000  0.21621000  0.91390000  1.0 0.04034182
C  C210  1  0.49641000  0.18611000  0.96040000  1.0 -0.1244698847
C  C211  1  0.09329000  0.60046000  0.63420000  1.0 0.6283620165
C  C212  1  0.12512000  0.63271000  0.68280000  1.0 -0.0259540708
C  C213  1  0.11641000  0.65340000  0.74110000  1.0 -0.0727136411
C  C214  1  0.14591000  0.68200000  0.79020000  1.0 -0.15248092
C  C215  1  0.18471000  0.69160000  0.77880000  1.0 0.097320159
C  C216  1  0.19321000  0.67120000  0.71930000  1.0 -0.15248092
C  C217  1  0.16396000  0.64255000  0.67190000  1.0 -0.080274394
C  C218  1  0.21661000  0.72220000  0.82910000  1.0 0.0267752148
C  C219  1  0.21621000  0.72180000  0.91390000  1.0 0.04034182
C  C220  1  0.18611000  0.68970000  0.96040000  1.0 -0.1244698847
C  C221  1  0.39954000  0.49283000  0.63420000  1.0 0.6283620165
C  C222  1  0.36729000  0.49241000  0.68280000  1.0 -0.0259540708
C  C223  1  0.34660000  0.46301000  0.74110000  1.0 -0.0727136411
C  C224  1  0.31800000  0.46391000  0.79020000  1.0 -0.15248092
C  C225  1  0.30840000  0.49311000  0.77880000  1.0 0.097320159
C  C226  1  0.32880000  0.52201000  0.71930000  1.0 -0.15248092
C  C227  1  0.35745000  0.52141000  0.67190000  1.0 -0.080274394
C  C228  1  0.27780000  0.49441000  0.82910000  1.0 0.0267752148
C  C229  1  0.27820000  0.49441000  0.91390000  1.0 0.04034182
C  C230  1  0.31030000  0.49641000  0.96040000  1.0 -0.1244698847
C  C231  1  0.50717000  0.90671000  0.63420000  1.0 0.6283620165
C  C232  1  0.50759000  0.87488000  0.68280000  1.0 -0.0259540708
C  C233  1  0.53699000  0.88359000  0.74110000  1.0 -0.0727136411
C  C234  1  0.53609000  0.85409000  0.79020000  1.0 -0.1550174191
C  C235  1  0.50689000  0.81529000  0.77880000  1.0 0.097320159
C  C236  1  0.47799000  0.80679000  0.71930000  1.0 -0.15248092
C  C237  1  0.47859000  0.83604000  0.67190000  1.0 -0.080274394
C  C238  1  0.50559000  0.78339000  0.82910000  1.0 0.0267752148
C  C239  1  0.50559000  0.78379000  0.91390000  1.0 0.04034182
C  C240  1  0.50359000  0.81389000  0.96040000  1.0 -0.1244698847
C  C241  1  0.49491000  0.24746000  0.78840000  1.0 -0.1744756832
C  C242  1  0.49391000  0.24696000  0.95630000  1.0 0.0177792448
C  C243  1  0.75255000  0.50509000  0.78840000  1.0 -0.1744756832
C  C244  1  0.75304000  0.50609000  0.95630000  1.0 0.0177792448
C  C245  1  0.75255000  0.24746000  0.78840000  1.0 -0.1744756832
C  C246  1  0.75304000  0.24696000  0.95630000  1.0 0.0177792448
C  C247  1  0.50509000  0.75255000  0.78840000  1.0 -0.1744756832
C  C248  1  0.50609000  0.75304000  0.95630000  1.0 0.0177792448
C  C249  1  0.24746000  0.49491000  0.78840000  1.0 -0.1744756832
C  C250  1  0.24696000  0.49391000  0.95630000  1.0 0.0177792448
C  C251  1  0.24746000  0.75255000  0.78840000  1.0 -0.1744756832
C  C252  1  0.24696000  0.75304000  0.95630000  1.0 0.0177792448
C  C253  1  0.24746000  0.75255000  0.21160000  1.0 -0.1744756832
C  C254  1  0.24696000  0.75304000  0.04370000  1.0 0.0177792448
C  C255  1  0.24746000  0.49491000  0.21160000  1.0 -0.1744756832
C  C256  1  0.24696000  0.49391000  0.04370000  1.0 0.0177792448
C  C257  1  0.50509000  0.75255000  0.21160000  1.0 -0.1744756832
C  C258  1  0.50609000  0.75304000  0.04370000  1.0 0.0177792448
C  C259  1  0.75255000  0.24746000  0.21160000  1.0 -0.1744756832
C  C260  1  0.75304000  0.24696000  0.04370000  1.0 0.0177792448
C  C261  1  0.75255000  0.50509000  0.21160000  1.0 -0.1744756832
C  C262  1  0.75304000  0.50609000  0.04370000  1.0 0.0177792448
C  C263  1  0.49491000  0.24746000  0.21160000  1.0 -0.1744756832
C  C264  1  0.49391000  0.24696000  0.04370000  1.0 0.0177792448
O  O1  1  0.46637000  0.40766000  0.65160000  1.0 -0.5041928623
O  O2  1  0.51862000  0.41416000  0.58140000  1.0 -0.5453432704
O  O3  1  0.50896000  0.47163000  0.61020000  1.0 -0.3702341749
O  O4  1  0.94129000  0.53363000  0.65160000  1.0 -0.5041928623
O  O5  1  0.89554000  0.48138000  0.58140000  1.0 -0.5448119773
O  O6  1  0.96267000  0.49104000  0.61020000  1.0 -0.3702341749
O  O7  1  0.59234000  0.05871000  0.65160000  1.0 -0.5041928623
O  O8  1  0.58584000  0.10446000  0.58140000  1.0 -0.5453432704
O  O9  1  0.52837000  0.03733000  0.61020000  1.0 -0.3702341749
O  O10  1  0.53363000  0.59234000  0.65160000  1.0 -0.5041928623
O  O11  1  0.48138000  0.58584000  0.58140000  1.0 -0.5453432704
O  O12  1  0.49104000  0.52837000  0.61020000  1.0 -0.3702341749
O  O13  1  0.05871000  0.46637000  0.65160000  1.0 -0.5041928623
O  O14  1  0.10446000  0.51862000  0.58140000  1.0 -0.5453432704
O  O15  1  0.03733000  0.50896000  0.61020000  1.0 -0.3702341749
O  O16  1  0.40766000  0.94129000  0.65160000  1.0 -0.5041928623
O  O17  1  0.41416000  0.89554000  0.58140000  1.0 -0.5453432704
O  O18  1  0.47163000  0.96267000  0.61020000  1.0 -0.3702341749
O  O19  1  0.05871000  0.59234000  0.34840000  1.0 -0.5041928623
O  O20  1  0.10446000  0.58584000  0.41860000  1.0 -0.5453432704
O  O21  1  0.03733000  0.52837000  0.38980000  1.0 -0.3702341749
O  O22  1  0.40766000  0.46637000  0.34840000  1.0 -0.5041928623
O  O23  1  0.41416000  0.51862000  0.41860000  1.0 -0.5453432704
O  O24  1  0.47163000  0.50896000  0.38980000  1.0 -0.3702341749
O  O25  1  0.53363000  0.94129000  0.34840000  1.0 -0.5041928623
O  O26  1  0.48138000  0.89554000  0.41860000  1.0 -0.5453432704
O  O27  1  0.49104000  0.96267000  0.38980000  1.0 -0.3702341749
O  O28  1  0.94129000  0.40766000  0.34840000  1.0 -0.5041928623
O  O29  1  0.89554000  0.41416000  0.41860000  1.0 -0.5448119773
O  O30  1  0.96267000  0.47163000  0.38980000  1.0 -0.3702341749
O  O31  1  0.59234000  0.53363000  0.34840000  1.0 -0.5041928623
O  O32  1  0.58584000  0.48138000  0.41860000  1.0 -0.5453432704
O  O33  1  0.52837000  0.49104000  0.38980000  1.0 -0.3702341749
O  O34  1  0.46637000  0.05871000  0.34840000  1.0 -0.5041928623
O  O35  1  0.51862000  0.10446000  0.41860000  1.0 -0.5453432704
O  O36  1  0.50896000  0.03733000  0.38980000  1.0 -0.3702341749
O  O37  1  0.53363000  0.59234000  0.34840000  1.0 -0.5041928623
O  O38  1  0.48138000  0.58584000  0.41860000  1.0 -0.5453432704
O  O39  1  0.49104000  0.52837000  0.38980000  1.0 -0.3702341749
O  O40  1  0.05871000  0.46637000  0.34840000  1.0 -0.5041928623
O  O41  1  0.10446000  0.51862000  0.41860000  1.0 -0.5453432704
O  O42  1  0.03733000  0.50896000  0.38980000  1.0 -0.3702341749
O  O43  1  0.40766000  0.94129000  0.34840000  1.0 -0.5041928623
O  O44  1  0.41416000  0.89554000  0.41860000  1.0 -0.5453432704
O  O45  1  0.47163000  0.96267000  0.38980000  1.0 -0.3702341749
O  O46  1  0.46637000  0.40766000  0.34840000  1.0 -0.5041928623
O  O47  1  0.51862000  0.41416000  0.41860000  1.0 -0.5453432704
O  O48  1  0.50896000  0.47163000  0.38980000  1.0 -0.3702341749
O  O49  1  0.94129000  0.53363000  0.34840000  1.0 -0.5041928623
O  O50  1  0.89554000  0.48138000  0.41860000  1.0 -0.5453432704
O  O51  1  0.96267000  0.49104000  0.38980000  1.0 -0.3702341749
O  O52  1  0.59234000  0.05871000  0.34840000  1.0 -0.5041928623
O  O53  1  0.58584000  0.10446000  0.41860000  1.0 -0.5453432704
O  O54  1  0.52837000  0.03733000  0.38980000  1.0 -0.3702341749
O  O55  1  0.94129000  0.40766000  0.65160000  1.0 -0.5041928623
O  O56  1  0.89554000  0.41416000  0.58140000  1.0 -0.5448119773
O  O57  1  0.96267000  0.47163000  0.61020000  1.0 -0.3702341749
O  O58  1  0.59234000  0.53363000  0.65160000  1.0 -0.5041928623
O  O59  1  0.58584000  0.48138000  0.58140000  1.0 -0.5453432704
O  O60  1  0.52837000  0.49104000  0.61020000  1.0 -0.3702341749
O  O61  1  0.46637000  0.05871000  0.65160000  1.0 -0.5041928623
O  O62  1  0.51862000  0.10446000  0.58140000  1.0 -0.5453432704
O  O63  1  0.50896000  0.03733000  0.61020000  1.0 -0.3702341749
O  O64  1  0.05871000  0.59234000  0.65160000  1.0 -0.5041928623
O  O65  1  0.10446000  0.58584000  0.58140000  1.0 -0.5453432704
O  O66  1  0.03733000  0.52837000  0.61020000  1.0 -0.3702341749
O  O67  1  0.40766000  0.46637000  0.65160000  1.0 -0.5041928623
O  O68  1  0.41416000  0.51862000  0.58140000  1.0 -0.5453432704
O  O69  1  0.47163000  0.50896000  0.61020000  1.0 -0.3702341749
O  O70  1  0.53363000  0.94129000  0.65160000  1.0 -0.5041928623
O  O71  1  0.48138000  0.89554000  0.58140000  1.0 -0.5453432704
O  O72  1  0.49104000  0.96267000  0.61020000  1.0 -0.3702341749
O  O73  1  0.39981000  0.39981000  0.58780000  1.0 -0.4418636843
O  O74  1  0.46001000  0.46000000  0.74180000  1.0 -0.6100906713
O  O75  1  0.00000000  0.60020000  0.58780000  1.0 -0.4418636843
O  O76  1  0.00000000  0.54000000  0.74180000  1.0 -0.6100906713
O  O77  1  0.60020000  0.00000000  0.58780000  1.0 -0.4418636843
O  O78  1  0.54000000  0.00000000  0.74180000  1.0 -0.6100906713
O  O79  1  0.60020000  0.60020000  0.58780000  1.0 -0.4418636843
O  O80  1  0.54000000  0.54000000  0.74180000  1.0 -0.6100906713
O  O81  1  0.00000000  0.39981000  0.58780000  1.0 -0.4418636843
O  O82  1  0.00000000  0.46000000  0.74180000  1.0 -0.6100906713
O  O83  1  0.39981000  0.00000000  0.58780000  1.0 -0.4418636843
O  O84  1  0.46001000  0.00000000  0.74180000  1.0 -0.6100906713
O  O85  1  0.00000000  0.60020000  0.41220000  1.0 -0.4418636843
O  O86  1  0.00000000  0.54000000  0.25820000  1.0 -0.6100906713
O  O87  1  0.39981000  0.39981000  0.41220000  1.0 -0.4418636843
O  O88  1  0.46001000  0.46000000  0.25820000  1.0 -0.6100906713
O  O89  1  0.60020000  0.00000000  0.41220000  1.0 -0.4418636843
O  O90  1  0.54000000  0.00000000  0.25820000  1.0 -0.6100906713
O  O91  1  0.00000000  0.39981000  0.41220000  1.0 -0.4418636843
O  O92  1  0.00000000  0.46000000  0.25820000  1.0 -0.6100906713
O  O93  1  0.60020000  0.60020000  0.41220000  1.0 -0.4418636843
O  O94  1  0.54000000  0.54000000  0.25820000  1.0 -0.6100906713
O  O95  1  0.39981000  0.00000000  0.41220000  1.0 -0.4418636843
O  O96  1  0.46001000  0.00000000  0.25820000  1.0 -0.6100906713
O  O97  1  0.46891000  0.43230000  0.50000000  1.0 -1.0768826737
O  O98  1  0.96339000  0.53109000  0.50000000  1.0 -1.0768826737
O  O99  1  0.56770000  0.03661000  0.50000000  1.0 -1.0768826737
O  O100  1  0.53109000  0.56770000  0.50000000  1.0 -1.0768826737
O  O101  1  0.03661000  0.46891000  0.50000000  1.0 -1.0768826737
O  O102  1  0.43230000  0.96339000  0.50000000  1.0 -1.0768826737
O  O103  1  0.03661000  0.56770000  0.50000000  1.0 -1.0768826737
O  O104  1  0.43230000  0.46891000  0.50000000  1.0 -1.0768826737
O  O105  1  0.53109000  0.96339000  0.50000000  1.0 -1.0768826737
O  O106  1  0.96339000  0.43230000  0.50000000  1.0 -1.0768826737
O  O107  1  0.56770000  0.53109000  0.50000000  1.0 -1.0768826737
O  O108  1  0.46891000  0.03661000  0.50000000  1.0 -1.0768826737
