# DDEC6 charges by PACMAN v1.1 (https://github.com/mtap-research/PACMAN-charge/)
data_FAKMIR_FSR_pacman
_symmetry_space_group_name_H-M   'P 1'
_cell_length_a   39.58700000
_cell_length_b   39.58700000
_cell_length_c   16.49850000
_cell_angle_alpha   90.00000000
_cell_angle_beta   90.00000000
_cell_angle_gamma   120.00000000
_symmetry_Int_Tables_number   1
_chemical_formula_structural   Zr3H22(C11O4)4
_chemical_formula_sum   'Zr18 H132 C264 O96'
_cell_volume   22391.34982039
_cell_formula_units_Z   6
loop_
 _symmetry_equiv_pos_site_id
 _symmetry_equiv_pos_as_xyz
  1  'x, y, z'
loop_
 _atom_site_type_symbol
 _atom_site_label
 _atom_site_symmetry_multiplicity
 _atom_site_fract_x
 _atom_site_fract_y
 _atom_site_fract_z
 _atom_site_occupancy
 _atom_site_charge
Zr  Zr1  1  0.92886000  0.46443000  0.00000000  1.0 2.3817305961
Zr  Zr2  1  0.53557000  0.07114000  0.00000000  1.0 2.3817305961
Zr  Zr3  1  0.53557000  0.46443000  0.00000000  1.0 2.3817305961
Zr  Zr4  1  0.07114000  0.53557000  0.00000000  1.0 2.3817305961
Zr  Zr5  1  0.46443000  0.92886000  0.00000000  1.0 2.3817305961
Zr  Zr6  1  0.46443000  0.53557000  0.00000000  1.0 2.3817305961
Zr  Zr7  1  0.00000000  0.45500000  0.89217000  1.0 2.5576382874
Zr  Zr8  1  0.45500000  0.00000000  0.89217000  1.0 2.5576382874
Zr  Zr9  1  0.54500000  0.54500000  0.89217000  1.0 2.5576382874
Zr  Zr10  1  0.00000000  0.54500000  0.89217000  1.0 2.5576382874
Zr  Zr11  1  0.54500000  0.00000000  0.89217000  1.0 2.5576382874
Zr  Zr12  1  0.45500000  0.45500000  0.89217000  1.0 2.5576382874
Zr  Zr13  1  0.54500000  0.54500000  0.10783000  1.0 2.5576382874
Zr  Zr14  1  0.45500000  0.00000000  0.10783000  1.0 2.5576382874
Zr  Zr15  1  0.00000000  0.45500000  0.10783000  1.0 2.5576382874
Zr  Zr16  1  0.45500000  0.45500000  0.10783000  1.0 2.5576382874
Zr  Zr17  1  0.54500000  0.00000000  0.10783000  1.0 2.5576382874
Zr  Zr18  1  0.00000000  0.54500000  0.10783000  1.0 2.5576382874
H  H1  1  0.90900000  0.35350000  0.74960000  1.0 0.1489682686
H  H2  1  0.85780000  0.30710000  0.66640000  1.0 0.1409737957
H  H3  1  0.78080000  0.32520000  0.78900000  1.0 0.1409737957
H  H4  1  0.83000000  0.36960000  0.87110000  1.0 0.1550511121
H  H5  1  0.83230000  0.33230000  0.57000000  1.0 0.1409737957
H  H6  1  0.44450000  0.09100000  0.74960000  1.0 0.1489682686
H  H7  1  0.44930000  0.14220000  0.66640000  1.0 0.1409737957
H  H8  1  0.54440000  0.21920000  0.78900000  1.0 0.1409737957
H  H9  1  0.53960000  0.17000000  0.87110000  1.0 0.1550511121
H  H10  1  0.50000000  0.16770000  0.57000000  1.0 0.1409737957
H  H11  1  0.64650000  0.55550000  0.74960000  1.0 0.1489682686
H  H12  1  0.69290000  0.55070000  0.66640000  1.0 0.1409737957
H  H13  1  0.67480000  0.45560000  0.78900000  1.0 0.1409737957
H  H14  1  0.63040000  0.46040000  0.87110000  1.0 0.1550511121
H  H15  1  0.66770000  0.50000000  0.57000000  1.0 0.1409737957
H  H16  1  0.09100000  0.64650000  0.74960000  1.0 0.1489682686
H  H17  1  0.14220000  0.69290000  0.66640000  1.0 0.1409737957
H  H18  1  0.21920000  0.67480000  0.78900000  1.0 0.1409737957
H  H19  1  0.17000000  0.63040000  0.87110000  1.0 0.1550511121
H  H20  1  0.16770000  0.66770000  0.57000000  1.0 0.1409737957
H  H21  1  0.55550000  0.90900000  0.74960000  1.0 0.1489682686
H  H22  1  0.55070000  0.85780000  0.66640000  1.0 0.1409737957
H  H23  1  0.45560000  0.78080000  0.78900000  1.0 0.1409737957
H  H24  1  0.46040000  0.83000000  0.87110000  1.0 0.1550511121
H  H25  1  0.50000000  0.83230000  0.57000000  1.0 0.1409737957
H  H26  1  0.35350000  0.44450000  0.74960000  1.0 0.1489682686
H  H27  1  0.30710000  0.44930000  0.66640000  1.0 0.1409737957
H  H28  1  0.32520000  0.54440000  0.78900000  1.0 0.1409737957
H  H29  1  0.36960000  0.53960000  0.87110000  1.0 0.1550511121
H  H30  1  0.33230000  0.50000000  0.57000000  1.0 0.1409737957
H  H31  1  0.55550000  0.64650000  0.25040000  1.0 0.1489682686
H  H32  1  0.55070000  0.69290000  0.33360000  1.0 0.1409737957
H  H33  1  0.45560000  0.67480000  0.21100000  1.0 0.1409737957
H  H34  1  0.46040000  0.63040000  0.12890000  1.0 0.1550511121
H  H35  1  0.50000000  0.66770000  0.43000000  1.0 0.1409737957
H  H36  1  0.35350000  0.90900000  0.25040000  1.0 0.1489682686
H  H37  1  0.30710000  0.85780000  0.33360000  1.0 0.1409737957
H  H38  1  0.32520000  0.78080000  0.21100000  1.0 0.1409737957
H  H39  1  0.36960000  0.83000000  0.12890000  1.0 0.1550511121
H  H40  1  0.33230000  0.83230000  0.43000000  1.0 0.1409737957
H  H41  1  0.09100000  0.44450000  0.25040000  1.0 0.1489682686
H  H42  1  0.14220000  0.44930000  0.33360000  1.0 0.1409737957
H  H43  1  0.21920000  0.54440000  0.21100000  1.0 0.1409737957
H  H44  1  0.17000000  0.53960000  0.12890000  1.0 0.1489682686
H  H45  1  0.16770000  0.50000000  0.43000000  1.0 0.1409737957
H  H46  1  0.44450000  0.35350000  0.25040000  1.0 0.1489682686
H  H47  1  0.44930000  0.30710000  0.33360000  1.0 0.1409737957
H  H48  1  0.54440000  0.32520000  0.21100000  1.0 0.1409737957
H  H49  1  0.53960000  0.36960000  0.12890000  1.0 0.1550511121
H  H50  1  0.50000000  0.33230000  0.43000000  1.0 0.1409737957
H  H51  1  0.64650000  0.09100000  0.25040000  1.0 0.1489682686
H  H52  1  0.69290000  0.14220000  0.33360000  1.0 0.1409737957
H  H53  1  0.67480000  0.21920000  0.21100000  1.0 0.1409737957
H  H54  1  0.63040000  0.17000000  0.12890000  1.0 0.1550511121
H  H55  1  0.66770000  0.16770000  0.43000000  1.0 0.1409737957
H  H56  1  0.90900000  0.55550000  0.25040000  1.0 0.1489682686
H  H57  1  0.85780000  0.55070000  0.33360000  1.0 0.1409737957
H  H58  1  0.78080000  0.45560000  0.21100000  1.0 0.1409737957
H  H59  1  0.83000000  0.46040000  0.12890000  1.0 0.1550511121
H  H60  1  0.83230000  0.50000000  0.43000000  1.0 0.1409737957
H  H61  1  0.09100000  0.64650000  0.25040000  1.0 0.1489682686
H  H62  1  0.14220000  0.69290000  0.33360000  1.0 0.1409737957
H  H63  1  0.21920000  0.67480000  0.21100000  1.0 0.1409737957
H  H64  1  0.17000000  0.63040000  0.12890000  1.0 0.1550511121
H  H65  1  0.16770000  0.66770000  0.43000000  1.0 0.1409737957
H  H66  1  0.55550000  0.90900000  0.25040000  1.0 0.1489682686
H  H67  1  0.55070000  0.85780000  0.33360000  1.0 0.1409737957
H  H68  1  0.45560000  0.78080000  0.21100000  1.0 0.1409737957
H  H69  1  0.46040000  0.83000000  0.12890000  1.0 0.1489682686
H  H70  1  0.50000000  0.83230000  0.43000000  1.0 0.1409737957
H  H71  1  0.35350000  0.44450000  0.25040000  1.0 0.1489682686
H  H72  1  0.30710000  0.44930000  0.33360000  1.0 0.1409737957
H  H73  1  0.32520000  0.54440000  0.21100000  1.0 0.1409737957
H  H74  1  0.36960000  0.53960000  0.12890000  1.0 0.1550511121
H  H75  1  0.33230000  0.50000000  0.43000000  1.0 0.1409737957
H  H76  1  0.90900000  0.35350000  0.25040000  1.0 0.1489682686
H  H77  1  0.85780000  0.30710000  0.33360000  1.0 0.1409737957
H  H78  1  0.78080000  0.32520000  0.21100000  1.0 0.1409737957
H  H79  1  0.83000000  0.36960000  0.12890000  1.0 0.1550511121
H  H80  1  0.83230000  0.33230000  0.43000000  1.0 0.1409737957
H  H81  1  0.44450000  0.09100000  0.25040000  1.0 0.1489682686
H  H82  1  0.44930000  0.14220000  0.33360000  1.0 0.1409737957
H  H83  1  0.54440000  0.21920000  0.21100000  1.0 0.1409737957
H  H84  1  0.53960000  0.17000000  0.12890000  1.0 0.1550511121
H  H85  1  0.50000000  0.16770000  0.43000000  1.0 0.1409737957
H  H86  1  0.64650000  0.55550000  0.25040000  1.0 0.1489682686
H  H87  1  0.69290000  0.55070000  0.33360000  1.0 0.1409737957
H  H88  1  0.67480000  0.45560000  0.21100000  1.0 0.1409737957
H  H89  1  0.63040000  0.46040000  0.12890000  1.0 0.1550511121
H  H90  1  0.66770000  0.50000000  0.43000000  1.0 0.1409737957
H  H91  1  0.44450000  0.35350000  0.74960000  1.0 0.1489682686
H  H92  1  0.44930000  0.30710000  0.66640000  1.0 0.1409737957
H  H93  1  0.54440000  0.32520000  0.78900000  1.0 0.1409737957
H  H94  1  0.53960000  0.36960000  0.87110000  1.0 0.1550511121
H  H95  1  0.50000000  0.33230000  0.57000000  1.0 0.1409737957
H  H96  1  0.64650000  0.09100000  0.74960000  1.0 0.1489682686
H  H97  1  0.69290000  0.14220000  0.66640000  1.0 0.1409737957
H  H98  1  0.67480000  0.21920000  0.78900000  1.0 0.1409737957
H  H99  1  0.63040000  0.17000000  0.87110000  1.0 0.1550511121
H  H100  1  0.66770000  0.16770000  0.57000000  1.0 0.1409737957
H  H101  1  0.90900000  0.55550000  0.74960000  1.0 0.1489682686
H  H102  1  0.85780000  0.55070000  0.66640000  1.0 0.1409737957
H  H103  1  0.78080000  0.45560000  0.78900000  1.0 0.1409737957
H  H104  1  0.83000000  0.46040000  0.87110000  1.0 0.1489682686
H  H105  1  0.83230000  0.50000000  0.57000000  1.0 0.1409737957
H  H106  1  0.55550000  0.64650000  0.74960000  1.0 0.1489682686
H  H107  1  0.55070000  0.69290000  0.66640000  1.0 0.1409737957
H  H108  1  0.45560000  0.67480000  0.78900000  1.0 0.1409737957
H  H109  1  0.46040000  0.63040000  0.87110000  1.0 0.1550511121
H  H110  1  0.50000000  0.66770000  0.57000000  1.0 0.1409737957
H  H111  1  0.35350000  0.90900000  0.74960000  1.0 0.1489682686
H  H112  1  0.30710000  0.85780000  0.66640000  1.0 0.1409737957
H  H113  1  0.32520000  0.78080000  0.78900000  1.0 0.1409737957
H  H114  1  0.36960000  0.83000000  0.87110000  1.0 0.1550511121
H  H115  1  0.33230000  0.83230000  0.57000000  1.0 0.1409737957
H  H116  1  0.09100000  0.44450000  0.74960000  1.0 0.1489682686
H  H117  1  0.14220000  0.44930000  0.66640000  1.0 0.1409737957
H  H118  1  0.21920000  0.54440000  0.78900000  1.0 0.1409737957
H  H119  1  0.17000000  0.53960000  0.87110000  1.0 0.1550511121
H  H120  1  0.16770000  0.50000000  0.57000000  1.0 0.1409737957
H  H121  1  0.75295000  0.24705000  0.76910000  1.0 0.1489682686
H  H122  1  0.49410000  0.24705000  0.76910000  1.0 0.1489682686
H  H123  1  0.75295000  0.50590000  0.76910000  1.0 0.1489682686
H  H124  1  0.24705000  0.75295000  0.76910000  1.0 0.1489682686
H  H125  1  0.50590000  0.75295000  0.76910000  1.0 0.1489682686
H  H126  1  0.24705000  0.49410000  0.76910000  1.0 0.1489682686
H  H127  1  0.50590000  0.75295000  0.23090000  1.0 0.1489682686
H  H128  1  0.24705000  0.75295000  0.23090000  1.0 0.1489682686
H  H129  1  0.24705000  0.49410000  0.23090000  1.0 0.1489682686
H  H130  1  0.49410000  0.24705000  0.23090000  1.0 0.1489682686
H  H131  1  0.75295000  0.24705000  0.23090000  1.0 0.1489682686
H  H132  1  0.75295000  0.50590000  0.23090000  1.0 0.1489682686
C  C1  1  0.90570000  0.39950000  0.86640000  1.0 0.652346375
C  C2  1  0.87420000  0.36760000  0.81660000  1.0 -0.0100705728
C  C3  1  0.88290000  0.34800000  0.75720000  1.0 -0.0586191495
C  C4  1  0.85210000  0.31990000  0.70830000  1.0 -0.1357784541
C  C5  1  0.81400000  0.31070000  0.72030000  1.0 0.1004304214
C  C6  1  0.80680000  0.33050000  0.78050000  1.0 -0.1315130801
C  C7  1  0.83630000  0.35760000  0.82850000  1.0 -0.0689878483
C  C8  1  0.78220000  0.27880000  0.67090000  1.0 0.0521268091
C  C9  1  0.78230000  0.28040000  0.58530000  1.0 0.0521268091
C  C10  1  0.81180000  0.31100000  0.54170000  1.0 -0.1315130801
C  C11  1  0.49380000  0.09430000  0.86640000  1.0 0.652346375
C  C12  1  0.49340000  0.12580000  0.81660000  1.0 -0.0100705728
C  C13  1  0.46510000  0.11710000  0.75720000  1.0 -0.0586191495
C  C14  1  0.46780000  0.14790000  0.70830000  1.0 -0.1357784541
C  C15  1  0.49670000  0.18600000  0.72030000  1.0 0.1004304214
C  C16  1  0.52370000  0.19320000  0.78050000  1.0 -0.1315130801
C  C17  1  0.52130000  0.16370000  0.82850000  1.0 -0.0689878483
C  C18  1  0.49660000  0.21780000  0.67090000  1.0 0.0521268091
C  C19  1  0.49810000  0.21770000  0.58530000  1.0 0.0521268091
C  C20  1  0.49920000  0.18820000  0.54170000  1.0 -0.1315130801
C  C21  1  0.60050000  0.50620000  0.86640000  1.0 0.652346375
C  C22  1  0.63240000  0.50660000  0.81660000  1.0 -0.0100705728
C  C23  1  0.65200000  0.53490000  0.75720000  1.0 -0.0586191495
C  C24  1  0.68010000  0.53220000  0.70830000  1.0 -0.1357784541
C  C25  1  0.68930000  0.50330000  0.72030000  1.0 0.1004304214
C  C26  1  0.66950000  0.47630000  0.78050000  1.0 -0.1315130801
C  C27  1  0.64240000  0.47870000  0.82850000  1.0 -0.0689878483
C  C28  1  0.72120000  0.50340000  0.67090000  1.0 0.0521268091
C  C29  1  0.71960000  0.50190000  0.58530000  1.0 0.0521268091
C  C30  1  0.68900000  0.50080000  0.54170000  1.0 -0.1315130801
C  C31  1  0.09430000  0.60050000  0.86640000  1.0 0.652346375
C  C32  1  0.12580000  0.63240000  0.81660000  1.0 -0.0100705728
C  C33  1  0.11710000  0.65200000  0.75720000  1.0 -0.0586191495
C  C34  1  0.14790000  0.68010000  0.70830000  1.0 -0.1357784541
C  C35  1  0.18600000  0.68930000  0.72030000  1.0 0.1004304214
C  C36  1  0.19320000  0.66950000  0.78050000  1.0 -0.1315130801
C  C37  1  0.16370000  0.64240000  0.82850000  1.0 -0.0689878483
C  C38  1  0.21780000  0.72120000  0.67090000  1.0 0.0521268091
C  C39  1  0.21770000  0.71960000  0.58530000  1.0 0.0521268091
C  C40  1  0.18820000  0.68900000  0.54170000  1.0 -0.1315130801
C  C41  1  0.50620000  0.90570000  0.86640000  1.0 0.652346375
C  C42  1  0.50660000  0.87420000  0.81660000  1.0 -0.0100705728
C  C43  1  0.53490000  0.88290000  0.75720000  1.0 -0.0586191495
C  C44  1  0.53220000  0.85210000  0.70830000  1.0 -0.1357784541
C  C45  1  0.50330000  0.81400000  0.72030000  1.0 0.1004304214
C  C46  1  0.47630000  0.80680000  0.78050000  1.0 -0.1315130801
C  C47  1  0.47870000  0.83630000  0.82850000  1.0 -0.0689878483
C  C48  1  0.50340000  0.78220000  0.67090000  1.0 0.0521268091
C  C49  1  0.50190000  0.78230000  0.58530000  1.0 0.0521268091
C  C50  1  0.50080000  0.81180000  0.54170000  1.0 -0.1315130801
C  C51  1  0.39950000  0.49380000  0.86640000  1.0 0.652346375
C  C52  1  0.36760000  0.49340000  0.81660000  1.0 -0.0100705728
C  C53  1  0.34800000  0.46510000  0.75720000  1.0 -0.0586191495
C  C54  1  0.31990000  0.46780000  0.70830000  1.0 -0.1315130801
C  C55  1  0.31070000  0.49670000  0.72030000  1.0 0.1004304214
C  C56  1  0.33050000  0.52370000  0.78050000  1.0 -0.1315130801
C  C57  1  0.35760000  0.52130000  0.82850000  1.0 -0.0689878483
C  C58  1  0.27880000  0.49660000  0.67090000  1.0 0.0521268091
C  C59  1  0.28040000  0.49810000  0.58530000  1.0 0.0521268091
C  C60  1  0.31100000  0.49920000  0.54170000  1.0 -0.1315130801
C  C61  1  0.50620000  0.60050000  0.13360000  1.0 0.652346375
C  C62  1  0.50660000  0.63240000  0.18340000  1.0 -0.0100705728
C  C63  1  0.53490000  0.65200000  0.24280000  1.0 -0.0586191495
C  C64  1  0.53220000  0.68010000  0.29170000  1.0 -0.1315130801
C  C65  1  0.50330000  0.68930000  0.27970000  1.0 0.1004304214
C  C66  1  0.47630000  0.66950000  0.21950000  1.0 -0.1315130801
C  C67  1  0.47870000  0.64240000  0.17150000  1.0 -0.0689878483
C  C68  1  0.50340000  0.72120000  0.32910000  1.0 0.0521268091
C  C69  1  0.50190000  0.71960000  0.41470000  1.0 0.0521268091
C  C70  1  0.50080000  0.68900000  0.45830000  1.0 -0.1315130801
C  C71  1  0.39950000  0.90570000  0.13360000  1.0 0.652346375
C  C72  1  0.36760000  0.87420000  0.18340000  1.0 -0.0100705728
C  C73  1  0.34800000  0.88290000  0.24280000  1.0 -0.0586191495
C  C74  1  0.31990000  0.85210000  0.29170000  1.0 -0.1357784541
C  C75  1  0.31070000  0.81400000  0.27970000  1.0 0.1004304214
C  C76  1  0.33050000  0.80680000  0.21950000  1.0 -0.1315130801
C  C77  1  0.35760000  0.83630000  0.17150000  1.0 -0.0689878483
C  C78  1  0.27880000  0.78220000  0.32910000  1.0 0.0521268091
C  C79  1  0.28040000  0.78230000  0.41470000  1.0 0.0521268091
C  C80  1  0.31100000  0.81180000  0.45830000  1.0 -0.1315130801
C  C81  1  0.09430000  0.49380000  0.13360000  1.0 0.652346375
C  C82  1  0.12580000  0.49340000  0.18340000  1.0 -0.0100705728
C  C83  1  0.11710000  0.46510000  0.24280000  1.0 -0.0586191495
C  C84  1  0.14790000  0.46780000  0.29170000  1.0 -0.1315130801
C  C85  1  0.18600000  0.49670000  0.27970000  1.0 0.1004304214
C  C86  1  0.19320000  0.52370000  0.21950000  1.0 -0.1315130801
C  C87  1  0.16370000  0.52130000  0.17150000  1.0 -0.0689878483
C  C88  1  0.21780000  0.49660000  0.32910000  1.0 0.0521268091
C  C89  1  0.21770000  0.49810000  0.41470000  1.0 0.0521268091
C  C90  1  0.18820000  0.49920000  0.45830000  1.0 -0.1315130801
C  C91  1  0.49380000  0.39950000  0.13360000  1.0 0.652346375
C  C92  1  0.49340000  0.36760000  0.18340000  1.0 -0.0100705728
C  C93  1  0.46510000  0.34800000  0.24280000  1.0 -0.0586191495
C  C94  1  0.46780000  0.31990000  0.29170000  1.0 -0.1315130801
C  C95  1  0.49670000  0.31070000  0.27970000  1.0 0.1004304214
C  C96  1  0.52370000  0.33050000  0.21950000  1.0 -0.1315130801
C  C97  1  0.52130000  0.35760000  0.17150000  1.0 -0.0689878483
C  C98  1  0.49660000  0.27880000  0.32910000  1.0 0.0521268091
C  C99  1  0.49810000  0.28040000  0.41470000  1.0 0.0521268091
C  C100  1  0.49920000  0.31100000  0.45830000  1.0 -0.1315130801
C  C101  1  0.60050000  0.09430000  0.13360000  1.0 0.652346375
C  C102  1  0.63240000  0.12580000  0.18340000  1.0 -0.0100705728
C  C103  1  0.65200000  0.11710000  0.24280000  1.0 -0.0586191495
C  C104  1  0.68010000  0.14790000  0.29170000  1.0 -0.1315130801
C  C105  1  0.68930000  0.18600000  0.27970000  1.0 0.1004304214
C  C106  1  0.66950000  0.19320000  0.21950000  1.0 -0.1315130801
C  C107  1  0.64240000  0.16370000  0.17150000  1.0 -0.0689878483
C  C108  1  0.72120000  0.21780000  0.32910000  1.0 0.0521268091
C  C109  1  0.71960000  0.21770000  0.41470000  1.0 0.0521268091
C  C110  1  0.68900000  0.18820000  0.45830000  1.0 -0.1315130801
C  C111  1  0.90570000  0.50620000  0.13360000  1.0 0.652346375
C  C112  1  0.87420000  0.50660000  0.18340000  1.0 -0.0100705728
C  C113  1  0.88290000  0.53490000  0.24280000  1.0 -0.0586191495
C  C114  1  0.85210000  0.53220000  0.29170000  1.0 -0.1357784541
C  C115  1  0.81400000  0.50330000  0.27970000  1.0 0.1004304214
C  C116  1  0.80680000  0.47630000  0.21950000  1.0 -0.1315130801
C  C117  1  0.83630000  0.47870000  0.17150000  1.0 -0.0689878483
C  C118  1  0.78220000  0.50340000  0.32910000  1.0 0.0521268091
C  C119  1  0.78230000  0.50190000  0.41470000  1.0 0.0521268091
C  C120  1  0.81180000  0.50080000  0.45830000  1.0 -0.1315130801
C  C121  1  0.09430000  0.60050000  0.13360000  1.0 0.652346375
C  C122  1  0.12580000  0.63240000  0.18340000  1.0 -0.0100705728
C  C123  1  0.11710000  0.65200000  0.24280000  1.0 -0.0586191495
C  C124  1  0.14790000  0.68010000  0.29170000  1.0 -0.1315130801
C  C125  1  0.18600000  0.68930000  0.27970000  1.0 0.1004304214
C  C126  1  0.19320000  0.66950000  0.21950000  1.0 -0.1315130801
C  C127  1  0.16370000  0.64240000  0.17150000  1.0 -0.0689878483
C  C128  1  0.21780000  0.72120000  0.32910000  1.0 0.0521268091
C  C129  1  0.21770000  0.71960000  0.41470000  1.0 0.0521268091
C  C130  1  0.18820000  0.68900000  0.45830000  1.0 -0.1315130801
C  C131  1  0.50620000  0.90570000  0.13360000  1.0 0.652346375
C  C132  1  0.50660000  0.87420000  0.18340000  1.0 -0.0100705728
C  C133  1  0.53490000  0.88290000  0.24280000  1.0 -0.0586191495
C  C134  1  0.53220000  0.85210000  0.29170000  1.0 -0.1357784541
C  C135  1  0.50330000  0.81400000  0.27970000  1.0 0.1004304214
C  C136  1  0.47630000  0.80680000  0.21950000  1.0 -0.1315130801
C  C137  1  0.47870000  0.83630000  0.17150000  1.0 -0.0689878483
C  C138  1  0.50340000  0.78220000  0.32910000  1.0 0.0521268091
C  C139  1  0.50190000  0.78230000  0.41470000  1.0 0.0521268091
C  C140  1  0.50080000  0.81180000  0.45830000  1.0 -0.1315130801
C  C141  1  0.39950000  0.49380000  0.13360000  1.0 0.652346375
C  C142  1  0.36760000  0.49340000  0.18340000  1.0 -0.0100705728
C  C143  1  0.34800000  0.46510000  0.24280000  1.0 -0.0586191495
C  C144  1  0.31990000  0.46780000  0.29170000  1.0 -0.1315130801
C  C145  1  0.31070000  0.49670000  0.27970000  1.0 0.1004304214
C  C146  1  0.33050000  0.52370000  0.21950000  1.0 -0.1315130801
C  C147  1  0.35760000  0.52130000  0.17150000  1.0 -0.0689878483
C  C148  1  0.27880000  0.49660000  0.32910000  1.0 0.0521268091
C  C149  1  0.28040000  0.49810000  0.41470000  1.0 0.0521268091
C  C150  1  0.31100000  0.49920000  0.45830000  1.0 -0.1315130801
C  C151  1  0.90570000  0.39950000  0.13360000  1.0 0.652346375
C  C152  1  0.87420000  0.36760000  0.18340000  1.0 -0.0100705728
C  C153  1  0.88290000  0.34800000  0.24280000  1.0 -0.0586191495
C  C154  1  0.85210000  0.31990000  0.29170000  1.0 -0.1315130801
C  C155  1  0.81400000  0.31070000  0.27970000  1.0 0.1004304214
C  C156  1  0.80680000  0.33050000  0.21950000  1.0 -0.1315130801
C  C157  1  0.83630000  0.35760000  0.17150000  1.0 -0.0689878483
C  C158  1  0.78220000  0.27880000  0.32910000  1.0 0.0521268091
C  C159  1  0.78230000  0.28040000  0.41470000  1.0 0.0521268091
C  C160  1  0.81180000  0.31100000  0.45830000  1.0 -0.1315130801
C  C161  1  0.49380000  0.09430000  0.13360000  1.0 0.652346375
C  C162  1  0.49340000  0.12580000  0.18340000  1.0 -0.0100705728
C  C163  1  0.46510000  0.11710000  0.24280000  1.0 -0.0586191495
C  C164  1  0.46780000  0.14790000  0.29170000  1.0 -0.1357784541
C  C165  1  0.49670000  0.18600000  0.27970000  1.0 0.1004304214
C  C166  1  0.52370000  0.19320000  0.21950000  1.0 -0.1315130801
C  C167  1  0.52130000  0.16370000  0.17150000  1.0 -0.0689878483
C  C168  1  0.49660000  0.21780000  0.32910000  1.0 0.0521268091
C  C169  1  0.49810000  0.21770000  0.41470000  1.0 0.0521268091
C  C170  1  0.49920000  0.18820000  0.45830000  1.0 -0.1315130801
C  C171  1  0.60050000  0.50620000  0.13360000  1.0 0.652346375
C  C172  1  0.63240000  0.50660000  0.18340000  1.0 -0.0100705728
C  C173  1  0.65200000  0.53490000  0.24280000  1.0 -0.0586191495
C  C174  1  0.68010000  0.53220000  0.29170000  1.0 -0.1357784541
C  C175  1  0.68930000  0.50330000  0.27970000  1.0 0.1004304214
C  C176  1  0.66950000  0.47630000  0.21950000  1.0 -0.1315130801
C  C177  1  0.64240000  0.47870000  0.17150000  1.0 -0.0689878483
C  C178  1  0.72120000  0.50340000  0.32910000  1.0 0.0521268091
C  C179  1  0.71960000  0.50190000  0.41470000  1.0 0.0521268091
C  C180  1  0.68900000  0.50080000  0.45830000  1.0 -0.1315130801
C  C181  1  0.49380000  0.39950000  0.86640000  1.0 0.652346375
C  C182  1  0.49340000  0.36760000  0.81660000  1.0 -0.0100705728
C  C183  1  0.46510000  0.34800000  0.75720000  1.0 -0.0586191495
C  C184  1  0.46780000  0.31990000  0.70830000  1.0 -0.1315130801
C  C185  1  0.49670000  0.31070000  0.72030000  1.0 0.1004304214
C  C186  1  0.52370000  0.33050000  0.78050000  1.0 -0.1315130801
C  C187  1  0.52130000  0.35760000  0.82850000  1.0 -0.0689878483
C  C188  1  0.49660000  0.27880000  0.67090000  1.0 0.0521268091
C  C189  1  0.49810000  0.28040000  0.58530000  1.0 0.0521268091
C  C190  1  0.49920000  0.31100000  0.54170000  1.0 -0.1315130801
C  C191  1  0.60050000  0.09430000  0.86640000  1.0 0.652346375
C  C192  1  0.63240000  0.12580000  0.81660000  1.0 -0.0100705728
C  C193  1  0.65200000  0.11710000  0.75720000  1.0 -0.0586191495
C  C194  1  0.68010000  0.14790000  0.70830000  1.0 -0.1357784541
C  C195  1  0.68930000  0.18600000  0.72030000  1.0 0.1004304214
C  C196  1  0.66950000  0.19320000  0.78050000  1.0 -0.1315130801
C  C197  1  0.64240000  0.16370000  0.82850000  1.0 -0.0689878483
C  C198  1  0.72120000  0.21780000  0.67090000  1.0 0.0521268091
C  C199  1  0.71960000  0.21770000  0.58530000  1.0 0.0521268091
C  C200  1  0.68900000  0.18820000  0.54170000  1.0 -0.1315130801
C  C201  1  0.90570000  0.50620000  0.86640000  1.0 0.652346375
C  C202  1  0.87420000  0.50660000  0.81660000  1.0 -0.0100705728
C  C203  1  0.88290000  0.53490000  0.75720000  1.0 -0.0586191495
C  C204  1  0.85210000  0.53220000  0.70830000  1.0 -0.1357784541
C  C205  1  0.81400000  0.50330000  0.72030000  1.0 0.1004304214
C  C206  1  0.80680000  0.47630000  0.78050000  1.0 -0.1315130801
C  C207  1  0.83630000  0.47870000  0.82850000  1.0 -0.0689878483
C  C208  1  0.78220000  0.50340000  0.67090000  1.0 0.0521268091
C  C209  1  0.78230000  0.50190000  0.58530000  1.0 0.0521268091
C  C210  1  0.81180000  0.50080000  0.54170000  1.0 -0.1315130801
C  C211  1  0.50620000  0.60050000  0.86640000  1.0 0.652346375
C  C212  1  0.50660000  0.63240000  0.81660000  1.0 -0.0100705728
C  C213  1  0.53490000  0.65200000  0.75720000  1.0 -0.0586191495
C  C214  1  0.53220000  0.68010000  0.70830000  1.0 -0.1357784541
C  C215  1  0.50330000  0.68930000  0.72030000  1.0 0.1004304214
C  C216  1  0.47630000  0.66950000  0.78050000  1.0 -0.1315130801
C  C217  1  0.47870000  0.64240000  0.82850000  1.0 -0.0689878483
C  C218  1  0.50340000  0.72120000  0.67090000  1.0 0.0521268091
C  C219  1  0.50190000  0.71960000  0.58530000  1.0 0.0521268091
C  C220  1  0.50080000  0.68900000  0.54170000  1.0 -0.1315130801
C  C221  1  0.39950000  0.90570000  0.86640000  1.0 0.652346375
C  C222  1  0.36760000  0.87420000  0.81660000  1.0 -0.0100705728
C  C223  1  0.34800000  0.88290000  0.75720000  1.0 -0.0586191495
C  C224  1  0.31990000  0.85210000  0.70830000  1.0 -0.1357784541
C  C225  1  0.31070000  0.81400000  0.72030000  1.0 0.1004304214
C  C226  1  0.33050000  0.80680000  0.78050000  1.0 -0.1315130801
C  C227  1  0.35760000  0.83630000  0.82850000  1.0 -0.0689878483
C  C228  1  0.27880000  0.78220000  0.67090000  1.0 0.0521268091
C  C229  1  0.28040000  0.78230000  0.58530000  1.0 0.0521268091
C  C230  1  0.31100000  0.81180000  0.54170000  1.0 -0.1315130801
C  C231  1  0.09430000  0.49380000  0.86640000  1.0 0.652346375
C  C232  1  0.12580000  0.49340000  0.81660000  1.0 -0.0100705728
C  C233  1  0.11710000  0.46510000  0.75720000  1.0 -0.0586191495
C  C234  1  0.14790000  0.46780000  0.70830000  1.0 -0.1357784541
C  C235  1  0.18600000  0.49670000  0.72030000  1.0 0.1004304214
C  C236  1  0.19320000  0.52370000  0.78050000  1.0 -0.1315130801
C  C237  1  0.16370000  0.52130000  0.82850000  1.0 -0.0689878483
C  C238  1  0.21780000  0.49660000  0.67090000  1.0 0.0521268091
C  C239  1  0.21770000  0.49810000  0.58530000  1.0 0.0521268091
C  C240  1  0.18820000  0.49920000  0.54170000  1.0 -0.1315130801
C  C241  1  0.75220000  0.24780000  0.71160000  1.0 -0.1675770806
C  C242  1  0.75175000  0.24825000  0.54260000  1.0 0.0370805684
C  C243  1  0.49560000  0.24780000  0.71160000  1.0 -0.1675770806
C  C244  1  0.49650000  0.24825000  0.54260000  1.0 0.0370805684
C  C245  1  0.75220000  0.50440000  0.71160000  1.0 -0.1675770806
C  C246  1  0.75175000  0.50350000  0.54260000  1.0 0.0370805684
C  C247  1  0.24780000  0.75220000  0.71160000  1.0 -0.1675770806
C  C248  1  0.24825000  0.75175000  0.54260000  1.0 0.0370805684
C  C249  1  0.50440000  0.75220000  0.71160000  1.0 -0.1675770806
C  C250  1  0.50350000  0.75175000  0.54260000  1.0 0.0370805684
C  C251  1  0.24780000  0.49560000  0.71160000  1.0 -0.1675770806
C  C252  1  0.24825000  0.49650000  0.54260000  1.0 0.0370805684
C  C253  1  0.50440000  0.75220000  0.28840000  1.0 -0.1675770806
C  C254  1  0.50350000  0.75175000  0.45740000  1.0 0.0370805684
C  C255  1  0.24780000  0.75220000  0.28840000  1.0 -0.1675770806
C  C256  1  0.24825000  0.75175000  0.45740000  1.0 0.0370805684
C  C257  1  0.24780000  0.49560000  0.28840000  1.0 -0.1675770806
C  C258  1  0.24825000  0.49650000  0.45740000  1.0 0.0370805684
C  C259  1  0.49560000  0.24780000  0.28840000  1.0 -0.1675770806
C  C260  1  0.49650000  0.24825000  0.45740000  1.0 0.0370805684
C  C261  1  0.75220000  0.24780000  0.28840000  1.0 -0.1675770806
C  C262  1  0.75175000  0.24825000  0.45740000  1.0 0.0370805684
C  C263  1  0.75220000  0.50440000  0.28840000  1.0 -0.1675770806
C  C264  1  0.75175000  0.50350000  0.45740000  1.0 0.0370805684
O  O1  1  0.89556000  0.41436000  0.91940000  1.0 -0.5322918048
O  O2  1  0.94085000  0.40866000  0.84790000  1.0 -0.5620633812
O  O3  1  0.51880000  0.10444000  0.91940000  1.0 -0.5322918048
O  O4  1  0.46781000  0.05915000  0.84790000  1.0 -0.5620633812
O  O5  1  0.58564000  0.48120000  0.91940000  1.0 -0.5322918048
O  O6  1  0.59134000  0.53219000  0.84790000  1.0 -0.5620633812
O  O7  1  0.10444000  0.58564000  0.91940000  1.0 -0.5322918048
O  O8  1  0.05915000  0.59134000  0.84790000  1.0 -0.5620633812
O  O9  1  0.48120000  0.89556000  0.91940000  1.0 -0.5322918048
O  O10  1  0.53219000  0.94085000  0.84790000  1.0 -0.5620633812
O  O11  1  0.41436000  0.51880000  0.91940000  1.0 -0.5322918048
O  O12  1  0.40866000  0.46781000  0.84790000  1.0 -0.5620633812
O  O13  1  0.48120000  0.58564000  0.08060000  1.0 -0.5322918048
O  O14  1  0.53219000  0.59134000  0.15210000  1.0 -0.5620633812
O  O15  1  0.41436000  0.89556000  0.08060000  1.0 -0.5322918048
O  O16  1  0.40866000  0.94085000  0.15210000  1.0 -0.5620633812
O  O17  1  0.10444000  0.51880000  0.08060000  1.0 -0.5322918048
O  O18  1  0.05915000  0.46781000  0.15210000  1.0 -0.5620633812
O  O19  1  0.51880000  0.41436000  0.08060000  1.0 -0.5322918048
O  O20  1  0.46781000  0.40866000  0.15210000  1.0 -0.5620633812
O  O21  1  0.58564000  0.10444000  0.08060000  1.0 -0.5322918048
O  O22  1  0.59134000  0.05915000  0.15210000  1.0 -0.5620633812
O  O23  1  0.89556000  0.48120000  0.08060000  1.0 -0.5322918048
O  O24  1  0.94085000  0.53219000  0.15210000  1.0 -0.5620633812
O  O25  1  0.10444000  0.58564000  0.08060000  1.0 -0.5322918048
O  O26  1  0.05915000  0.59134000  0.15210000  1.0 -0.5620633812
O  O27  1  0.48120000  0.89556000  0.08060000  1.0 -0.5322918048
O  O28  1  0.53219000  0.94085000  0.15210000  1.0 -0.5620633812
O  O29  1  0.41436000  0.51880000  0.08060000  1.0 -0.5322918048
O  O30  1  0.40866000  0.46781000  0.15210000  1.0 -0.5620633812
O  O31  1  0.89556000  0.41436000  0.08060000  1.0 -0.5322918048
O  O32  1  0.94085000  0.40866000  0.15210000  1.0 -0.5620633812
O  O33  1  0.51880000  0.10444000  0.08060000  1.0 -0.5322918048
O  O34  1  0.46781000  0.05915000  0.15210000  1.0 -0.5620633812
O  O35  1  0.58564000  0.48120000  0.08060000  1.0 -0.5322918048
O  O36  1  0.59134000  0.53219000  0.15210000  1.0 -0.5620633812
O  O37  1  0.51880000  0.41436000  0.91940000  1.0 -0.5322918048
O  O38  1  0.46781000  0.40866000  0.84790000  1.0 -0.5620633812
O  O39  1  0.58564000  0.10444000  0.91940000  1.0 -0.5322918048
O  O40  1  0.59134000  0.05915000  0.84790000  1.0 -0.5620633812
O  O41  1  0.89556000  0.48120000  0.91940000  1.0 -0.5322918048
O  O42  1  0.94085000  0.53219000  0.84790000  1.0 -0.5620633812
O  O43  1  0.48120000  0.58564000  0.91940000  1.0 -0.5322918048
O  O44  1  0.53219000  0.59134000  0.84790000  1.0 -0.5620633812
O  O45  1  0.41436000  0.89556000  0.91940000  1.0 -0.5322918048
O  O46  1  0.40866000  0.94085000  0.84790000  1.0 -0.5620633812
O  O47  1  0.10444000  0.51880000  0.91940000  1.0 -0.5322918048
O  O48  1  0.05915000  0.46781000  0.84790000  1.0 -0.5620633812
O  O49  1  0.00000000  0.45850000  0.75900000  1.0 -0.7108101607
O  O50  1  0.00000000  0.39980000  0.90020000  1.0 -0.6831463377
O  O51  1  0.45850000  0.00000000  0.75900000  1.0 -0.702810146
O  O52  1  0.39980000  0.00000000  0.90020000  1.0 -0.6831463377
O  O53  1  0.54150000  0.54150000  0.75900000  1.0 -0.702810146
O  O54  1  0.60020000  0.60020000  0.90020000  1.0 -0.6831463377
O  O55  1  0.00000000  0.54150000  0.75900000  1.0 -0.7108101607
O  O56  1  0.00000000  0.60020000  0.90020000  1.0 -0.6887376012
O  O57  1  0.54150000  0.00000000  0.75900000  1.0 -0.702810146
O  O58  1  0.60020000  0.00000000  0.90020000  1.0 -0.6831463377
O  O59  1  0.45850000  0.45850000  0.75900000  1.0 -0.702810146
O  O60  1  0.39980000  0.39980000  0.90020000  1.0 -0.6887376012
O  O61  1  0.54150000  0.54150000  0.24100000  1.0 -0.7108101607
O  O62  1  0.60020000  0.60020000  0.09980000  1.0 -0.702810146
O  O63  1  0.45850000  0.00000000  0.24100000  1.0 -0.7108101607
O  O64  1  0.39980000  0.00000000  0.09980000  1.0 -0.702810146
O  O65  1  0.00000000  0.45850000  0.24100000  1.0 -0.7193439008
O  O66  1  0.00000000  0.39980000  0.09980000  1.0 -0.702810146
O  O67  1  0.45850000  0.45850000  0.24100000  1.0 -0.7193439008
O  O68  1  0.39980000  0.39980000  0.09980000  1.0 -0.6831463377
O  O69  1  0.54150000  0.00000000  0.24100000  1.0 -0.7108101607
O  O70  1  0.60020000  0.00000000  0.09980000  1.0 -0.702810146
O  O71  1  0.00000000  0.54150000  0.24100000  1.0 -0.7193439008
O  O72  1  0.00000000  0.60020000  0.09980000  1.0 -0.6831463377
O  O73  1  0.96402000  0.43357000  0.00000000  1.0 -1.1239725114
O  O74  1  0.46955000  0.03598000  0.00000000  1.0 -1.1292158537
O  O75  1  0.56643000  0.53045000  0.00000000  1.0 -1.1292158537
O  O76  1  0.03598000  0.56643000  0.00000000  1.0 -1.1239725114
O  O77  1  0.53045000  0.96402000  0.00000000  1.0 -1.1239725114
O  O78  1  0.43357000  0.46955000  0.00000000  1.0 -1.1292158537
O  O79  1  0.53045000  0.56643000  0.00000000  1.0 -1.1292158537
O  O80  1  0.43357000  0.96402000  0.00000000  1.0 -1.1239725114
O  O81  1  0.03598000  0.46955000  0.00000000  1.0 -1.1292158537
O  O82  1  0.46955000  0.43357000  0.00000000  1.0 -1.1239725114
O  O83  1  0.56643000  0.03598000  0.00000000  1.0 -1.1292158537
O  O84  1  0.96402000  0.53045000  0.00000000  1.0 -1.1292158537
O  O85  1  0.96470000  0.48235000  0.89190000  1.0 -1.1476395131
O  O86  1  0.51765000  0.03530000  0.89190000  1.0 -1.1476395131
O  O87  1  0.51765000  0.48235000  0.89190000  1.0 -1.1476395131
O  O88  1  0.03530000  0.51765000  0.89190000  1.0 -1.1476395131
O  O89  1  0.48235000  0.96470000  0.89190000  1.0 -1.1476395131
O  O90  1  0.48235000  0.51765000  0.89190000  1.0 -1.1476395131
O  O91  1  0.48235000  0.51765000  0.10810000  1.0 -1.1436849237
O  O92  1  0.48235000  0.96470000  0.10810000  1.0 -1.1476395131
O  O93  1  0.03530000  0.51765000  0.10810000  1.0 -1.1476395131
O  O94  1  0.51765000  0.48235000  0.10810000  1.0 -1.1476395131
O  O95  1  0.51765000  0.03530000  0.10810000  1.0 -1.1476395131
O  O96  1  0.96470000  0.48235000  0.10810000  1.0 -1.1436849237
