# DDEC6 charges by PACMAN v1.1 (https://github.com/mtap-research/PACMAN-charge/)
data_FAKMOX_ion_pacman
_symmetry_space_group_name_H-M   'P 1'
_cell_length_a   39.31430000
_cell_length_b   39.31430000
_cell_length_c   16.54970000
_cell_angle_alpha   90.00000000
_cell_angle_beta   90.00000000
_cell_angle_gamma   120.00000000
_symmetry_Int_Tables_number   1
_chemical_formula_structural   Zr3H22C44(BrO8)2
_chemical_formula_sum   'Zr18 H132 C264 Br12 O96'
_cell_volume   22152.45444066
_cell_formula_units_Z   6
loop_
 _symmetry_equiv_pos_site_id
 _symmetry_equiv_pos_as_xyz
  1  'x, y, z'
loop_
 _atom_site_type_symbol
 _atom_site_label
 _atom_site_symmetry_multiplicity
 _atom_site_fract_x
 _atom_site_fract_y
 _atom_site_fract_z
 _atom_site_occupancy
 _atom_site_charge
Zr  Zr1  1  0.07180000  0.53590000  0.50000000  1.0 2.3863420911
Zr  Zr2  1  0.46410000  0.92820000  0.50000000  1.0 2.3863420911
Zr  Zr3  1  0.46410000  0.53590000  0.50000000  1.0 2.3863420911
Zr  Zr4  1  0.92820000  0.46410000  0.50000000  1.0 2.3863420911
Zr  Zr5  1  0.53590000  0.07180000  0.50000000  1.0 2.3863420911
Zr  Zr6  1  0.53590000  0.46410000  0.50000000  1.0 2.3863420911
Zr  Zr7  1  0.00000000  0.54515000  0.60640000  1.0 2.5394500521
Zr  Zr8  1  0.54515000  0.00000000  0.60640000  1.0 2.5394500521
Zr  Zr9  1  0.45485000  0.45485000  0.60640000  1.0 2.5394500521
Zr  Zr10  1  0.00000000  0.45485000  0.60640000  1.0 2.5394500521
Zr  Zr11  1  0.45485000  0.00000000  0.60640000  1.0 2.5394500521
Zr  Zr12  1  0.54515000  0.54515000  0.60640000  1.0 2.5394500521
Zr  Zr13  1  0.45485000  0.45485000  0.39360000  1.0 2.5394500521
Zr  Zr14  1  0.54515000  0.00000000  0.39360000  1.0 2.5394500521
Zr  Zr15  1  0.00000000  0.54515000  0.39360000  1.0 2.5394500521
Zr  Zr16  1  0.54515000  0.54515000  0.39360000  1.0 2.5394500521
Zr  Zr17  1  0.45485000  0.00000000  0.39360000  1.0 2.5394500521
Zr  Zr18  1  0.00000000  0.45485000  0.39360000  1.0 2.5394500521
H  H1  1  0.17050000  0.63000000  0.63440000  1.0 0.1507848461
H  H2  1  0.21950000  0.67820000  0.71340000  1.0 0.133315454
H  H3  1  0.08960000  0.64660000  0.74840000  1.0 0.1382752721
H  H4  1  0.13830000  0.69350000  0.83120000  1.0 0.133315454
H  H5  1  0.16490000  0.66900000  0.93060000  1.0 0.133315454
H  H6  1  0.45950000  0.82950000  0.63440000  1.0 0.1507848461
H  H7  1  0.45870000  0.78050000  0.71340000  1.0 0.133315454
H  H8  1  0.55700000  0.91040000  0.74840000  1.0 0.1382752721
H  H9  1  0.55520000  0.86170000  0.83120000  1.0 0.133315454
H  H10  1  0.50410000  0.83510000  0.93060000  1.0 0.133315454
H  H11  1  0.37000000  0.54050000  0.63440000  1.0 0.1507848461
H  H12  1  0.32180000  0.54130000  0.71340000  1.0 0.133315454
H  H13  1  0.35340000  0.44300000  0.74840000  1.0 0.1382752721
H  H14  1  0.30650000  0.44480000  0.83120000  1.0 0.133315454
H  H15  1  0.33100000  0.49590000  0.93060000  1.0 0.133315454
H  H16  1  0.82950000  0.37000000  0.63440000  1.0 0.1507848461
H  H17  1  0.78050000  0.32180000  0.71340000  1.0 0.133315454
H  H18  1  0.91040000  0.35340000  0.74840000  1.0 0.1382752721
H  H19  1  0.86170000  0.30650000  0.83120000  1.0 0.133315454
H  H20  1  0.83510000  0.33100000  0.93060000  1.0 0.133315454
H  H21  1  0.54050000  0.17050000  0.63440000  1.0 0.1507848461
H  H22  1  0.54130000  0.21950000  0.71340000  1.0 0.133315454
H  H23  1  0.44300000  0.08960000  0.74840000  1.0 0.1382752721
H  H24  1  0.44480000  0.13830000  0.83120000  1.0 0.133315454
H  H25  1  0.49590000  0.16490000  0.93060000  1.0 0.133315454
H  H26  1  0.63000000  0.45950000  0.63440000  1.0 0.1507848461
H  H27  1  0.67820000  0.45870000  0.71340000  1.0 0.133315454
H  H28  1  0.64660000  0.55700000  0.74840000  1.0 0.1382752721
H  H29  1  0.69350000  0.55520000  0.83120000  1.0 0.133315454
H  H30  1  0.66900000  0.50410000  0.93060000  1.0 0.133315454
H  H31  1  0.54050000  0.37000000  0.36560000  1.0 0.1507848461
H  H32  1  0.54130000  0.32180000  0.28660000  1.0 0.133315454
H  H33  1  0.44300000  0.35340000  0.25160000  1.0 0.1382752721
H  H34  1  0.44480000  0.30650000  0.16880000  1.0 0.133315454
H  H35  1  0.49590000  0.33100000  0.06940000  1.0 0.133315454
H  H36  1  0.63000000  0.17050000  0.36560000  1.0 0.1507848461
H  H37  1  0.67820000  0.21950000  0.28660000  1.0 0.133315454
H  H38  1  0.64660000  0.08960000  0.25160000  1.0 0.1382752721
H  H39  1  0.69350000  0.13830000  0.16880000  1.0 0.133315454
H  H40  1  0.66900000  0.16490000  0.06940000  1.0 0.133315454
H  H41  1  0.82950000  0.45950000  0.36560000  1.0 0.1507848461
H  H42  1  0.78050000  0.45870000  0.28660000  1.0 0.133315454
H  H43  1  0.91040000  0.55700000  0.25160000  1.0 0.1382752721
H  H44  1  0.86170000  0.55520000  0.16880000  1.0 0.133315454
H  H45  1  0.83510000  0.50410000  0.06940000  1.0 0.133315454
H  H46  1  0.45950000  0.63000000  0.36560000  1.0 0.1507848461
H  H47  1  0.45870000  0.67820000  0.28660000  1.0 0.133315454
H  H48  1  0.55700000  0.64660000  0.25160000  1.0 0.1382752721
H  H49  1  0.55520000  0.69350000  0.16880000  1.0 0.1382752721
H  H50  1  0.50410000  0.66900000  0.06940000  1.0 0.133315454
H  H51  1  0.37000000  0.82950000  0.36560000  1.0 0.1507848461
H  H52  1  0.32180000  0.78050000  0.28660000  1.0 0.133315454
H  H53  1  0.35340000  0.91040000  0.25160000  1.0 0.1382752721
H  H54  1  0.30650000  0.86170000  0.16880000  1.0 0.133315454
H  H55  1  0.33100000  0.83510000  0.06940000  1.0 0.133315454
H  H56  1  0.17050000  0.54050000  0.36560000  1.0 0.1507848461
H  H57  1  0.21950000  0.54130000  0.28660000  1.0 0.133315454
H  H58  1  0.08960000  0.44300000  0.25160000  1.0 0.1382752721
H  H59  1  0.13830000  0.44480000  0.16880000  1.0 0.133315454
H  H60  1  0.16490000  0.49590000  0.06940000  1.0 0.133315454
H  H61  1  0.82950000  0.37000000  0.36560000  1.0 0.1507848461
H  H62  1  0.78050000  0.32180000  0.28660000  1.0 0.133315454
H  H63  1  0.91040000  0.35340000  0.25160000  1.0 0.1382752721
H  H64  1  0.86170000  0.30650000  0.16880000  1.0 0.133315454
H  H65  1  0.83510000  0.33100000  0.06940000  1.0 0.133315454
H  H66  1  0.54050000  0.17050000  0.36560000  1.0 0.1507848461
H  H67  1  0.54130000  0.21950000  0.28660000  1.0 0.133315454
H  H68  1  0.44300000  0.08960000  0.25160000  1.0 0.1382752721
H  H69  1  0.44480000  0.13830000  0.16880000  1.0 0.133315454
H  H70  1  0.49590000  0.16490000  0.06940000  1.0 0.133315454
H  H71  1  0.63000000  0.45950000  0.36560000  1.0 0.1507848461
H  H72  1  0.67820000  0.45870000  0.28660000  1.0 0.133315454
H  H73  1  0.64660000  0.55700000  0.25160000  1.0 0.1382752721
H  H74  1  0.69350000  0.55520000  0.16880000  1.0 0.133315454
H  H75  1  0.66900000  0.50410000  0.06940000  1.0 0.133315454
H  H76  1  0.17050000  0.63000000  0.36560000  1.0 0.1507848461
H  H77  1  0.21950000  0.67820000  0.28660000  1.0 0.133315454
H  H78  1  0.08960000  0.64660000  0.25160000  1.0 0.1382752721
H  H79  1  0.13830000  0.69350000  0.16880000  1.0 0.133315454
H  H80  1  0.16490000  0.66900000  0.06940000  1.0 0.133315454
H  H81  1  0.45950000  0.82950000  0.36560000  1.0 0.1507848461
H  H82  1  0.45870000  0.78050000  0.28660000  1.0 0.133315454
H  H83  1  0.55700000  0.91040000  0.25160000  1.0 0.1382752721
H  H84  1  0.55520000  0.86170000  0.16880000  1.0 0.133315454
H  H85  1  0.50410000  0.83510000  0.06940000  1.0 0.133315454
H  H86  1  0.37000000  0.54050000  0.36560000  1.0 0.1507848461
H  H87  1  0.32180000  0.54130000  0.28660000  1.0 0.133315454
H  H88  1  0.35340000  0.44300000  0.25160000  1.0 0.1382752721
H  H89  1  0.30650000  0.44480000  0.16880000  1.0 0.133315454
H  H90  1  0.33100000  0.49590000  0.06940000  1.0 0.133315454
H  H91  1  0.45950000  0.63000000  0.63440000  1.0 0.1507848461
H  H92  1  0.45870000  0.67820000  0.71340000  1.0 0.133315454
H  H93  1  0.55700000  0.64660000  0.74840000  1.0 0.1382752721
H  H94  1  0.55520000  0.69350000  0.83120000  1.0 0.133315454
H  H95  1  0.50410000  0.66900000  0.93060000  1.0 0.133315454
H  H96  1  0.37000000  0.82950000  0.63440000  1.0 0.1507848461
H  H97  1  0.32180000  0.78050000  0.71340000  1.0 0.133315454
H  H98  1  0.35340000  0.91040000  0.74840000  1.0 0.1382752721
H  H99  1  0.30650000  0.86170000  0.83120000  1.0 0.133315454
H  H100  1  0.33100000  0.83510000  0.93060000  1.0 0.133315454
H  H101  1  0.17050000  0.54050000  0.63440000  1.0 0.1507848461
H  H102  1  0.21950000  0.54130000  0.71340000  1.0 0.133315454
H  H103  1  0.08960000  0.44300000  0.74840000  1.0 0.1382752721
H  H104  1  0.13830000  0.44480000  0.83120000  1.0 0.133315454
H  H105  1  0.16490000  0.49590000  0.93060000  1.0 0.133315454
H  H106  1  0.54050000  0.37000000  0.63440000  1.0 0.1507848461
H  H107  1  0.54130000  0.32180000  0.71340000  1.0 0.133315454
H  H108  1  0.44300000  0.35340000  0.74840000  1.0 0.1382752721
H  H109  1  0.44480000  0.30650000  0.83120000  1.0 0.133315454
H  H110  1  0.49590000  0.33100000  0.93060000  1.0 0.133315454
H  H111  1  0.63000000  0.17050000  0.63440000  1.0 0.1507848461
H  H112  1  0.67820000  0.21950000  0.71340000  1.0 0.133315454
H  H113  1  0.64660000  0.08960000  0.74840000  1.0 0.1382752721
H  H114  1  0.69350000  0.13830000  0.83120000  1.0 0.133315454
H  H115  1  0.66900000  0.16490000  0.93060000  1.0 0.133315454
H  H116  1  0.82950000  0.45950000  0.63440000  1.0 0.1507848461
H  H117  1  0.78050000  0.45870000  0.71340000  1.0 0.133315454
H  H118  1  0.91040000  0.55700000  0.74840000  1.0 0.1382752721
H  H119  1  0.86170000  0.55520000  0.83120000  1.0 0.133315454
H  H120  1  0.83510000  0.50410000  0.93060000  1.0 0.133315454
H  H121  1  0.24665000  0.75335000  0.73190000  1.0 0.1382752721
H  H122  1  0.50670000  0.75335000  0.73190000  1.0 0.1382752721
H  H123  1  0.24665000  0.49330000  0.73190000  1.0 0.1382752721
H  H124  1  0.75335000  0.24665000  0.73190000  1.0 0.1382752721
H  H125  1  0.49330000  0.24665000  0.73190000  1.0 0.1382752721
H  H126  1  0.75335000  0.50670000  0.73190000  1.0 0.1382752721
H  H127  1  0.49330000  0.24665000  0.26810000  1.0 0.1382752721
H  H128  1  0.75335000  0.24665000  0.26810000  1.0 0.1382752721
H  H129  1  0.75335000  0.50670000  0.26810000  1.0 0.1382752721
H  H130  1  0.50670000  0.75335000  0.26810000  1.0 0.1382752721
H  H131  1  0.24665000  0.75335000  0.26810000  1.0 0.1382752721
H  H132  1  0.24665000  0.49330000  0.26810000  1.0 0.1382752721
C  C1  1  0.09354000  0.60056000  0.63470000  1.0 0.639523201
C  C2  1  0.18397000  0.69122000  0.78010000  1.0 0.0960225876
C  C3  1  0.12552000  0.63304000  0.68360000  1.0 -0.0258770446
C  C4  1  0.16379000  0.64307000  0.67420000  1.0 -0.0782099916
C  C5  1  0.19298000  0.67172000  0.72120000  1.0 -0.1394702464
C  C6  1  0.21552000  0.72192000  0.91370000  1.0 0.0478608571
C  C7  1  0.21612000  0.72262000  0.82900000  1.0 0.0308290279
C  C8  1  0.11611000  0.65273000  0.74200000  1.0 -0.0685196352
C  C9  1  0.14517000  0.68097000  0.79040000  1.0 -0.1394702464
C  C10  1  0.18551000  0.69061000  0.95860000  1.0 -0.1394702464
C  C11  1  0.50702000  0.90646000  0.63470000  1.0 0.639523201
C  C12  1  0.50725000  0.81603000  0.78010000  1.0 0.0960225876
C  C13  1  0.50752000  0.87448000  0.68360000  1.0 -0.0258770446
C  C14  1  0.47928000  0.83621000  0.67420000  1.0 -0.0782099916
C  C15  1  0.47874000  0.80702000  0.72120000  1.0 -0.1394702464
C  C16  1  0.50640000  0.78448000  0.91370000  1.0 0.0478608571
C  C17  1  0.50650000  0.78388000  0.82900000  1.0 0.0308290279
C  C18  1  0.53662000  0.88389000  0.74200000  1.0 -0.0685196352
C  C19  1  0.53580000  0.85483000  0.79040000  1.0 -0.1394702464
C  C20  1  0.50510000  0.81449000  0.95860000  1.0 -0.1394702464
C  C21  1  0.39944000  0.49298000  0.63470000  1.0 0.639523201
C  C22  1  0.30878000  0.49275000  0.78010000  1.0 0.0960225876
C  C23  1  0.36696000  0.49248000  0.68360000  1.0 -0.0258770446
C  C24  1  0.35693000  0.52072000  0.67420000  1.0 -0.0782099916
C  C25  1  0.32828000  0.52126000  0.72120000  1.0 -0.1394702464
C  C26  1  0.27808000  0.49360000  0.91370000  1.0 0.0478608571
C  C27  1  0.27738000  0.49350000  0.82900000  1.0 0.0308290279
C  C28  1  0.34727000  0.46338000  0.74200000  1.0 -0.0685196352
C  C29  1  0.31903000  0.46420000  0.79040000  1.0 -0.1394702464
C  C30  1  0.30939000  0.49490000  0.95860000  1.0 -0.1394702464
C  C31  1  0.90646000  0.39944000  0.63470000  1.0 0.639523201
C  C32  1  0.81603000  0.30878000  0.78010000  1.0 0.0960225876
C  C33  1  0.87448000  0.36696000  0.68360000  1.0 -0.0258770446
C  C34  1  0.83621000  0.35693000  0.67420000  1.0 -0.0782099916
C  C35  1  0.80702000  0.32828000  0.72120000  1.0 -0.1394702464
C  C36  1  0.78448000  0.27808000  0.91370000  1.0 0.0478608571
C  C37  1  0.78388000  0.27738000  0.82900000  1.0 0.0308290279
C  C38  1  0.88389000  0.34727000  0.74200000  1.0 -0.0685196352
C  C39  1  0.85483000  0.31903000  0.79040000  1.0 -0.1394702464
C  C40  1  0.81449000  0.30939000  0.95860000  1.0 -0.1394702464
C  C41  1  0.49298000  0.09354000  0.63470000  1.0 0.639523201
C  C42  1  0.49275000  0.18397000  0.78010000  1.0 0.0960225876
C  C43  1  0.49248000  0.12552000  0.68360000  1.0 -0.0258770446
C  C44  1  0.52072000  0.16379000  0.67420000  1.0 -0.0782099916
C  C45  1  0.52126000  0.19298000  0.72120000  1.0 -0.1394702464
C  C46  1  0.49360000  0.21552000  0.91370000  1.0 0.0478608571
C  C47  1  0.49350000  0.21612000  0.82900000  1.0 0.0308290279
C  C48  1  0.46338000  0.11611000  0.74200000  1.0 -0.0685196352
C  C49  1  0.46420000  0.14517000  0.79040000  1.0 -0.1394702464
C  C50  1  0.49490000  0.18551000  0.95860000  1.0 -0.1394702464
C  C51  1  0.60056000  0.50702000  0.63470000  1.0 0.639523201
C  C52  1  0.69122000  0.50725000  0.78010000  1.0 0.0960225876
C  C53  1  0.63304000  0.50752000  0.68360000  1.0 -0.0258770446
C  C54  1  0.64307000  0.47928000  0.67420000  1.0 -0.0782099916
C  C55  1  0.67172000  0.47874000  0.72120000  1.0 -0.1394702464
C  C56  1  0.72192000  0.50640000  0.91370000  1.0 0.0478608571
C  C57  1  0.72262000  0.50650000  0.82900000  1.0 0.0308290279
C  C58  1  0.65273000  0.53662000  0.74200000  1.0 -0.0685196352
C  C59  1  0.68097000  0.53580000  0.79040000  1.0 -0.1394702464
C  C60  1  0.69061000  0.50510000  0.95860000  1.0 -0.1394702464
C  C61  1  0.49298000  0.39944000  0.36530000  1.0 0.639523201
C  C62  1  0.49275000  0.30878000  0.21990000  1.0 0.0960225876
C  C63  1  0.49248000  0.36696000  0.31640000  1.0 -0.0258770446
C  C64  1  0.52072000  0.35693000  0.32580000  1.0 -0.0782099916
C  C65  1  0.52126000  0.32828000  0.27880000  1.0 -0.1394702464
C  C66  1  0.49360000  0.27808000  0.08630000  1.0 0.0478608571
C  C67  1  0.49350000  0.27738000  0.17100000  1.0 0.0308290279
C  C68  1  0.46338000  0.34727000  0.25800000  1.0 -0.0685196352
C  C69  1  0.46420000  0.31903000  0.20960000  1.0 -0.1394702464
C  C70  1  0.49490000  0.30939000  0.04140000  1.0 -0.1394702464
C  C71  1  0.60056000  0.09354000  0.36530000  1.0 0.639523201
C  C72  1  0.69122000  0.18397000  0.21990000  1.0 0.0960225876
C  C73  1  0.63304000  0.12552000  0.31640000  1.0 -0.0258770446
C  C74  1  0.64307000  0.16379000  0.32580000  1.0 -0.0782099916
C  C75  1  0.67172000  0.19298000  0.27880000  1.0 -0.1394702464
C  C76  1  0.72192000  0.21552000  0.08630000  1.0 0.0478608571
C  C77  1  0.72262000  0.21612000  0.17100000  1.0 0.0308290279
C  C78  1  0.65273000  0.11611000  0.25800000  1.0 -0.0685196352
C  C79  1  0.68097000  0.14517000  0.20960000  1.0 -0.1394702464
C  C80  1  0.69061000  0.18551000  0.04140000  1.0 -0.1394702464
C  C81  1  0.90646000  0.50702000  0.36530000  1.0 0.639523201
C  C82  1  0.81603000  0.50725000  0.21990000  1.0 0.0960225876
C  C83  1  0.87448000  0.50752000  0.31640000  1.0 -0.0258770446
C  C84  1  0.83621000  0.47928000  0.32580000  1.0 -0.0782099916
C  C85  1  0.80702000  0.47874000  0.27880000  1.0 -0.1339455815
C  C86  1  0.78448000  0.50640000  0.08630000  1.0 0.0478608571
C  C87  1  0.78388000  0.50650000  0.17100000  1.0 0.0308290279
C  C88  1  0.88389000  0.53662000  0.25800000  1.0 -0.0685196352
C  C89  1  0.85483000  0.53580000  0.20960000  1.0 -0.1394702464
C  C90  1  0.81449000  0.50510000  0.04140000  1.0 -0.1394702464
C  C91  1  0.50702000  0.60056000  0.36530000  1.0 0.639523201
C  C92  1  0.50725000  0.69122000  0.21990000  1.0 0.0960225876
C  C93  1  0.50752000  0.63304000  0.31640000  1.0 -0.0258770446
C  C94  1  0.47928000  0.64307000  0.32580000  1.0 -0.0782099916
C  C95  1  0.47874000  0.67172000  0.27880000  1.0 -0.1394702464
C  C96  1  0.50640000  0.72192000  0.08630000  1.0 0.0478608571
C  C97  1  0.50650000  0.72262000  0.17100000  1.0 0.0308290279
C  C98  1  0.53662000  0.65273000  0.25800000  1.0 -0.0685196352
C  C99  1  0.53580000  0.68097000  0.20960000  1.0 -0.1394702464
C  C100  1  0.50510000  0.69061000  0.04140000  1.0 -0.1394702464
C  C101  1  0.39944000  0.90646000  0.36530000  1.0 0.639523201
C  C102  1  0.30878000  0.81603000  0.21990000  1.0 0.0960225876
C  C103  1  0.36696000  0.87448000  0.31640000  1.0 -0.0258770446
C  C104  1  0.35693000  0.83621000  0.32580000  1.0 -0.0782099916
C  C105  1  0.32828000  0.80702000  0.27880000  1.0 -0.1394702464
C  C106  1  0.27808000  0.78448000  0.08630000  1.0 0.0478608571
C  C107  1  0.27738000  0.78388000  0.17100000  1.0 0.0308290279
C  C108  1  0.34727000  0.88389000  0.25800000  1.0 -0.0685196352
C  C109  1  0.31903000  0.85483000  0.20960000  1.0 -0.1394702464
C  C110  1  0.30939000  0.81449000  0.04140000  1.0 -0.1394702464
C  C111  1  0.09354000  0.49298000  0.36530000  1.0 0.639523201
C  C112  1  0.18397000  0.49275000  0.21990000  1.0 0.0960225876
C  C113  1  0.12552000  0.49248000  0.31640000  1.0 -0.0258770446
C  C114  1  0.16379000  0.52072000  0.32580000  1.0 -0.0782099916
C  C115  1  0.19298000  0.52126000  0.27880000  1.0 -0.1394702464
C  C116  1  0.21552000  0.49360000  0.08630000  1.0 0.0478608571
C  C117  1  0.21612000  0.49350000  0.17100000  1.0 0.0308290279
C  C118  1  0.11611000  0.46338000  0.25800000  1.0 -0.0685196352
C  C119  1  0.14517000  0.46420000  0.20960000  1.0 -0.1394702464
C  C120  1  0.18551000  0.49490000  0.04140000  1.0 -0.1394702464
C  C121  1  0.90646000  0.39944000  0.36530000  1.0 0.639523201
C  C122  1  0.81603000  0.30878000  0.21990000  1.0 0.0960225876
C  C123  1  0.87448000  0.36696000  0.31640000  1.0 -0.0258770446
C  C124  1  0.83621000  0.35693000  0.32580000  1.0 -0.0782099916
C  C125  1  0.80702000  0.32828000  0.27880000  1.0 -0.1394702464
C  C126  1  0.78448000  0.27808000  0.08630000  1.0 0.0478608571
C  C127  1  0.78388000  0.27738000  0.17100000  1.0 0.0308290279
C  C128  1  0.88389000  0.34727000  0.25800000  1.0 -0.0685196352
C  C129  1  0.85483000  0.31903000  0.20960000  1.0 -0.1394702464
C  C130  1  0.81449000  0.30939000  0.04140000  1.0 -0.1394702464
C  C131  1  0.49298000  0.09354000  0.36530000  1.0 0.639523201
C  C132  1  0.49275000  0.18397000  0.21990000  1.0 0.0960225876
C  C133  1  0.49248000  0.12552000  0.31640000  1.0 -0.0258770446
C  C134  1  0.52072000  0.16379000  0.32580000  1.0 -0.0782099916
C  C135  1  0.52126000  0.19298000  0.27880000  1.0 -0.1394702464
C  C136  1  0.49360000  0.21552000  0.08630000  1.0 0.0478608571
C  C137  1  0.49350000  0.21612000  0.17100000  1.0 0.0308290279
C  C138  1  0.46338000  0.11611000  0.25800000  1.0 -0.0685196352
C  C139  1  0.46420000  0.14517000  0.20960000  1.0 -0.1394702464
C  C140  1  0.49490000  0.18551000  0.04140000  1.0 -0.1394702464
C  C141  1  0.60056000  0.50702000  0.36530000  1.0 0.639523201
C  C142  1  0.69122000  0.50725000  0.21990000  1.0 0.0947875632
C  C143  1  0.63304000  0.50752000  0.31640000  1.0 -0.0258770446
C  C144  1  0.64307000  0.47928000  0.32580000  1.0 -0.0782099916
C  C145  1  0.67172000  0.47874000  0.27880000  1.0 -0.1339455815
C  C146  1  0.72192000  0.50640000  0.08630000  1.0 0.0478608571
C  C147  1  0.72262000  0.50650000  0.17100000  1.0 0.0308290279
C  C148  1  0.65273000  0.53662000  0.25800000  1.0 -0.0685196352
C  C149  1  0.68097000  0.53580000  0.20960000  1.0 -0.1394702464
C  C150  1  0.69061000  0.50510000  0.04140000  1.0 -0.1394702464
C  C151  1  0.09354000  0.60056000  0.36530000  1.0 0.639523201
C  C152  1  0.18397000  0.69122000  0.21990000  1.0 0.0960225876
C  C153  1  0.12552000  0.63304000  0.31640000  1.0 -0.0258770446
C  C154  1  0.16379000  0.64307000  0.32580000  1.0 -0.0782099916
C  C155  1  0.19298000  0.67172000  0.27880000  1.0 -0.1394702464
C  C156  1  0.21552000  0.72192000  0.08630000  1.0 0.0478608571
C  C157  1  0.21612000  0.72262000  0.17100000  1.0 0.0308290279
C  C158  1  0.11611000  0.65273000  0.25800000  1.0 -0.0685196352
C  C159  1  0.14517000  0.68097000  0.20960000  1.0 -0.1394702464
C  C160  1  0.18551000  0.69061000  0.04140000  1.0 -0.1394702464
C  C161  1  0.50702000  0.90646000  0.36530000  1.0 0.639523201
C  C162  1  0.50725000  0.81603000  0.21990000  1.0 0.0960225876
C  C163  1  0.50752000  0.87448000  0.31640000  1.0 -0.0258770446
C  C164  1  0.47928000  0.83621000  0.32580000  1.0 -0.0782099916
C  C165  1  0.47874000  0.80702000  0.27880000  1.0 -0.1394702464
C  C166  1  0.50640000  0.78448000  0.08630000  1.0 0.0478608571
C  C167  1  0.50650000  0.78388000  0.17100000  1.0 0.0308290279
C  C168  1  0.53662000  0.88389000  0.25800000  1.0 -0.0685196352
C  C169  1  0.53580000  0.85483000  0.20960000  1.0 -0.1394702464
C  C170  1  0.50510000  0.81449000  0.04140000  1.0 -0.1394702464
C  C171  1  0.39944000  0.49298000  0.36530000  1.0 0.639523201
C  C172  1  0.30878000  0.49275000  0.21990000  1.0 0.0960225876
C  C173  1  0.36696000  0.49248000  0.31640000  1.0 -0.0258770446
C  C174  1  0.35693000  0.52072000  0.32580000  1.0 -0.0782099916
C  C175  1  0.32828000  0.52126000  0.27880000  1.0 -0.1394702464
C  C176  1  0.27808000  0.49360000  0.08630000  1.0 0.0478608571
C  C177  1  0.27738000  0.49350000  0.17100000  1.0 0.0308290279
C  C178  1  0.34727000  0.46338000  0.25800000  1.0 -0.0685196352
C  C179  1  0.31903000  0.46420000  0.20960000  1.0 -0.1394702464
C  C180  1  0.30939000  0.49490000  0.04140000  1.0 -0.1394702464
C  C181  1  0.50702000  0.60056000  0.63470000  1.0 0.639523201
C  C182  1  0.50725000  0.69122000  0.78010000  1.0 0.0960225876
C  C183  1  0.50752000  0.63304000  0.68360000  1.0 -0.0258770446
C  C184  1  0.47928000  0.64307000  0.67420000  1.0 -0.0782099916
C  C185  1  0.47874000  0.67172000  0.72120000  1.0 -0.1394702464
C  C186  1  0.50640000  0.72192000  0.91370000  1.0 0.0478608571
C  C187  1  0.50650000  0.72262000  0.82900000  1.0 0.0308290279
C  C188  1  0.53662000  0.65273000  0.74200000  1.0 -0.0685196352
C  C189  1  0.53580000  0.68097000  0.79040000  1.0 -0.1394702464
C  C190  1  0.50510000  0.69061000  0.95860000  1.0 -0.1394702464
C  C191  1  0.39944000  0.90646000  0.63470000  1.0 0.639523201
C  C192  1  0.30878000  0.81603000  0.78010000  1.0 0.0960225876
C  C193  1  0.36696000  0.87448000  0.68360000  1.0 -0.0258770446
C  C194  1  0.35693000  0.83621000  0.67420000  1.0 -0.0782099916
C  C195  1  0.32828000  0.80702000  0.72120000  1.0 -0.1394702464
C  C196  1  0.27808000  0.78448000  0.91370000  1.0 0.0478608571
C  C197  1  0.27738000  0.78388000  0.82900000  1.0 0.0308290279
C  C198  1  0.34727000  0.88389000  0.74200000  1.0 -0.0685196352
C  C199  1  0.31903000  0.85483000  0.79040000  1.0 -0.1394702464
C  C200  1  0.30939000  0.81449000  0.95860000  1.0 -0.1394702464
C  C201  1  0.09354000  0.49298000  0.63470000  1.0 0.639523201
C  C202  1  0.18397000  0.49275000  0.78010000  1.0 0.0960225876
C  C203  1  0.12552000  0.49248000  0.68360000  1.0 -0.0258770446
C  C204  1  0.16379000  0.52072000  0.67420000  1.0 -0.0782099916
C  C205  1  0.19298000  0.52126000  0.72120000  1.0 -0.1394702464
C  C206  1  0.21552000  0.49360000  0.91370000  1.0 0.0478608571
C  C207  1  0.21612000  0.49350000  0.82900000  1.0 0.0308290279
C  C208  1  0.11611000  0.46338000  0.74200000  1.0 -0.0685196352
C  C209  1  0.14517000  0.46420000  0.79040000  1.0 -0.1394702464
C  C210  1  0.18551000  0.49490000  0.95860000  1.0 -0.1394702464
C  C211  1  0.49298000  0.39944000  0.63470000  1.0 0.639523201
C  C212  1  0.49275000  0.30878000  0.78010000  1.0 0.0960225876
C  C213  1  0.49248000  0.36696000  0.68360000  1.0 -0.0258770446
C  C214  1  0.52072000  0.35693000  0.67420000  1.0 -0.0782099916
C  C215  1  0.52126000  0.32828000  0.72120000  1.0 -0.1394702464
C  C216  1  0.49360000  0.27808000  0.91370000  1.0 0.0478608571
C  C217  1  0.49350000  0.27738000  0.82900000  1.0 0.0308290279
C  C218  1  0.46338000  0.34727000  0.74200000  1.0 -0.0685196352
C  C219  1  0.46420000  0.31903000  0.79040000  1.0 -0.1394702464
C  C220  1  0.49490000  0.30939000  0.95860000  1.0 -0.1394702464
C  C221  1  0.60056000  0.09354000  0.63470000  1.0 0.639523201
C  C222  1  0.69122000  0.18397000  0.78010000  1.0 0.0960225876
C  C223  1  0.63304000  0.12552000  0.68360000  1.0 -0.0258770446
C  C224  1  0.64307000  0.16379000  0.67420000  1.0 -0.0782099916
C  C225  1  0.67172000  0.19298000  0.72120000  1.0 -0.1394702464
C  C226  1  0.72192000  0.21552000  0.91370000  1.0 0.0478608571
C  C227  1  0.72262000  0.21612000  0.82900000  1.0 0.0308290279
C  C228  1  0.65273000  0.11611000  0.74200000  1.0 -0.0685196352
C  C229  1  0.68097000  0.14517000  0.79040000  1.0 -0.1394702464
C  C230  1  0.69061000  0.18551000  0.95860000  1.0 -0.1394702464
C  C231  1  0.90646000  0.50702000  0.63470000  1.0 0.639523201
C  C232  1  0.81603000  0.50725000  0.78010000  1.0 0.0960225876
C  C233  1  0.87448000  0.50752000  0.68360000  1.0 -0.0258770446
C  C234  1  0.83621000  0.47928000  0.67420000  1.0 -0.0782099916
C  C235  1  0.80702000  0.47874000  0.72120000  1.0 -0.1394702464
C  C236  1  0.78448000  0.50640000  0.91370000  1.0 0.0478608571
C  C237  1  0.78388000  0.50650000  0.82900000  1.0 0.0308290279
C  C238  1  0.88389000  0.53662000  0.74200000  1.0 -0.0685196352
C  C239  1  0.85483000  0.53580000  0.79040000  1.0 -0.1394702464
C  C240  1  0.81449000  0.50510000  0.95860000  1.0 -0.1394702464
C  C241  1  0.24670000  0.75330000  0.78930000  1.0 -0.1648313226
C  C242  1  0.24675000  0.75325000  0.95600000  1.0 0.0308290279
C  C243  1  0.50660000  0.75330000  0.78930000  1.0 -0.1652080389
C  C244  1  0.50650000  0.75325000  0.95600000  1.0 0.0308290279
C  C245  1  0.24670000  0.49340000  0.78930000  1.0 -0.1648313226
C  C246  1  0.24675000  0.49350000  0.95600000  1.0 0.0308290279
C  C247  1  0.75330000  0.24670000  0.78930000  1.0 -0.1648313226
C  C248  1  0.75325000  0.24675000  0.95600000  1.0 0.0308290279
C  C249  1  0.49340000  0.24670000  0.78930000  1.0 -0.1648313226
C  C250  1  0.49350000  0.24675000  0.95600000  1.0 0.0308290279
C  C251  1  0.75330000  0.50660000  0.78930000  1.0 -0.1652080389
C  C252  1  0.75325000  0.50650000  0.95600000  1.0 0.0308290279
C  C253  1  0.49340000  0.24670000  0.21070000  1.0 -0.1648313226
C  C254  1  0.49350000  0.24675000  0.04400000  1.0 0.0308290279
C  C255  1  0.75330000  0.24670000  0.21070000  1.0 -0.1648313226
C  C256  1  0.75325000  0.24675000  0.04400000  1.0 0.0308290279
C  C257  1  0.75330000  0.50660000  0.21070000  1.0 -0.1648313226
C  C258  1  0.75325000  0.50650000  0.04400000  1.0 0.0308290279
C  C259  1  0.50660000  0.75330000  0.21070000  1.0 -0.1648313226
C  C260  1  0.50650000  0.75325000  0.04400000  1.0 0.0308290279
C  C261  1  0.24670000  0.75330000  0.21070000  1.0 -0.1648313226
C  C262  1  0.24675000  0.75325000  0.04400000  1.0 0.0308290279
C  C263  1  0.24670000  0.49340000  0.21070000  1.0 -0.1648313226
C  C264  1  0.24675000  0.49350000  0.04400000  1.0 0.0308290279
Br  Br1  1  0.07708000  0.53854000  0.19116000  1.0 0.2143704471
Br  Br2  1  0.46146000  0.92292000  0.19116000  1.0 0.2143704471
Br  Br3  1  0.46146000  0.53854000  0.19116000  1.0 0.2159426112
Br  Br4  1  0.92292000  0.46146000  0.19116000  1.0 0.2159426112
Br  Br5  1  0.53854000  0.07708000  0.19116000  1.0 0.2159426112
Br  Br6  1  0.53854000  0.46146000  0.19116000  1.0 0.2159426112
Br  Br7  1  0.53854000  0.46146000  0.80884000  1.0 0.2143704471
Br  Br8  1  0.53854000  0.07708000  0.80884000  1.0 0.2159426112
Br  Br9  1  0.92292000  0.46146000  0.80884000  1.0 0.2159426112
Br  Br10  1  0.46146000  0.53854000  0.80884000  1.0 0.2143704471
Br  Br11  1  0.46146000  0.92292000  0.80884000  1.0 0.2159426112
Br  Br12  1  0.07708000  0.53854000  0.80884000  1.0 0.2143704471
O  O1  1  0.10473000  0.58570000  0.58112000  1.0 -0.5619917782
O  O2  1  0.05836000  0.59189000  0.65064000  1.0 -0.5894674681
O  O3  1  0.48097000  0.89527000  0.58112000  1.0 -0.5619917782
O  O4  1  0.53353000  0.94164000  0.65064000  1.0 -0.5894674681
O  O5  1  0.41430000  0.51903000  0.58112000  1.0 -0.5619917782
O  O6  1  0.40811000  0.46647000  0.65064000  1.0 -0.5894674681
O  O7  1  0.89527000  0.41430000  0.58112000  1.0 -0.5619917782
O  O8  1  0.94164000  0.40811000  0.65064000  1.0 -0.5894674681
O  O9  1  0.51903000  0.10473000  0.58112000  1.0 -0.5619917782
O  O10  1  0.46647000  0.05836000  0.65064000  1.0 -0.5894674681
O  O11  1  0.58570000  0.48097000  0.58112000  1.0 -0.5619917782
O  O12  1  0.59189000  0.53353000  0.65064000  1.0 -0.5894674681
O  O13  1  0.51903000  0.41430000  0.41888000  1.0 -0.5619917782
O  O14  1  0.46647000  0.40811000  0.34936000  1.0 -0.5894674681
O  O15  1  0.58570000  0.10473000  0.41888000  1.0 -0.5619917782
O  O16  1  0.59189000  0.05836000  0.34936000  1.0 -0.5894674681
O  O17  1  0.89527000  0.48097000  0.41888000  1.0 -0.5619917782
O  O18  1  0.94164000  0.53353000  0.34936000  1.0 -0.5894674681
O  O19  1  0.48097000  0.58570000  0.41888000  1.0 -0.5619917782
O  O20  1  0.53353000  0.59189000  0.34936000  1.0 -0.5894674681
O  O21  1  0.41430000  0.89527000  0.41888000  1.0 -0.5619917782
O  O22  1  0.40811000  0.94164000  0.34936000  1.0 -0.5894674681
O  O23  1  0.10473000  0.51903000  0.41888000  1.0 -0.5619917782
O  O24  1  0.05836000  0.46647000  0.34936000  1.0 -0.5894674681
O  O25  1  0.89527000  0.41430000  0.41888000  1.0 -0.5619917782
O  O26  1  0.94164000  0.40811000  0.34936000  1.0 -0.5894674681
O  O27  1  0.51903000  0.10473000  0.41888000  1.0 -0.5619917782
O  O28  1  0.46647000  0.05836000  0.34936000  1.0 -0.5894674681
O  O29  1  0.58570000  0.48097000  0.41888000  1.0 -0.5619917782
O  O30  1  0.59189000  0.53353000  0.34936000  1.0 -0.5894674681
O  O31  1  0.10473000  0.58570000  0.41888000  1.0 -0.5619917782
O  O32  1  0.05836000  0.59189000  0.34936000  1.0 -0.5894674681
O  O33  1  0.48097000  0.89527000  0.41888000  1.0 -0.5619917782
O  O34  1  0.53353000  0.94164000  0.34936000  1.0 -0.5894674681
O  O35  1  0.41430000  0.51903000  0.41888000  1.0 -0.5619917782
O  O36  1  0.40811000  0.46647000  0.34936000  1.0 -0.5894674681
O  O37  1  0.48097000  0.58570000  0.58112000  1.0 -0.5619917782
O  O38  1  0.53353000  0.59189000  0.65064000  1.0 -0.5894674681
O  O39  1  0.41430000  0.89527000  0.58112000  1.0 -0.5619917782
O  O40  1  0.40811000  0.94164000  0.65064000  1.0 -0.5894674681
O  O41  1  0.10473000  0.51903000  0.58112000  1.0 -0.5619917782
O  O42  1  0.05836000  0.46647000  0.65064000  1.0 -0.5894674681
O  O43  1  0.51903000  0.41430000  0.58112000  1.0 -0.5619917782
O  O44  1  0.46647000  0.40811000  0.65064000  1.0 -0.5894674681
O  O45  1  0.58570000  0.10473000  0.58112000  1.0 -0.5619917782
O  O46  1  0.59189000  0.05836000  0.65064000  1.0 -0.5894674681
O  O47  1  0.89527000  0.48097000  0.58112000  1.0 -0.5619917782
O  O48  1  0.94164000  0.53353000  0.65064000  1.0 -0.5894674681
O  O49  1  0.03440000  0.51720000  0.60590000  1.0 -1.1061445844
O  O50  1  0.48280000  0.96560000  0.60590000  1.0 -1.1061445844
O  O51  1  0.48280000  0.51720000  0.60590000  1.0 -1.1061445844
O  O52  1  0.96560000  0.48280000  0.60590000  1.0 -1.1061445844
O  O53  1  0.51720000  0.03440000  0.60590000  1.0 -1.104823825
O  O54  1  0.51720000  0.48280000  0.60590000  1.0 -1.1061445844
O  O55  1  0.51720000  0.48280000  0.39410000  1.0 -1.1061445844
O  O56  1  0.51720000  0.03440000  0.39410000  1.0 -1.1061445844
O  O57  1  0.96560000  0.48280000  0.39410000  1.0 -1.104823825
O  O58  1  0.48280000  0.51720000  0.39410000  1.0 -1.104823825
O  O59  1  0.48280000  0.96560000  0.39410000  1.0 -1.1061445844
O  O60  1  0.03440000  0.51720000  0.39410000  1.0 -1.1061445844
O  O61  1  0.03575000  0.56403000  0.50000000  1.0 -1.1312873932
O  O62  1  0.52828000  0.96425000  0.50000000  1.0 -1.1237250658
O  O63  1  0.43597000  0.47172000  0.50000000  1.0 -1.1237250658
O  O64  1  0.96425000  0.43597000  0.50000000  1.0 -1.1237250658
O  O65  1  0.47172000  0.03575000  0.50000000  1.0 -1.1237250658
O  O66  1  0.56403000  0.52828000  0.50000000  1.0 -1.1237250658
O  O67  1  0.47172000  0.43597000  0.50000000  1.0 -1.1237250658
O  O68  1  0.56403000  0.03575000  0.50000000  1.0 -1.1237250658
O  O69  1  0.96425000  0.52828000  0.50000000  1.0 -1.1237250658
O  O70  1  0.52828000  0.56403000  0.50000000  1.0 -1.1312873932
O  O71  1  0.43597000  0.96425000  0.50000000  1.0 -1.1237250658
O  O72  1  0.03575000  0.47172000  0.50000000  1.0 -1.1237250658
O  O73  1  0.00000000  0.54225000  0.74020000  1.0 -0.6139834959
O  O74  1  0.00000000  0.60061000  0.59420000  1.0 -0.6285345129
O  O75  1  0.54225000  0.00000000  0.74020000  1.0 -0.6202360761
O  O76  1  0.60061000  0.00000000  0.59420000  1.0 -0.6285345129
O  O77  1  0.45775000  0.45775000  0.74020000  1.0 -0.6139834959
O  O78  1  0.39939000  0.39939000  0.59420000  1.0 -0.6285345129
O  O79  1  0.00000000  0.45775000  0.74020000  1.0 -0.6139834959
O  O80  1  0.00000000  0.39939000  0.59420000  1.0 -0.6285345129
O  O81  1  0.45775000  0.00000000  0.74020000  1.0 -0.6202360761
O  O82  1  0.39939000  0.00000000  0.59420000  1.0 -0.6285345129
O  O83  1  0.54225000  0.54225000  0.74020000  1.0 -0.6139834959
O  O84  1  0.60061000  0.60061000  0.59420000  1.0 -0.6285345129
O  O85  1  0.45775000  0.45775000  0.25980000  1.0 -0.6139834959
O  O86  1  0.39939000  0.39939000  0.40580000  1.0 -0.6285345129
O  O87  1  0.54225000  0.00000000  0.25980000  1.0 -0.6139834959
O  O88  1  0.60061000  0.00000000  0.40580000  1.0 -0.6285345129
O  O89  1  0.00000000  0.54225000  0.25980000  1.0 -0.6139834959
O  O90  1  0.00000000  0.60061000  0.40580000  1.0 -0.6285345129
O  O91  1  0.54225000  0.54225000  0.25980000  1.0 -0.6139834959
O  O92  1  0.60061000  0.60061000  0.40580000  1.0 -0.6285345129
O  O93  1  0.45775000  0.00000000  0.25980000  1.0 -0.6139834959
O  O94  1  0.39939000  0.00000000  0.40580000  1.0 -0.6285345129
O  O95  1  0.00000000  0.45775000  0.25980000  1.0 -0.6202360761
O  O96  1  0.00000000  0.39939000  0.40580000  1.0 -0.6285345129
