# DDEC6 charges by PACMAN v1.1 (https://github.com/mtap-research/PACMAN-charge/)
data_FAKMAH_ASR_pacman
_symmetry_space_group_name_H-M   'P 1'
_cell_length_a   12.88140000
_cell_length_b   12.88140000
_cell_length_c   22.05910000
_cell_angle_alpha   90.00000000
_cell_angle_beta   90.00000000
_cell_angle_gamma   120.00000000
_symmetry_Int_Tables_number   1
_chemical_formula_structural   MnH6(C3N)6
_chemical_formula_sum   'Mn4 H24 C72 N24'
_cell_volume   3169.89264316
_cell_formula_units_Z   4
loop_
 _symmetry_equiv_pos_site_id
 _symmetry_equiv_pos_as_xyz
  1  'x, y, z'
loop_
 _atom_site_type_symbol
 _atom_site_label
 _atom_site_symmetry_multiplicity
 _atom_site_fract_x
 _atom_site_fract_y
 _atom_site_fract_z
 _atom_site_occupancy
 _atom_site_charge
Mn  Mn1  1  0.66666667  0.33333333  0.50000000  1.0 0.9582812494
Mn  Mn2  1  0.33333333  0.66666667  0.00000000  1.0 0.9582812494
Mn  Mn3  1  0.33333333  0.66666667  0.50000000  1.0 0.9582812494
Mn  Mn4  1  0.66666667  0.33333333  0.00000000  1.0 0.9582812494
H  H1  1  0.47530000  0.65610000  0.69720000  1.0 0.120762766
H  H2  1  0.81920000  0.47530000  0.19720000  1.0 0.120762766
H  H3  1  0.34390000  0.81920000  0.69720000  1.0 0.120762766
H  H4  1  0.52470000  0.34390000  0.19720000  1.0 0.120762766
H  H5  1  0.18080000  0.52470000  0.69720000  1.0 0.120762766
H  H6  1  0.65610000  0.18080000  0.19720000  1.0 0.120762766
H  H7  1  0.34390000  0.52470000  0.30280000  1.0 0.120762766
H  H8  1  0.81920000  0.34390000  0.80280000  1.0 0.120762766
H  H9  1  0.47530000  0.81920000  0.30280000  1.0 0.120762766
H  H10  1  0.65610000  0.47530000  0.80280000  1.0 0.120762766
H  H11  1  0.18080000  0.65610000  0.30280000  1.0 0.120762766
H  H12  1  0.52470000  0.18080000  0.80280000  1.0 0.120762766
H  H13  1  0.52470000  0.34390000  0.30280000  1.0 0.120762766
H  H14  1  0.18080000  0.52470000  0.80280000  1.0 0.120762766
H  H15  1  0.65610000  0.18080000  0.30280000  1.0 0.120762766
H  H16  1  0.47530000  0.65610000  0.80280000  1.0 0.120762766
H  H17  1  0.81920000  0.47530000  0.30280000  1.0 0.120762766
H  H18  1  0.34390000  0.81920000  0.80280000  1.0 0.120762766
H  H19  1  0.65610000  0.47530000  0.69720000  1.0 0.120762766
H  H20  1  0.18080000  0.65610000  0.19720000  1.0 0.120762766
H  H21  1  0.52470000  0.18080000  0.69720000  1.0 0.120762766
H  H22  1  0.34390000  0.52470000  0.19720000  1.0 0.120762766
H  H23  1  0.81920000  0.34390000  0.69720000  1.0 0.120762766
H  H24  1  0.47530000  0.81920000  0.19720000  1.0 0.120762766
C  C1  1  0.56740000  0.56740000  0.68588000  1.0 0.110745479
C  C2  1  0.00000000  0.56740000  0.18588000  1.0 0.110745479
C  C3  1  0.43260000  0.00000000  0.68588000  1.0 0.110745479
C  C4  1  0.43260000  0.43260000  0.18588000  1.0 0.110745479
C  C5  1  0.00000000  0.43260000  0.68588000  1.0 0.110745479
C  C6  1  0.56740000  0.00000000  0.18588000  1.0 0.110745479
C  C7  1  0.43260000  0.43260000  0.31412000  1.0 0.110745479
C  C8  1  0.00000000  0.43260000  0.81412000  1.0 0.110745479
C  C9  1  0.56740000  0.00000000  0.31412000  1.0 0.110745479
C  C10  1  0.56740000  0.56740000  0.81412000  1.0 0.110745479
C  C11  1  0.00000000  0.56740000  0.31412000  1.0 0.110745479
C  C12  1  0.43260000  0.00000000  0.81412000  1.0 0.110745479
C  C13  1  0.62520000  0.51770000  0.58583000  1.0 0.311636518
C  C14  1  0.10750000  0.62520000  0.08583000  1.0 0.311636518
C  C15  1  0.48230000  0.10750000  0.58583000  1.0 0.311636518
C  C16  1  0.37480000  0.48230000  0.08583000  1.0 0.311636518
C  C17  1  0.89250000  0.37480000  0.58583000  1.0 0.311636518
C  C18  1  0.51770000  0.89250000  0.08583000  1.0 0.311636518
C  C19  1  0.48230000  0.37480000  0.41417000  1.0 0.311636518
C  C20  1  0.10750000  0.48230000  0.91417000  1.0 0.311636518
C  C21  1  0.62520000  0.10750000  0.41417000  1.0 0.311636518
C  C22  1  0.51770000  0.62520000  0.91417000  1.0 0.311636518
C  C23  1  0.89250000  0.51770000  0.41417000  1.0 0.311636518
C  C24  1  0.37480000  0.89250000  0.91417000  1.0 0.311636518
C  C25  1  0.37480000  0.48230000  0.41417000  1.0 0.311636518
C  C26  1  0.89250000  0.37480000  0.91417000  1.0 0.311636518
C  C27  1  0.51770000  0.89250000  0.41417000  1.0 0.311636518
C  C28  1  0.62520000  0.51770000  0.91417000  1.0 0.311636518
C  C29  1  0.10750000  0.62520000  0.41417000  1.0 0.311636518
C  C30  1  0.48230000  0.10750000  0.91417000  1.0 0.311636518
C  C31  1  0.51770000  0.62520000  0.58583000  1.0 0.311636518
C  C32  1  0.89250000  0.51770000  0.08583000  1.0 0.311636518
C  C33  1  0.37480000  0.89250000  0.58583000  1.0 0.311636518
C  C34  1  0.48230000  0.37480000  0.08583000  1.0 0.311636518
C  C35  1  0.10750000  0.48230000  0.58583000  1.0 0.311636518
C  C36  1  0.62520000  0.10750000  0.08583000  1.0 0.311636518
C  C37  1  0.57110000  0.57110000  0.61930000  1.0 -0.1951838293
C  C38  1  0.00000000  0.57110000  0.11930000  1.0 -0.1951838293
C  C39  1  0.42890000  0.00000000  0.61930000  1.0 -0.1951838293
C  C40  1  0.42890000  0.42890000  0.11930000  1.0 -0.1951838293
C  C41  1  0.00000000  0.42890000  0.61930000  1.0 -0.1951838293
C  C42  1  0.57110000  0.00000000  0.11930000  1.0 -0.1951838293
C  C43  1  0.42890000  0.42890000  0.38070000  1.0 -0.1951838293
C  C44  1  0.00000000  0.42890000  0.88070000  1.0 -0.1944030517
C  C45  1  0.57110000  0.00000000  0.38070000  1.0 -0.1951838293
C  C46  1  0.57110000  0.57110000  0.88070000  1.0 -0.1951838293
C  C47  1  0.00000000  0.57110000  0.38070000  1.0 -0.1951838293
C  C48  1  0.42890000  0.00000000  0.88070000  1.0 -0.1951838293
C  C49  1  0.51300000  0.61970000  0.71835000  1.0 -0.1471669519
C  C50  1  0.89330000  0.51300000  0.21835000  1.0 -0.1471669519
C  C51  1  0.38030000  0.89330000  0.71835000  1.0 -0.1471669519
C  C52  1  0.48700000  0.38030000  0.21835000  1.0 -0.1471669519
C  C53  1  0.10670000  0.48700000  0.71835000  1.0 -0.1471669519
C  C54  1  0.61970000  0.10670000  0.21835000  1.0 -0.1471669519
C  C55  1  0.38030000  0.48700000  0.28165000  1.0 -0.1471669519
C  C56  1  0.89330000  0.38030000  0.78165000  1.0 -0.1471669519
C  C57  1  0.51300000  0.89330000  0.28165000  1.0 -0.1471669519
C  C58  1  0.61970000  0.51300000  0.78165000  1.0 -0.1471669519
C  C59  1  0.10670000  0.61970000  0.28165000  1.0 -0.1471669519
C  C60  1  0.48700000  0.10670000  0.78165000  1.0 -0.1471669519
C  C61  1  0.48700000  0.38030000  0.28165000  1.0 -0.1471669519
C  C62  1  0.10670000  0.48700000  0.78165000  1.0 -0.1471669519
C  C63  1  0.61970000  0.10670000  0.28165000  1.0 -0.1471669519
C  C64  1  0.51300000  0.61970000  0.78165000  1.0 -0.1471669519
C  C65  1  0.89330000  0.51300000  0.28165000  1.0 -0.1471669519
C  C66  1  0.38030000  0.89330000  0.78165000  1.0 -0.1471669519
C  C67  1  0.61970000  0.51300000  0.71835000  1.0 -0.1471669519
C  C68  1  0.10670000  0.61970000  0.21835000  1.0 -0.1471669519
C  C69  1  0.48700000  0.10670000  0.71835000  1.0 -0.1471669519
C  C70  1  0.38030000  0.48700000  0.21835000  1.0 -0.1471669519
C  C71  1  0.89330000  0.38030000  0.71835000  1.0 -0.1471669519
C  C72  1  0.51300000  0.89330000  0.21835000  1.0 -0.1471669519
N  N1  1  0.66600000  0.47300000  0.55824000  1.0 -0.402759231
N  N2  1  0.19300000  0.66600000  0.05824000  1.0 -0.402759231
N  N3  1  0.52700000  0.19300000  0.55824000  1.0 -0.402759231
N  N4  1  0.33400000  0.52700000  0.05824000  1.0 -0.402759231
N  N5  1  0.80700000  0.33400000  0.55824000  1.0 -0.402759231
N  N6  1  0.47300000  0.80700000  0.05824000  1.0 -0.402759231
N  N7  1  0.52700000  0.33400000  0.44176000  1.0 -0.402759231
N  N8  1  0.19300000  0.52700000  0.94176000  1.0 -0.402759231
N  N9  1  0.66600000  0.19300000  0.44176000  1.0 -0.402759231
N  N10  1  0.47300000  0.66600000  0.94176000  1.0 -0.402759231
N  N11  1  0.80700000  0.47300000  0.44176000  1.0 -0.402759231
N  N12  1  0.33400000  0.80700000  0.94176000  1.0 -0.402759231
N  N13  1  0.33400000  0.52700000  0.44176000  1.0 -0.402759231
N  N14  1  0.80700000  0.33400000  0.94176000  1.0 -0.402759231
N  N15  1  0.47300000  0.80700000  0.44176000  1.0 -0.402759231
N  N16  1  0.66600000  0.47300000  0.94176000  1.0 -0.402759231
N  N17  1  0.19300000  0.66600000  0.44176000  1.0 -0.402759231
N  N18  1  0.52700000  0.19300000  0.94176000  1.0 -0.402759231
N  N19  1  0.47300000  0.66600000  0.55824000  1.0 -0.402759231
N  N20  1  0.80700000  0.47300000  0.05824000  1.0 -0.402759231
N  N21  1  0.33400000  0.80700000  0.55824000  1.0 -0.402759231
N  N22  1  0.52700000  0.33400000  0.05824000  1.0 -0.402759231
N  N23  1  0.19300000  0.52700000  0.55824000  1.0 -0.402759231
N  N24  1  0.66600000  0.19300000  0.05824000  1.0 -0.402759231
