# DDEC6 charges by PACMAN v1.1 (https://github.com/mtap-research/PACMAN-charge/)
data_FALBAX_ASR_pacman
_symmetry_space_group_name_H-M   'P 1'
_cell_length_a   53.02740000
_cell_length_b   53.02740000
_cell_length_c   53.02740000
_cell_angle_alpha   60.00000000
_cell_angle_beta   60.00000000
_cell_angle_gamma   60.00000000
_symmetry_Int_Tables_number   1
_chemical_formula_structural   CoH16C26(SN5)2
_chemical_formula_sum   'Co48 H768 C1248 S96 N480'
_cell_volume   105435.29149954
_cell_formula_units_Z   48
loop_
 _symmetry_equiv_pos_site_id
 _symmetry_equiv_pos_as_xyz
  1  'x, y, z'
loop_
 _atom_site_type_symbol
 _atom_site_label
 _atom_site_symmetry_multiplicity
 _atom_site_fract_x
 _atom_site_fract_y
 _atom_site_fract_z
 _atom_site_occupancy
 _atom_site_charge
Co  Co1  1  0.01436000  0.48564000  0.75000000  1.0 0.6342948429
Co  Co2  1  0.48564000  0.01436000  0.25000000  1.0 0.6342948429
Co  Co3  1  0.75000000  0.25000000  0.01436000  1.0 0.6342948429
Co  Co4  1  0.25000000  0.75000000  0.48564000  1.0 0.6342948429
Co  Co5  1  0.75000000  0.01436000  0.48564000  1.0 0.6342948429
Co  Co6  1  0.25000000  0.48564000  0.01436000  1.0 0.6342948429
Co  Co7  1  0.01436000  0.75000000  0.25000000  1.0 0.6342948429
Co  Co8  1  0.48564000  0.25000000  0.75000000  1.0 0.6342948429
Co  Co9  1  0.48564000  0.75000000  0.01436000  1.0 0.6342948429
Co  Co10  1  0.01436000  0.25000000  0.48564000  1.0 0.6342948429
Co  Co11  1  0.25000000  0.01436000  0.75000000  1.0 0.6342948429
Co  Co12  1  0.75000000  0.48564000  0.25000000  1.0 0.6342948429
Co  Co13  1  0.98564000  0.51436000  0.25000000  1.0 0.6342948429
Co  Co14  1  0.51436000  0.98564000  0.75000000  1.0 0.6342948429
Co  Co15  1  0.25000000  0.75000000  0.98564000  1.0 0.6342948429
Co  Co16  1  0.75000000  0.25000000  0.51436000  1.0 0.6342948429
Co  Co17  1  0.25000000  0.98564000  0.51436000  1.0 0.6342948429
Co  Co18  1  0.75000000  0.51436000  0.98564000  1.0 0.6342948429
Co  Co19  1  0.98564000  0.25000000  0.75000000  1.0 0.63843999
Co  Co20  1  0.51436000  0.75000000  0.25000000  1.0 0.6342948429
Co  Co21  1  0.51436000  0.25000000  0.98564000  1.0 0.6342948429
Co  Co22  1  0.98564000  0.75000000  0.51436000  1.0 0.63843999
Co  Co23  1  0.75000000  0.98564000  0.25000000  1.0 0.6342948429
Co  Co24  1  0.25000000  0.51436000  0.75000000  1.0 0.6342948429
Co  Co25  1  0.99948000  0.25052000  0.99948000  1.0 0.63843999
Co  Co26  1  0.25052000  0.99948000  0.25052000  1.0 0.63843999
Co  Co27  1  0.99948000  0.99948000  0.25052000  1.0 0.63843999
Co  Co28  1  0.25052000  0.25052000  0.99948000  1.0 0.63843999
Co  Co29  1  0.25052000  0.99948000  0.99948000  1.0 0.63843999
Co  Co30  1  0.99948000  0.25052000  0.25052000  1.0 0.63843999
Co  Co31  1  0.50052000  0.24948000  0.24948000  1.0 0.63843999
Co  Co32  1  0.24948000  0.50052000  0.50052000  1.0 0.63843999
Co  Co33  1  0.50052000  0.50052000  0.24948000  1.0 0.63843999
Co  Co34  1  0.24948000  0.24948000  0.50052000  1.0 0.63843999
Co  Co35  1  0.24948000  0.50052000  0.24948000  1.0 0.63843999
Co  Co36  1  0.50052000  0.24948000  0.50052000  1.0 0.63843999
Co  Co37  1  0.00052000  0.74948000  0.00052000  1.0 0.63843999
Co  Co38  1  0.74948000  0.00052000  0.74948000  1.0 0.63843999
Co  Co39  1  0.00052000  0.00052000  0.74948000  1.0 0.63843999
Co  Co40  1  0.74948000  0.74948000  0.00052000  1.0 0.63843999
Co  Co41  1  0.74948000  0.00052000  0.00052000  1.0 0.63843999
Co  Co42  1  0.00052000  0.74948000  0.74948000  1.0 0.63843999
Co  Co43  1  0.49948000  0.75052000  0.75052000  1.0 0.63843999
Co  Co44  1  0.75052000  0.49948000  0.49948000  1.0 0.63843999
Co  Co45  1  0.49948000  0.49948000  0.75052000  1.0 0.63843999
Co  Co46  1  0.75052000  0.75052000  0.49948000  1.0 0.63843999
Co  Co47  1  0.75052000  0.49948000  0.75052000  1.0 0.63843999
Co  Co48  1  0.49948000  0.75052000  0.49948000  1.0 0.63843999
H  H1  1  0.01010000  0.43790000  0.73570000  1.0 0.0986643637
H  H2  1  0.01100000  0.38740000  0.75760000  1.0 0.1318322387
H  H3  1  0.04330000  0.37390000  0.81950000  1.0 0.1318322387
H  H4  1  0.04390000  0.42410000  0.79410000  1.0 0.0986643637
H  H5  1  0.00850000  0.29930000  0.73590000  1.0 0.0986643637
H  H6  1  0.01790000  0.32110000  0.75710000  1.0 0.1318322387
H  H7  1  0.99710000  0.25450000  0.83910000  1.0 0.1318322387
H  H8  1  0.98770000  0.23510000  0.81530000  1.0 0.0986643637
H  H9  1  0.02170000  0.22870000  0.94490000  1.0 0.0986643637
H  H10  1  0.02660000  0.24740000  0.89380000  1.0 0.1318322387
H  H11  1  0.99930000  0.33370000  0.89370000  1.0 0.1318322387
H  H12  1  0.99350000  0.31230000  0.94630000  1.0 0.0986643637
H  H13  1  0.97820000  0.26880000  0.05720000  1.0 0.0986643637
H  H14  1  0.97260000  0.24680000  0.10840000  1.0 0.135605848
H  H15  1  0.99830000  0.16430000  0.10270000  1.0 0.1318322387
H  H16  1  0.00780000  0.18840000  0.04980000  1.0 0.0945591565
H  H17  1  0.43790000  0.01010000  0.31630000  1.0 0.0986643637
H  H18  1  0.38740000  0.01100000  0.34400000  1.0 0.1318322387
H  H19  1  0.37390000  0.04330000  0.26330000  1.0 0.1318322387
H  H20  1  0.42410000  0.04390000  0.23790000  1.0 0.0986643637
H  H21  1  0.29930000  0.00850000  0.45630000  1.0 0.0986643637
H  H22  1  0.32110000  0.01790000  0.40390000  1.0 0.1318322387
H  H23  1  0.25450000  0.99710000  0.40930000  1.0 0.1318322387
H  H24  1  0.23510000  0.98770000  0.46190000  1.0 0.0986643637
H  H25  1  0.22870000  0.02170000  0.30470000  1.0 0.0986643637
H  H26  1  0.24740000  0.02660000  0.33220000  1.0 0.1318322387
H  H27  1  0.33370000  0.99930000  0.27330000  1.0 0.1318322387
H  H28  1  0.31230000  0.99350000  0.24790000  1.0 0.0986643637
H  H29  1  0.26880000  0.97820000  0.19580000  1.0 0.0986643637
H  H30  1  0.24680000  0.97260000  0.17220000  1.0 0.135605848
H  H31  1  0.16430000  0.99830000  0.23470000  1.0 0.1318322387
H  H32  1  0.18840000  0.00780000  0.25400000  1.0 0.0945591565
H  H33  1  0.73570000  0.31630000  0.01010000  1.0 0.0986643637
H  H34  1  0.75760000  0.34400000  0.01100000  1.0 0.1318322387
H  H35  1  0.81950000  0.26330000  0.04330000  1.0 0.1318322387
H  H36  1  0.79410000  0.23790000  0.04390000  1.0 0.0986643637
H  H37  1  0.73590000  0.45630000  0.00850000  1.0 0.0986643637
H  H38  1  0.75710000  0.40390000  0.01790000  1.0 0.1318322387
H  H39  1  0.83910000  0.40930000  0.99710000  1.0 0.1318322387
H  H40  1  0.81530000  0.46190000  0.98770000  1.0 0.0986643637
H  H41  1  0.94490000  0.30470000  0.02170000  1.0 0.0986643637
H  H42  1  0.89380000  0.33220000  0.02660000  1.0 0.1318322387
H  H43  1  0.89370000  0.27330000  0.99930000  1.0 0.1318322387
H  H44  1  0.94630000  0.24790000  0.99350000  1.0 0.0986643637
H  H45  1  0.05720000  0.19580000  0.97820000  1.0 0.0986643637
H  H46  1  0.10840000  0.17220000  0.97260000  1.0 0.135605848
H  H47  1  0.10270000  0.23470000  0.99830000  1.0 0.1318322387
H  H48  1  0.04980000  0.25400000  0.00780000  1.0 0.0945591565
H  H49  1  0.31630000  0.73570000  0.43790000  1.0 0.0986643637
H  H50  1  0.34400000  0.75760000  0.38740000  1.0 0.1318322387
H  H51  1  0.26330000  0.81950000  0.37390000  1.0 0.1318322387
H  H52  1  0.23790000  0.79410000  0.42410000  1.0 0.0986643637
H  H53  1  0.45630000  0.73590000  0.29930000  1.0 0.0986643637
H  H54  1  0.40390000  0.75710000  0.32110000  1.0 0.1318322387
H  H55  1  0.40930000  0.83910000  0.25450000  1.0 0.1318322387
H  H56  1  0.46190000  0.81530000  0.23510000  1.0 0.0986643637
H  H57  1  0.30470000  0.94490000  0.22870000  1.0 0.0986643637
H  H58  1  0.33220000  0.89380000  0.24740000  1.0 0.1318322387
H  H59  1  0.27330000  0.89370000  0.33370000  1.0 0.1318322387
H  H60  1  0.24790000  0.94630000  0.31230000  1.0 0.0986643637
H  H61  1  0.19580000  0.05720000  0.26880000  1.0 0.0986643637
H  H62  1  0.17220000  0.10840000  0.24680000  1.0 0.135605848
H  H63  1  0.23470000  0.10270000  0.16430000  1.0 0.1318322387
H  H64  1  0.25400000  0.04980000  0.18840000  1.0 0.0945591565
H  H65  1  0.73570000  0.01010000  0.43790000  1.0 0.0986643637
H  H66  1  0.75760000  0.01100000  0.38740000  1.0 0.1318322387
H  H67  1  0.81950000  0.04330000  0.37390000  1.0 0.1318322387
H  H68  1  0.79410000  0.04390000  0.42410000  1.0 0.0986643637
H  H69  1  0.73590000  0.00850000  0.29930000  1.0 0.0986643637
H  H70  1  0.75710000  0.01790000  0.32110000  1.0 0.1318322387
H  H71  1  0.83910000  0.99710000  0.25450000  1.0 0.1318322387
H  H72  1  0.81530000  0.98770000  0.23510000  1.0 0.0986643637
H  H73  1  0.94490000  0.02170000  0.22870000  1.0 0.0986643637
H  H74  1  0.89380000  0.02660000  0.24740000  1.0 0.1318322387
H  H75  1  0.89370000  0.99930000  0.33370000  1.0 0.1318322387
H  H76  1  0.94630000  0.99350000  0.31230000  1.0 0.0986643637
H  H77  1  0.05720000  0.97820000  0.26880000  1.0 0.0986643637
H  H78  1  0.10840000  0.97260000  0.24680000  1.0 0.135605848
H  H79  1  0.10270000  0.99830000  0.16430000  1.0 0.1318322387
H  H80  1  0.04980000  0.00780000  0.18840000  1.0 0.0945591565
H  H81  1  0.31630000  0.43790000  0.01010000  1.0 0.0986643637
H  H82  1  0.34400000  0.38740000  0.01100000  1.0 0.1318322387
H  H83  1  0.26330000  0.37390000  0.04330000  1.0 0.1318322387
H  H84  1  0.23790000  0.42410000  0.04390000  1.0 0.0986643637
H  H85  1  0.45630000  0.29930000  0.00850000  1.0 0.0986643637
H  H86  1  0.40390000  0.32110000  0.01790000  1.0 0.1318322387
H  H87  1  0.40930000  0.25450000  0.99710000  1.0 0.1318322387
H  H88  1  0.46190000  0.23510000  0.98770000  1.0 0.0986643637
H  H89  1  0.30470000  0.22870000  0.02170000  1.0 0.0986643637
H  H90  1  0.33220000  0.24740000  0.02660000  1.0 0.1318322387
H  H91  1  0.27330000  0.33370000  0.99930000  1.0 0.1318322387
H  H92  1  0.24790000  0.31230000  0.99350000  1.0 0.0986643637
H  H93  1  0.19580000  0.26880000  0.97820000  1.0 0.0986643637
H  H94  1  0.17220000  0.24680000  0.97260000  1.0 0.135605848
H  H95  1  0.23470000  0.16430000  0.99830000  1.0 0.1318322387
H  H96  1  0.25400000  0.18840000  0.00780000  1.0 0.0945591565
H  H97  1  0.01010000  0.73570000  0.31630000  1.0 0.0986643637
H  H98  1  0.01100000  0.75760000  0.34400000  1.0 0.1318322387
H  H99  1  0.04330000  0.81950000  0.26330000  1.0 0.1318322387
H  H100  1  0.04390000  0.79410000  0.23790000  1.0 0.0986643637
H  H101  1  0.00850000  0.73590000  0.45630000  1.0 0.0986643637
H  H102  1  0.01790000  0.75710000  0.40390000  1.0 0.1318322387
H  H103  1  0.99710000  0.83910000  0.40930000  1.0 0.1318322387
H  H104  1  0.98770000  0.81530000  0.46190000  1.0 0.0986643637
H  H105  1  0.02170000  0.94490000  0.30470000  1.0 0.0986643637
H  H106  1  0.02660000  0.89380000  0.33220000  1.0 0.1318322387
H  H107  1  0.99930000  0.89370000  0.27330000  1.0 0.1318322387
H  H108  1  0.99350000  0.94630000  0.24790000  1.0 0.0986643637
H  H109  1  0.97820000  0.05720000  0.19580000  1.0 0.0986643637
H  H110  1  0.97260000  0.10840000  0.17220000  1.0 0.135605848
H  H111  1  0.99830000  0.10270000  0.23470000  1.0 0.1318322387
H  H112  1  0.00780000  0.04980000  0.25400000  1.0 0.0945591565
H  H113  1  0.43790000  0.31630000  0.73570000  1.0 0.0986643637
H  H114  1  0.38740000  0.34400000  0.75760000  1.0 0.1318322387
H  H115  1  0.37390000  0.26330000  0.81950000  1.0 0.1318322387
H  H116  1  0.42410000  0.23790000  0.79410000  1.0 0.0986643637
H  H117  1  0.29930000  0.45630000  0.73590000  1.0 0.0986643637
H  H118  1  0.32110000  0.40390000  0.75710000  1.0 0.1318322387
H  H119  1  0.25450000  0.40930000  0.83910000  1.0 0.1318322387
H  H120  1  0.23510000  0.46190000  0.81530000  1.0 0.0986643637
H  H121  1  0.22870000  0.30470000  0.94490000  1.0 0.0986643637
H  H122  1  0.24740000  0.33220000  0.89380000  1.0 0.1318322387
H  H123  1  0.33370000  0.27330000  0.89370000  1.0 0.1318322387
H  H124  1  0.31230000  0.24790000  0.94630000  1.0 0.0986643637
H  H125  1  0.26880000  0.19580000  0.05720000  1.0 0.0986643637
H  H126  1  0.24680000  0.17220000  0.10840000  1.0 0.135605848
H  H127  1  0.16430000  0.23470000  0.10270000  1.0 0.1318322387
H  H128  1  0.18840000  0.25400000  0.04980000  1.0 0.0945591565
H  H129  1  0.43790000  0.73570000  0.01010000  1.0 0.0986643637
H  H130  1  0.38740000  0.75760000  0.01100000  1.0 0.1318322387
H  H131  1  0.37390000  0.81950000  0.04330000  1.0 0.1318322387
H  H132  1  0.42410000  0.79410000  0.04390000  1.0 0.0986643637
H  H133  1  0.29930000  0.73590000  0.00850000  1.0 0.0986643637
H  H134  1  0.32110000  0.75710000  0.01790000  1.0 0.1318322387
H  H135  1  0.25450000  0.83910000  0.99710000  1.0 0.1318322387
H  H136  1  0.23510000  0.81530000  0.98770000  1.0 0.0986643637
H  H137  1  0.22870000  0.94490000  0.02170000  1.0 0.0986643637
H  H138  1  0.24740000  0.89380000  0.02660000  1.0 0.1318322387
H  H139  1  0.33370000  0.89370000  0.99930000  1.0 0.1318322387
H  H140  1  0.31230000  0.94630000  0.99350000  1.0 0.0986643637
H  H141  1  0.26880000  0.05720000  0.97820000  1.0 0.0986643637
H  H142  1  0.24680000  0.10840000  0.97260000  1.0 0.135605848
H  H143  1  0.16430000  0.10270000  0.99830000  1.0 0.1318322387
H  H144  1  0.18840000  0.04980000  0.00780000  1.0 0.0945591565
H  H145  1  0.01010000  0.31630000  0.43790000  1.0 0.0986643637
H  H146  1  0.01100000  0.34400000  0.38740000  1.0 0.1318322387
H  H147  1  0.04330000  0.26330000  0.37390000  1.0 0.1318322387
H  H148  1  0.04390000  0.23790000  0.42410000  1.0 0.0986643637
H  H149  1  0.00850000  0.45630000  0.29930000  1.0 0.0986643637
H  H150  1  0.01790000  0.40390000  0.32110000  1.0 0.1318322387
H  H151  1  0.99710000  0.40930000  0.25450000  1.0 0.1318322387
H  H152  1  0.98770000  0.46190000  0.23510000  1.0 0.0986643637
H  H153  1  0.02170000  0.30470000  0.22870000  1.0 0.0986643637
H  H154  1  0.02660000  0.33220000  0.24740000  1.0 0.1318322387
H  H155  1  0.99930000  0.27330000  0.33370000  1.0 0.1318322387
H  H156  1  0.99350000  0.24790000  0.31230000  1.0 0.0986643637
H  H157  1  0.97820000  0.19580000  0.26880000  1.0 0.0986643637
H  H158  1  0.97260000  0.17220000  0.24680000  1.0 0.135605848
H  H159  1  0.99830000  0.23470000  0.16430000  1.0 0.1318322387
H  H160  1  0.00780000  0.25400000  0.18840000  1.0 0.0945591565
H  H161  1  0.31630000  0.01010000  0.73570000  1.0 0.0986643637
H  H162  1  0.34400000  0.01100000  0.75760000  1.0 0.1318322387
H  H163  1  0.26330000  0.04330000  0.81950000  1.0 0.1318322387
H  H164  1  0.23790000  0.04390000  0.79410000  1.0 0.0986643637
H  H165  1  0.45630000  0.00850000  0.73590000  1.0 0.0986643637
H  H166  1  0.40390000  0.01790000  0.75710000  1.0 0.1318322387
H  H167  1  0.40930000  0.99710000  0.83910000  1.0 0.1318322387
H  H168  1  0.46190000  0.98770000  0.81530000  1.0 0.0986643637
H  H169  1  0.30470000  0.02170000  0.94490000  1.0 0.0986643637
H  H170  1  0.33220000  0.02660000  0.89380000  1.0 0.1318322387
H  H171  1  0.27330000  0.99930000  0.89370000  1.0 0.1318322387
H  H172  1  0.24790000  0.99350000  0.94630000  1.0 0.0986643637
H  H173  1  0.19580000  0.97820000  0.05720000  1.0 0.0986643637
H  H174  1  0.17220000  0.97260000  0.10840000  1.0 0.135605848
H  H175  1  0.23470000  0.99830000  0.10270000  1.0 0.1318322387
H  H176  1  0.25400000  0.00780000  0.04980000  1.0 0.0945591565
H  H177  1  0.73570000  0.43790000  0.31630000  1.0 0.0986643637
H  H178  1  0.75760000  0.38740000  0.34400000  1.0 0.1318322387
H  H179  1  0.81950000  0.37390000  0.26330000  1.0 0.1318322387
H  H180  1  0.79410000  0.42410000  0.23790000  1.0 0.0986643637
H  H181  1  0.73590000  0.29930000  0.45630000  1.0 0.0986643637
H  H182  1  0.75710000  0.32110000  0.40390000  1.0 0.1318322387
H  H183  1  0.83910000  0.25450000  0.40930000  1.0 0.1318322387
H  H184  1  0.81530000  0.23510000  0.46190000  1.0 0.0986643637
H  H185  1  0.94490000  0.22870000  0.30470000  1.0 0.0986643637
H  H186  1  0.89380000  0.24740000  0.33220000  1.0 0.1318322387
H  H187  1  0.89370000  0.33370000  0.27330000  1.0 0.1318322387
H  H188  1  0.94630000  0.31230000  0.24790000  1.0 0.0986643637
H  H189  1  0.05720000  0.26880000  0.19580000  1.0 0.0986643637
H  H190  1  0.10840000  0.24680000  0.17220000  1.0 0.135605848
H  H191  1  0.10270000  0.16430000  0.23470000  1.0 0.1318322387
H  H192  1  0.04980000  0.18840000  0.25400000  1.0 0.0945591565
H  H193  1  0.48990000  0.06210000  0.18370000  1.0 0.0986643637
H  H194  1  0.48900000  0.11260000  0.15600000  1.0 0.1318322387
H  H195  1  0.45670000  0.12610000  0.23670000  1.0 0.1318322387
H  H196  1  0.45610000  0.07590000  0.26210000  1.0 0.0986643637
H  H197  1  0.49150000  0.20070000  0.04370000  1.0 0.0986643637
H  H198  1  0.48210000  0.17890000  0.09610000  1.0 0.1318322387
H  H199  1  0.50290000  0.24550000  0.09070000  1.0 0.1318322387
H  H200  1  0.51230000  0.26490000  0.03810000  1.0 0.0986643637
H  H201  1  0.47830000  0.27130000  0.19530000  1.0 0.0986643637
H  H202  1  0.47340000  0.25260000  0.16780000  1.0 0.1318322387
H  H203  1  0.50070000  0.16630000  0.22670000  1.0 0.1318322387
H  H204  1  0.50650000  0.18770000  0.25210000  1.0 0.0986643637
H  H205  1  0.52180000  0.23120000  0.30420000  1.0 0.0986643637
H  H206  1  0.52740000  0.25320000  0.32780000  1.0 0.135605848
H  H207  1  0.50170000  0.33570000  0.26530000  1.0 0.1318322387
H  H208  1  0.49220000  0.31160000  0.24600000  1.0 0.0945591565
H  H209  1  0.06210000  0.48990000  0.76430000  1.0 0.0986643637
H  H210  1  0.11260000  0.48900000  0.74240000  1.0 0.1318322387
H  H211  1  0.12610000  0.45670000  0.68050000  1.0 0.1318322387
H  H212  1  0.07590000  0.45610000  0.70590000  1.0 0.0986643637
H  H213  1  0.20070000  0.49150000  0.76410000  1.0 0.0986643637
H  H214  1  0.17890000  0.48210000  0.74290000  1.0 0.1318322387
H  H215  1  0.24550000  0.50290000  0.66090000  1.0 0.1318322387
H  H216  1  0.26490000  0.51230000  0.68470000  1.0 0.0986643637
H  H217  1  0.27130000  0.47830000  0.55510000  1.0 0.0986643637
H  H218  1  0.25260000  0.47340000  0.60620000  1.0 0.1318322387
H  H219  1  0.16630000  0.50070000  0.60630000  1.0 0.1318322387
H  H220  1  0.18770000  0.50650000  0.55370000  1.0 0.0986643637
H  H221  1  0.23120000  0.52180000  0.44280000  1.0 0.0986643637
H  H222  1  0.25320000  0.52740000  0.39160000  1.0 0.135605848
H  H223  1  0.33570000  0.50170000  0.39730000  1.0 0.1318322387
H  H224  1  0.31160000  0.49220000  0.45020000  1.0 0.0945591565
H  H225  1  0.76430000  0.18370000  0.06210000  1.0 0.0986643637
H  H226  1  0.74240000  0.15600000  0.11260000  1.0 0.1318322387
H  H227  1  0.68050000  0.23670000  0.12610000  1.0 0.1318322387
H  H228  1  0.70590000  0.26210000  0.07590000  1.0 0.0986643637
H  H229  1  0.76410000  0.04370000  0.20070000  1.0 0.0986643637
H  H230  1  0.74290000  0.09610000  0.17890000  1.0 0.1318322387
H  H231  1  0.66090000  0.09070000  0.24550000  1.0 0.1318322387
H  H232  1  0.68470000  0.03810000  0.26490000  1.0 0.0986643637
H  H233  1  0.55510000  0.19530000  0.27130000  1.0 0.0986643637
H  H234  1  0.60620000  0.16780000  0.25260000  1.0 0.1318322387
H  H235  1  0.60630000  0.22670000  0.16630000  1.0 0.1318322387
H  H236  1  0.55370000  0.25210000  0.18770000  1.0 0.0986643637
H  H237  1  0.44280000  0.30420000  0.23120000  1.0 0.0986643637
H  H238  1  0.39160000  0.32780000  0.25320000  1.0 0.135605848
H  H239  1  0.39730000  0.26530000  0.33570000  1.0 0.1318322387
H  H240  1  0.45020000  0.24600000  0.31160000  1.0 0.0945591565
H  H241  1  0.18370000  0.76430000  0.48990000  1.0 0.0986643637
H  H242  1  0.15600000  0.74240000  0.48900000  1.0 0.1318322387
H  H243  1  0.23670000  0.68050000  0.45670000  1.0 0.1318322387
H  H244  1  0.26210000  0.70590000  0.45610000  1.0 0.0986643637
H  H245  1  0.04370000  0.76410000  0.49150000  1.0 0.0986643637
H  H246  1  0.09610000  0.74290000  0.48210000  1.0 0.1318322387
H  H247  1  0.09070000  0.66090000  0.50290000  1.0 0.1318322387
H  H248  1  0.03810000  0.68470000  0.51230000  1.0 0.0986643637
H  H249  1  0.19530000  0.55510000  0.47830000  1.0 0.0986643637
H  H250  1  0.16780000  0.60620000  0.47340000  1.0 0.1318322387
H  H251  1  0.22670000  0.60630000  0.50070000  1.0 0.1318322387
H  H252  1  0.25210000  0.55370000  0.50650000  1.0 0.0986643637
H  H253  1  0.30420000  0.44280000  0.52180000  1.0 0.0986643637
H  H254  1  0.32780000  0.39160000  0.52740000  1.0 0.135605848
H  H255  1  0.26530000  0.39730000  0.50170000  1.0 0.1318322387
H  H256  1  0.24600000  0.45020000  0.49220000  1.0 0.0945591565
H  H257  1  0.76430000  0.48990000  0.18370000  1.0 0.0986643637
H  H258  1  0.74240000  0.48900000  0.15600000  1.0 0.1318322387
H  H259  1  0.68050000  0.45670000  0.23670000  1.0 0.1318322387
H  H260  1  0.70590000  0.45610000  0.26210000  1.0 0.0986643637
H  H261  1  0.76410000  0.49150000  0.04370000  1.0 0.0986643637
H  H262  1  0.74290000  0.48210000  0.09610000  1.0 0.1318322387
H  H263  1  0.66090000  0.50290000  0.09070000  1.0 0.1318322387
H  H264  1  0.68470000  0.51230000  0.03810000  1.0 0.0986643637
H  H265  1  0.55510000  0.47830000  0.19530000  1.0 0.0986643637
H  H266  1  0.60620000  0.47340000  0.16780000  1.0 0.1318322387
H  H267  1  0.60630000  0.50070000  0.22670000  1.0 0.1318322387
H  H268  1  0.55370000  0.50650000  0.25210000  1.0 0.0986643637
H  H269  1  0.44280000  0.52180000  0.30420000  1.0 0.0986643637
H  H270  1  0.39160000  0.52740000  0.32780000  1.0 0.135605848
H  H271  1  0.39730000  0.50170000  0.26530000  1.0 0.1318322387
H  H272  1  0.45020000  0.49220000  0.24600000  1.0 0.0945591565
H  H273  1  0.18370000  0.06210000  0.76430000  1.0 0.0986643637
H  H274  1  0.15600000  0.11260000  0.74240000  1.0 0.1318322387
H  H275  1  0.23670000  0.12610000  0.68050000  1.0 0.1318322387
H  H276  1  0.26210000  0.07590000  0.70590000  1.0 0.0986643637
H  H277  1  0.04370000  0.20070000  0.76410000  1.0 0.0986643637
H  H278  1  0.09610000  0.17890000  0.74290000  1.0 0.1318322387
H  H279  1  0.09070000  0.24550000  0.66090000  1.0 0.1318322387
H  H280  1  0.03810000  0.26490000  0.68470000  1.0 0.0986643637
H  H281  1  0.19530000  0.27130000  0.55510000  1.0 0.0986643637
H  H282  1  0.16780000  0.25260000  0.60620000  1.0 0.1318322387
H  H283  1  0.22670000  0.16630000  0.60630000  1.0 0.1318322387
H  H284  1  0.25210000  0.18770000  0.55370000  1.0 0.0986643637
H  H285  1  0.30420000  0.23120000  0.44280000  1.0 0.0986643637
H  H286  1  0.32780000  0.25320000  0.39160000  1.0 0.135605848
H  H287  1  0.26530000  0.33570000  0.39730000  1.0 0.1318322387
H  H288  1  0.24600000  0.31160000  0.45020000  1.0 0.0945591565
H  H289  1  0.48990000  0.76430000  0.06210000  1.0 0.0986643637
H  H290  1  0.48900000  0.74240000  0.11260000  1.0 0.1318322387
H  H291  1  0.45670000  0.68050000  0.12610000  1.0 0.1318322387
H  H292  1  0.45610000  0.70590000  0.07590000  1.0 0.0986643637
H  H293  1  0.49150000  0.76410000  0.20070000  1.0 0.0986643637
H  H294  1  0.48210000  0.74290000  0.17890000  1.0 0.1318322387
H  H295  1  0.50290000  0.66090000  0.24550000  1.0 0.1318322387
H  H296  1  0.51230000  0.68470000  0.26490000  1.0 0.0986643637
H  H297  1  0.47830000  0.55510000  0.27130000  1.0 0.0986643637
H  H298  1  0.47340000  0.60620000  0.25260000  1.0 0.1318322387
H  H299  1  0.50070000  0.60630000  0.16630000  1.0 0.1318322387
H  H300  1  0.50650000  0.55370000  0.18770000  1.0 0.0986643637
H  H301  1  0.52180000  0.44280000  0.23120000  1.0 0.0986643637
H  H302  1  0.52740000  0.39160000  0.25320000  1.0 0.135605848
H  H303  1  0.50170000  0.39730000  0.33570000  1.0 0.1318322387
H  H304  1  0.49220000  0.45020000  0.31160000  1.0 0.0945591565
H  H305  1  0.06210000  0.18370000  0.48990000  1.0 0.0986643637
H  H306  1  0.11260000  0.15600000  0.48900000  1.0 0.1318322387
H  H307  1  0.12610000  0.23670000  0.45670000  1.0 0.1318322387
H  H308  1  0.07590000  0.26210000  0.45610000  1.0 0.0986643637
H  H309  1  0.20070000  0.04370000  0.49150000  1.0 0.0986643637
H  H310  1  0.17890000  0.09610000  0.48210000  1.0 0.1318322387
H  H311  1  0.24550000  0.09070000  0.50290000  1.0 0.1318322387
H  H312  1  0.26490000  0.03810000  0.51230000  1.0 0.0986643637
H  H313  1  0.27130000  0.19530000  0.47830000  1.0 0.0986643637
H  H314  1  0.25260000  0.16780000  0.47340000  1.0 0.1318322387
H  H315  1  0.16630000  0.22670000  0.50070000  1.0 0.1318322387
H  H316  1  0.18770000  0.25210000  0.50650000  1.0 0.0986643637
H  H317  1  0.23120000  0.30420000  0.52180000  1.0 0.0986643637
H  H318  1  0.25320000  0.32780000  0.52740000  1.0 0.135605848
H  H319  1  0.33570000  0.26530000  0.50170000  1.0 0.1318322387
H  H320  1  0.31160000  0.24600000  0.49220000  1.0 0.0945591565
H  H321  1  0.06210000  0.76430000  0.18370000  1.0 0.0986643637
H  H322  1  0.11260000  0.74240000  0.15600000  1.0 0.1318322387
H  H323  1  0.12610000  0.68050000  0.23670000  1.0 0.1318322387
H  H324  1  0.07590000  0.70590000  0.26210000  1.0 0.0986643637
H  H325  1  0.20070000  0.76410000  0.04370000  1.0 0.0986643637
H  H326  1  0.17890000  0.74290000  0.09610000  1.0 0.1318322387
H  H327  1  0.24550000  0.66090000  0.09070000  1.0 0.1318322387
H  H328  1  0.26490000  0.68470000  0.03810000  1.0 0.0986643637
H  H329  1  0.27130000  0.55510000  0.19530000  1.0 0.0986643637
H  H330  1  0.25260000  0.60620000  0.16780000  1.0 0.1318322387
H  H331  1  0.16630000  0.60630000  0.22670000  1.0 0.1318322387
H  H332  1  0.18770000  0.55370000  0.25210000  1.0 0.0986643637
H  H333  1  0.23120000  0.44280000  0.30420000  1.0 0.0986643637
H  H334  1  0.25320000  0.39160000  0.32780000  1.0 0.135605848
H  H335  1  0.33570000  0.39730000  0.26530000  1.0 0.1318322387
H  H336  1  0.31160000  0.45020000  0.24600000  1.0 0.0945591565
H  H337  1  0.48990000  0.18370000  0.76430000  1.0 0.0986643637
H  H338  1  0.48900000  0.15600000  0.74240000  1.0 0.1318322387
H  H339  1  0.45670000  0.23670000  0.68050000  1.0 0.1318322387
H  H340  1  0.45610000  0.26210000  0.70590000  1.0 0.0986643637
H  H341  1  0.49150000  0.04370000  0.76410000  1.0 0.0986643637
H  H342  1  0.48210000  0.09610000  0.74290000  1.0 0.1318322387
H  H343  1  0.50290000  0.09070000  0.66090000  1.0 0.1318322387
H  H344  1  0.51230000  0.03810000  0.68470000  1.0 0.0986643637
H  H345  1  0.47830000  0.19530000  0.55510000  1.0 0.0986643637
H  H346  1  0.47340000  0.16780000  0.60620000  1.0 0.1318322387
H  H347  1  0.50070000  0.22670000  0.60630000  1.0 0.1318322387
H  H348  1  0.50650000  0.25210000  0.55370000  1.0 0.0986643637
H  H349  1  0.52180000  0.30420000  0.44280000  1.0 0.0986643637
H  H350  1  0.52740000  0.32780000  0.39160000  1.0 0.135605848
H  H351  1  0.50170000  0.26530000  0.39730000  1.0 0.1318322387
H  H352  1  0.49220000  0.24600000  0.45020000  1.0 0.0945591565
H  H353  1  0.18370000  0.48990000  0.06210000  1.0 0.0986643637
H  H354  1  0.15600000  0.48900000  0.11260000  1.0 0.1318322387
H  H355  1  0.23670000  0.45670000  0.12610000  1.0 0.1318322387
H  H356  1  0.26210000  0.45610000  0.07590000  1.0 0.0986643637
H  H357  1  0.04370000  0.49150000  0.20070000  1.0 0.0986643637
H  H358  1  0.09610000  0.48210000  0.17890000  1.0 0.1318322387
H  H359  1  0.09070000  0.50290000  0.24550000  1.0 0.1318322387
H  H360  1  0.03810000  0.51230000  0.26490000  1.0 0.0986643637
H  H361  1  0.19530000  0.47830000  0.27130000  1.0 0.0986643637
H  H362  1  0.16780000  0.47340000  0.25260000  1.0 0.1318322387
H  H363  1  0.22670000  0.50070000  0.16630000  1.0 0.1318322387
H  H364  1  0.25210000  0.50650000  0.18770000  1.0 0.0986643637
H  H365  1  0.30420000  0.52180000  0.23120000  1.0 0.0986643637
H  H366  1  0.32780000  0.52740000  0.25320000  1.0 0.135605848
H  H367  1  0.26530000  0.50170000  0.33570000  1.0 0.1318322387
H  H368  1  0.24600000  0.49220000  0.31160000  1.0 0.0945591565
H  H369  1  0.76430000  0.06210000  0.48990000  1.0 0.0986643637
H  H370  1  0.74240000  0.11260000  0.48900000  1.0 0.1318322387
H  H371  1  0.68050000  0.12610000  0.45670000  1.0 0.1318322387
H  H372  1  0.70590000  0.07590000  0.45610000  1.0 0.0986643637
H  H373  1  0.76410000  0.20070000  0.49150000  1.0 0.0986643637
H  H374  1  0.74290000  0.17890000  0.48210000  1.0 0.1318322387
H  H375  1  0.66090000  0.24550000  0.50290000  1.0 0.1318322387
H  H376  1  0.68470000  0.26490000  0.51230000  1.0 0.0986643637
H  H377  1  0.55510000  0.27130000  0.47830000  1.0 0.0986643637
H  H378  1  0.60620000  0.25260000  0.47340000  1.0 0.1318322387
H  H379  1  0.60630000  0.16630000  0.50070000  1.0 0.1318322387
H  H380  1  0.55370000  0.18770000  0.50650000  1.0 0.0986643637
H  H381  1  0.44280000  0.23120000  0.52180000  1.0 0.0986643637
H  H382  1  0.39160000  0.25320000  0.52740000  1.0 0.135605848
H  H383  1  0.39730000  0.33570000  0.50170000  1.0 0.1318322387
H  H384  1  0.45020000  0.31160000  0.49220000  1.0 0.0945591565
H  H385  1  0.98990000  0.56210000  0.26430000  1.0 0.0986643637
H  H386  1  0.98900000  0.61260000  0.24240000  1.0 0.1318322387
H  H387  1  0.95670000  0.62610000  0.18050000  1.0 0.1318322387
H  H388  1  0.95610000  0.57590000  0.20590000  1.0 0.0986643637
H  H389  1  0.99150000  0.70070000  0.26410000  1.0 0.0986643637
H  H390  1  0.98210000  0.67890000  0.24290000  1.0 0.1318322387
H  H391  1  0.00290000  0.74550000  0.16090000  1.0 0.1318322387
H  H392  1  0.01230000  0.76490000  0.18470000  1.0 0.0986643637
H  H393  1  0.97830000  0.77130000  0.05510000  1.0 0.0986643637
H  H394  1  0.97340000  0.75260000  0.10620000  1.0 0.1318322387
H  H395  1  0.00070000  0.66630000  0.10630000  1.0 0.1318322387
H  H396  1  0.00650000  0.68770000  0.05370000  1.0 0.0986643637
H  H397  1  0.02180000  0.73120000  0.94280000  1.0 0.0986643637
H  H398  1  0.02740000  0.75320000  0.89160000  1.0 0.135605848
H  H399  1  0.00170000  0.83570000  0.89730000  1.0 0.1318322387
H  H400  1  0.99220000  0.81160000  0.95020000  1.0 0.0945591565
H  H401  1  0.56210000  0.98990000  0.68370000  1.0 0.0986643637
H  H402  1  0.61260000  0.98900000  0.65600000  1.0 0.1318322387
H  H403  1  0.62610000  0.95670000  0.73670000  1.0 0.1318322387
H  H404  1  0.57590000  0.95610000  0.76210000  1.0 0.0986643637
H  H405  1  0.70070000  0.99150000  0.54370000  1.0 0.0986643637
H  H406  1  0.67890000  0.98210000  0.59610000  1.0 0.1318322387
H  H407  1  0.74550000  0.00290000  0.59070000  1.0 0.1318322387
H  H408  1  0.76490000  0.01230000  0.53810000  1.0 0.0986643637
H  H409  1  0.77130000  0.97830000  0.69530000  1.0 0.0986643637
H  H410  1  0.75260000  0.97340000  0.66780000  1.0 0.1318322387
H  H411  1  0.66630000  0.00070000  0.72670000  1.0 0.1318322387
H  H412  1  0.68770000  0.00650000  0.75210000  1.0 0.0986643637
H  H413  1  0.73120000  0.02180000  0.80420000  1.0 0.0986643637
H  H414  1  0.75320000  0.02740000  0.82780000  1.0 0.135605848
H  H415  1  0.83570000  0.00170000  0.76530000  1.0 0.1318322387
H  H416  1  0.81160000  0.99220000  0.74600000  1.0 0.0945591565
H  H417  1  0.26430000  0.68370000  0.98990000  1.0 0.0986643637
H  H418  1  0.24240000  0.65600000  0.98900000  1.0 0.1318322387
H  H419  1  0.18050000  0.73670000  0.95670000  1.0 0.1318322387
H  H420  1  0.20590000  0.76210000  0.95610000  1.0 0.0986643637
H  H421  1  0.26410000  0.54370000  0.99150000  1.0 0.0986643637
H  H422  1  0.24290000  0.59610000  0.98210000  1.0 0.1318322387
H  H423  1  0.16090000  0.59070000  0.00290000  1.0 0.1318322387
H  H424  1  0.18470000  0.53810000  0.01230000  1.0 0.0986643637
H  H425  1  0.05510000  0.69530000  0.97830000  1.0 0.0986643637
H  H426  1  0.10620000  0.66780000  0.97340000  1.0 0.1318322387
H  H427  1  0.10630000  0.72670000  0.00070000  1.0 0.1318322387
H  H428  1  0.05370000  0.75210000  0.00650000  1.0 0.0986643637
H  H429  1  0.94280000  0.80420000  0.02180000  1.0 0.0986643637
H  H430  1  0.89160000  0.82780000  0.02740000  1.0 0.135605848
H  H431  1  0.89730000  0.76530000  0.00170000  1.0 0.1318322387
H  H432  1  0.95020000  0.74600000  0.99220000  1.0 0.0945591565
H  H433  1  0.68370000  0.26430000  0.56210000  1.0 0.0986643637
H  H434  1  0.65600000  0.24240000  0.61260000  1.0 0.1318322387
H  H435  1  0.73670000  0.18050000  0.62610000  1.0 0.1318322387
H  H436  1  0.76210000  0.20590000  0.57590000  1.0 0.0986643637
H  H437  1  0.54370000  0.26410000  0.70070000  1.0 0.0986643637
H  H438  1  0.59610000  0.24290000  0.67890000  1.0 0.1318322387
H  H439  1  0.59070000  0.16090000  0.74550000  1.0 0.1318322387
H  H440  1  0.53810000  0.18470000  0.76490000  1.0 0.0986643637
H  H441  1  0.69530000  0.05510000  0.77130000  1.0 0.0986643637
H  H442  1  0.66780000  0.10620000  0.75260000  1.0 0.1318322387
H  H443  1  0.72670000  0.10630000  0.66630000  1.0 0.1318322387
H  H444  1  0.75210000  0.05370000  0.68770000  1.0 0.0986643637
H  H445  1  0.80420000  0.94280000  0.73120000  1.0 0.0986643637
H  H446  1  0.82780000  0.89160000  0.75320000  1.0 0.135605848
H  H447  1  0.76530000  0.89730000  0.83570000  1.0 0.1318322387
H  H448  1  0.74600000  0.95020000  0.81160000  1.0 0.0945591565
H  H449  1  0.26430000  0.98990000  0.56210000  1.0 0.0986643637
H  H450  1  0.24240000  0.98900000  0.61260000  1.0 0.1318322387
H  H451  1  0.18050000  0.95670000  0.62610000  1.0 0.1318322387
H  H452  1  0.20590000  0.95610000  0.57590000  1.0 0.0986643637
H  H453  1  0.26410000  0.99150000  0.70070000  1.0 0.0986643637
H  H454  1  0.24290000  0.98210000  0.67890000  1.0 0.1318322387
H  H455  1  0.16090000  0.00290000  0.74550000  1.0 0.1318322387
H  H456  1  0.18470000  0.01230000  0.76490000  1.0 0.0986643637
H  H457  1  0.05510000  0.97830000  0.77130000  1.0 0.0986643637
H  H458  1  0.10620000  0.97340000  0.75260000  1.0 0.1318322387
H  H459  1  0.10630000  0.00070000  0.66630000  1.0 0.1318322387
H  H460  1  0.05370000  0.00650000  0.68770000  1.0 0.0986643637
H  H461  1  0.94280000  0.02180000  0.73120000  1.0 0.0986643637
H  H462  1  0.89160000  0.02740000  0.75320000  1.0 0.135605848
H  H463  1  0.89730000  0.00170000  0.83570000  1.0 0.1318322387
H  H464  1  0.95020000  0.99220000  0.81160000  1.0 0.0945591565
H  H465  1  0.68370000  0.56210000  0.98990000  1.0 0.0986643637
H  H466  1  0.65600000  0.61260000  0.98900000  1.0 0.1318322387
H  H467  1  0.73670000  0.62610000  0.95670000  1.0 0.1318322387
H  H468  1  0.76210000  0.57590000  0.95610000  1.0 0.0986643637
H  H469  1  0.54370000  0.70070000  0.99150000  1.0 0.0986643637
H  H470  1  0.59610000  0.67890000  0.98210000  1.0 0.1318322387
H  H471  1  0.59070000  0.74550000  0.00290000  1.0 0.1318322387
H  H472  1  0.53810000  0.76490000  0.01230000  1.0 0.0986643637
H  H473  1  0.69530000  0.77130000  0.97830000  1.0 0.0986643637
H  H474  1  0.66780000  0.75260000  0.97340000  1.0 0.1318322387
H  H475  1  0.72670000  0.66630000  0.00070000  1.0 0.1318322387
H  H476  1  0.75210000  0.68770000  0.00650000  1.0 0.0986643637
H  H477  1  0.80420000  0.73120000  0.02180000  1.0 0.0986643637
H  H478  1  0.82780000  0.75320000  0.02740000  1.0 0.135605848
H  H479  1  0.76530000  0.83570000  0.00170000  1.0 0.1318322387
H  H480  1  0.74600000  0.81160000  0.99220000  1.0 0.0945591565
H  H481  1  0.98990000  0.26430000  0.68370000  1.0 0.0986643637
H  H482  1  0.98900000  0.24240000  0.65600000  1.0 0.1318322387
H  H483  1  0.95670000  0.18050000  0.73670000  1.0 0.1318322387
H  H484  1  0.95610000  0.20590000  0.76210000  1.0 0.0986643637
H  H485  1  0.99150000  0.26410000  0.54370000  1.0 0.0986643637
H  H486  1  0.98210000  0.24290000  0.59610000  1.0 0.1318322387
H  H487  1  0.00290000  0.16090000  0.59070000  1.0 0.1318322387
H  H488  1  0.01230000  0.18470000  0.53810000  1.0 0.0986643637
H  H489  1  0.97830000  0.05510000  0.69530000  1.0 0.0986643637
H  H490  1  0.97340000  0.10620000  0.66780000  1.0 0.1318322387
H  H491  1  0.00070000  0.10630000  0.72670000  1.0 0.1318322387
H  H492  1  0.00650000  0.05370000  0.75210000  1.0 0.0986643637
H  H493  1  0.02180000  0.94280000  0.80420000  1.0 0.0986643637
H  H494  1  0.02740000  0.89160000  0.82780000  1.0 0.135605848
H  H495  1  0.00170000  0.89730000  0.76530000  1.0 0.1318322387
H  H496  1  0.99220000  0.95020000  0.74600000  1.0 0.0945591565
H  H497  1  0.56210000  0.68370000  0.26430000  1.0 0.0986643637
H  H498  1  0.61260000  0.65600000  0.24240000  1.0 0.1318322387
H  H499  1  0.62610000  0.73670000  0.18050000  1.0 0.1318322387
H  H500  1  0.57590000  0.76210000  0.20590000  1.0 0.0986643637
H  H501  1  0.70070000  0.54370000  0.26410000  1.0 0.0986643637
H  H502  1  0.67890000  0.59610000  0.24290000  1.0 0.1318322387
H  H503  1  0.74550000  0.59070000  0.16090000  1.0 0.1318322387
H  H504  1  0.76490000  0.53810000  0.18470000  1.0 0.0986643637
H  H505  1  0.77130000  0.69530000  0.05510000  1.0 0.0986643637
H  H506  1  0.75260000  0.66780000  0.10620000  1.0 0.1318322387
H  H507  1  0.66630000  0.72670000  0.10630000  1.0 0.1318322387
H  H508  1  0.68770000  0.75210000  0.05370000  1.0 0.0986643637
H  H509  1  0.73120000  0.80420000  0.94280000  1.0 0.0986643637
H  H510  1  0.75320000  0.82780000  0.89160000  1.0 0.135605848
H  H511  1  0.83570000  0.76530000  0.89730000  1.0 0.1318322387
H  H512  1  0.81160000  0.74600000  0.95020000  1.0 0.0945591565
H  H513  1  0.56210000  0.26430000  0.98990000  1.0 0.0986643637
H  H514  1  0.61260000  0.24240000  0.98900000  1.0 0.1318322387
H  H515  1  0.62610000  0.18050000  0.95670000  1.0 0.1318322387
H  H516  1  0.57590000  0.20590000  0.95610000  1.0 0.0986643637
H  H517  1  0.70070000  0.26410000  0.99150000  1.0 0.0986643637
H  H518  1  0.67890000  0.24290000  0.98210000  1.0 0.1318322387
H  H519  1  0.74550000  0.16090000  0.00290000  1.0 0.1318322387
H  H520  1  0.76490000  0.18470000  0.01230000  1.0 0.0986643637
H  H521  1  0.77130000  0.05510000  0.97830000  1.0 0.0986643637
H  H522  1  0.75260000  0.10620000  0.97340000  1.0 0.1318322387
H  H523  1  0.66630000  0.10630000  0.00070000  1.0 0.1318322387
H  H524  1  0.68770000  0.05370000  0.00650000  1.0 0.0986643637
H  H525  1  0.73120000  0.94280000  0.02180000  1.0 0.0986643637
H  H526  1  0.75320000  0.89160000  0.02740000  1.0 0.135605848
H  H527  1  0.83570000  0.89730000  0.00170000  1.0 0.1318322387
H  H528  1  0.81160000  0.95020000  0.99220000  1.0 0.0945591565
H  H529  1  0.98990000  0.68370000  0.56210000  1.0 0.0986643637
H  H530  1  0.98900000  0.65600000  0.61260000  1.0 0.1318322387
H  H531  1  0.95670000  0.73670000  0.62610000  1.0 0.1318322387
H  H532  1  0.95610000  0.76210000  0.57590000  1.0 0.0986643637
H  H533  1  0.99150000  0.54370000  0.70070000  1.0 0.0986643637
H  H534  1  0.98210000  0.59610000  0.67890000  1.0 0.1318322387
H  H535  1  0.00290000  0.59070000  0.74550000  1.0 0.1318322387
H  H536  1  0.01230000  0.53810000  0.76490000  1.0 0.0986643637
H  H537  1  0.97830000  0.69530000  0.77130000  1.0 0.0986643637
H  H538  1  0.97340000  0.66780000  0.75260000  1.0 0.1318322387
H  H539  1  0.00070000  0.72670000  0.66630000  1.0 0.1318322387
H  H540  1  0.00650000  0.75210000  0.68770000  1.0 0.0986643637
H  H541  1  0.02180000  0.80420000  0.73120000  1.0 0.0986643637
H  H542  1  0.02740000  0.82780000  0.75320000  1.0 0.135605848
H  H543  1  0.00170000  0.76530000  0.83570000  1.0 0.1318322387
H  H544  1  0.99220000  0.74600000  0.81160000  1.0 0.0945591565
H  H545  1  0.68370000  0.98990000  0.26430000  1.0 0.0986643637
H  H546  1  0.65600000  0.98900000  0.24240000  1.0 0.1318322387
H  H547  1  0.73670000  0.95670000  0.18050000  1.0 0.1318322387
H  H548  1  0.76210000  0.95610000  0.20590000  1.0 0.0986643637
H  H549  1  0.54370000  0.99150000  0.26410000  1.0 0.0986643637
H  H550  1  0.59610000  0.98210000  0.24290000  1.0 0.1318322387
H  H551  1  0.59070000  0.00290000  0.16090000  1.0 0.1318322387
H  H552  1  0.53810000  0.01230000  0.18470000  1.0 0.0986643637
H  H553  1  0.69530000  0.97830000  0.05510000  1.0 0.0986643637
H  H554  1  0.66780000  0.97340000  0.10620000  1.0 0.1318322387
H  H555  1  0.72670000  0.00070000  0.10630000  1.0 0.1318322387
H  H556  1  0.75210000  0.00650000  0.05370000  1.0 0.0986643637
H  H557  1  0.80420000  0.02180000  0.94280000  1.0 0.0986643637
H  H558  1  0.82780000  0.02740000  0.89160000  1.0 0.135605848
H  H559  1  0.76530000  0.00170000  0.89730000  1.0 0.1318322387
H  H560  1  0.74600000  0.99220000  0.95020000  1.0 0.0945591565
H  H561  1  0.26430000  0.56210000  0.68370000  1.0 0.0986643637
H  H562  1  0.24240000  0.61260000  0.65600000  1.0 0.1318322387
H  H563  1  0.18050000  0.62610000  0.73670000  1.0 0.1318322387
H  H564  1  0.20590000  0.57590000  0.76210000  1.0 0.0986643637
H  H565  1  0.26410000  0.70070000  0.54370000  1.0 0.0986643637
H  H566  1  0.24290000  0.67890000  0.59610000  1.0 0.1318322387
H  H567  1  0.16090000  0.74550000  0.59070000  1.0 0.1318322387
H  H568  1  0.18470000  0.76490000  0.53810000  1.0 0.0986643637
H  H569  1  0.05510000  0.77130000  0.69530000  1.0 0.0986643637
H  H570  1  0.10620000  0.75260000  0.66780000  1.0 0.1318322387
H  H571  1  0.10630000  0.66630000  0.72670000  1.0 0.1318322387
H  H572  1  0.05370000  0.68770000  0.75210000  1.0 0.0986643637
H  H573  1  0.94280000  0.73120000  0.80420000  1.0 0.0986643637
H  H574  1  0.89160000  0.75320000  0.82780000  1.0 0.135605848
H  H575  1  0.89730000  0.83570000  0.76530000  1.0 0.1318322387
H  H576  1  0.95020000  0.81160000  0.74600000  1.0 0.0945591565
H  H577  1  0.51010000  0.93790000  0.81630000  1.0 0.0986643637
H  H578  1  0.51100000  0.88740000  0.84400000  1.0 0.1318322387
H  H579  1  0.54330000  0.87390000  0.76330000  1.0 0.1318322387
H  H580  1  0.54390000  0.92410000  0.73790000  1.0 0.0986643637
H  H581  1  0.50850000  0.79930000  0.95630000  1.0 0.0986643637
H  H582  1  0.51790000  0.82110000  0.90390000  1.0 0.1318322387
H  H583  1  0.49710000  0.75450000  0.90930000  1.0 0.1318322387
H  H584  1  0.48770000  0.73510000  0.96190000  1.0 0.0986643637
H  H585  1  0.52170000  0.72870000  0.80470000  1.0 0.0986643637
H  H586  1  0.52660000  0.74740000  0.83220000  1.0 0.1318322387
H  H587  1  0.49930000  0.83370000  0.77330000  1.0 0.1318322387
H  H588  1  0.49350000  0.81230000  0.74790000  1.0 0.0986643637
H  H589  1  0.47820000  0.76880000  0.69580000  1.0 0.0986643637
H  H590  1  0.47260000  0.74680000  0.67220000  1.0 0.135605848
H  H591  1  0.49830000  0.66430000  0.73470000  1.0 0.1318322387
H  H592  1  0.50780000  0.68840000  0.75400000  1.0 0.0945591565
H  H593  1  0.93790000  0.51010000  0.23570000  1.0 0.0986643637
H  H594  1  0.88740000  0.51100000  0.25760000  1.0 0.1318322387
H  H595  1  0.87390000  0.54330000  0.31950000  1.0 0.1318322387
H  H596  1  0.92410000  0.54390000  0.29410000  1.0 0.0986643637
H  H597  1  0.79930000  0.50850000  0.23590000  1.0 0.0986643637
H  H598  1  0.82110000  0.51790000  0.25710000  1.0 0.1318322387
H  H599  1  0.75450000  0.49710000  0.33910000  1.0 0.1318322387
H  H600  1  0.73510000  0.48770000  0.31530000  1.0 0.0986643637
H  H601  1  0.72870000  0.52170000  0.44490000  1.0 0.0986643637
H  H602  1  0.74740000  0.52660000  0.39380000  1.0 0.1318322387
H  H603  1  0.83370000  0.49930000  0.39370000  1.0 0.1318322387
H  H604  1  0.81230000  0.49350000  0.44630000  1.0 0.0986643637
H  H605  1  0.76880000  0.47820000  0.55720000  1.0 0.0986643637
H  H606  1  0.74680000  0.47260000  0.60840000  1.0 0.135605848
H  H607  1  0.66430000  0.49830000  0.60270000  1.0 0.1318322387
H  H608  1  0.68840000  0.50780000  0.54980000  1.0 0.0945591565
H  H609  1  0.23570000  0.81630000  0.93790000  1.0 0.0986643637
H  H610  1  0.25760000  0.84400000  0.88740000  1.0 0.1318322387
H  H611  1  0.31950000  0.76330000  0.87390000  1.0 0.1318322387
H  H612  1  0.29410000  0.73790000  0.92410000  1.0 0.0986643637
H  H613  1  0.23590000  0.95630000  0.79930000  1.0 0.0986643637
H  H614  1  0.25710000  0.90390000  0.82110000  1.0 0.1318322387
H  H615  1  0.33910000  0.90930000  0.75450000  1.0 0.1318322387
H  H616  1  0.31530000  0.96190000  0.73510000  1.0 0.0986643637
H  H617  1  0.44490000  0.80470000  0.72870000  1.0 0.0986643637
H  H618  1  0.39380000  0.83220000  0.74740000  1.0 0.1318322387
H  H619  1  0.39370000  0.77330000  0.83370000  1.0 0.1318322387
H  H620  1  0.44630000  0.74790000  0.81230000  1.0 0.0986643637
H  H621  1  0.55720000  0.69580000  0.76880000  1.0 0.0986643637
H  H622  1  0.60840000  0.67220000  0.74680000  1.0 0.135605848
H  H623  1  0.60270000  0.73470000  0.66430000  1.0 0.1318322387
H  H624  1  0.54980000  0.75400000  0.68840000  1.0 0.0945591565
H  H625  1  0.81630000  0.23570000  0.51010000  1.0 0.0986643637
H  H626  1  0.84400000  0.25760000  0.51100000  1.0 0.1318322387
H  H627  1  0.76330000  0.31950000  0.54330000  1.0 0.1318322387
H  H628  1  0.73790000  0.29410000  0.54390000  1.0 0.0986643637
H  H629  1  0.95630000  0.23590000  0.50850000  1.0 0.0986643637
H  H630  1  0.90390000  0.25710000  0.51790000  1.0 0.1318322387
H  H631  1  0.90930000  0.33910000  0.49710000  1.0 0.1318322387
H  H632  1  0.96190000  0.31530000  0.48770000  1.0 0.0986643637
H  H633  1  0.80470000  0.44490000  0.52170000  1.0 0.0986643637
H  H634  1  0.83220000  0.39380000  0.52660000  1.0 0.1318322387
H  H635  1  0.77330000  0.39370000  0.49930000  1.0 0.1318322387
H  H636  1  0.74790000  0.44630000  0.49350000  1.0 0.0986643637
H  H637  1  0.69580000  0.55720000  0.47820000  1.0 0.0986643637
H  H638  1  0.67220000  0.60840000  0.47260000  1.0 0.135605848
H  H639  1  0.73470000  0.60270000  0.49830000  1.0 0.1318322387
H  H640  1  0.75400000  0.54980000  0.50780000  1.0 0.0945591565
H  H641  1  0.23570000  0.51010000  0.81630000  1.0 0.0986643637
H  H642  1  0.25760000  0.51100000  0.84400000  1.0 0.1318322387
H  H643  1  0.31950000  0.54330000  0.76330000  1.0 0.1318322387
H  H644  1  0.29410000  0.54390000  0.73790000  1.0 0.0986643637
H  H645  1  0.23590000  0.50850000  0.95630000  1.0 0.0986643637
H  H646  1  0.25710000  0.51790000  0.90390000  1.0 0.1318322387
H  H647  1  0.33910000  0.49710000  0.90930000  1.0 0.1318322387
H  H648  1  0.31530000  0.48770000  0.96190000  1.0 0.0986643637
H  H649  1  0.44490000  0.52170000  0.80470000  1.0 0.0986643637
H  H650  1  0.39380000  0.52660000  0.83220000  1.0 0.1318322387
H  H651  1  0.39370000  0.49930000  0.77330000  1.0 0.1318322387
H  H652  1  0.44630000  0.49350000  0.74790000  1.0 0.0986643637
H  H653  1  0.55720000  0.47820000  0.69580000  1.0 0.0986643637
H  H654  1  0.60840000  0.47260000  0.67220000  1.0 0.135605848
H  H655  1  0.60270000  0.49830000  0.73470000  1.0 0.1318322387
H  H656  1  0.54980000  0.50780000  0.75400000  1.0 0.0945591565
H  H657  1  0.81630000  0.93790000  0.23570000  1.0 0.0986643637
H  H658  1  0.84400000  0.88740000  0.25760000  1.0 0.1318322387
H  H659  1  0.76330000  0.87390000  0.31950000  1.0 0.1318322387
H  H660  1  0.73790000  0.92410000  0.29410000  1.0 0.0986643637
H  H661  1  0.95630000  0.79930000  0.23590000  1.0 0.0986643637
H  H662  1  0.90390000  0.82110000  0.25710000  1.0 0.1318322387
H  H663  1  0.90930000  0.75450000  0.33910000  1.0 0.1318322387
H  H664  1  0.96190000  0.73510000  0.31530000  1.0 0.0986643637
H  H665  1  0.80470000  0.72870000  0.44490000  1.0 0.0986643637
H  H666  1  0.83220000  0.74740000  0.39380000  1.0 0.1318322387
H  H667  1  0.77330000  0.83370000  0.39370000  1.0 0.1318322387
H  H668  1  0.74790000  0.81230000  0.44630000  1.0 0.0986643637
H  H669  1  0.69580000  0.76880000  0.55720000  1.0 0.0986643637
H  H670  1  0.67220000  0.74680000  0.60840000  1.0 0.135605848
H  H671  1  0.73470000  0.66430000  0.60270000  1.0 0.1318322387
H  H672  1  0.75400000  0.68840000  0.54980000  1.0 0.0945591565
H  H673  1  0.51010000  0.23570000  0.93790000  1.0 0.0986643637
H  H674  1  0.51100000  0.25760000  0.88740000  1.0 0.1318322387
H  H675  1  0.54330000  0.31950000  0.87390000  1.0 0.1318322387
H  H676  1  0.54390000  0.29410000  0.92410000  1.0 0.0986643637
H  H677  1  0.50850000  0.23590000  0.79930000  1.0 0.0986643637
H  H678  1  0.51790000  0.25710000  0.82110000  1.0 0.1318322387
H  H679  1  0.49710000  0.33910000  0.75450000  1.0 0.1318322387
H  H680  1  0.48770000  0.31530000  0.73510000  1.0 0.0986643637
H  H681  1  0.52170000  0.44490000  0.72870000  1.0 0.0986643637
H  H682  1  0.52660000  0.39380000  0.74740000  1.0 0.1318322387
H  H683  1  0.49930000  0.39370000  0.83370000  1.0 0.1318322387
H  H684  1  0.49350000  0.44630000  0.81230000  1.0 0.0986643637
H  H685  1  0.47820000  0.55720000  0.76880000  1.0 0.0986643637
H  H686  1  0.47260000  0.60840000  0.74680000  1.0 0.135605848
H  H687  1  0.49830000  0.60270000  0.66430000  1.0 0.1318322387
H  H688  1  0.50780000  0.54980000  0.68840000  1.0 0.0945591565
H  H689  1  0.93790000  0.81630000  0.51010000  1.0 0.0986643637
H  H690  1  0.88740000  0.84400000  0.51100000  1.0 0.1318322387
H  H691  1  0.87390000  0.76330000  0.54330000  1.0 0.1318322387
H  H692  1  0.92410000  0.73790000  0.54390000  1.0 0.0986643637
H  H693  1  0.79930000  0.95630000  0.50850000  1.0 0.0986643637
H  H694  1  0.82110000  0.90390000  0.51790000  1.0 0.1318322387
H  H695  1  0.75450000  0.90930000  0.49710000  1.0 0.1318322387
H  H696  1  0.73510000  0.96190000  0.48770000  1.0 0.0986643637
H  H697  1  0.72870000  0.80470000  0.52170000  1.0 0.0986643637
H  H698  1  0.74740000  0.83220000  0.52660000  1.0 0.1318322387
H  H699  1  0.83370000  0.77330000  0.49930000  1.0 0.1318322387
H  H700  1  0.81230000  0.74790000  0.49350000  1.0 0.0986643637
H  H701  1  0.76880000  0.69580000  0.47820000  1.0 0.0986643637
H  H702  1  0.74680000  0.67220000  0.47260000  1.0 0.135605848
H  H703  1  0.66430000  0.73470000  0.49830000  1.0 0.1318322387
H  H704  1  0.68840000  0.75400000  0.50780000  1.0 0.0945591565
H  H705  1  0.93790000  0.23570000  0.81630000  1.0 0.0986643637
H  H706  1  0.88740000  0.25760000  0.84400000  1.0 0.1318322387
H  H707  1  0.87390000  0.31950000  0.76330000  1.0 0.1318322387
H  H708  1  0.92410000  0.29410000  0.73790000  1.0 0.0986643637
H  H709  1  0.79930000  0.23590000  0.95630000  1.0 0.0986643637
H  H710  1  0.82110000  0.25710000  0.90390000  1.0 0.1318322387
H  H711  1  0.75450000  0.33910000  0.90930000  1.0 0.1318322387
H  H712  1  0.73510000  0.31530000  0.96190000  1.0 0.0986643637
H  H713  1  0.72870000  0.44490000  0.80470000  1.0 0.0986643637
H  H714  1  0.74740000  0.39380000  0.83220000  1.0 0.1318322387
H  H715  1  0.83370000  0.39370000  0.77330000  1.0 0.1318322387
H  H716  1  0.81230000  0.44630000  0.74790000  1.0 0.0986643637
H  H717  1  0.76880000  0.55720000  0.69580000  1.0 0.0986643637
H  H718  1  0.74680000  0.60840000  0.67220000  1.0 0.135605848
H  H719  1  0.66430000  0.60270000  0.73470000  1.0 0.1318322387
H  H720  1  0.68840000  0.54980000  0.75400000  1.0 0.0945591565
H  H721  1  0.51010000  0.81630000  0.23570000  1.0 0.0986643637
H  H722  1  0.51100000  0.84400000  0.25760000  1.0 0.1318322387
H  H723  1  0.54330000  0.76330000  0.31950000  1.0 0.1318322387
H  H724  1  0.54390000  0.73790000  0.29410000  1.0 0.0986643637
H  H725  1  0.50850000  0.95630000  0.23590000  1.0 0.0986643637
H  H726  1  0.51790000  0.90390000  0.25710000  1.0 0.1318322387
H  H727  1  0.49710000  0.90930000  0.33910000  1.0 0.1318322387
H  H728  1  0.48770000  0.96190000  0.31530000  1.0 0.0986643637
H  H729  1  0.52170000  0.80470000  0.44490000  1.0 0.0986643637
H  H730  1  0.52660000  0.83220000  0.39380000  1.0 0.1318322387
H  H731  1  0.49930000  0.77330000  0.39370000  1.0 0.1318322387
H  H732  1  0.49350000  0.74790000  0.44630000  1.0 0.0986643637
H  H733  1  0.47820000  0.69580000  0.55720000  1.0 0.0986643637
H  H734  1  0.47260000  0.67220000  0.60840000  1.0 0.135605848
H  H735  1  0.49830000  0.73470000  0.60270000  1.0 0.1318322387
H  H736  1  0.50780000  0.75400000  0.54980000  1.0 0.0945591565
H  H737  1  0.81630000  0.51010000  0.93790000  1.0 0.0986643637
H  H738  1  0.84400000  0.51100000  0.88740000  1.0 0.1318322387
H  H739  1  0.76330000  0.54330000  0.87390000  1.0 0.1318322387
H  H740  1  0.73790000  0.54390000  0.92410000  1.0 0.0986643637
H  H741  1  0.95630000  0.50850000  0.79930000  1.0 0.0986643637
H  H742  1  0.90390000  0.51790000  0.82110000  1.0 0.1318322387
H  H743  1  0.90930000  0.49710000  0.75450000  1.0 0.1318322387
H  H744  1  0.96190000  0.48770000  0.73510000  1.0 0.0986643637
H  H745  1  0.80470000  0.52170000  0.72870000  1.0 0.0986643637
H  H746  1  0.83220000  0.52660000  0.74740000  1.0 0.1318322387
H  H747  1  0.77330000  0.49930000  0.83370000  1.0 0.1318322387
H  H748  1  0.74790000  0.49350000  0.81230000  1.0 0.0986643637
H  H749  1  0.69580000  0.47820000  0.76880000  1.0 0.0986643637
H  H750  1  0.67220000  0.47260000  0.74680000  1.0 0.135605848
H  H751  1  0.73470000  0.49830000  0.66430000  1.0 0.1318322387
H  H752  1  0.75400000  0.50780000  0.68840000  1.0 0.0945591565
H  H753  1  0.23570000  0.93790000  0.51010000  1.0 0.0986643637
H  H754  1  0.25760000  0.88740000  0.51100000  1.0 0.1318322387
H  H755  1  0.31950000  0.87390000  0.54330000  1.0 0.1318322387
H  H756  1  0.29410000  0.92410000  0.54390000  1.0 0.0986643637
H  H757  1  0.23590000  0.79930000  0.50850000  1.0 0.0986643637
H  H758  1  0.25710000  0.82110000  0.51790000  1.0 0.1318322387
H  H759  1  0.33910000  0.75450000  0.49710000  1.0 0.1318322387
H  H760  1  0.31530000  0.73510000  0.48770000  1.0 0.0986643637
H  H761  1  0.44490000  0.72870000  0.52170000  1.0 0.0986643637
H  H762  1  0.39380000  0.74740000  0.52660000  1.0 0.1318322387
H  H763  1  0.39370000  0.83370000  0.49930000  1.0 0.1318322387
H  H764  1  0.44630000  0.81230000  0.49350000  1.0 0.0986643637
H  H765  1  0.55720000  0.76880000  0.47820000  1.0 0.0986643637
H  H766  1  0.60840000  0.74680000  0.47260000  1.0 0.135605848
H  H767  1  0.60270000  0.66430000  0.49830000  1.0 0.1318322387
H  H768  1  0.54980000  0.68840000  0.50780000  1.0 0.0945591565
C  C1  1  0.03193000  0.49549000  0.68069000  1.0 0.2111444106
C  C2  1  0.01646000  0.42476000  0.75338000  1.0 0.070307649
C  C3  1  0.01677000  0.39481000  0.76625000  1.0 -0.1703467808
C  C4  1  0.02580000  0.37556000  0.79218000  1.0 0.0447539326
C  C5  1  0.03606000  0.38672000  0.80242000  1.0 -0.1588749685
C  C6  1  0.03577000  0.41695000  0.78753000  1.0 0.0797605509
C  C7  1  0.02150000  0.34510000  0.81028000  1.0 0.3665358278
C  C8  1  0.01258000  0.30524000  0.81490000  1.0 0.3665358278
C  C9  1  0.01566000  0.30604000  0.85540000  1.0 0.3624877896
C  C10  1  0.00571000  0.29029000  0.75737000  1.0 0.0797605509
C  C11  1  0.01145000  0.30355000  0.76967000  1.0 -0.1588749685
C  C12  1  0.00767000  0.29061000  0.80099000  1.0 0.0478059599
C  C13  1  0.99914000  0.26446000  0.81782000  1.0 -0.1703467808
C  C14  1  0.99371000  0.25297000  0.80335000  1.0 0.070307649
C  C15  1  0.01674000  0.25040000  0.93450000  1.0 0.070307649
C  C16  1  0.01995000  0.26121000  0.90407000  1.0 -0.1703467808
C  C17  1  0.01342000  0.29280000  0.88826000  1.0 0.0478059599
C  C18  1  0.00373000  0.31211000  0.90395000  1.0 -0.1588749685
C  C19  1  0.00056000  0.29908000  0.93528000  1.0 0.0797605509
C  C20  1  0.99396000  0.18838000  0.01008000  1.0 0.2185364203
C  C21  1  0.98275000  0.24709000  0.06635000  1.0 0.0797605509
C  C22  1  0.97908000  0.23410000  0.09706000  1.0 -0.1788225279
C  C23  1  0.98468000  0.20290000  0.11162000  1.0 0.0478059599
C  C24  1  0.99464000  0.18586000  0.09374000  1.0 -0.1509093283
C  C25  1  0.99926000  0.20058000  0.06230000  1.0 0.070307649
C  C26  1  0.98307000  0.18701000  0.14389000  1.0 0.3624877896
C  C27  1  0.49549000  0.03193000  0.29189000  1.0 0.2111444106
C  C28  1  0.42476000  0.01646000  0.30540000  1.0 0.070307649
C  C29  1  0.39481000  0.01677000  0.32217000  1.0 -0.1703467808
C  C30  1  0.37556000  0.02580000  0.30646000  1.0 0.0478059599
C  C31  1  0.38672000  0.03606000  0.27480000  1.0 -0.1588749685
C  C32  1  0.41695000  0.03577000  0.25975000  1.0 0.0797605509
C  C33  1  0.34510000  0.02150000  0.32312000  1.0 0.3665358278
C  C34  1  0.30524000  0.01258000  0.36728000  1.0 0.3665358278
C  C35  1  0.30604000  0.01566000  0.32290000  1.0 0.3624877896
C  C36  1  0.29029000  0.00571000  0.44663000  1.0 0.0797605509
C  C37  1  0.30355000  0.01145000  0.41533000  1.0 -0.1588749685
C  C38  1  0.29061000  0.00767000  0.40073000  1.0 0.0478059599
C  C39  1  0.26446000  0.99914000  0.41858000  1.0 -0.1703467808
C  C40  1  0.25297000  0.99371000  0.44997000  1.0 0.070307649
C  C41  1  0.25040000  0.01674000  0.29836000  1.0 0.070307649
C  C42  1  0.26121000  0.01995000  0.31477000  1.0 -0.1703467808
C  C43  1  0.29280000  0.01342000  0.30552000  1.0 0.0478059599
C  C44  1  0.31211000  0.00373000  0.28021000  1.0 -0.1588749685
C  C45  1  0.29908000  0.00056000  0.26508000  1.0 0.0797605509
C  C46  1  0.18838000  0.99396000  0.30758000  1.0 0.2185364203
C  C47  1  0.24709000  0.98275000  0.20381000  1.0 0.0797605509
C  C48  1  0.23410000  0.97908000  0.18976000  1.0 -0.1788225279
C  C49  1  0.20290000  0.98468000  0.20080000  1.0 0.0478059599
C  C50  1  0.18586000  0.99464000  0.22576000  1.0 -0.1509093283
C  C51  1  0.20058000  0.99926000  0.23786000  1.0 0.070307649
C  C52  1  0.18701000  0.98307000  0.18603000  1.0 0.3624877896
C  C53  1  0.68069000  0.29189000  0.03193000  1.0 0.2111444106
C  C54  1  0.75338000  0.30540000  0.01646000  1.0 0.070307649
C  C55  1  0.76625000  0.32217000  0.01677000  1.0 -0.1703467808
C  C56  1  0.79218000  0.30646000  0.02580000  1.0 0.0478059599
C  C57  1  0.80242000  0.27480000  0.03606000  1.0 -0.1588749685
C  C58  1  0.78753000  0.25975000  0.03577000  1.0 0.0797605509
C  C59  1  0.81028000  0.32312000  0.02150000  1.0 0.3665358278
C  C60  1  0.81490000  0.36728000  0.01258000  1.0 0.3665358278
C  C61  1  0.85540000  0.32290000  0.01566000  1.0 0.3624877896
C  C62  1  0.75737000  0.44663000  0.00571000  1.0 0.0797605509
C  C63  1  0.76967000  0.41533000  0.01145000  1.0 -0.1588749685
C  C64  1  0.80099000  0.40073000  0.00767000  1.0 0.0478059599
C  C65  1  0.81782000  0.41858000  0.99914000  1.0 -0.1703467808
C  C66  1  0.80335000  0.44997000  0.99371000  1.0 0.070307649
C  C67  1  0.93450000  0.29836000  0.01674000  1.0 0.070307649
C  C68  1  0.90407000  0.31477000  0.01995000  1.0 -0.1703467808
C  C69  1  0.88826000  0.30552000  0.01342000  1.0 0.0478059599
C  C70  1  0.90395000  0.28021000  0.00373000  1.0 -0.1588749685
C  C71  1  0.93528000  0.26508000  0.00056000  1.0 0.0797605509
C  C72  1  0.01008000  0.30758000  0.99396000  1.0 0.2185364203
C  C73  1  0.06635000  0.20381000  0.98275000  1.0 0.0797605509
C  C74  1  0.09706000  0.18976000  0.97908000  1.0 -0.1788225279
C  C75  1  0.11162000  0.20080000  0.98468000  1.0 0.0478059599
C  C76  1  0.09374000  0.22576000  0.99464000  1.0 -0.1509093283
C  C77  1  0.06230000  0.23786000  0.99926000  1.0 0.070307649
C  C78  1  0.14389000  0.18603000  0.98307000  1.0 0.3624877896
C  C79  1  0.29189000  0.68069000  0.49549000  1.0 0.2111444106
C  C80  1  0.30540000  0.75338000  0.42476000  1.0 0.070307649
C  C81  1  0.32217000  0.76625000  0.39481000  1.0 -0.1703467808
C  C82  1  0.30646000  0.79218000  0.37556000  1.0 0.0447539326
C  C83  1  0.27480000  0.80242000  0.38672000  1.0 -0.1588749685
C  C84  1  0.25975000  0.78753000  0.41695000  1.0 0.0797605509
C  C85  1  0.32312000  0.81028000  0.34510000  1.0 0.3665358278
C  C86  1  0.36728000  0.81490000  0.30524000  1.0 0.3665358278
C  C87  1  0.32290000  0.85540000  0.30604000  1.0 0.3624877896
C  C88  1  0.44663000  0.75737000  0.29029000  1.0 0.0797605509
C  C89  1  0.41533000  0.76967000  0.30355000  1.0 -0.1588749685
C  C90  1  0.40073000  0.80099000  0.29061000  1.0 0.0478059599
C  C91  1  0.41858000  0.81782000  0.26446000  1.0 -0.1703467808
C  C92  1  0.44997000  0.80335000  0.25297000  1.0 0.070307649
C  C93  1  0.29836000  0.93450000  0.25040000  1.0 0.070307649
C  C94  1  0.31477000  0.90407000  0.26121000  1.0 -0.1703467808
C  C95  1  0.30552000  0.88826000  0.29280000  1.0 0.0478059599
C  C96  1  0.28021000  0.90395000  0.31211000  1.0 -0.1588749685
C  C97  1  0.26508000  0.93528000  0.29908000  1.0 0.0797605509
C  C98  1  0.30758000  0.01008000  0.18838000  1.0 0.2185364203
C  C99  1  0.20381000  0.06635000  0.24709000  1.0 0.0797605509
C  C100  1  0.18976000  0.09706000  0.23410000  1.0 -0.1788225279
C  C101  1  0.20080000  0.11162000  0.20290000  1.0 0.0478059599
C  C102  1  0.22576000  0.09374000  0.18586000  1.0 -0.1509093283
C  C103  1  0.23786000  0.06230000  0.20058000  1.0 0.070307649
C  C104  1  0.18603000  0.14389000  0.18701000  1.0 0.3624877896
C  C105  1  0.68069000  0.03193000  0.49549000  1.0 0.2111444106
C  C106  1  0.75338000  0.01646000  0.42476000  1.0 0.070307649
C  C107  1  0.76625000  0.01677000  0.39481000  1.0 -0.1703467808
C  C108  1  0.79218000  0.02580000  0.37556000  1.0 0.0478059599
C  C109  1  0.80242000  0.03606000  0.38672000  1.0 -0.1509093283
C  C110  1  0.78753000  0.03577000  0.41695000  1.0 0.0797605509
C  C111  1  0.81028000  0.02150000  0.34510000  1.0 0.3665358278
C  C112  1  0.81490000  0.01258000  0.30524000  1.0 0.3665358278
C  C113  1  0.85540000  0.01566000  0.30604000  1.0 0.3624877896
C  C114  1  0.75737000  0.00571000  0.29029000  1.0 0.0797605509
C  C115  1  0.76967000  0.01145000  0.30355000  1.0 -0.1588749685
C  C116  1  0.80099000  0.00767000  0.29061000  1.0 0.0478059599
C  C117  1  0.81782000  0.99914000  0.26446000  1.0 -0.1703467808
C  C118  1  0.80335000  0.99371000  0.25297000  1.0 0.070307649
C  C119  1  0.93450000  0.01674000  0.25040000  1.0 0.070307649
C  C120  1  0.90407000  0.01995000  0.26121000  1.0 -0.1703467808
C  C121  1  0.88826000  0.01342000  0.29280000  1.0 0.0478059599
C  C122  1  0.90395000  0.00373000  0.31211000  1.0 -0.1588749685
C  C123  1  0.93528000  0.00056000  0.29908000  1.0 0.0797605509
C  C124  1  0.01008000  0.99396000  0.18838000  1.0 0.2185364203
C  C125  1  0.06635000  0.98275000  0.24709000  1.0 0.0797605509
C  C126  1  0.09706000  0.97908000  0.23410000  1.0 -0.1788225279
C  C127  1  0.11162000  0.98468000  0.20290000  1.0 0.0478059599
C  C128  1  0.09374000  0.99464000  0.18586000  1.0 -0.1509093283
C  C129  1  0.06230000  0.99926000  0.20058000  1.0 0.070307649
C  C130  1  0.14389000  0.98307000  0.18701000  1.0 0.3624877896
C  C131  1  0.29189000  0.49549000  0.03193000  1.0 0.2111444106
C  C132  1  0.30540000  0.42476000  0.01646000  1.0 0.070307649
C  C133  1  0.32217000  0.39481000  0.01677000  1.0 -0.1703467808
C  C134  1  0.30646000  0.37556000  0.02580000  1.0 0.0447539326
C  C135  1  0.27480000  0.38672000  0.03606000  1.0 -0.1588749685
C  C136  1  0.25975000  0.41695000  0.03577000  1.0 0.0797605509
C  C137  1  0.32312000  0.34510000  0.02150000  1.0 0.3665358278
C  C138  1  0.36728000  0.30524000  0.01258000  1.0 0.3665358278
C  C139  1  0.32290000  0.30604000  0.01566000  1.0 0.3624877896
C  C140  1  0.44663000  0.29029000  0.00571000  1.0 0.0797605509
C  C141  1  0.41533000  0.30355000  0.01145000  1.0 -0.1588749685
C  C142  1  0.40073000  0.29061000  0.00767000  1.0 0.0478059599
C  C143  1  0.41858000  0.26446000  0.99914000  1.0 -0.1703467808
C  C144  1  0.44997000  0.25297000  0.99371000  1.0 0.070307649
C  C145  1  0.29836000  0.25040000  0.01674000  1.0 0.070307649
C  C146  1  0.31477000  0.26121000  0.01995000  1.0 -0.1703467808
C  C147  1  0.30552000  0.29280000  0.01342000  1.0 0.0478059599
C  C148  1  0.28021000  0.31211000  0.00373000  1.0 -0.1588749685
C  C149  1  0.26508000  0.29908000  0.00056000  1.0 0.0797605509
C  C150  1  0.30758000  0.18838000  0.99396000  1.0 0.2185364203
C  C151  1  0.20381000  0.24709000  0.98275000  1.0 0.0797605509
C  C152  1  0.18976000  0.23410000  0.97908000  1.0 -0.1788225279
C  C153  1  0.20080000  0.20290000  0.98468000  1.0 0.0478059599
C  C154  1  0.22576000  0.18586000  0.99464000  1.0 -0.1509093283
C  C155  1  0.23786000  0.20058000  0.99926000  1.0 0.070307649
C  C156  1  0.18603000  0.18701000  0.98307000  1.0 0.3624877896
C  C157  1  0.03193000  0.68069000  0.29189000  1.0 0.2111444106
C  C158  1  0.01646000  0.75338000  0.30540000  1.0 0.070307649
C  C159  1  0.01677000  0.76625000  0.32217000  1.0 -0.1703467808
C  C160  1  0.02580000  0.79218000  0.30646000  1.0 0.0447539326
C  C161  1  0.03606000  0.80242000  0.27480000  1.0 -0.1588749685
C  C162  1  0.03577000  0.78753000  0.25975000  1.0 0.0797605509
C  C163  1  0.02150000  0.81028000  0.32312000  1.0 0.3665358278
C  C164  1  0.01258000  0.81490000  0.36728000  1.0 0.3665358278
C  C165  1  0.01566000  0.85540000  0.32290000  1.0 0.3624877896
C  C166  1  0.00571000  0.75737000  0.44663000  1.0 0.0797605509
C  C167  1  0.01145000  0.76967000  0.41533000  1.0 -0.1588749685
C  C168  1  0.00767000  0.80099000  0.40073000  1.0 0.0478059599
C  C169  1  0.99914000  0.81782000  0.41858000  1.0 -0.1703467808
C  C170  1  0.99371000  0.80335000  0.44997000  1.0 0.070307649
C  C171  1  0.01674000  0.93450000  0.29836000  1.0 0.070307649
C  C172  1  0.01995000  0.90407000  0.31477000  1.0 -0.1703467808
C  C173  1  0.01342000  0.88826000  0.30552000  1.0 0.0478059599
C  C174  1  0.00373000  0.90395000  0.28021000  1.0 -0.1588749685
C  C175  1  0.00056000  0.93528000  0.26508000  1.0 0.0797605509
C  C176  1  0.99396000  0.01008000  0.30758000  1.0 0.2185364203
C  C177  1  0.98275000  0.06635000  0.20381000  1.0 0.0797605509
C  C178  1  0.97908000  0.09706000  0.18976000  1.0 -0.1788225279
C  C179  1  0.98468000  0.11162000  0.20080000  1.0 0.0478059599
C  C180  1  0.99464000  0.09374000  0.22576000  1.0 -0.1509093283
C  C181  1  0.99926000  0.06230000  0.23786000  1.0 0.070307649
C  C182  1  0.98307000  0.14389000  0.18603000  1.0 0.3624877896
C  C183  1  0.49549000  0.29189000  0.68069000  1.0 0.2111444106
C  C184  1  0.42476000  0.30540000  0.75338000  1.0 0.070307649
C  C185  1  0.39481000  0.32217000  0.76625000  1.0 -0.1703467808
C  C186  1  0.37556000  0.30646000  0.79218000  1.0 0.0478059599
C  C187  1  0.38672000  0.27480000  0.80242000  1.0 -0.1588749685
C  C188  1  0.41695000  0.25975000  0.78753000  1.0 0.0797605509
C  C189  1  0.34510000  0.32312000  0.81028000  1.0 0.3665358278
C  C190  1  0.30524000  0.36728000  0.81490000  1.0 0.3665358278
C  C191  1  0.30604000  0.32290000  0.85540000  1.0 0.3624877896
C  C192  1  0.29029000  0.44663000  0.75737000  1.0 0.0797605509
C  C193  1  0.30355000  0.41533000  0.76967000  1.0 -0.1588749685
C  C194  1  0.29061000  0.40073000  0.80099000  1.0 0.0478059599
C  C195  1  0.26446000  0.41858000  0.81782000  1.0 -0.1703467808
C  C196  1  0.25297000  0.44997000  0.80335000  1.0 0.070307649
C  C197  1  0.25040000  0.29836000  0.93450000  1.0 0.070307649
C  C198  1  0.26121000  0.31477000  0.90407000  1.0 -0.1703467808
C  C199  1  0.29280000  0.30552000  0.88826000  1.0 0.0478059599
C  C200  1  0.31211000  0.28021000  0.90395000  1.0 -0.1588749685
C  C201  1  0.29908000  0.26508000  0.93528000  1.0 0.0797605509
C  C202  1  0.18838000  0.30758000  0.01008000  1.0 0.2185364203
C  C203  1  0.24709000  0.20381000  0.06635000  1.0 0.0797605509
C  C204  1  0.23410000  0.18976000  0.09706000  1.0 -0.1788225279
C  C205  1  0.20290000  0.20080000  0.11162000  1.0 0.0478059599
C  C206  1  0.18586000  0.22576000  0.09374000  1.0 -0.1509093283
C  C207  1  0.20058000  0.23786000  0.06230000  1.0 0.070307649
C  C208  1  0.18701000  0.18603000  0.14389000  1.0 0.3624877896
C  C209  1  0.49549000  0.68069000  0.03193000  1.0 0.2111444106
C  C210  1  0.42476000  0.75338000  0.01646000  1.0 0.070307649
C  C211  1  0.39481000  0.76625000  0.01677000  1.0 -0.1703467808
C  C212  1  0.37556000  0.79218000  0.02580000  1.0 0.0447539326
C  C213  1  0.38672000  0.80242000  0.03606000  1.0 -0.1588749685
C  C214  1  0.41695000  0.78753000  0.03577000  1.0 0.0797605509
C  C215  1  0.34510000  0.81028000  0.02150000  1.0 0.3665358278
C  C216  1  0.30524000  0.81490000  0.01258000  1.0 0.3665358278
C  C217  1  0.30604000  0.85540000  0.01566000  1.0 0.3665358278
C  C218  1  0.29029000  0.75737000  0.00571000  1.0 0.0797605509
C  C219  1  0.30355000  0.76967000  0.01145000  1.0 -0.1588749685
C  C220  1  0.29061000  0.80099000  0.00767000  1.0 0.0478059599
C  C221  1  0.26446000  0.81782000  0.99914000  1.0 -0.1703467808
C  C222  1  0.25297000  0.80335000  0.99371000  1.0 0.070307649
C  C223  1  0.25040000  0.93450000  0.01674000  1.0 0.070307649
C  C224  1  0.26121000  0.90407000  0.01995000  1.0 -0.1703467808
C  C225  1  0.29280000  0.88826000  0.01342000  1.0 0.0478059599
C  C226  1  0.31211000  0.90395000  0.00373000  1.0 -0.1588749685
C  C227  1  0.29908000  0.93528000  0.00056000  1.0 0.0797605509
C  C228  1  0.18838000  0.01008000  0.99396000  1.0 0.2185364203
C  C229  1  0.24709000  0.06635000  0.98275000  1.0 0.0797605509
C  C230  1  0.23410000  0.09706000  0.97908000  1.0 -0.1788225279
C  C231  1  0.20290000  0.11162000  0.98468000  1.0 0.0478059599
C  C232  1  0.18586000  0.09374000  0.99464000  1.0 -0.1509093283
C  C233  1  0.20058000  0.06230000  0.99926000  1.0 0.070307649
C  C234  1  0.18701000  0.14389000  0.98307000  1.0 0.3624877896
C  C235  1  0.03193000  0.29189000  0.49549000  1.0 0.2111444106
C  C236  1  0.01646000  0.30540000  0.42476000  1.0 0.070307649
C  C237  1  0.01677000  0.32217000  0.39481000  1.0 -0.1703467808
C  C238  1  0.02580000  0.30646000  0.37556000  1.0 0.0447539326
C  C239  1  0.03606000  0.27480000  0.38672000  1.0 -0.1588749685
C  C240  1  0.03577000  0.25975000  0.41695000  1.0 0.0797605509
C  C241  1  0.02150000  0.32312000  0.34510000  1.0 0.3665358278
C  C242  1  0.01258000  0.36728000  0.30524000  1.0 0.3665358278
C  C243  1  0.01566000  0.32290000  0.30604000  1.0 0.3624877896
C  C244  1  0.00571000  0.44663000  0.29029000  1.0 0.0797605509
C  C245  1  0.01145000  0.41533000  0.30355000  1.0 -0.1588749685
C  C246  1  0.00767000  0.40073000  0.29061000  1.0 0.0478059599
C  C247  1  0.99914000  0.41858000  0.26446000  1.0 -0.1703467808
C  C248  1  0.99371000  0.44997000  0.25297000  1.0 0.070307649
C  C249  1  0.01674000  0.29836000  0.25040000  1.0 0.070307649
C  C250  1  0.01995000  0.31477000  0.26121000  1.0 -0.1703467808
C  C251  1  0.01342000  0.30552000  0.29280000  1.0 0.0478059599
C  C252  1  0.00373000  0.28021000  0.31211000  1.0 -0.1588749685
C  C253  1  0.00056000  0.26508000  0.29908000  1.0 0.0797605509
C  C254  1  0.99396000  0.30758000  0.18838000  1.0 0.2185364203
C  C255  1  0.98275000  0.20381000  0.24709000  1.0 0.0797605509
C  C256  1  0.97908000  0.18976000  0.23410000  1.0 -0.1788225279
C  C257  1  0.98468000  0.20080000  0.20290000  1.0 0.0478059599
C  C258  1  0.99464000  0.22576000  0.18586000  1.0 -0.1509093283
C  C259  1  0.99926000  0.23786000  0.20058000  1.0 0.070307649
C  C260  1  0.98307000  0.18603000  0.18701000  1.0 0.3624877896
C  C261  1  0.29189000  0.03193000  0.68069000  1.0 0.2111444106
C  C262  1  0.30540000  0.01646000  0.75338000  1.0 0.070307649
C  C263  1  0.32217000  0.01677000  0.76625000  1.0 -0.1703467808
C  C264  1  0.30646000  0.02580000  0.79218000  1.0 0.0478059599
C  C265  1  0.27480000  0.03606000  0.80242000  1.0 -0.1588749685
C  C266  1  0.25975000  0.03577000  0.78753000  1.0 0.0797605509
C  C267  1  0.32312000  0.02150000  0.81028000  1.0 0.3665358278
C  C268  1  0.36728000  0.01258000  0.81490000  1.0 0.3665358278
C  C269  1  0.32290000  0.01566000  0.85540000  1.0 0.3624877896
C  C270  1  0.44663000  0.00571000  0.75737000  1.0 0.0797605509
C  C271  1  0.41533000  0.01145000  0.76967000  1.0 -0.1588749685
C  C272  1  0.40073000  0.00767000  0.80099000  1.0 0.0478059599
C  C273  1  0.41858000  0.99914000  0.81782000  1.0 -0.1703467808
C  C274  1  0.44997000  0.99371000  0.80335000  1.0 0.070307649
C  C275  1  0.29836000  0.01674000  0.93450000  1.0 0.070307649
C  C276  1  0.31477000  0.01995000  0.90407000  1.0 -0.1703467808
C  C277  1  0.30552000  0.01342000  0.88826000  1.0 0.0478059599
C  C278  1  0.28021000  0.00373000  0.90395000  1.0 -0.1588749685
C  C279  1  0.26508000  0.00056000  0.93528000  1.0 0.0797605509
C  C280  1  0.30758000  0.99396000  0.01008000  1.0 0.2185364203
C  C281  1  0.20381000  0.98275000  0.06635000  1.0 0.0797605509
C  C282  1  0.18976000  0.97908000  0.09706000  1.0 -0.1788225279
C  C283  1  0.20080000  0.98468000  0.11162000  1.0 0.0478059599
C  C284  1  0.22576000  0.99464000  0.09374000  1.0 -0.1509093283
C  C285  1  0.23786000  0.99926000  0.06230000  1.0 0.070307649
C  C286  1  0.18603000  0.98307000  0.14389000  1.0 0.3624877896
C  C287  1  0.68069000  0.49549000  0.29189000  1.0 0.2111444106
C  C288  1  0.75338000  0.42476000  0.30540000  1.0 0.070307649
C  C289  1  0.76625000  0.39481000  0.32217000  1.0 -0.1703467808
C  C290  1  0.79218000  0.37556000  0.30646000  1.0 0.0478059599
C  C291  1  0.80242000  0.38672000  0.27480000  1.0 -0.1588749685
C  C292  1  0.78753000  0.41695000  0.25975000  1.0 0.0797605509
C  C293  1  0.81028000  0.34510000  0.32312000  1.0 0.3665358278
C  C294  1  0.81490000  0.30524000  0.36728000  1.0 0.3665358278
C  C295  1  0.85540000  0.30604000  0.32290000  1.0 0.3624877896
C  C296  1  0.75737000  0.29029000  0.44663000  1.0 0.0797605509
C  C297  1  0.76967000  0.30355000  0.41533000  1.0 -0.1588749685
C  C298  1  0.80099000  0.29061000  0.40073000  1.0 0.0478059599
C  C299  1  0.81782000  0.26446000  0.41858000  1.0 -0.1703467808
C  C300  1  0.80335000  0.25297000  0.44997000  1.0 0.070307649
C  C301  1  0.93450000  0.25040000  0.29836000  1.0 0.070307649
C  C302  1  0.90407000  0.26121000  0.31477000  1.0 -0.1703467808
C  C303  1  0.88826000  0.29280000  0.30552000  1.0 0.0478059599
C  C304  1  0.90395000  0.31211000  0.28021000  1.0 -0.1588749685
C  C305  1  0.93528000  0.29908000  0.26508000  1.0 0.0797605509
C  C306  1  0.01008000  0.18838000  0.30758000  1.0 0.2185364203
C  C307  1  0.06635000  0.24709000  0.20381000  1.0 0.0797605509
C  C308  1  0.09706000  0.23410000  0.18976000  1.0 -0.1788225279
C  C309  1  0.11162000  0.20290000  0.20080000  1.0 0.0478059599
C  C310  1  0.09374000  0.18586000  0.22576000  1.0 -0.1509093283
C  C311  1  0.06230000  0.20058000  0.23786000  1.0 0.070307649
C  C312  1  0.14389000  0.18701000  0.18603000  1.0 0.3624877896
C  C313  1  0.46807000  0.00451000  0.20811000  1.0 0.2111444106
C  C314  1  0.48354000  0.07524000  0.19460000  1.0 0.070307649
C  C315  1  0.48323000  0.10519000  0.17783000  1.0 -0.1703467808
C  C316  1  0.47420000  0.12444000  0.19354000  1.0 0.0478059599
C  C317  1  0.46394000  0.11328000  0.22520000  1.0 -0.1588749685
C  C318  1  0.46423000  0.08305000  0.24025000  1.0 0.0797605509
C  C319  1  0.47850000  0.15490000  0.17688000  1.0 0.3665358278
C  C320  1  0.48742000  0.19476000  0.13272000  1.0 0.3665358278
C  C321  1  0.48434000  0.19396000  0.17710000  1.0 0.3624877896
C  C322  1  0.49429000  0.20971000  0.05337000  1.0 0.0797605509
C  C323  1  0.48855000  0.19645000  0.08467000  1.0 -0.1588749685
C  C324  1  0.49233000  0.20939000  0.09927000  1.0 0.0478059599
C  C325  1  0.50086000  0.23554000  0.08142000  1.0 -0.1703467808
C  C326  1  0.50629000  0.24703000  0.05003000  1.0 0.070307649
C  C327  1  0.48326000  0.24960000  0.20164000  1.0 0.070307649
C  C328  1  0.48005000  0.23879000  0.18523000  1.0 -0.1703467808
C  C329  1  0.48658000  0.20720000  0.19448000  1.0 0.0478059599
C  C330  1  0.49627000  0.18789000  0.21979000  1.0 -0.1588749685
C  C331  1  0.49944000  0.20092000  0.23492000  1.0 0.0797605509
C  C332  1  0.50604000  0.31162000  0.19242000  1.0 0.2185364203
C  C333  1  0.51725000  0.25291000  0.29619000  1.0 0.0797605509
C  C334  1  0.52092000  0.26590000  0.31024000  1.0 -0.1788225279
C  C335  1  0.51532000  0.29710000  0.29920000  1.0 0.0478059599
C  C336  1  0.50536000  0.31414000  0.27424000  1.0 -0.1509093283
C  C337  1  0.50074000  0.29942000  0.26214000  1.0 0.070307649
C  C338  1  0.51693000  0.31299000  0.31397000  1.0 0.3624877896
C  C339  1  0.00451000  0.46807000  0.81931000  1.0 0.2111444106
C  C340  1  0.07524000  0.48354000  0.74662000  1.0 0.070307649
C  C341  1  0.10519000  0.48323000  0.73375000  1.0 -0.1703467808
C  C342  1  0.12444000  0.47420000  0.70782000  1.0 0.0447539326
C  C343  1  0.11328000  0.46394000  0.69758000  1.0 -0.1588749685
C  C344  1  0.08305000  0.46423000  0.71247000  1.0 0.0797605509
C  C345  1  0.15490000  0.47850000  0.68972000  1.0 0.3665358278
C  C346  1  0.19476000  0.48742000  0.68510000  1.0 0.3665358278
C  C347  1  0.19396000  0.48434000  0.64460000  1.0 0.3624877896
C  C348  1  0.20971000  0.49429000  0.74263000  1.0 0.0797605509
C  C349  1  0.19645000  0.48855000  0.73033000  1.0 -0.1588749685
C  C350  1  0.20939000  0.49233000  0.69901000  1.0 0.0478059599
C  C351  1  0.23554000  0.50086000  0.68218000  1.0 -0.1703467808
C  C352  1  0.24703000  0.50629000  0.69665000  1.0 0.070307649
C  C353  1  0.24960000  0.48326000  0.56550000  1.0 0.070307649
C  C354  1  0.23879000  0.48005000  0.59593000  1.0 -0.1703467808
C  C355  1  0.20720000  0.48658000  0.61174000  1.0 0.0478059599
C  C356  1  0.18789000  0.49627000  0.59605000  1.0 -0.1588749685
C  C357  1  0.20092000  0.49944000  0.56472000  1.0 0.0797605509
C  C358  1  0.31162000  0.50604000  0.48992000  1.0 0.2185364203
C  C359  1  0.25291000  0.51725000  0.43365000  1.0 0.0797605509
C  C360  1  0.26590000  0.52092000  0.40294000  1.0 -0.1788225279
C  C361  1  0.29710000  0.51532000  0.38838000  1.0 0.0478059599
C  C362  1  0.31414000  0.50536000  0.40626000  1.0 -0.1509093283
C  C363  1  0.29942000  0.50074000  0.43770000  1.0 0.070307649
C  C364  1  0.31299000  0.51693000  0.35611000  1.0 0.3624877896
C  C365  1  0.81931000  0.20811000  0.00451000  1.0 0.2111444106
C  C366  1  0.74662000  0.19460000  0.07524000  1.0 0.070307649
C  C367  1  0.73375000  0.17783000  0.10519000  1.0 -0.1703467808
C  C368  1  0.70782000  0.19354000  0.12444000  1.0 0.0478059599
C  C369  1  0.69758000  0.22520000  0.11328000  1.0 -0.1509093283
C  C370  1  0.71247000  0.24025000  0.08305000  1.0 0.0797605509
C  C371  1  0.68972000  0.17688000  0.15490000  1.0 0.3665358278
C  C372  1  0.68510000  0.13272000  0.19476000  1.0 0.3665358278
C  C373  1  0.64460000  0.17710000  0.19396000  1.0 0.3624877896
C  C374  1  0.74263000  0.05337000  0.20971000  1.0 0.0797605509
C  C375  1  0.73033000  0.08467000  0.19645000  1.0 -0.1588749685
C  C376  1  0.69901000  0.09927000  0.20939000  1.0 0.0478059599
C  C377  1  0.68218000  0.08142000  0.23554000  1.0 -0.1703467808
C  C378  1  0.69665000  0.05003000  0.24703000  1.0 0.070307649
C  C379  1  0.56550000  0.20164000  0.24960000  1.0 0.070307649
C  C380  1  0.59593000  0.18523000  0.23879000  1.0 -0.1703467808
C  C381  1  0.61174000  0.19448000  0.20720000  1.0 0.0478059599
C  C382  1  0.59605000  0.21979000  0.18789000  1.0 -0.1588749685
C  C383  1  0.56472000  0.23492000  0.20092000  1.0 0.0797605509
C  C384  1  0.48992000  0.19242000  0.31162000  1.0 0.2185364203
C  C385  1  0.43365000  0.29619000  0.25291000  1.0 0.0797605509
C  C386  1  0.40294000  0.31024000  0.26590000  1.0 -0.1788225279
C  C387  1  0.38838000  0.29920000  0.29710000  1.0 0.0478059599
C  C388  1  0.40626000  0.27424000  0.31414000  1.0 -0.1509093283
C  C389  1  0.43770000  0.26214000  0.29942000  1.0 0.070307649
C  C390  1  0.35611000  0.31397000  0.31299000  1.0 0.3624877896
C  C391  1  0.20811000  0.81931000  0.46807000  1.0 0.2111444106
C  C392  1  0.19460000  0.74662000  0.48354000  1.0 0.070307649
C  C393  1  0.17783000  0.73375000  0.48323000  1.0 -0.1703467808
C  C394  1  0.19354000  0.70782000  0.47420000  1.0 0.0447539326
C  C395  1  0.22520000  0.69758000  0.46394000  1.0 -0.1588749685
C  C396  1  0.24025000  0.71247000  0.46423000  1.0 0.0797605509
C  C397  1  0.17688000  0.68972000  0.47850000  1.0 0.3665358278
C  C398  1  0.13272000  0.68510000  0.48742000  1.0 0.3665358278
C  C399  1  0.17710000  0.64460000  0.48434000  1.0 0.3624877896
C  C400  1  0.05337000  0.74263000  0.49429000  1.0 0.0797605509
C  C401  1  0.08467000  0.73033000  0.48855000  1.0 -0.1588749685
C  C402  1  0.09927000  0.69901000  0.49233000  1.0 0.0478059599
C  C403  1  0.08142000  0.68218000  0.50086000  1.0 -0.1703467808
C  C404  1  0.05003000  0.69665000  0.50629000  1.0 0.070307649
C  C405  1  0.20164000  0.56550000  0.48326000  1.0 0.070307649
C  C406  1  0.18523000  0.59593000  0.48005000  1.0 -0.1703467808
C  C407  1  0.19448000  0.61174000  0.48658000  1.0 0.0478059599
C  C408  1  0.21979000  0.59605000  0.49627000  1.0 -0.1588749685
C  C409  1  0.23492000  0.56472000  0.49944000  1.0 0.0797605509
C  C410  1  0.19242000  0.48992000  0.50604000  1.0 0.2185364203
C  C411  1  0.29619000  0.43365000  0.51725000  1.0 0.0797605509
C  C412  1  0.31024000  0.40294000  0.52092000  1.0 -0.1788225279
C  C413  1  0.29920000  0.38838000  0.51532000  1.0 0.0478059599
C  C414  1  0.27424000  0.40626000  0.50536000  1.0 -0.1509093283
C  C415  1  0.26214000  0.43770000  0.50074000  1.0 0.070307649
C  C416  1  0.31397000  0.35611000  0.51693000  1.0 0.3624877896
C  C417  1  0.81931000  0.46807000  0.20811000  1.0 0.2111444106
C  C418  1  0.74662000  0.48354000  0.19460000  1.0 0.070307649
C  C419  1  0.73375000  0.48323000  0.17783000  1.0 -0.1703467808
C  C420  1  0.70782000  0.47420000  0.19354000  1.0 0.0447539326
C  C421  1  0.69758000  0.46394000  0.22520000  1.0 -0.1588749685
C  C422  1  0.71247000  0.46423000  0.24025000  1.0 0.0797605509
C  C423  1  0.68972000  0.47850000  0.17688000  1.0 0.3665358278
C  C424  1  0.68510000  0.48742000  0.13272000  1.0 0.3665358278
C  C425  1  0.64460000  0.48434000  0.17710000  1.0 0.3624877896
C  C426  1  0.74263000  0.49429000  0.05337000  1.0 0.0797605509
C  C427  1  0.73033000  0.48855000  0.08467000  1.0 -0.1588749685
C  C428  1  0.69901000  0.49233000  0.09927000  1.0 0.0478059599
C  C429  1  0.68218000  0.50086000  0.08142000  1.0 -0.1703467808
C  C430  1  0.69665000  0.50629000  0.05003000  1.0 0.070307649
C  C431  1  0.56550000  0.48326000  0.20164000  1.0 0.070307649
C  C432  1  0.59593000  0.48005000  0.18523000  1.0 -0.1703467808
C  C433  1  0.61174000  0.48658000  0.19448000  1.0 0.0478059599
C  C434  1  0.59605000  0.49627000  0.21979000  1.0 -0.1588749685
C  C435  1  0.56472000  0.49944000  0.23492000  1.0 0.0797605509
C  C436  1  0.48992000  0.50604000  0.19242000  1.0 0.2185364203
C  C437  1  0.43365000  0.51725000  0.29619000  1.0 0.0797605509
C  C438  1  0.40294000  0.52092000  0.31024000  1.0 -0.1788225279
C  C439  1  0.38838000  0.51532000  0.29920000  1.0 0.0478059599
C  C440  1  0.40626000  0.50536000  0.27424000  1.0 -0.1509093283
C  C441  1  0.43770000  0.50074000  0.26214000  1.0 0.070307649
C  C442  1  0.35611000  0.51693000  0.31397000  1.0 0.3624877896
C  C443  1  0.20811000  0.00451000  0.81931000  1.0 0.2111444106
C  C444  1  0.19460000  0.07524000  0.74662000  1.0 0.070307649
C  C445  1  0.17783000  0.10519000  0.73375000  1.0 -0.1703467808
C  C446  1  0.19354000  0.12444000  0.70782000  1.0 0.0478059599
C  C447  1  0.22520000  0.11328000  0.69758000  1.0 -0.1588749685
C  C448  1  0.24025000  0.08305000  0.71247000  1.0 0.0797605509
C  C449  1  0.17688000  0.15490000  0.68972000  1.0 0.3665358278
C  C450  1  0.13272000  0.19476000  0.68510000  1.0 0.3665358278
C  C451  1  0.17710000  0.19396000  0.64460000  1.0 0.3624877896
C  C452  1  0.05337000  0.20971000  0.74263000  1.0 0.0797605509
C  C453  1  0.08467000  0.19645000  0.73033000  1.0 -0.1588749685
C  C454  1  0.09927000  0.20939000  0.69901000  1.0 0.0478059599
C  C455  1  0.08142000  0.23554000  0.68218000  1.0 -0.1703467808
C  C456  1  0.05003000  0.24703000  0.69665000  1.0 0.070307649
C  C457  1  0.20164000  0.24960000  0.56550000  1.0 0.070307649
C  C458  1  0.18523000  0.23879000  0.59593000  1.0 -0.1703467808
C  C459  1  0.19448000  0.20720000  0.61174000  1.0 0.0478059599
C  C460  1  0.21979000  0.18789000  0.59605000  1.0 -0.1588749685
C  C461  1  0.23492000  0.20092000  0.56472000  1.0 0.0797605509
C  C462  1  0.19242000  0.31162000  0.48992000  1.0 0.2185364203
C  C463  1  0.29619000  0.25291000  0.43365000  1.0 0.0797605509
C  C464  1  0.31024000  0.26590000  0.40294000  1.0 -0.1788225279
C  C465  1  0.29920000  0.29710000  0.38838000  1.0 0.0478059599
C  C466  1  0.27424000  0.31414000  0.40626000  1.0 -0.1509093283
C  C467  1  0.26214000  0.29942000  0.43770000  1.0 0.070307649
C  C468  1  0.31397000  0.31299000  0.35611000  1.0 0.3624877896
C  C469  1  0.46807000  0.81931000  0.00451000  1.0 0.2111444106
C  C470  1  0.48354000  0.74662000  0.07524000  1.0 0.070307649
C  C471  1  0.48323000  0.73375000  0.10519000  1.0 -0.1703467808
C  C472  1  0.47420000  0.70782000  0.12444000  1.0 0.0447539326
C  C473  1  0.46394000  0.69758000  0.11328000  1.0 -0.1588749685
C  C474  1  0.46423000  0.71247000  0.08305000  1.0 0.0797605509
C  C475  1  0.47850000  0.68972000  0.15490000  1.0 0.3665358278
C  C476  1  0.48742000  0.68510000  0.19476000  1.0 0.3665358278
C  C477  1  0.48434000  0.64460000  0.19396000  1.0 0.3624877896
C  C478  1  0.49429000  0.74263000  0.20971000  1.0 0.0797605509
C  C479  1  0.48855000  0.73033000  0.19645000  1.0 -0.1588749685
C  C480  1  0.49233000  0.69901000  0.20939000  1.0 0.0478059599
C  C481  1  0.50086000  0.68218000  0.23554000  1.0 -0.1703467808
C  C482  1  0.50629000  0.69665000  0.24703000  1.0 0.070307649
C  C483  1  0.48326000  0.56550000  0.24960000  1.0 0.070307649
C  C484  1  0.48005000  0.59593000  0.23879000  1.0 -0.1703467808
C  C485  1  0.48658000  0.61174000  0.20720000  1.0 0.0478059599
C  C486  1  0.49627000  0.59605000  0.18789000  1.0 -0.1588749685
C  C487  1  0.49944000  0.56472000  0.20092000  1.0 0.0797605509
C  C488  1  0.50604000  0.48992000  0.31162000  1.0 0.2185364203
C  C489  1  0.51725000  0.43365000  0.25291000  1.0 0.0797605509
C  C490  1  0.52092000  0.40294000  0.26590000  1.0 -0.1788225279
C  C491  1  0.51532000  0.38838000  0.29710000  1.0 0.0478059599
C  C492  1  0.50536000  0.40626000  0.31414000  1.0 -0.1509093283
C  C493  1  0.50074000  0.43770000  0.29942000  1.0 0.070307649
C  C494  1  0.51693000  0.35611000  0.31299000  1.0 0.3624877896
C  C495  1  0.00451000  0.20811000  0.46807000  1.0 0.2111444106
C  C496  1  0.07524000  0.19460000  0.48354000  1.0 0.070307649
C  C497  1  0.10519000  0.17783000  0.48323000  1.0 -0.1703467808
C  C498  1  0.12444000  0.19354000  0.47420000  1.0 0.0447539326
C  C499  1  0.11328000  0.22520000  0.46394000  1.0 -0.1588749685
C  C500  1  0.08305000  0.24025000  0.46423000  1.0 0.0797605509
C  C501  1  0.15490000  0.17688000  0.47850000  1.0 0.3665358278
C  C502  1  0.19476000  0.13272000  0.48742000  1.0 0.3665358278
C  C503  1  0.19396000  0.17710000  0.48434000  1.0 0.3624877896
C  C504  1  0.20971000  0.05337000  0.49429000  1.0 0.0797605509
C  C505  1  0.19645000  0.08467000  0.48855000  1.0 -0.1588749685
C  C506  1  0.20939000  0.09927000  0.49233000  1.0 0.0478059599
C  C507  1  0.23554000  0.08142000  0.50086000  1.0 -0.1703467808
C  C508  1  0.24703000  0.05003000  0.50629000  1.0 0.070307649
C  C509  1  0.24960000  0.20164000  0.48326000  1.0 0.070307649
C  C510  1  0.23879000  0.18523000  0.48005000  1.0 -0.1703467808
C  C511  1  0.20720000  0.19448000  0.48658000  1.0 0.0478059599
C  C512  1  0.18789000  0.21979000  0.49627000  1.0 -0.1588749685
C  C513  1  0.20092000  0.23492000  0.49944000  1.0 0.0797605509
C  C514  1  0.31162000  0.19242000  0.50604000  1.0 0.2185364203
C  C515  1  0.25291000  0.29619000  0.51725000  1.0 0.0797605509
C  C516  1  0.26590000  0.31024000  0.52092000  1.0 -0.1788225279
C  C517  1  0.29710000  0.29920000  0.51532000  1.0 0.0478059599
C  C518  1  0.31414000  0.27424000  0.50536000  1.0 -0.1509093283
C  C519  1  0.29942000  0.26214000  0.50074000  1.0 0.070307649
C  C520  1  0.31299000  0.31397000  0.51693000  1.0 0.3624877896
C  C521  1  0.00451000  0.81931000  0.20811000  1.0 0.2111444106
C  C522  1  0.07524000  0.74662000  0.19460000  1.0 0.070307649
C  C523  1  0.10519000  0.73375000  0.17783000  1.0 -0.1703467808
C  C524  1  0.12444000  0.70782000  0.19354000  1.0 0.0447539326
C  C525  1  0.11328000  0.69758000  0.22520000  1.0 -0.1588749685
C  C526  1  0.08305000  0.71247000  0.24025000  1.0 0.0797605509
C  C527  1  0.15490000  0.68972000  0.17688000  1.0 0.3665358278
C  C528  1  0.19476000  0.68510000  0.13272000  1.0 0.3665358278
C  C529  1  0.19396000  0.64460000  0.17710000  1.0 0.3624877896
C  C530  1  0.20971000  0.74263000  0.05337000  1.0 0.0797605509
C  C531  1  0.19645000  0.73033000  0.08467000  1.0 -0.1588749685
C  C532  1  0.20939000  0.69901000  0.09927000  1.0 0.0478059599
C  C533  1  0.23554000  0.68218000  0.08142000  1.0 -0.1703467808
C  C534  1  0.24703000  0.69665000  0.05003000  1.0 0.070307649
C  C535  1  0.24960000  0.56550000  0.20164000  1.0 0.070307649
C  C536  1  0.23879000  0.59593000  0.18523000  1.0 -0.1703467808
C  C537  1  0.20720000  0.61174000  0.19448000  1.0 0.0478059599
C  C538  1  0.18789000  0.59605000  0.21979000  1.0 -0.1588749685
C  C539  1  0.20092000  0.56472000  0.23492000  1.0 0.0797605509
C  C540  1  0.31162000  0.48992000  0.19242000  1.0 0.2185364203
C  C541  1  0.25291000  0.43365000  0.29619000  1.0 0.0797605509
C  C542  1  0.26590000  0.40294000  0.31024000  1.0 -0.1788225279
C  C543  1  0.29710000  0.38838000  0.29920000  1.0 0.0478059599
C  C544  1  0.31414000  0.40626000  0.27424000  1.0 -0.1509093283
C  C545  1  0.29942000  0.43770000  0.26214000  1.0 0.070307649
C  C546  1  0.31299000  0.35611000  0.31397000  1.0 0.3624877896
C  C547  1  0.46807000  0.20811000  0.81931000  1.0 0.2111444106
C  C548  1  0.48354000  0.19460000  0.74662000  1.0 0.070307649
C  C549  1  0.48323000  0.17783000  0.73375000  1.0 -0.1703467808
C  C550  1  0.47420000  0.19354000  0.70782000  1.0 0.0478059599
C  C551  1  0.46394000  0.22520000  0.69758000  1.0 -0.1588749685
C  C552  1  0.46423000  0.24025000  0.71247000  1.0 0.0797605509
C  C553  1  0.47850000  0.17688000  0.68972000  1.0 0.3665358278
C  C554  1  0.48742000  0.13272000  0.68510000  1.0 0.3665358278
C  C555  1  0.48434000  0.17710000  0.64460000  1.0 0.3624877896
C  C556  1  0.49429000  0.05337000  0.74263000  1.0 0.0797605509
C  C557  1  0.48855000  0.08467000  0.73033000  1.0 -0.1588749685
C  C558  1  0.49233000  0.09927000  0.69901000  1.0 0.0478059599
C  C559  1  0.50086000  0.08142000  0.68218000  1.0 -0.1703467808
C  C560  1  0.50629000  0.05003000  0.69665000  1.0 0.070307649
C  C561  1  0.48326000  0.20164000  0.56550000  1.0 0.070307649
C  C562  1  0.48005000  0.18523000  0.59593000  1.0 -0.1703467808
C  C563  1  0.48658000  0.19448000  0.61174000  1.0 0.0478059599
C  C564  1  0.49627000  0.21979000  0.59605000  1.0 -0.1588749685
C  C565  1  0.49944000  0.23492000  0.56472000  1.0 0.0797605509
C  C566  1  0.50604000  0.19242000  0.48992000  1.0 0.2185364203
C  C567  1  0.51725000  0.29619000  0.43365000  1.0 0.0797605509
C  C568  1  0.52092000  0.31024000  0.40294000  1.0 -0.1788225279
C  C569  1  0.51532000  0.29920000  0.38838000  1.0 0.0478059599
C  C570  1  0.50536000  0.27424000  0.40626000  1.0 -0.1509093283
C  C571  1  0.50074000  0.26214000  0.43770000  1.0 0.070307649
C  C572  1  0.51693000  0.31397000  0.35611000  1.0 0.3624877896
C  C573  1  0.20811000  0.46807000  0.00451000  1.0 0.2111444106
C  C574  1  0.19460000  0.48354000  0.07524000  1.0 0.070307649
C  C575  1  0.17783000  0.48323000  0.10519000  1.0 -0.1703467808
C  C576  1  0.19354000  0.47420000  0.12444000  1.0 0.0447539326
C  C577  1  0.22520000  0.46394000  0.11328000  1.0 -0.1588749685
C  C578  1  0.24025000  0.46423000  0.08305000  1.0 0.0797605509
C  C579  1  0.17688000  0.47850000  0.15490000  1.0 0.3665358278
C  C580  1  0.13272000  0.48742000  0.19476000  1.0 0.3665358278
C  C581  1  0.17710000  0.48434000  0.19396000  1.0 0.3624877896
C  C582  1  0.05337000  0.49429000  0.20971000  1.0 0.0797605509
C  C583  1  0.08467000  0.48855000  0.19645000  1.0 -0.1588749685
C  C584  1  0.09927000  0.49233000  0.20939000  1.0 0.0478059599
C  C585  1  0.08142000  0.50086000  0.23554000  1.0 -0.1703467808
C  C586  1  0.05003000  0.50629000  0.24703000  1.0 0.070307649
C  C587  1  0.20164000  0.48326000  0.24960000  1.0 0.070307649
C  C588  1  0.18523000  0.48005000  0.23879000  1.0 -0.1703467808
C  C589  1  0.19448000  0.48658000  0.20720000  1.0 0.0478059599
C  C590  1  0.21979000  0.49627000  0.18789000  1.0 -0.1588749685
C  C591  1  0.23492000  0.49944000  0.20092000  1.0 0.0797605509
C  C592  1  0.19242000  0.50604000  0.31162000  1.0 0.2185364203
C  C593  1  0.29619000  0.51725000  0.25291000  1.0 0.0797605509
C  C594  1  0.31024000  0.52092000  0.26590000  1.0 -0.1788225279
C  C595  1  0.29920000  0.51532000  0.29710000  1.0 0.0478059599
C  C596  1  0.27424000  0.50536000  0.31414000  1.0 -0.1509093283
C  C597  1  0.26214000  0.50074000  0.29942000  1.0 0.070307649
C  C598  1  0.31397000  0.51693000  0.31299000  1.0 0.3624877896
C  C599  1  0.81931000  0.00451000  0.46807000  1.0 0.2111444106
C  C600  1  0.74662000  0.07524000  0.48354000  1.0 0.070307649
C  C601  1  0.73375000  0.10519000  0.48323000  1.0 -0.1703467808
C  C602  1  0.70782000  0.12444000  0.47420000  1.0 0.0478059599
C  C603  1  0.69758000  0.11328000  0.46394000  1.0 -0.1588749685
C  C604  1  0.71247000  0.08305000  0.46423000  1.0 0.0797605509
C  C605  1  0.68972000  0.15490000  0.47850000  1.0 0.3665358278
C  C606  1  0.68510000  0.19476000  0.48742000  1.0 0.3665358278
C  C607  1  0.64460000  0.19396000  0.48434000  1.0 0.3624877896
C  C608  1  0.74263000  0.20971000  0.49429000  1.0 0.0797605509
C  C609  1  0.73033000  0.19645000  0.48855000  1.0 -0.1588749685
C  C610  1  0.69901000  0.20939000  0.49233000  1.0 0.0478059599
C  C611  1  0.68218000  0.23554000  0.50086000  1.0 -0.1703467808
C  C612  1  0.69665000  0.24703000  0.50629000  1.0 0.070307649
C  C613  1  0.56550000  0.24960000  0.48326000  1.0 0.070307649
C  C614  1  0.59593000  0.23879000  0.48005000  1.0 -0.1703467808
C  C615  1  0.61174000  0.20720000  0.48658000  1.0 0.0478059599
C  C616  1  0.59605000  0.18789000  0.49627000  1.0 -0.1588749685
C  C617  1  0.56472000  0.20092000  0.49944000  1.0 0.0797605509
C  C618  1  0.48992000  0.31162000  0.50604000  1.0 0.2185364203
C  C619  1  0.43365000  0.25291000  0.51725000  1.0 0.0797605509
C  C620  1  0.40294000  0.26590000  0.52092000  1.0 -0.1788225279
C  C621  1  0.38838000  0.29710000  0.51532000  1.0 0.0478059599
C  C622  1  0.40626000  0.31414000  0.50536000  1.0 -0.1509093283
C  C623  1  0.43770000  0.29942000  0.50074000  1.0 0.070307649
C  C624  1  0.35611000  0.31299000  0.51693000  1.0 0.3624877896
C  C625  1  0.96807000  0.50451000  0.31931000  1.0 0.2111444106
C  C626  1  0.98354000  0.57524000  0.24662000  1.0 0.070307649
C  C627  1  0.98323000  0.60519000  0.23375000  1.0 -0.1703467808
C  C628  1  0.97420000  0.62444000  0.20782000  1.0 0.0447539326
C  C629  1  0.96394000  0.61328000  0.19758000  1.0 -0.1588749685
C  C630  1  0.96423000  0.58305000  0.21247000  1.0 0.0797605509
C  C631  1  0.97850000  0.65490000  0.18972000  1.0 0.3665358278
C  C632  1  0.98742000  0.69476000  0.18510000  1.0 0.3665358278
C  C633  1  0.98434000  0.69396000  0.14460000  1.0 0.3624877896
C  C634  1  0.99429000  0.70971000  0.24263000  1.0 0.0797605509
C  C635  1  0.98855000  0.69645000  0.23033000  1.0 -0.1588749685
C  C636  1  0.99233000  0.70939000  0.19901000  1.0 0.0478059599
C  C637  1  0.00086000  0.73554000  0.18218000  1.0 -0.1703467808
C  C638  1  0.00629000  0.74703000  0.19665000  1.0 0.070307649
C  C639  1  0.98326000  0.74960000  0.06550000  1.0 0.070307649
C  C640  1  0.98005000  0.73879000  0.09593000  1.0 -0.1703467808
C  C641  1  0.98658000  0.70720000  0.11174000  1.0 0.0478059599
C  C642  1  0.99627000  0.68789000  0.09605000  1.0 -0.1588749685
C  C643  1  0.99944000  0.70092000  0.06472000  1.0 0.0797605509
C  C644  1  0.00604000  0.81162000  0.98992000  1.0 0.2185364203
C  C645  1  0.01725000  0.75291000  0.93365000  1.0 0.0797605509
C  C646  1  0.02092000  0.76590000  0.90294000  1.0 -0.1788225279
C  C647  1  0.01532000  0.79710000  0.88838000  1.0 0.0478059599
C  C648  1  0.00536000  0.81414000  0.90626000  1.0 -0.1509093283
C  C649  1  0.00074000  0.79942000  0.93770000  1.0 0.070307649
C  C650  1  0.01693000  0.81299000  0.85611000  1.0 0.3624877896
C  C651  1  0.50451000  0.96807000  0.70811000  1.0 0.2111444106
C  C652  1  0.57524000  0.98354000  0.69460000  1.0 0.070307649
C  C653  1  0.60519000  0.98323000  0.67783000  1.0 -0.1703467808
C  C654  1  0.62444000  0.97420000  0.69354000  1.0 0.0447539326
C  C655  1  0.61328000  0.96394000  0.72520000  1.0 -0.1588749685
C  C656  1  0.58305000  0.96423000  0.74025000  1.0 0.0797605509
C  C657  1  0.65490000  0.97850000  0.67688000  1.0 0.3665358278
C  C658  1  0.69476000  0.98742000  0.63272000  1.0 0.3665358278
C  C659  1  0.69396000  0.98434000  0.67710000  1.0 0.3624877896
C  C660  1  0.70971000  0.99429000  0.55337000  1.0 0.0797605509
C  C661  1  0.69645000  0.98855000  0.58467000  1.0 -0.1588749685
C  C662  1  0.70939000  0.99233000  0.59927000  1.0 0.0478059599
C  C663  1  0.73554000  0.00086000  0.58142000  1.0 -0.1703467808
C  C664  1  0.74703000  0.00629000  0.55003000  1.0 0.070307649
C  C665  1  0.74960000  0.98326000  0.70164000  1.0 0.070307649
C  C666  1  0.73879000  0.98005000  0.68523000  1.0 -0.1703467808
C  C667  1  0.70720000  0.98658000  0.69448000  1.0 0.0478059599
C  C668  1  0.68789000  0.99627000  0.71979000  1.0 -0.1588749685
C  C669  1  0.70092000  0.99944000  0.73492000  1.0 0.0797605509
C  C670  1  0.81162000  0.00604000  0.69242000  1.0 0.2185364203
C  C671  1  0.75291000  0.01725000  0.79619000  1.0 0.0797605509
C  C672  1  0.76590000  0.02092000  0.81024000  1.0 -0.1788225279
C  C673  1  0.79710000  0.01532000  0.79920000  1.0 0.0478059599
C  C674  1  0.81414000  0.00536000  0.77424000  1.0 -0.1509093283
C  C675  1  0.79942000  0.00074000  0.76214000  1.0 0.070307649
C  C676  1  0.81299000  0.01693000  0.81397000  1.0 0.3624877896
C  C677  1  0.31931000  0.70811000  0.96807000  1.0 0.2111444106
C  C678  1  0.24662000  0.69460000  0.98354000  1.0 0.070307649
C  C679  1  0.23375000  0.67783000  0.98323000  1.0 -0.1703467808
C  C680  1  0.20782000  0.69354000  0.97420000  1.0 0.0478059599
C  C681  1  0.19758000  0.72520000  0.96394000  1.0 -0.1588749685
C  C682  1  0.21247000  0.74025000  0.96423000  1.0 0.0797605509
C  C683  1  0.18972000  0.67688000  0.97850000  1.0 0.3665358278
C  C684  1  0.18510000  0.63272000  0.98742000  1.0 0.3665358278
C  C685  1  0.14460000  0.67710000  0.98434000  1.0 0.3624877896
C  C686  1  0.24263000  0.55337000  0.99429000  1.0 0.0797605509
C  C687  1  0.23033000  0.58467000  0.98855000  1.0 -0.1588749685
C  C688  1  0.19901000  0.59927000  0.99233000  1.0 0.0478059599
C  C689  1  0.18218000  0.58142000  0.00086000  1.0 -0.1703467808
C  C690  1  0.19665000  0.55003000  0.00629000  1.0 0.070307649
C  C691  1  0.06550000  0.70164000  0.98326000  1.0 0.070307649
C  C692  1  0.09593000  0.68523000  0.98005000  1.0 -0.1703467808
C  C693  1  0.11174000  0.69448000  0.98658000  1.0 0.0478059599
C  C694  1  0.09605000  0.71979000  0.99627000  1.0 -0.1588749685
C  C695  1  0.06472000  0.73492000  0.99944000  1.0 0.0797605509
C  C696  1  0.98992000  0.69242000  0.00604000  1.0 0.2185364203
C  C697  1  0.93365000  0.79619000  0.01725000  1.0 0.0797605509
C  C698  1  0.90294000  0.81024000  0.02092000  1.0 -0.1788225279
C  C699  1  0.88838000  0.79920000  0.01532000  1.0 0.0478059599
C  C700  1  0.90626000  0.77424000  0.00536000  1.0 -0.1509093283
C  C701  1  0.93770000  0.76214000  0.00074000  1.0 0.070307649
C  C702  1  0.85611000  0.81397000  0.01693000  1.0 0.3624877896
C  C703  1  0.70811000  0.31931000  0.50451000  1.0 0.2111444106
C  C704  1  0.69460000  0.24662000  0.57524000  1.0 0.070307649
C  C705  1  0.67783000  0.23375000  0.60519000  1.0 -0.1703467808
C  C706  1  0.69354000  0.20782000  0.62444000  1.0 0.0478059599
C  C707  1  0.72520000  0.19758000  0.61328000  1.0 -0.1588749685
C  C708  1  0.74025000  0.21247000  0.58305000  1.0 0.0797605509
C  C709  1  0.67688000  0.18972000  0.65490000  1.0 0.3665358278
C  C710  1  0.63272000  0.18510000  0.69476000  1.0 0.3665358278
C  C711  1  0.67710000  0.14460000  0.69396000  1.0 0.3624877896
C  C712  1  0.55337000  0.24263000  0.70971000  1.0 0.0797605509
C  C713  1  0.58467000  0.23033000  0.69645000  1.0 -0.1588749685
C  C714  1  0.59927000  0.19901000  0.70939000  1.0 0.0478059599
C  C715  1  0.58142000  0.18218000  0.73554000  1.0 -0.1703467808
C  C716  1  0.55003000  0.19665000  0.74703000  1.0 0.070307649
C  C717  1  0.70164000  0.06550000  0.74960000  1.0 0.070307649
C  C718  1  0.68523000  0.09593000  0.73879000  1.0 -0.1703467808
C  C719  1  0.69448000  0.11174000  0.70720000  1.0 0.0478059599
C  C720  1  0.71979000  0.09605000  0.68789000  1.0 -0.1588749685
C  C721  1  0.73492000  0.06472000  0.70092000  1.0 0.0797605509
C  C722  1  0.69242000  0.98992000  0.81162000  1.0 0.2185364203
C  C723  1  0.79619000  0.93365000  0.75291000  1.0 0.0797605509
C  C724  1  0.81024000  0.90294000  0.76590000  1.0 -0.1788225279
C  C725  1  0.79920000  0.88838000  0.79710000  1.0 0.0478059599
C  C726  1  0.77424000  0.90626000  0.81414000  1.0 -0.1509093283
C  C727  1  0.76214000  0.93770000  0.79942000  1.0 0.070307649
C  C728  1  0.81397000  0.85611000  0.81299000  1.0 0.3624877896
C  C729  1  0.31931000  0.96807000  0.50451000  1.0 0.2111444106
C  C730  1  0.24662000  0.98354000  0.57524000  1.0 0.070307649
C  C731  1  0.23375000  0.98323000  0.60519000  1.0 -0.1703467808
C  C732  1  0.20782000  0.97420000  0.62444000  1.0 0.0447539326
C  C733  1  0.19758000  0.96394000  0.61328000  1.0 -0.1588749685
C  C734  1  0.21247000  0.96423000  0.58305000  1.0 0.0797605509
C  C735  1  0.18972000  0.97850000  0.65490000  1.0 0.3665358278
C  C736  1  0.18510000  0.98742000  0.69476000  1.0 0.3665358278
C  C737  1  0.14460000  0.98434000  0.69396000  1.0 0.3624877896
C  C738  1  0.24263000  0.99429000  0.70971000  1.0 0.0797605509
C  C739  1  0.23033000  0.98855000  0.69645000  1.0 -0.1588749685
C  C740  1  0.19901000  0.99233000  0.70939000  1.0 0.0478059599
C  C741  1  0.18218000  0.00086000  0.73554000  1.0 -0.1703467808
C  C742  1  0.19665000  0.00629000  0.74703000  1.0 0.070307649
C  C743  1  0.06550000  0.98326000  0.74960000  1.0 0.070307649
C  C744  1  0.09593000  0.98005000  0.73879000  1.0 -0.1703467808
C  C745  1  0.11174000  0.98658000  0.70720000  1.0 0.0478059599
C  C746  1  0.09605000  0.99627000  0.68789000  1.0 -0.1588749685
C  C747  1  0.06472000  0.99944000  0.70092000  1.0 0.0797605509
C  C748  1  0.98992000  0.00604000  0.81162000  1.0 0.2185364203
C  C749  1  0.93365000  0.01725000  0.75291000  1.0 0.0797605509
C  C750  1  0.90294000  0.02092000  0.76590000  1.0 -0.1788225279
C  C751  1  0.88838000  0.01532000  0.79710000  1.0 0.0478059599
C  C752  1  0.90626000  0.00536000  0.81414000  1.0 -0.1509093283
C  C753  1  0.93770000  0.00074000  0.79942000  1.0 0.070307649
C  C754  1  0.85611000  0.01693000  0.81299000  1.0 0.3624877896
C  C755  1  0.70811000  0.50451000  0.96807000  1.0 0.2111444106
C  C756  1  0.69460000  0.57524000  0.98354000  1.0 0.070307649
C  C757  1  0.67783000  0.60519000  0.98323000  1.0 -0.1703467808
C  C758  1  0.69354000  0.62444000  0.97420000  1.0 0.0478059599
C  C759  1  0.72520000  0.61328000  0.96394000  1.0 -0.1588749685
C  C760  1  0.74025000  0.58305000  0.96423000  1.0 0.0797605509
C  C761  1  0.67688000  0.65490000  0.97850000  1.0 0.3665358278
C  C762  1  0.63272000  0.69476000  0.98742000  1.0 0.3665358278
C  C763  1  0.67710000  0.69396000  0.98434000  1.0 0.3624877896
C  C764  1  0.55337000  0.70971000  0.99429000  1.0 0.0797605509
C  C765  1  0.58467000  0.69645000  0.98855000  1.0 -0.1588749685
C  C766  1  0.59927000  0.70939000  0.99233000  1.0 0.0478059599
C  C767  1  0.58142000  0.73554000  0.00086000  1.0 -0.1703467808
C  C768  1  0.55003000  0.74703000  0.00629000  1.0 0.070307649
C  C769  1  0.70164000  0.74960000  0.98326000  1.0 0.070307649
C  C770  1  0.68523000  0.73879000  0.98005000  1.0 -0.1703467808
C  C771  1  0.69448000  0.70720000  0.98658000  1.0 0.0478059599
C  C772  1  0.71979000  0.68789000  0.99627000  1.0 -0.1588749685
C  C773  1  0.73492000  0.70092000  0.99944000  1.0 0.0797605509
C  C774  1  0.69242000  0.81162000  0.00604000  1.0 0.2185364203
C  C775  1  0.79619000  0.75291000  0.01725000  1.0 0.0797605509
C  C776  1  0.81024000  0.76590000  0.02092000  1.0 -0.1788225279
C  C777  1  0.79920000  0.79710000  0.01532000  1.0 0.0478059599
C  C778  1  0.77424000  0.81414000  0.00536000  1.0 -0.1509093283
C  C779  1  0.76214000  0.79942000  0.00074000  1.0 0.070307649
C  C780  1  0.81397000  0.81299000  0.01693000  1.0 0.3624877896
C  C781  1  0.96807000  0.31931000  0.70811000  1.0 0.2111444106
C  C782  1  0.98354000  0.24662000  0.69460000  1.0 0.070307649
C  C783  1  0.98323000  0.23375000  0.67783000  1.0 -0.1703467808
C  C784  1  0.97420000  0.20782000  0.69354000  1.0 0.0478059599
C  C785  1  0.96394000  0.19758000  0.72520000  1.0 -0.1509093283
C  C786  1  0.96423000  0.21247000  0.74025000  1.0 0.0797605509
C  C787  1  0.97850000  0.18972000  0.67688000  1.0 0.3665358278
C  C788  1  0.98742000  0.18510000  0.63272000  1.0 0.3665358278
C  C789  1  0.98434000  0.14460000  0.67710000  1.0 0.3624877896
C  C790  1  0.99429000  0.24263000  0.55337000  1.0 0.0797605509
C  C791  1  0.98855000  0.23033000  0.58467000  1.0 -0.1588749685
C  C792  1  0.99233000  0.19901000  0.59927000  1.0 0.0478059599
C  C793  1  0.00086000  0.18218000  0.58142000  1.0 -0.1703467808
C  C794  1  0.00629000  0.19665000  0.55003000  1.0 0.070307649
C  C795  1  0.98326000  0.06550000  0.70164000  1.0 0.070307649
C  C796  1  0.98005000  0.09593000  0.68523000  1.0 -0.1703467808
C  C797  1  0.98658000  0.11174000  0.69448000  1.0 0.0478059599
C  C798  1  0.99627000  0.09605000  0.71979000  1.0 -0.1588749685
C  C799  1  0.99944000  0.06472000  0.73492000  1.0 0.0797605509
C  C800  1  0.00604000  0.98992000  0.69242000  1.0 0.2185364203
C  C801  1  0.01725000  0.93365000  0.79619000  1.0 0.0797605509
C  C802  1  0.02092000  0.90294000  0.81024000  1.0 -0.1788225279
C  C803  1  0.01532000  0.88838000  0.79920000  1.0 0.0478059599
C  C804  1  0.00536000  0.90626000  0.77424000  1.0 -0.1509093283
C  C805  1  0.00074000  0.93770000  0.76214000  1.0 0.070307649
C  C806  1  0.01693000  0.85611000  0.81397000  1.0 0.3624877896
C  C807  1  0.50451000  0.70811000  0.31931000  1.0 0.2111444106
C  C808  1  0.57524000  0.69460000  0.24662000  1.0 0.070307649
C  C809  1  0.60519000  0.67783000  0.23375000  1.0 -0.1703467808
C  C810  1  0.62444000  0.69354000  0.20782000  1.0 0.0447539326
C  C811  1  0.61328000  0.72520000  0.19758000  1.0 -0.1509093283
C  C812  1  0.58305000  0.74025000  0.21247000  1.0 0.0797605509
C  C813  1  0.65490000  0.67688000  0.18972000  1.0 0.3665358278
C  C814  1  0.69476000  0.63272000  0.18510000  1.0 0.3665358278
C  C815  1  0.69396000  0.67710000  0.14460000  1.0 0.3624877896
C  C816  1  0.70971000  0.55337000  0.24263000  1.0 0.0797605509
C  C817  1  0.69645000  0.58467000  0.23033000  1.0 -0.1588749685
C  C818  1  0.70939000  0.59927000  0.19901000  1.0 0.0478059599
C  C819  1  0.73554000  0.58142000  0.18218000  1.0 -0.1703467808
C  C820  1  0.74703000  0.55003000  0.19665000  1.0 0.070307649
C  C821  1  0.74960000  0.70164000  0.06550000  1.0 0.070307649
C  C822  1  0.73879000  0.68523000  0.09593000  1.0 -0.1703467808
C  C823  1  0.70720000  0.69448000  0.11174000  1.0 0.0478059599
C  C824  1  0.68789000  0.71979000  0.09605000  1.0 -0.1588749685
C  C825  1  0.70092000  0.73492000  0.06472000  1.0 0.0797605509
C  C826  1  0.81162000  0.69242000  0.98992000  1.0 0.2185364203
C  C827  1  0.75291000  0.79619000  0.93365000  1.0 0.0797605509
C  C828  1  0.76590000  0.81024000  0.90294000  1.0 -0.1788225279
C  C829  1  0.79710000  0.79920000  0.88838000  1.0 0.0478059599
C  C830  1  0.81414000  0.77424000  0.90626000  1.0 -0.1509093283
C  C831  1  0.79942000  0.76214000  0.93770000  1.0 0.070307649
C  C832  1  0.81299000  0.81397000  0.85611000  1.0 0.3624877896
C  C833  1  0.50451000  0.31931000  0.96807000  1.0 0.2111444106
C  C834  1  0.57524000  0.24662000  0.98354000  1.0 0.070307649
C  C835  1  0.60519000  0.23375000  0.98323000  1.0 -0.1703467808
C  C836  1  0.62444000  0.20782000  0.97420000  1.0 0.0478059599
C  C837  1  0.61328000  0.19758000  0.96394000  1.0 -0.1588749685
C  C838  1  0.58305000  0.21247000  0.96423000  1.0 0.0797605509
C  C839  1  0.65490000  0.18972000  0.97850000  1.0 0.3665358278
C  C840  1  0.69476000  0.18510000  0.98742000  1.0 0.3665358278
C  C841  1  0.69396000  0.14460000  0.98434000  1.0 0.3624877896
C  C842  1  0.70971000  0.24263000  0.99429000  1.0 0.0797605509
C  C843  1  0.69645000  0.23033000  0.98855000  1.0 -0.1588749685
C  C844  1  0.70939000  0.19901000  0.99233000  1.0 0.0478059599
C  C845  1  0.73554000  0.18218000  0.00086000  1.0 -0.1703467808
C  C846  1  0.74703000  0.19665000  0.00629000  1.0 0.070307649
C  C847  1  0.74960000  0.06550000  0.98326000  1.0 0.070307649
C  C848  1  0.73879000  0.09593000  0.98005000  1.0 -0.1703467808
C  C849  1  0.70720000  0.11174000  0.98658000  1.0 0.0478059599
C  C850  1  0.68789000  0.09605000  0.99627000  1.0 -0.1588749685
C  C851  1  0.70092000  0.06472000  0.99944000  1.0 0.0797605509
C  C852  1  0.81162000  0.98992000  0.00604000  1.0 0.2185364203
C  C853  1  0.75291000  0.93365000  0.01725000  1.0 0.0797605509
C  C854  1  0.76590000  0.90294000  0.02092000  1.0 -0.1788225279
C  C855  1  0.79710000  0.88838000  0.01532000  1.0 0.0478059599
C  C856  1  0.81414000  0.90626000  0.00536000  1.0 -0.1509093283
C  C857  1  0.79942000  0.93770000  0.00074000  1.0 0.070307649
C  C858  1  0.81299000  0.85611000  0.01693000  1.0 0.3624877896
C  C859  1  0.96807000  0.70811000  0.50451000  1.0 0.2111444106
C  C860  1  0.98354000  0.69460000  0.57524000  1.0 0.070307649
C  C861  1  0.98323000  0.67783000  0.60519000  1.0 -0.1703467808
C  C862  1  0.97420000  0.69354000  0.62444000  1.0 0.0478059599
C  C863  1  0.96394000  0.72520000  0.61328000  1.0 -0.1588749685
C  C864  1  0.96423000  0.74025000  0.58305000  1.0 0.0797605509
C  C865  1  0.97850000  0.67688000  0.65490000  1.0 0.3665358278
C  C866  1  0.98742000  0.63272000  0.69476000  1.0 0.3665358278
C  C867  1  0.98434000  0.67710000  0.69396000  1.0 0.3624877896
C  C868  1  0.99429000  0.55337000  0.70971000  1.0 0.0797605509
C  C869  1  0.98855000  0.58467000  0.69645000  1.0 -0.1588749685
C  C870  1  0.99233000  0.59927000  0.70939000  1.0 0.0478059599
C  C871  1  0.00086000  0.58142000  0.73554000  1.0 -0.1703467808
C  C872  1  0.00629000  0.55003000  0.74703000  1.0 0.070307649
C  C873  1  0.98326000  0.70164000  0.74960000  1.0 0.070307649
C  C874  1  0.98005000  0.68523000  0.73879000  1.0 -0.1703467808
C  C875  1  0.98658000  0.69448000  0.70720000  1.0 0.0478059599
C  C876  1  0.99627000  0.71979000  0.68789000  1.0 -0.1588749685
C  C877  1  0.99944000  0.73492000  0.70092000  1.0 0.0797605509
C  C878  1  0.00604000  0.69242000  0.81162000  1.0 0.2185364203
C  C879  1  0.01725000  0.79619000  0.75291000  1.0 0.0797605509
C  C880  1  0.02092000  0.81024000  0.76590000  1.0 -0.1788225279
C  C881  1  0.01532000  0.79920000  0.79710000  1.0 0.0478059599
C  C882  1  0.00536000  0.77424000  0.81414000  1.0 -0.1509093283
C  C883  1  0.00074000  0.76214000  0.79942000  1.0 0.070307649
C  C884  1  0.01693000  0.81397000  0.81299000  1.0 0.3624877896
C  C885  1  0.70811000  0.96807000  0.31931000  1.0 0.2111444106
C  C886  1  0.69460000  0.98354000  0.24662000  1.0 0.070307649
C  C887  1  0.67783000  0.98323000  0.23375000  1.0 -0.1703467808
C  C888  1  0.69354000  0.97420000  0.20782000  1.0 0.0447539326
C  C889  1  0.72520000  0.96394000  0.19758000  1.0 -0.1509093283
C  C890  1  0.74025000  0.96423000  0.21247000  1.0 0.0797605509
C  C891  1  0.67688000  0.97850000  0.18972000  1.0 0.3665358278
C  C892  1  0.63272000  0.98742000  0.18510000  1.0 0.3665358278
C  C893  1  0.67710000  0.98434000  0.14460000  1.0 0.3624877896
C  C894  1  0.55337000  0.99429000  0.24263000  1.0 0.0797605509
C  C895  1  0.58467000  0.98855000  0.23033000  1.0 -0.1588749685
C  C896  1  0.59927000  0.99233000  0.19901000  1.0 0.0478059599
C  C897  1  0.58142000  0.00086000  0.18218000  1.0 -0.1703467808
C  C898  1  0.55003000  0.00629000  0.19665000  1.0 0.070307649
C  C899  1  0.70164000  0.98326000  0.06550000  1.0 0.070307649
C  C900  1  0.68523000  0.98005000  0.09593000  1.0 -0.1703467808
C  C901  1  0.69448000  0.98658000  0.11174000  1.0 0.0478059599
C  C902  1  0.71979000  0.99627000  0.09605000  1.0 -0.1588749685
C  C903  1  0.73492000  0.99944000  0.06472000  1.0 0.0797605509
C  C904  1  0.69242000  0.00604000  0.98992000  1.0 0.2185364203
C  C905  1  0.79619000  0.01725000  0.93365000  1.0 0.0797605509
C  C906  1  0.81024000  0.02092000  0.90294000  1.0 -0.1788225279
C  C907  1  0.79920000  0.01532000  0.88838000  1.0 0.0478059599
C  C908  1  0.77424000  0.00536000  0.90626000  1.0 -0.1509093283
C  C909  1  0.76214000  0.00074000  0.93770000  1.0 0.070307649
C  C910  1  0.81397000  0.01693000  0.85611000  1.0 0.3624877896
C  C911  1  0.31931000  0.50451000  0.70811000  1.0 0.2111444106
C  C912  1  0.24662000  0.57524000  0.69460000  1.0 0.070307649
C  C913  1  0.23375000  0.60519000  0.67783000  1.0 -0.1703467808
C  C914  1  0.20782000  0.62444000  0.69354000  1.0 0.0447539326
C  C915  1  0.19758000  0.61328000  0.72520000  1.0 -0.1588749685
C  C916  1  0.21247000  0.58305000  0.74025000  1.0 0.0797605509
C  C917  1  0.18972000  0.65490000  0.67688000  1.0 0.3665358278
C  C918  1  0.18510000  0.69476000  0.63272000  1.0 0.3665358278
C  C919  1  0.14460000  0.69396000  0.67710000  1.0 0.3624877896
C  C920  1  0.24263000  0.70971000  0.55337000  1.0 0.0797605509
C  C921  1  0.23033000  0.69645000  0.58467000  1.0 -0.1588749685
C  C922  1  0.19901000  0.70939000  0.59927000  1.0 0.0478059599
C  C923  1  0.18218000  0.73554000  0.58142000  1.0 -0.1703467808
C  C924  1  0.19665000  0.74703000  0.55003000  1.0 0.070307649
C  C925  1  0.06550000  0.74960000  0.70164000  1.0 0.070307649
C  C926  1  0.09593000  0.73879000  0.68523000  1.0 -0.1703467808
C  C927  1  0.11174000  0.70720000  0.69448000  1.0 0.0478059599
C  C928  1  0.09605000  0.68789000  0.71979000  1.0 -0.1588749685
C  C929  1  0.06472000  0.70092000  0.73492000  1.0 0.0797605509
C  C930  1  0.98992000  0.81162000  0.69242000  1.0 0.2185364203
C  C931  1  0.93365000  0.75291000  0.79619000  1.0 0.0797605509
C  C932  1  0.90294000  0.76590000  0.81024000  1.0 -0.1788225279
C  C933  1  0.88838000  0.79710000  0.79920000  1.0 0.0478059599
C  C934  1  0.90626000  0.81414000  0.77424000  1.0 -0.1509093283
C  C935  1  0.93770000  0.79942000  0.76214000  1.0 0.070307649
C  C936  1  0.85611000  0.81299000  0.81397000  1.0 0.3624877896
C  C937  1  0.53193000  0.99549000  0.79189000  1.0 0.2111444106
C  C938  1  0.51646000  0.92476000  0.80540000  1.0 0.070307649
C  C939  1  0.51677000  0.89481000  0.82217000  1.0 -0.1703467808
C  C940  1  0.52580000  0.87556000  0.80646000  1.0 0.0447539326
C  C941  1  0.53606000  0.88672000  0.77480000  1.0 -0.1588749685
C  C942  1  0.53577000  0.91695000  0.75975000  1.0 0.0797605509
C  C943  1  0.52150000  0.84510000  0.82312000  1.0 0.3665358278
C  C944  1  0.51258000  0.80524000  0.86728000  1.0 0.3665358278
C  C945  1  0.51566000  0.80604000  0.82290000  1.0 0.3624877896
C  C946  1  0.50571000  0.79029000  0.94663000  1.0 0.0797605509
C  C947  1  0.51145000  0.80355000  0.91533000  1.0 -0.1588749685
C  C948  1  0.50767000  0.79061000  0.90073000  1.0 0.0478059599
C  C949  1  0.49914000  0.76446000  0.91858000  1.0 -0.1703467808
C  C950  1  0.49371000  0.75297000  0.94997000  1.0 0.070307649
C  C951  1  0.51674000  0.75040000  0.79836000  1.0 0.070307649
C  C952  1  0.51995000  0.76121000  0.81477000  1.0 -0.1703467808
C  C953  1  0.51342000  0.79280000  0.80552000  1.0 0.0478059599
C  C954  1  0.50373000  0.81211000  0.78021000  1.0 -0.1588749685
C  C955  1  0.50056000  0.79908000  0.76508000  1.0 0.0797605509
C  C956  1  0.49396000  0.68838000  0.80758000  1.0 0.2185364203
C  C957  1  0.48275000  0.74709000  0.70381000  1.0 0.0797605509
C  C958  1  0.47908000  0.73410000  0.68976000  1.0 -0.1788225279
C  C959  1  0.48468000  0.70290000  0.70080000  1.0 0.0478059599
C  C960  1  0.49464000  0.68586000  0.72576000  1.0 -0.1509093283
C  C961  1  0.49926000  0.70058000  0.73786000  1.0 0.070307649
C  C962  1  0.48307000  0.68701000  0.68603000  1.0 0.3624877896
C  C963  1  0.99549000  0.53193000  0.18069000  1.0 0.2111444106
C  C964  1  0.92476000  0.51646000  0.25338000  1.0 0.070307649
C  C965  1  0.89481000  0.51677000  0.26625000  1.0 -0.1703467808
C  C966  1  0.87556000  0.52580000  0.29218000  1.0 0.0447539326
C  C967  1  0.88672000  0.53606000  0.30242000  1.0 -0.1588749685
C  C968  1  0.91695000  0.53577000  0.28753000  1.0 0.0797605509
C  C969  1  0.84510000  0.52150000  0.31028000  1.0 0.3665358278
C  C970  1  0.80524000  0.51258000  0.31490000  1.0 0.3665358278
C  C971  1  0.80604000  0.51566000  0.35540000  1.0 0.3624877896
C  C972  1  0.79029000  0.50571000  0.25737000  1.0 0.0797605509
C  C973  1  0.80355000  0.51145000  0.26967000  1.0 -0.1588749685
C  C974  1  0.79061000  0.50767000  0.30099000  1.0 0.0478059599
C  C975  1  0.76446000  0.49914000  0.31782000  1.0 -0.1703467808
C  C976  1  0.75297000  0.49371000  0.30335000  1.0 0.070307649
C  C977  1  0.75040000  0.51674000  0.43450000  1.0 0.070307649
C  C978  1  0.76121000  0.51995000  0.40407000  1.0 -0.1703467808
C  C979  1  0.79280000  0.51342000  0.38826000  1.0 0.0478059599
C  C980  1  0.81211000  0.50373000  0.40395000  1.0 -0.1588749685
C  C981  1  0.79908000  0.50056000  0.43528000  1.0 0.0797605509
C  C982  1  0.68838000  0.49396000  0.51008000  1.0 0.2185364203
C  C983  1  0.74709000  0.48275000  0.56635000  1.0 0.0797605509
C  C984  1  0.73410000  0.47908000  0.59706000  1.0 -0.1788225279
C  C985  1  0.70290000  0.48468000  0.61162000  1.0 0.0478059599
C  C986  1  0.68586000  0.49464000  0.59374000  1.0 -0.1509093283
C  C987  1  0.70058000  0.49926000  0.56230000  1.0 0.070307649
C  C988  1  0.68701000  0.48307000  0.64389000  1.0 0.3624877896
C  C989  1  0.18069000  0.79189000  0.99549000  1.0 0.2111444106
C  C990  1  0.25338000  0.80540000  0.92476000  1.0 0.070307649
C  C991  1  0.26625000  0.82217000  0.89481000  1.0 -0.1703467808
C  C992  1  0.29218000  0.80646000  0.87556000  1.0 0.0447539326
C  C993  1  0.30242000  0.77480000  0.88672000  1.0 -0.1588749685
C  C994  1  0.28753000  0.75975000  0.91695000  1.0 0.0797605509
C  C995  1  0.31028000  0.82312000  0.84510000  1.0 0.3665358278
C  C996  1  0.31490000  0.86728000  0.80524000  1.0 0.3665358278
C  C997  1  0.35540000  0.82290000  0.80604000  1.0 0.3624877896
C  C998  1  0.25737000  0.94663000  0.79029000  1.0 0.0797605509
C  C999  1  0.26967000  0.91533000  0.80355000  1.0 -0.1588749685
C  C1000  1  0.30099000  0.90073000  0.79061000  1.0 0.0478059599
C  C1001  1  0.31782000  0.91858000  0.76446000  1.0 -0.1703467808
C  C1002  1  0.30335000  0.94997000  0.75297000  1.0 0.070307649
C  C1003  1  0.43450000  0.79836000  0.75040000  1.0 0.070307649
C  C1004  1  0.40407000  0.81477000  0.76121000  1.0 -0.1703467808
C  C1005  1  0.38826000  0.80552000  0.79280000  1.0 0.0478059599
C  C1006  1  0.40395000  0.78021000  0.81211000  1.0 -0.1588749685
C  C1007  1  0.43528000  0.76508000  0.79908000  1.0 0.0797605509
C  C1008  1  0.51008000  0.80758000  0.68838000  1.0 0.2185364203
C  C1009  1  0.56635000  0.70381000  0.74709000  1.0 0.0797605509
C  C1010  1  0.59706000  0.68976000  0.73410000  1.0 -0.1788225279
C  C1011  1  0.61162000  0.70080000  0.70290000  1.0 0.0478059599
C  C1012  1  0.59374000  0.72576000  0.68586000  1.0 -0.1509093283
C  C1013  1  0.56230000  0.73786000  0.70058000  1.0 0.070307649
C  C1014  1  0.64389000  0.68603000  0.68701000  1.0 0.3624877896
C  C1015  1  0.79189000  0.18069000  0.53193000  1.0 0.2111444106
C  C1016  1  0.80540000  0.25338000  0.51646000  1.0 0.070307649
C  C1017  1  0.82217000  0.26625000  0.51677000  1.0 -0.1703467808
C  C1018  1  0.80646000  0.29218000  0.52580000  1.0 0.0478059599
C  C1019  1  0.77480000  0.30242000  0.53606000  1.0 -0.1509093283
C  C1020  1  0.75975000  0.28753000  0.53577000  1.0 0.0797605509
C  C1021  1  0.82312000  0.31028000  0.52150000  1.0 0.3665358278
C  C1022  1  0.86728000  0.31490000  0.51258000  1.0 0.3665358278
C  C1023  1  0.82290000  0.35540000  0.51566000  1.0 0.3624877896
C  C1024  1  0.94663000  0.25737000  0.50571000  1.0 0.0797605509
C  C1025  1  0.91533000  0.26967000  0.51145000  1.0 -0.1588749685
C  C1026  1  0.90073000  0.30099000  0.50767000  1.0 0.0478059599
C  C1027  1  0.91858000  0.31782000  0.49914000  1.0 -0.1703467808
C  C1028  1  0.94997000  0.30335000  0.49371000  1.0 0.070307649
C  C1029  1  0.79836000  0.43450000  0.51674000  1.0 0.070307649
C  C1030  1  0.81477000  0.40407000  0.51995000  1.0 -0.1703467808
C  C1031  1  0.80552000  0.38826000  0.51342000  1.0 0.0478059599
C  C1032  1  0.78021000  0.40395000  0.50373000  1.0 -0.1588749685
C  C1033  1  0.76508000  0.43528000  0.50056000  1.0 0.0797605509
C  C1034  1  0.80758000  0.51008000  0.49396000  1.0 0.2185364203
C  C1035  1  0.70381000  0.56635000  0.48275000  1.0 0.0797605509
C  C1036  1  0.68976000  0.59706000  0.47908000  1.0 -0.1788225279
C  C1037  1  0.70080000  0.61162000  0.48468000  1.0 0.0478059599
C  C1038  1  0.72576000  0.59374000  0.49464000  1.0 -0.1509093283
C  C1039  1  0.73786000  0.56230000  0.49926000  1.0 0.070307649
C  C1040  1  0.68603000  0.64389000  0.48307000  1.0 0.3624877896
C  C1041  1  0.18069000  0.53193000  0.79189000  1.0 0.2111444106
C  C1042  1  0.25338000  0.51646000  0.80540000  1.0 0.070307649
C  C1043  1  0.26625000  0.51677000  0.82217000  1.0 -0.1703467808
C  C1044  1  0.29218000  0.52580000  0.80646000  1.0 0.0478059599
C  C1045  1  0.30242000  0.53606000  0.77480000  1.0 -0.1588749685
C  C1046  1  0.28753000  0.53577000  0.75975000  1.0 0.0797605509
C  C1047  1  0.31028000  0.52150000  0.82312000  1.0 0.3665358278
C  C1048  1  0.31490000  0.51258000  0.86728000  1.0 0.3665358278
C  C1049  1  0.35540000  0.51566000  0.82290000  1.0 0.3624877896
C  C1050  1  0.25737000  0.50571000  0.94663000  1.0 0.0797605509
C  C1051  1  0.26967000  0.51145000  0.91533000  1.0 -0.1588749685
C  C1052  1  0.30099000  0.50767000  0.90073000  1.0 0.0478059599
C  C1053  1  0.31782000  0.49914000  0.91858000  1.0 -0.1703467808
C  C1054  1  0.30335000  0.49371000  0.94997000  1.0 0.070307649
C  C1055  1  0.43450000  0.51674000  0.79836000  1.0 0.070307649
C  C1056  1  0.40407000  0.51995000  0.81477000  1.0 -0.1703467808
C  C1057  1  0.38826000  0.51342000  0.80552000  1.0 0.0478059599
C  C1058  1  0.40395000  0.50373000  0.78021000  1.0 -0.1588749685
C  C1059  1  0.43528000  0.50056000  0.76508000  1.0 0.0797605509
C  C1060  1  0.51008000  0.49396000  0.80758000  1.0 0.2185364203
C  C1061  1  0.56635000  0.48275000  0.70381000  1.0 0.0797605509
C  C1062  1  0.59706000  0.47908000  0.68976000  1.0 -0.1788225279
C  C1063  1  0.61162000  0.48468000  0.70080000  1.0 0.0478059599
C  C1064  1  0.59374000  0.49464000  0.72576000  1.0 -0.1509093283
C  C1065  1  0.56230000  0.49926000  0.73786000  1.0 0.070307649
C  C1066  1  0.64389000  0.48307000  0.68603000  1.0 0.3624877896
C  C1067  1  0.79189000  0.99549000  0.18069000  1.0 0.2111444106
C  C1068  1  0.80540000  0.92476000  0.25338000  1.0 0.070307649
C  C1069  1  0.82217000  0.89481000  0.26625000  1.0 -0.1703467808
C  C1070  1  0.80646000  0.87556000  0.29218000  1.0 0.0447539326
C  C1071  1  0.77480000  0.88672000  0.30242000  1.0 -0.1588749685
C  C1072  1  0.75975000  0.91695000  0.28753000  1.0 0.0797605509
C  C1073  1  0.82312000  0.84510000  0.31028000  1.0 0.3665358278
C  C1074  1  0.86728000  0.80524000  0.31490000  1.0 0.3665358278
C  C1075  1  0.82290000  0.80604000  0.35540000  1.0 0.3624877896
C  C1076  1  0.94663000  0.79029000  0.25737000  1.0 0.0797605509
C  C1077  1  0.91533000  0.80355000  0.26967000  1.0 -0.1588749685
C  C1078  1  0.90073000  0.79061000  0.30099000  1.0 0.0478059599
C  C1079  1  0.91858000  0.76446000  0.31782000  1.0 -0.1703467808
C  C1080  1  0.94997000  0.75297000  0.30335000  1.0 0.070307649
C  C1081  1  0.79836000  0.75040000  0.43450000  1.0 0.070307649
C  C1082  1  0.81477000  0.76121000  0.40407000  1.0 -0.1703467808
C  C1083  1  0.80552000  0.79280000  0.38826000  1.0 0.0478059599
C  C1084  1  0.78021000  0.81211000  0.40395000  1.0 -0.1588749685
C  C1085  1  0.76508000  0.79908000  0.43528000  1.0 0.0797605509
C  C1086  1  0.80758000  0.68838000  0.51008000  1.0 0.2185364203
C  C1087  1  0.70381000  0.74709000  0.56635000  1.0 0.0797605509
C  C1088  1  0.68976000  0.73410000  0.59706000  1.0 -0.1788225279
C  C1089  1  0.70080000  0.70290000  0.61162000  1.0 0.0478059599
C  C1090  1  0.72576000  0.68586000  0.59374000  1.0 -0.1509093283
C  C1091  1  0.73786000  0.70058000  0.56230000  1.0 0.070307649
C  C1092  1  0.68603000  0.68701000  0.64389000  1.0 0.3624877896
C  C1093  1  0.53193000  0.18069000  0.99549000  1.0 0.2111444106
C  C1094  1  0.51646000  0.25338000  0.92476000  1.0 0.070307649
C  C1095  1  0.51677000  0.26625000  0.89481000  1.0 -0.1703467808
C  C1096  1  0.52580000  0.29218000  0.87556000  1.0 0.0478059599
C  C1097  1  0.53606000  0.30242000  0.88672000  1.0 -0.1588749685
C  C1098  1  0.53577000  0.28753000  0.91695000  1.0 0.0797605509
C  C1099  1  0.52150000  0.31028000  0.84510000  1.0 0.3665358278
C  C1100  1  0.51258000  0.31490000  0.80524000  1.0 0.3665358278
C  C1101  1  0.51566000  0.35540000  0.80604000  1.0 0.3624877896
C  C1102  1  0.50571000  0.25737000  0.79029000  1.0 0.0797605509
C  C1103  1  0.51145000  0.26967000  0.80355000  1.0 -0.1588749685
C  C1104  1  0.50767000  0.30099000  0.79061000  1.0 0.0478059599
C  C1105  1  0.49914000  0.31782000  0.76446000  1.0 -0.1703467808
C  C1106  1  0.49371000  0.30335000  0.75297000  1.0 0.070307649
C  C1107  1  0.51674000  0.43450000  0.75040000  1.0 0.070307649
C  C1108  1  0.51995000  0.40407000  0.76121000  1.0 -0.1703467808
C  C1109  1  0.51342000  0.38826000  0.79280000  1.0 0.0478059599
C  C1110  1  0.50373000  0.40395000  0.81211000  1.0 -0.1588749685
C  C1111  1  0.50056000  0.43528000  0.79908000  1.0 0.0797605509
C  C1112  1  0.49396000  0.51008000  0.68838000  1.0 0.2185364203
C  C1113  1  0.48275000  0.56635000  0.74709000  1.0 0.0797605509
C  C1114  1  0.47908000  0.59706000  0.73410000  1.0 -0.1788225279
C  C1115  1  0.48468000  0.61162000  0.70290000  1.0 0.0478059599
C  C1116  1  0.49464000  0.59374000  0.68586000  1.0 -0.1509093283
C  C1117  1  0.49926000  0.56230000  0.70058000  1.0 0.070307649
C  C1118  1  0.48307000  0.64389000  0.68701000  1.0 0.3624877896
C  C1119  1  0.99549000  0.79189000  0.53193000  1.0 0.2111444106
C  C1120  1  0.92476000  0.80540000  0.51646000  1.0 0.070307649
C  C1121  1  0.89481000  0.82217000  0.51677000  1.0 -0.1703467808
C  C1122  1  0.87556000  0.80646000  0.52580000  1.0 0.0478059599
C  C1123  1  0.88672000  0.77480000  0.53606000  1.0 -0.1588749685
C  C1124  1  0.91695000  0.75975000  0.53577000  1.0 0.0797605509
C  C1125  1  0.84510000  0.82312000  0.52150000  1.0 0.3665358278
C  C1126  1  0.80524000  0.86728000  0.51258000  1.0 0.3665358278
C  C1127  1  0.80604000  0.82290000  0.51566000  1.0 0.3624877896
C  C1128  1  0.79029000  0.94663000  0.50571000  1.0 0.0797605509
C  C1129  1  0.80355000  0.91533000  0.51145000  1.0 -0.1588749685
C  C1130  1  0.79061000  0.90073000  0.50767000  1.0 0.0478059599
C  C1131  1  0.76446000  0.91858000  0.49914000  1.0 -0.1703467808
C  C1132  1  0.75297000  0.94997000  0.49371000  1.0 0.070307649
C  C1133  1  0.75040000  0.79836000  0.51674000  1.0 0.070307649
C  C1134  1  0.76121000  0.81477000  0.51995000  1.0 -0.1703467808
C  C1135  1  0.79280000  0.80552000  0.51342000  1.0 0.0478059599
C  C1136  1  0.81211000  0.78021000  0.50373000  1.0 -0.1588749685
C  C1137  1  0.79908000  0.76508000  0.50056000  1.0 0.0797605509
C  C1138  1  0.68838000  0.80758000  0.49396000  1.0 0.2185364203
C  C1139  1  0.74709000  0.70381000  0.48275000  1.0 0.0797605509
C  C1140  1  0.73410000  0.68976000  0.47908000  1.0 -0.1788225279
C  C1141  1  0.70290000  0.70080000  0.48468000  1.0 0.0478059599
C  C1142  1  0.68586000  0.72576000  0.49464000  1.0 -0.1509093283
C  C1143  1  0.70058000  0.73786000  0.49926000  1.0 0.070307649
C  C1144  1  0.68701000  0.68603000  0.48307000  1.0 0.3624877896
C  C1145  1  0.99549000  0.18069000  0.79189000  1.0 0.2111444106
C  C1146  1  0.92476000  0.25338000  0.80540000  1.0 0.070307649
C  C1147  1  0.89481000  0.26625000  0.82217000  1.0 -0.1703467808
C  C1148  1  0.87556000  0.29218000  0.80646000  1.0 0.0478059599
C  C1149  1  0.88672000  0.30242000  0.77480000  1.0 -0.1588749685
C  C1150  1  0.91695000  0.28753000  0.75975000  1.0 0.0797605509
C  C1151  1  0.84510000  0.31028000  0.82312000  1.0 0.3665358278
C  C1152  1  0.80524000  0.31490000  0.86728000  1.0 0.3665358278
C  C1153  1  0.80604000  0.35540000  0.82290000  1.0 0.3624877896
C  C1154  1  0.79029000  0.25737000  0.94663000  1.0 0.0797605509
C  C1155  1  0.80355000  0.26967000  0.91533000  1.0 -0.1588749685
C  C1156  1  0.79061000  0.30099000  0.90073000  1.0 0.0478059599
C  C1157  1  0.76446000  0.31782000  0.91858000  1.0 -0.1703467808
C  C1158  1  0.75297000  0.30335000  0.94997000  1.0 0.070307649
C  C1159  1  0.75040000  0.43450000  0.79836000  1.0 0.070307649
C  C1160  1  0.76121000  0.40407000  0.81477000  1.0 -0.1703467808
C  C1161  1  0.79280000  0.38826000  0.80552000  1.0 0.0478059599
C  C1162  1  0.81211000  0.40395000  0.78021000  1.0 -0.1588749685
C  C1163  1  0.79908000  0.43528000  0.76508000  1.0 0.0797605509
C  C1164  1  0.68838000  0.51008000  0.80758000  1.0 0.2185364203
C  C1165  1  0.74709000  0.56635000  0.70381000  1.0 0.0797605509
C  C1166  1  0.73410000  0.59706000  0.68976000  1.0 -0.1788225279
C  C1167  1  0.70290000  0.61162000  0.70080000  1.0 0.0478059599
C  C1168  1  0.68586000  0.59374000  0.72576000  1.0 -0.1509093283
C  C1169  1  0.70058000  0.56230000  0.73786000  1.0 0.070307649
C  C1170  1  0.68701000  0.64389000  0.68603000  1.0 0.3624877896
C  C1171  1  0.53193000  0.79189000  0.18069000  1.0 0.2111444106
C  C1172  1  0.51646000  0.80540000  0.25338000  1.0 0.070307649
C  C1173  1  0.51677000  0.82217000  0.26625000  1.0 -0.1703467808
C  C1174  1  0.52580000  0.80646000  0.29218000  1.0 0.0447539326
C  C1175  1  0.53606000  0.77480000  0.30242000  1.0 -0.1588749685
C  C1176  1  0.53577000  0.75975000  0.28753000  1.0 0.0797605509
C  C1177  1  0.52150000  0.82312000  0.31028000  1.0 0.3665358278
C  C1178  1  0.51258000  0.86728000  0.31490000  1.0 0.3665358278
C  C1179  1  0.51566000  0.82290000  0.35540000  1.0 0.3624877896
C  C1180  1  0.50571000  0.94663000  0.25737000  1.0 0.0797605509
C  C1181  1  0.51145000  0.91533000  0.26967000  1.0 -0.1588749685
C  C1182  1  0.50767000  0.90073000  0.30099000  1.0 0.0478059599
C  C1183  1  0.49914000  0.91858000  0.31782000  1.0 -0.1703467808
C  C1184  1  0.49371000  0.94997000  0.30335000  1.0 0.070307649
C  C1185  1  0.51674000  0.79836000  0.43450000  1.0 0.070307649
C  C1186  1  0.51995000  0.81477000  0.40407000  1.0 -0.1703467808
C  C1187  1  0.51342000  0.80552000  0.38826000  1.0 0.0478059599
C  C1188  1  0.50373000  0.78021000  0.40395000  1.0 -0.1588749685
C  C1189  1  0.50056000  0.76508000  0.43528000  1.0 0.0797605509
C  C1190  1  0.49396000  0.80758000  0.51008000  1.0 0.2185364203
C  C1191  1  0.48275000  0.70381000  0.56635000  1.0 0.0797605509
C  C1192  1  0.47908000  0.68976000  0.59706000  1.0 -0.1788225279
C  C1193  1  0.48468000  0.70080000  0.61162000  1.0 0.0478059599
C  C1194  1  0.49464000  0.72576000  0.59374000  1.0 -0.1509093283
C  C1195  1  0.49926000  0.73786000  0.56230000  1.0 0.070307649
C  C1196  1  0.48307000  0.68603000  0.64389000  1.0 0.3624877896
C  C1197  1  0.79189000  0.53193000  0.99549000  1.0 0.2111444106
C  C1198  1  0.80540000  0.51646000  0.92476000  1.0 0.070307649
C  C1199  1  0.82217000  0.51677000  0.89481000  1.0 -0.1703467808
C  C1200  1  0.80646000  0.52580000  0.87556000  1.0 0.0478059599
C  C1201  1  0.77480000  0.53606000  0.88672000  1.0 -0.1588749685
C  C1202  1  0.75975000  0.53577000  0.91695000  1.0 0.0797605509
C  C1203  1  0.82312000  0.52150000  0.84510000  1.0 0.3665358278
C  C1204  1  0.86728000  0.51258000  0.80524000  1.0 0.3665358278
C  C1205  1  0.82290000  0.51566000  0.80604000  1.0 0.3624877896
C  C1206  1  0.94663000  0.50571000  0.79029000  1.0 0.0797605509
C  C1207  1  0.91533000  0.51145000  0.80355000  1.0 -0.1588749685
C  C1208  1  0.90073000  0.50767000  0.79061000  1.0 0.0478059599
C  C1209  1  0.91858000  0.49914000  0.76446000  1.0 -0.1703467808
C  C1210  1  0.94997000  0.49371000  0.75297000  1.0 0.070307649
C  C1211  1  0.79836000  0.51674000  0.75040000  1.0 0.070307649
C  C1212  1  0.81477000  0.51995000  0.76121000  1.0 -0.1703467808
C  C1213  1  0.80552000  0.51342000  0.79280000  1.0 0.0478059599
C  C1214  1  0.78021000  0.50373000  0.81211000  1.0 -0.1588749685
C  C1215  1  0.76508000  0.50056000  0.79908000  1.0 0.0797605509
C  C1216  1  0.80758000  0.49396000  0.68838000  1.0 0.2185364203
C  C1217  1  0.70381000  0.48275000  0.74709000  1.0 0.0797605509
C  C1218  1  0.68976000  0.47908000  0.73410000  1.0 -0.1788225279
C  C1219  1  0.70080000  0.48468000  0.70290000  1.0 0.0478059599
C  C1220  1  0.72576000  0.49464000  0.68586000  1.0 -0.1509093283
C  C1221  1  0.73786000  0.49926000  0.70058000  1.0 0.070307649
C  C1222  1  0.68603000  0.48307000  0.68701000  1.0 0.3624877896
C  C1223  1  0.18069000  0.99549000  0.53193000  1.0 0.2111444106
C  C1224  1  0.25338000  0.92476000  0.51646000  1.0 0.070307649
C  C1225  1  0.26625000  0.89481000  0.51677000  1.0 -0.1703467808
C  C1226  1  0.29218000  0.87556000  0.52580000  1.0 0.0447539326
C  C1227  1  0.30242000  0.88672000  0.53606000  1.0 -0.1588749685
C  C1228  1  0.28753000  0.91695000  0.53577000  1.0 0.0797605509
C  C1229  1  0.31028000  0.84510000  0.52150000  1.0 0.3665358278
C  C1230  1  0.31490000  0.80524000  0.51258000  1.0 0.3665358278
C  C1231  1  0.35540000  0.80604000  0.51566000  1.0 0.3624877896
C  C1232  1  0.25737000  0.79029000  0.50571000  1.0 0.0797605509
C  C1233  1  0.26967000  0.80355000  0.51145000  1.0 -0.1588749685
C  C1234  1  0.30099000  0.79061000  0.50767000  1.0 0.0478059599
C  C1235  1  0.31782000  0.76446000  0.49914000  1.0 -0.1703467808
C  C1236  1  0.30335000  0.75297000  0.49371000  1.0 0.070307649
C  C1237  1  0.43450000  0.75040000  0.51674000  1.0 0.070307649
C  C1238  1  0.40407000  0.76121000  0.51995000  1.0 -0.1703467808
C  C1239  1  0.38826000  0.79280000  0.51342000  1.0 0.0478059599
C  C1240  1  0.40395000  0.81211000  0.50373000  1.0 -0.1588749685
C  C1241  1  0.43528000  0.79908000  0.50056000  1.0 0.0797605509
C  C1242  1  0.51008000  0.68838000  0.49396000  1.0 0.2185364203
C  C1243  1  0.56635000  0.74709000  0.48275000  1.0 0.0797605509
C  C1244  1  0.59706000  0.73410000  0.47908000  1.0 -0.1788225279
C  C1245  1  0.61162000  0.70290000  0.48468000  1.0 0.0478059599
C  C1246  1  0.59374000  0.68586000  0.49464000  1.0 -0.1509093283
C  C1247  1  0.56230000  0.70058000  0.49926000  1.0 0.070307649
C  C1248  1  0.64389000  0.68701000  0.48307000  1.0 0.3624877896
S  S1  1  0.05055000  0.50397000  0.64325000  1.0 -0.1977007577
S  S2  1  0.98547000  0.15577000  0.02707000  1.0 -0.1859447895
S  S3  1  0.50397000  0.05055000  0.30223000  1.0 -0.1977007577
S  S4  1  0.15577000  0.98547000  0.33169000  1.0 -0.1859447895
S  S5  1  0.64325000  0.30223000  0.05055000  1.0 -0.1977007577
S  S6  1  0.02707000  0.33169000  0.98547000  1.0 -0.1859447895
S  S7  1  0.30223000  0.64325000  0.50397000  1.0 -0.1977007577
S  S8  1  0.33169000  0.02707000  0.15577000  1.0 -0.1859447895
S  S9  1  0.64325000  0.05055000  0.50397000  1.0 -0.1977007577
S  S10  1  0.02707000  0.98547000  0.15577000  1.0 -0.1859447895
S  S11  1  0.30223000  0.50397000  0.05055000  1.0 -0.1977007577
S  S12  1  0.33169000  0.15577000  0.98547000  1.0 -0.1859447895
S  S13  1  0.05055000  0.64325000  0.30223000  1.0 -0.1977007577
S  S14  1  0.98547000  0.02707000  0.33169000  1.0 -0.1859447895
S  S15  1  0.50397000  0.30223000  0.64325000  1.0 -0.1977007577
S  S16  1  0.15577000  0.33169000  0.02707000  1.0 -0.1859447895
S  S17  1  0.50397000  0.64325000  0.05055000  1.0 -0.1977007577
S  S18  1  0.15577000  0.02707000  0.98547000  1.0 -0.1859447895
S  S19  1  0.05055000  0.30223000  0.50397000  1.0 -0.1977007577
S  S20  1  0.98547000  0.33169000  0.15577000  1.0 -0.1859447895
S  S21  1  0.30223000  0.05055000  0.64325000  1.0 -0.1977007577
S  S22  1  0.33169000  0.98547000  0.02707000  1.0 -0.1859447895
S  S23  1  0.64325000  0.50397000  0.30223000  1.0 -0.1977007577
S  S24  1  0.02707000  0.15577000  0.33169000  1.0 -0.1859447895
S  S25  1  0.44945000  0.99603000  0.19777000  1.0 -0.1977007577
S  S26  1  0.51453000  0.34423000  0.16831000  1.0 -0.1859447895
S  S27  1  0.99603000  0.44945000  0.85675000  1.0 -0.1977007577
S  S28  1  0.34423000  0.51453000  0.47293000  1.0 -0.1859447895
S  S29  1  0.85675000  0.19777000  0.99603000  1.0 -0.1977007577
S  S30  1  0.47293000  0.16831000  0.34423000  1.0 -0.1859447895
S  S31  1  0.19777000  0.85675000  0.44945000  1.0 -0.1977007577
S  S32  1  0.16831000  0.47293000  0.51453000  1.0 -0.1859447895
S  S33  1  0.85675000  0.44945000  0.19777000  1.0 -0.1977007577
S  S34  1  0.47293000  0.51453000  0.16831000  1.0 -0.1859447895
S  S35  1  0.19777000  0.99603000  0.85675000  1.0 -0.1977007577
S  S36  1  0.16831000  0.34423000  0.47293000  1.0 -0.1859447895
S  S37  1  0.44945000  0.85675000  0.99603000  1.0 -0.1977007577
S  S38  1  0.51453000  0.47293000  0.34423000  1.0 -0.1859447895
S  S39  1  0.99603000  0.19777000  0.44945000  1.0 -0.1977007577
S  S40  1  0.34423000  0.16831000  0.51453000  1.0 -0.1859447895
S  S41  1  0.99603000  0.85675000  0.19777000  1.0 -0.1977007577
S  S42  1  0.34423000  0.47293000  0.16831000  1.0 -0.1859447895
S  S43  1  0.44945000  0.19777000  0.85675000  1.0 -0.1977007577
S  S44  1  0.51453000  0.16831000  0.47293000  1.0 -0.1859447895
S  S45  1  0.19777000  0.44945000  0.99603000  1.0 -0.1977007577
S  S46  1  0.16831000  0.51453000  0.34423000  1.0 -0.1859447895
S  S47  1  0.85675000  0.99603000  0.44945000  1.0 -0.1977007577
S  S48  1  0.47293000  0.34423000  0.51453000  1.0 -0.1859447895
S  S49  1  0.94945000  0.49603000  0.35675000  1.0 -0.1977007577
S  S50  1  0.01453000  0.84423000  0.97293000  1.0 -0.1859447895
S  S51  1  0.49603000  0.94945000  0.69777000  1.0 -0.1977007577
S  S52  1  0.84423000  0.01453000  0.66831000  1.0 -0.1859447895
S  S53  1  0.35675000  0.69777000  0.94945000  1.0 -0.1977007577
S  S54  1  0.97293000  0.66831000  0.01453000  1.0 -0.1859447895
S  S55  1  0.69777000  0.35675000  0.49603000  1.0 -0.1977007577
S  S56  1  0.66831000  0.97293000  0.84423000  1.0 -0.1788225279
S  S57  1  0.35675000  0.94945000  0.49603000  1.0 -0.1977007577
S  S58  1  0.97293000  0.01453000  0.84423000  1.0 -0.1859447895
S  S59  1  0.69777000  0.49603000  0.94945000  1.0 -0.1977007577
S  S60  1  0.66831000  0.84423000  0.01453000  1.0 -0.1859447895
S  S61  1  0.94945000  0.35675000  0.69777000  1.0 -0.1977007577
S  S62  1  0.01453000  0.97293000  0.66831000  1.0 -0.1788225279
S  S63  1  0.49603000  0.69777000  0.35675000  1.0 -0.1977007577
S  S64  1  0.84423000  0.66831000  0.97293000  1.0 -0.1859447895
S  S65  1  0.49603000  0.35675000  0.94945000  1.0 -0.1977007577
S  S66  1  0.84423000  0.97293000  0.01453000  1.0 -0.1859447895
S  S67  1  0.94945000  0.69777000  0.49603000  1.0 -0.1977007577
S  S68  1  0.01453000  0.66831000  0.84423000  1.0 -0.1788225279
S  S69  1  0.69777000  0.94945000  0.35675000  1.0 -0.1977007577
S  S70  1  0.66831000  0.01453000  0.97293000  1.0 -0.1859447895
S  S71  1  0.35675000  0.49603000  0.69777000  1.0 -0.1977007577
S  S72  1  0.97293000  0.84423000  0.66831000  1.0 -0.1859447895
S  S73  1  0.55055000  0.00397000  0.80223000  1.0 -0.1977007577
S  S74  1  0.48547000  0.65577000  0.83169000  1.0 -0.1859447895
S  S75  1  0.00397000  0.55055000  0.14325000  1.0 -0.1977007577
S  S76  1  0.65577000  0.48547000  0.52707000  1.0 -0.1859447895
S  S77  1  0.14325000  0.80223000  0.00397000  1.0 -0.1977007577
S  S78  1  0.52707000  0.83169000  0.65577000  1.0 -0.1859447895
S  S79  1  0.80223000  0.14325000  0.55055000  1.0 -0.1977007577
S  S80  1  0.83169000  0.52707000  0.48547000  1.0 -0.1859447895
S  S81  1  0.14325000  0.55055000  0.80223000  1.0 -0.1977007577
S  S82  1  0.52707000  0.48547000  0.83169000  1.0 -0.1859447895
S  S83  1  0.80223000  0.00397000  0.14325000  1.0 -0.1977007577
S  S84  1  0.83169000  0.65577000  0.52707000  1.0 -0.1859447895
S  S85  1  0.55055000  0.14325000  0.00397000  1.0 -0.1977007577
S  S86  1  0.48547000  0.52707000  0.65577000  1.0 -0.1859447895
S  S87  1  0.00397000  0.80223000  0.55055000  1.0 -0.1977007577
S  S88  1  0.65577000  0.83169000  0.48547000  1.0 -0.1859447895
S  S89  1  0.00397000  0.14325000  0.80223000  1.0 -0.1977007577
S  S90  1  0.65577000  0.52707000  0.83169000  1.0 -0.1859447895
S  S91  1  0.55055000  0.80223000  0.14325000  1.0 -0.1977007577
S  S92  1  0.48547000  0.83169000  0.52707000  1.0 -0.1859447895
S  S93  1  0.80223000  0.55055000  0.00397000  1.0 -0.1977007577
S  S94  1  0.83169000  0.48547000  0.65577000  1.0 -0.1859447895
S  S95  1  0.14325000  0.00397000  0.55055000  1.0 -0.1977007577
S  S96  1  0.52707000  0.65577000  0.48547000  1.0 -0.1859447895
N  N1  1  0.01911000  0.48957000  0.70679000  1.0 -0.4500609805
N  N2  1  0.02447000  0.43657000  0.76421000  1.0 -0.2131924832
N  N3  1  0.01759000  0.33233000  0.79677000  1.0 -0.4216174545
N  N4  1  0.01094000  0.29106000  0.84478000  1.0 -0.4216174545
N  N5  1  0.02150000  0.33254000  0.83914000  1.0 -0.4216174545
N  N6  1  0.99650000  0.26564000  0.77348000  1.0 -0.2202514714
N  N7  1  0.00713000  0.26839000  0.95067000  1.0 -0.2202514714
N  N8  1  0.99661000  0.21099000  0.00255000  1.0 -0.4500609805
N  N9  1  0.99199000  0.23153000  0.04881000  1.0 -0.2131924832
N  N10  1  0.98246000  0.20232000  0.15830000  1.0 -0.4216174545
N  N11  1  0.48957000  0.01911000  0.28453000  1.0 -0.4500609805
N  N12  1  0.43657000  0.02447000  0.27475000  1.0 -0.2131924832
N  N13  1  0.33233000  0.01759000  0.35331000  1.0 -0.4216174545
N  N14  1  0.29106000  0.01094000  0.35322000  1.0 -0.4252752405
N  N15  1  0.33254000  0.02150000  0.30682000  1.0 -0.4216174545
N  N16  1  0.26564000  0.99650000  0.46438000  1.0 -0.2202514714
N  N17  1  0.26839000  0.00713000  0.27381000  1.0 -0.2202514714
N  N18  1  0.21099000  0.99661000  0.28985000  1.0 -0.4500609805
N  N19  1  0.23153000  0.99199000  0.22767000  1.0 -0.2131924832
N  N20  1  0.20232000  0.98246000  0.15692000  1.0 -0.4216174545
N  N21  1  0.70679000  0.28453000  0.01911000  1.0 -0.4500609805
N  N22  1  0.76421000  0.27475000  0.02447000  1.0 -0.2131924832
N  N23  1  0.79677000  0.35331000  0.01759000  1.0 -0.4216174545
N  N24  1  0.84478000  0.35322000  0.01094000  1.0 -0.4252752405
N  N25  1  0.83914000  0.30682000  0.02150000  1.0 -0.4216174545
N  N26  1  0.77348000  0.46438000  0.99650000  1.0 -0.2202514714
N  N27  1  0.95067000  0.27381000  0.00713000  1.0 -0.2252094883
N  N28  1  0.00255000  0.28985000  0.99661000  1.0 -0.4500609805
N  N29  1  0.04881000  0.22767000  0.99199000  1.0 -0.2131924832
N  N30  1  0.15830000  0.15692000  0.98246000  1.0 -0.4216174545
N  N31  1  0.28453000  0.70679000  0.48957000  1.0 -0.4500609805
N  N32  1  0.27475000  0.76421000  0.43657000  1.0 -0.2131924832
N  N33  1  0.35331000  0.79677000  0.33233000  1.0 -0.4216174545
N  N34  1  0.35322000  0.84478000  0.29106000  1.0 -0.4216174545
N  N35  1  0.30682000  0.83914000  0.33254000  1.0 -0.4216174545
N  N36  1  0.46438000  0.77348000  0.26564000  1.0 -0.2202514714
N  N37  1  0.27381000  0.95067000  0.26839000  1.0 -0.2252094883
N  N38  1  0.28985000  0.00255000  0.21099000  1.0 -0.4500609805
N  N39  1  0.22767000  0.04881000  0.23153000  1.0 -0.2131924832
N  N40  1  0.15692000  0.15830000  0.20232000  1.0 -0.4216174545
N  N41  1  0.70679000  0.01911000  0.48957000  1.0 -0.4500609805
N  N42  1  0.76421000  0.02447000  0.43657000  1.0 -0.2131924832
N  N43  1  0.79677000  0.01759000  0.33233000  1.0 -0.4216174545
N  N44  1  0.84478000  0.01094000  0.29106000  1.0 -0.4252752405
N  N45  1  0.83914000  0.02150000  0.33254000  1.0 -0.4216174545
N  N46  1  0.77348000  0.99650000  0.26564000  1.0 -0.2202514714
N  N47  1  0.95067000  0.00713000  0.26839000  1.0 -0.2202514714
N  N48  1  0.00255000  0.99661000  0.21099000  1.0 -0.4500609805
N  N49  1  0.04881000  0.99199000  0.23153000  1.0 -0.2131924832
N  N50  1  0.15830000  0.98246000  0.20232000  1.0 -0.4216174545
N  N51  1  0.28453000  0.48957000  0.01911000  1.0 -0.4500609805
N  N52  1  0.27475000  0.43657000  0.02447000  1.0 -0.2131924832
N  N53  1  0.35331000  0.33233000  0.01759000  1.0 -0.4216174545
N  N54  1  0.35322000  0.29106000  0.01094000  1.0 -0.4252752405
N  N55  1  0.30682000  0.33254000  0.02150000  1.0 -0.4216174545
N  N56  1  0.46438000  0.26564000  0.99650000  1.0 -0.2202514714
N  N57  1  0.27381000  0.26839000  0.00713000  1.0 -0.2202514714
N  N58  1  0.28985000  0.21099000  0.99661000  1.0 -0.4500609805
N  N59  1  0.22767000  0.23153000  0.99199000  1.0 -0.2131924832
N  N60  1  0.15692000  0.20232000  0.98246000  1.0 -0.4216174545
N  N61  1  0.01911000  0.70679000  0.28453000  1.0 -0.4500609805
N  N62  1  0.02447000  0.76421000  0.27475000  1.0 -0.2131924832
N  N63  1  0.01759000  0.79677000  0.35331000  1.0 -0.4216174545
N  N64  1  0.01094000  0.84478000  0.35322000  1.0 -0.4216174545
N  N65  1  0.02150000  0.83914000  0.30682000  1.0 -0.4216174545
N  N66  1  0.99650000  0.77348000  0.46438000  1.0 -0.2202514714
N  N67  1  0.00713000  0.95067000  0.27381000  1.0 -0.2202514714
N  N68  1  0.99661000  0.00255000  0.28985000  1.0 -0.4500609805
N  N69  1  0.99199000  0.04881000  0.22767000  1.0 -0.2131924832
N  N70  1  0.98246000  0.15830000  0.15692000  1.0 -0.4216174545
N  N71  1  0.48957000  0.28453000  0.70679000  1.0 -0.4500609805
N  N72  1  0.43657000  0.27475000  0.76421000  1.0 -0.2131924832
N  N73  1  0.33233000  0.35331000  0.79677000  1.0 -0.4216174545
N  N74  1  0.29106000  0.35322000  0.84478000  1.0 -0.4216174545
N  N75  1  0.33254000  0.30682000  0.83914000  1.0 -0.4216174545
N  N76  1  0.26564000  0.46438000  0.77348000  1.0 -0.2202514714
N  N77  1  0.26839000  0.27381000  0.95067000  1.0 -0.2202514714
N  N78  1  0.21099000  0.28985000  0.00255000  1.0 -0.4500609805
N  N79  1  0.23153000  0.22767000  0.04881000  1.0 -0.2131924832
N  N80  1  0.20232000  0.15692000  0.15830000  1.0 -0.4216174545
N  N81  1  0.48957000  0.70679000  0.01911000  1.0 -0.4500609805
N  N82  1  0.43657000  0.76421000  0.02447000  1.0 -0.2131924832
N  N83  1  0.33233000  0.79677000  0.01759000  1.0 -0.4252752405
N  N84  1  0.29106000  0.84478000  0.01094000  1.0 -0.4252752405
N  N85  1  0.33254000  0.83914000  0.02150000  1.0 -0.4216174545
N  N86  1  0.26564000  0.77348000  0.99650000  1.0 -0.2202514714
N  N87  1  0.26839000  0.95067000  0.00713000  1.0 -0.2252094883
N  N88  1  0.21099000  0.00255000  0.99661000  1.0 -0.4500609805
N  N89  1  0.23153000  0.04881000  0.99199000  1.0 -0.2131924832
N  N90  1  0.20232000  0.15830000  0.98246000  1.0 -0.4216174545
N  N91  1  0.01911000  0.28453000  0.48957000  1.0 -0.4500609805
N  N92  1  0.02447000  0.27475000  0.43657000  1.0 -0.2131924832
N  N93  1  0.01759000  0.35331000  0.33233000  1.0 -0.4216174545
N  N94  1  0.01094000  0.35322000  0.29106000  1.0 -0.4252752405
N  N95  1  0.02150000  0.30682000  0.33254000  1.0 -0.4216174545
N  N96  1  0.99650000  0.46438000  0.26564000  1.0 -0.2202514714
N  N97  1  0.00713000  0.27381000  0.26839000  1.0 -0.2202514714
N  N98  1  0.99661000  0.28985000  0.21099000  1.0 -0.4500609805
N  N99  1  0.99199000  0.22767000  0.23153000  1.0 -0.2131924832
N  N100  1  0.98246000  0.15692000  0.20232000  1.0 -0.4216174545
N  N101  1  0.28453000  0.01911000  0.70679000  1.0 -0.4500609805
N  N102  1  0.27475000  0.02447000  0.76421000  1.0 -0.2131924832
N  N103  1  0.35331000  0.01759000  0.79677000  1.0 -0.4216174545
N  N104  1  0.35322000  0.01094000  0.84478000  1.0 -0.4216174545
N  N105  1  0.30682000  0.02150000  0.83914000  1.0 -0.4216174545
N  N106  1  0.46438000  0.99650000  0.77348000  1.0 -0.2202514714
N  N107  1  0.27381000  0.00713000  0.95067000  1.0 -0.2202514714
N  N108  1  0.28985000  0.99661000  0.00255000  1.0 -0.4500609805
N  N109  1  0.22767000  0.99199000  0.04881000  1.0 -0.2131924832
N  N110  1  0.15692000  0.98246000  0.15830000  1.0 -0.4216174545
N  N111  1  0.70679000  0.48957000  0.28453000  1.0 -0.4500609805
N  N112  1  0.76421000  0.43657000  0.27475000  1.0 -0.2131924832
N  N113  1  0.79677000  0.33233000  0.35331000  1.0 -0.4216174545
N  N114  1  0.84478000  0.29106000  0.35322000  1.0 -0.4252752405
N  N115  1  0.83914000  0.33254000  0.30682000  1.0 -0.4216174545
N  N116  1  0.77348000  0.26564000  0.46438000  1.0 -0.2202514714
N  N117  1  0.95067000  0.26839000  0.27381000  1.0 -0.2202514714
N  N118  1  0.00255000  0.21099000  0.28985000  1.0 -0.4500609805
N  N119  1  0.04881000  0.23153000  0.22767000  1.0 -0.2131924832
N  N120  1  0.15830000  0.20232000  0.15692000  1.0 -0.4216174545
N  N121  1  0.48089000  0.01043000  0.21547000  1.0 -0.4500609805
N  N122  1  0.47553000  0.06343000  0.22525000  1.0 -0.2131924832
N  N123  1  0.48241000  0.16767000  0.14669000  1.0 -0.4216174545
N  N124  1  0.48906000  0.20894000  0.14678000  1.0 -0.4252752405
N  N125  1  0.47850000  0.16746000  0.19318000  1.0 -0.4216174545
N  N126  1  0.50350000  0.23436000  0.03562000  1.0 -0.2202514714
N  N127  1  0.49287000  0.23161000  0.22619000  1.0 -0.2202514714
N  N128  1  0.50339000  0.28901000  0.21015000  1.0 -0.4500609805
N  N129  1  0.50801000  0.26847000  0.27233000  1.0 -0.2131924832
N  N130  1  0.51754000  0.29768000  0.34308000  1.0 -0.4216174545
N  N131  1  0.01043000  0.48089000  0.79321000  1.0 -0.4500609805
N  N132  1  0.06343000  0.47553000  0.73579000  1.0 -0.2131924832
N  N133  1  0.16767000  0.48241000  0.70323000  1.0 -0.4216174545
N  N134  1  0.20894000  0.48906000  0.65522000  1.0 -0.4216174545
N  N135  1  0.16746000  0.47850000  0.66086000  1.0 -0.4216174545
N  N136  1  0.23436000  0.50350000  0.72652000  1.0 -0.2202514714
N  N137  1  0.23161000  0.49287000  0.54933000  1.0 -0.2252094883
N  N138  1  0.28901000  0.50339000  0.49745000  1.0 -0.4500609805
N  N139  1  0.26847000  0.50801000  0.45119000  1.0 -0.2131924832
N  N140  1  0.29768000  0.51754000  0.34170000  1.0 -0.4216174545
N  N141  1  0.79321000  0.21547000  0.01043000  1.0 -0.4500609805
N  N142  1  0.73579000  0.22525000  0.06343000  1.0 -0.2131924832
N  N143  1  0.70323000  0.14669000  0.16767000  1.0 -0.4252752405
N  N144  1  0.65522000  0.14678000  0.20894000  1.0 -0.4252752405
N  N145  1  0.66086000  0.19318000  0.16746000  1.0 -0.4216174545
N  N146  1  0.72652000  0.03562000  0.23436000  1.0 -0.2202514714
N  N147  1  0.54933000  0.22619000  0.23161000  1.0 -0.2202514714
N  N148  1  0.49745000  0.21015000  0.28901000  1.0 -0.4500609805
N  N149  1  0.45119000  0.27233000  0.26847000  1.0 -0.2131924832
N  N150  1  0.34170000  0.34308000  0.29768000  1.0 -0.4216174545
N  N151  1  0.21547000  0.79321000  0.48089000  1.0 -0.4500609805
N  N152  1  0.22525000  0.73579000  0.47553000  1.0 -0.2131924832
N  N153  1  0.14669000  0.70323000  0.48241000  1.0 -0.4216174545
N  N154  1  0.14678000  0.65522000  0.48906000  1.0 -0.4216174545
N  N155  1  0.19318000  0.66086000  0.47850000  1.0 -0.4216174545
N  N156  1  0.03562000  0.72652000  0.50350000  1.0 -0.2202514714
N  N157  1  0.22619000  0.54933000  0.49287000  1.0 -0.2252094883
N  N158  1  0.21015000  0.49745000  0.50339000  1.0 -0.4500609805
N  N159  1  0.27233000  0.45119000  0.50801000  1.0 -0.2131924832
N  N160  1  0.34308000  0.34170000  0.51754000  1.0 -0.4216174545
N  N161  1  0.79321000  0.48089000  0.21547000  1.0 -0.4500609805
N  N162  1  0.73579000  0.47553000  0.22525000  1.0 -0.2131924832
N  N163  1  0.70323000  0.48241000  0.14669000  1.0 -0.4216174545
N  N164  1  0.65522000  0.48906000  0.14678000  1.0 -0.4252752405
N  N165  1  0.66086000  0.47850000  0.19318000  1.0 -0.4216174545
N  N166  1  0.72652000  0.50350000  0.03562000  1.0 -0.2202514714
N  N167  1  0.54933000  0.49287000  0.22619000  1.0 -0.2202514714
N  N168  1  0.49745000  0.50339000  0.21015000  1.0 -0.4500609805
N  N169  1  0.45119000  0.50801000  0.27233000  1.0 -0.2131924832
N  N170  1  0.34170000  0.51754000  0.34308000  1.0 -0.4216174545
N  N171  1  0.21547000  0.01043000  0.79321000  1.0 -0.4500609805
N  N172  1  0.22525000  0.06343000  0.73579000  1.0 -0.2131924832
N  N173  1  0.14669000  0.16767000  0.70323000  1.0 -0.4216174545
N  N174  1  0.14678000  0.20894000  0.65522000  1.0 -0.4252752405
N  N175  1  0.19318000  0.16746000  0.66086000  1.0 -0.4216174545
N  N176  1  0.03562000  0.23436000  0.72652000  1.0 -0.2202514714
N  N177  1  0.22619000  0.23161000  0.54933000  1.0 -0.2202514714
N  N178  1  0.21015000  0.28901000  0.49745000  1.0 -0.4500609805
N  N179  1  0.27233000  0.26847000  0.45119000  1.0 -0.2131924832
N  N180  1  0.34308000  0.29768000  0.34170000  1.0 -0.4216174545
N  N181  1  0.48089000  0.79321000  0.01043000  1.0 -0.4500609805
N  N182  1  0.47553000  0.73579000  0.06343000  1.0 -0.2131924832
N  N183  1  0.48241000  0.70323000  0.16767000  1.0 -0.4216174545
N  N184  1  0.48906000  0.65522000  0.20894000  1.0 -0.4252752405
N  N185  1  0.47850000  0.66086000  0.16746000  1.0 -0.4216174545
N  N186  1  0.50350000  0.72652000  0.23436000  1.0 -0.2202514714
N  N187  1  0.49287000  0.54933000  0.23161000  1.0 -0.2252094883
N  N188  1  0.50339000  0.49745000  0.28901000  1.0 -0.4500609805
N  N189  1  0.50801000  0.45119000  0.26847000  1.0 -0.2131924832
N  N190  1  0.51754000  0.34170000  0.29768000  1.0 -0.4216174545
N  N191  1  0.01043000  0.21547000  0.48089000  1.0 -0.4500609805
N  N192  1  0.06343000  0.22525000  0.47553000  1.0 -0.2131924832
N  N193  1  0.16767000  0.14669000  0.48241000  1.0 -0.4216174545
N  N194  1  0.20894000  0.14678000  0.48906000  1.0 -0.4252752405
N  N195  1  0.16746000  0.19318000  0.47850000  1.0 -0.4216174545
N  N196  1  0.23436000  0.03562000  0.50350000  1.0 -0.2202514714
N  N197  1  0.23161000  0.22619000  0.49287000  1.0 -0.2202514714
N  N198  1  0.28901000  0.21015000  0.50339000  1.0 -0.4500609805
N  N199  1  0.26847000  0.27233000  0.50801000  1.0 -0.2131924832
N  N200  1  0.29768000  0.34308000  0.51754000  1.0 -0.4216174545
N  N201  1  0.01043000  0.79321000  0.21547000  1.0 -0.4500609805
N  N202  1  0.06343000  0.73579000  0.22525000  1.0 -0.2131924832
N  N203  1  0.16767000  0.70323000  0.14669000  1.0 -0.4216174545
N  N204  1  0.20894000  0.65522000  0.14678000  1.0 -0.4252752405
N  N205  1  0.16746000  0.66086000  0.19318000  1.0 -0.4216174545
N  N206  1  0.23436000  0.72652000  0.03562000  1.0 -0.2202514714
N  N207  1  0.23161000  0.54933000  0.22619000  1.0 -0.2252094883
N  N208  1  0.28901000  0.49745000  0.21015000  1.0 -0.4500609805
N  N209  1  0.26847000  0.45119000  0.27233000  1.0 -0.2131924832
N  N210  1  0.29768000  0.34170000  0.34308000  1.0 -0.4216174545
N  N211  1  0.48089000  0.21547000  0.79321000  1.0 -0.4500609805
N  N212  1  0.47553000  0.22525000  0.73579000  1.0 -0.2131924832
N  N213  1  0.48241000  0.14669000  0.70323000  1.0 -0.4216174545
N  N214  1  0.48906000  0.14678000  0.65522000  1.0 -0.4252752405
N  N215  1  0.47850000  0.19318000  0.66086000  1.0 -0.4216174545
N  N216  1  0.50350000  0.03562000  0.72652000  1.0 -0.2202514714
N  N217  1  0.49287000  0.22619000  0.54933000  1.0 -0.2202514714
N  N218  1  0.50339000  0.21015000  0.49745000  1.0 -0.4500609805
N  N219  1  0.50801000  0.27233000  0.45119000  1.0 -0.2131924832
N  N220  1  0.51754000  0.34308000  0.34170000  1.0 -0.4216174545
N  N221  1  0.21547000  0.48089000  0.01043000  1.0 -0.4500609805
N  N222  1  0.22525000  0.47553000  0.06343000  1.0 -0.2131924832
N  N223  1  0.14669000  0.48241000  0.16767000  1.0 -0.4216174545
N  N224  1  0.14678000  0.48906000  0.20894000  1.0 -0.4252752405
N  N225  1  0.19318000  0.47850000  0.16746000  1.0 -0.4216174545
N  N226  1  0.03562000  0.50350000  0.23436000  1.0 -0.2202514714
N  N227  1  0.22619000  0.49287000  0.23161000  1.0 -0.2202514714
N  N228  1  0.21015000  0.50339000  0.28901000  1.0 -0.4500609805
N  N229  1  0.27233000  0.50801000  0.26847000  1.0 -0.2131924832
N  N230  1  0.34308000  0.51754000  0.29768000  1.0 -0.4216174545
N  N231  1  0.79321000  0.01043000  0.48089000  1.0 -0.4500609805
N  N232  1  0.73579000  0.06343000  0.47553000  1.0 -0.2131924832
N  N233  1  0.70323000  0.16767000  0.48241000  1.0 -0.4216174545
N  N234  1  0.65522000  0.20894000  0.48906000  1.0 -0.4252752405
N  N235  1  0.66086000  0.16746000  0.47850000  1.0 -0.4216174545
N  N236  1  0.72652000  0.23436000  0.50350000  1.0 -0.2202514714
N  N237  1  0.54933000  0.23161000  0.49287000  1.0 -0.2202514714
N  N238  1  0.49745000  0.28901000  0.50339000  1.0 -0.4500609805
N  N239  1  0.45119000  0.26847000  0.50801000  1.0 -0.2131924832
N  N240  1  0.34170000  0.29768000  0.51754000  1.0 -0.4216174545
N  N241  1  0.98089000  0.51043000  0.29321000  1.0 -0.4500609805
N  N242  1  0.97553000  0.56343000  0.23579000  1.0 -0.2131924832
N  N243  1  0.98241000  0.66767000  0.20323000  1.0 -0.4216174545
N  N244  1  0.98906000  0.70894000  0.15522000  1.0 -0.4252752405
N  N245  1  0.97850000  0.66746000  0.16086000  1.0 -0.4216174545
N  N246  1  0.00350000  0.73436000  0.22652000  1.0 -0.2202514714
N  N247  1  0.99287000  0.73161000  0.04933000  1.0 -0.2252094883
N  N248  1  0.00339000  0.78901000  0.99745000  1.0 -0.4500609805
N  N249  1  0.00801000  0.76847000  0.95119000  1.0 -0.2131924832
N  N250  1  0.01754000  0.79768000  0.84170000  1.0 -0.4216174545
N  N251  1  0.51043000  0.98089000  0.71547000  1.0 -0.4500609805
N  N252  1  0.56343000  0.97553000  0.72525000  1.0 -0.2131924832
N  N253  1  0.66767000  0.98241000  0.64669000  1.0 -0.4216174545
N  N254  1  0.70894000  0.98906000  0.64678000  1.0 -0.4216174545
N  N255  1  0.66746000  0.97850000  0.69318000  1.0 -0.4216174545
N  N256  1  0.73436000  0.00350000  0.53562000  1.0 -0.2202514714
N  N257  1  0.73161000  0.99287000  0.72619000  1.0 -0.2252094883
N  N258  1  0.78901000  0.00339000  0.71015000  1.0 -0.4500609805
N  N259  1  0.76847000  0.00801000  0.77233000  1.0 -0.2131924832
N  N260  1  0.79768000  0.01754000  0.84308000  1.0 -0.4216174545
N  N261  1  0.29321000  0.71547000  0.98089000  1.0 -0.4500609805
N  N262  1  0.23579000  0.72525000  0.97553000  1.0 -0.2131924832
N  N263  1  0.20323000  0.64669000  0.98241000  1.0 -0.4216174545
N  N264  1  0.15522000  0.64678000  0.98906000  1.0 -0.4216174545
N  N265  1  0.16086000  0.69318000  0.97850000  1.0 -0.4216174545
N  N266  1  0.22652000  0.53562000  0.00350000  1.0 -0.2202514714
N  N267  1  0.04933000  0.72619000  0.99287000  1.0 -0.2202514714
N  N268  1  0.99745000  0.71015000  0.00339000  1.0 -0.4500609805
N  N269  1  0.95119000  0.77233000  0.00801000  1.0 -0.2131924832
N  N270  1  0.84170000  0.84308000  0.01754000  1.0 -0.4216174545
N  N271  1  0.71547000  0.29321000  0.51043000  1.0 -0.4500609805
N  N272  1  0.72525000  0.23579000  0.56343000  1.0 -0.2131924832
N  N273  1  0.64669000  0.20323000  0.66767000  1.0 -0.4216174545
N  N274  1  0.64678000  0.15522000  0.70894000  1.0 -0.4216174545
N  N275  1  0.69318000  0.16086000  0.66746000  1.0 -0.4216174545
N  N276  1  0.53562000  0.22652000  0.73436000  1.0 -0.2202514714
N  N277  1  0.72619000  0.04933000  0.73161000  1.0 -0.2202514714
N  N278  1  0.71015000  0.99745000  0.78901000  1.0 -0.4500609805
N  N279  1  0.77233000  0.95119000  0.76847000  1.0 -0.2131924832
N  N280  1  0.84308000  0.84170000  0.79768000  1.0 -0.4216174545
N  N281  1  0.29321000  0.98089000  0.51043000  1.0 -0.4500609805
N  N282  1  0.23579000  0.97553000  0.56343000  1.0 -0.2131924832
N  N283  1  0.20323000  0.98241000  0.66767000  1.0 -0.4216174545
N  N284  1  0.15522000  0.98906000  0.70894000  1.0 -0.4216174545
N  N285  1  0.16086000  0.97850000  0.66746000  1.0 -0.4216174545
N  N286  1  0.22652000  0.00350000  0.73436000  1.0 -0.2202514714
N  N287  1  0.04933000  0.99287000  0.73161000  1.0 -0.2252094883
N  N288  1  0.99745000  0.00339000  0.78901000  1.0 -0.4500609805
N  N289  1  0.95119000  0.00801000  0.76847000  1.0 -0.2131924832
N  N290  1  0.84170000  0.01754000  0.79768000  1.0 -0.4216174545
N  N291  1  0.71547000  0.51043000  0.98089000  1.0 -0.4500609805
N  N292  1  0.72525000  0.56343000  0.97553000  1.0 -0.2131924832
N  N293  1  0.64669000  0.66767000  0.98241000  1.0 -0.4216174545
N  N294  1  0.64678000  0.70894000  0.98906000  1.0 -0.4216174545
N  N295  1  0.69318000  0.66746000  0.97850000  1.0 -0.4216174545
N  N296  1  0.53562000  0.73436000  0.00350000  1.0 -0.2202514714
N  N297  1  0.72619000  0.73161000  0.99287000  1.0 -0.2252094883
N  N298  1  0.71015000  0.78901000  0.00339000  1.0 -0.4500609805
N  N299  1  0.77233000  0.76847000  0.00801000  1.0 -0.2131924832
N  N300  1  0.84308000  0.79768000  0.01754000  1.0 -0.4216174545
N  N301  1  0.98089000  0.29321000  0.71547000  1.0 -0.4500609805
N  N302  1  0.97553000  0.23579000  0.72525000  1.0 -0.2131924832
N  N303  1  0.98241000  0.20323000  0.64669000  1.0 -0.4216174545
N  N304  1  0.98906000  0.15522000  0.64678000  1.0 -0.4252752405
N  N305  1  0.97850000  0.16086000  0.69318000  1.0 -0.4216174545
N  N306  1  0.00350000  0.22652000  0.53562000  1.0 -0.2202514714
N  N307  1  0.99287000  0.04933000  0.72619000  1.0 -0.2202514714
N  N308  1  0.00339000  0.99745000  0.71015000  1.0 -0.4500609805
N  N309  1  0.00801000  0.95119000  0.77233000  1.0 -0.2131924832
N  N310  1  0.01754000  0.84170000  0.84308000  1.0 -0.4216174545
N  N311  1  0.51043000  0.71547000  0.29321000  1.0 -0.4500609805
N  N312  1  0.56343000  0.72525000  0.23579000  1.0 -0.2131924832
N  N313  1  0.66767000  0.64669000  0.20323000  1.0 -0.4252752405
N  N314  1  0.70894000  0.64678000  0.15522000  1.0 -0.4252752405
N  N315  1  0.66746000  0.69318000  0.16086000  1.0 -0.4216174545
N  N316  1  0.73436000  0.53562000  0.22652000  1.0 -0.2202514714
N  N317  1  0.73161000  0.72619000  0.04933000  1.0 -0.2252094883
N  N318  1  0.78901000  0.71015000  0.99745000  1.0 -0.4500609805
N  N319  1  0.76847000  0.77233000  0.95119000  1.0 -0.2131924832
N  N320  1  0.79768000  0.84308000  0.84170000  1.0 -0.4216174545
N  N321  1  0.51043000  0.29321000  0.98089000  1.0 -0.4500609805
N  N322  1  0.56343000  0.23579000  0.97553000  1.0 -0.2131924832
N  N323  1  0.66767000  0.20323000  0.98241000  1.0 -0.4216174545
N  N324  1  0.70894000  0.15522000  0.98906000  1.0 -0.4216174545
N  N325  1  0.66746000  0.16086000  0.97850000  1.0 -0.4216174545
N  N326  1  0.73436000  0.22652000  0.00350000  1.0 -0.2202514714
N  N327  1  0.73161000  0.04933000  0.99287000  1.0 -0.2202514714
N  N328  1  0.78901000  0.99745000  0.00339000  1.0 -0.4500609805
N  N329  1  0.76847000  0.95119000  0.00801000  1.0 -0.2131924832
N  N330  1  0.79768000  0.84170000  0.01754000  1.0 -0.4216174545
N  N331  1  0.98089000  0.71547000  0.51043000  1.0 -0.4500609805
N  N332  1  0.97553000  0.72525000  0.56343000  1.0 -0.2131924832
N  N333  1  0.98241000  0.64669000  0.66767000  1.0 -0.4216174545
N  N334  1  0.98906000  0.64678000  0.70894000  1.0 -0.4216174545
N  N335  1  0.97850000  0.69318000  0.66746000  1.0 -0.4216174545
N  N336  1  0.00350000  0.53562000  0.73436000  1.0 -0.2202514714
N  N337  1  0.99287000  0.72619000  0.73161000  1.0 -0.2252094883
N  N338  1  0.00339000  0.71015000  0.78901000  1.0 -0.4500609805
N  N339  1  0.00801000  0.77233000  0.76847000  1.0 -0.2131924832
N  N340  1  0.01754000  0.84308000  0.79768000  1.0 -0.4216174545
N  N341  1  0.71547000  0.98089000  0.29321000  1.0 -0.4500609805
N  N342  1  0.72525000  0.97553000  0.23579000  1.0 -0.2131924832
N  N343  1  0.64669000  0.98241000  0.20323000  1.0 -0.4216174545
N  N344  1  0.64678000  0.98906000  0.15522000  1.0 -0.4252752405
N  N345  1  0.69318000  0.97850000  0.16086000  1.0 -0.4216174545
N  N346  1  0.53562000  0.00350000  0.22652000  1.0 -0.2202514714
N  N347  1  0.72619000  0.99287000  0.04933000  1.0 -0.2252094883
N  N348  1  0.71015000  0.00339000  0.99745000  1.0 -0.4500609805
N  N349  1  0.77233000  0.00801000  0.95119000  1.0 -0.2131924832
N  N350  1  0.84308000  0.01754000  0.84170000  1.0 -0.4216174545
N  N351  1  0.29321000  0.51043000  0.71547000  1.0 -0.4500609805
N  N352  1  0.23579000  0.56343000  0.72525000  1.0 -0.2131924832
N  N353  1  0.20323000  0.66767000  0.64669000  1.0 -0.4216174545
N  N354  1  0.15522000  0.70894000  0.64678000  1.0 -0.4216174545
N  N355  1  0.16086000  0.66746000  0.69318000  1.0 -0.4216174545
N  N356  1  0.22652000  0.73436000  0.53562000  1.0 -0.2202514714
N  N357  1  0.04933000  0.73161000  0.72619000  1.0 -0.2252094883
N  N358  1  0.99745000  0.78901000  0.71015000  1.0 -0.4500609805
N  N359  1  0.95119000  0.76847000  0.77233000  1.0 -0.2131924832
N  N360  1  0.84170000  0.79768000  0.84308000  1.0 -0.4216174545
N  N361  1  0.51911000  0.98957000  0.78453000  1.0 -0.4500609805
N  N362  1  0.52447000  0.93657000  0.77475000  1.0 -0.2131924832
N  N363  1  0.51759000  0.83233000  0.85331000  1.0 -0.4216174545
N  N364  1  0.51094000  0.79106000  0.85322000  1.0 -0.4216174545
N  N365  1  0.52150000  0.83254000  0.80682000  1.0 -0.4216174545
N  N366  1  0.49650000  0.76564000  0.96438000  1.0 -0.2202514714
N  N367  1  0.50713000  0.76839000  0.77381000  1.0 -0.2202514714
N  N368  1  0.49661000  0.71099000  0.78985000  1.0 -0.4500609805
N  N369  1  0.49199000  0.73153000  0.72767000  1.0 -0.2131924832
N  N370  1  0.48246000  0.70232000  0.65692000  1.0 -0.4216174545
N  N371  1  0.98957000  0.51911000  0.20679000  1.0 -0.4500609805
N  N372  1  0.93657000  0.52447000  0.26421000  1.0 -0.2131924832
N  N373  1  0.83233000  0.51759000  0.29677000  1.0 -0.4216174545
N  N374  1  0.79106000  0.51094000  0.34478000  1.0 -0.4252752405
N  N375  1  0.83254000  0.52150000  0.33914000  1.0 -0.4216174545
N  N376  1  0.76564000  0.49650000  0.27348000  1.0 -0.2202514714
N  N377  1  0.76839000  0.50713000  0.45067000  1.0 -0.2252094883
N  N378  1  0.71099000  0.49661000  0.50255000  1.0 -0.4500609805
N  N379  1  0.73153000  0.49199000  0.54881000  1.0 -0.2131924832
N  N380  1  0.70232000  0.48246000  0.65830000  1.0 -0.4216174545
N  N381  1  0.20679000  0.78453000  0.98957000  1.0 -0.4500609805
N  N382  1  0.26421000  0.77475000  0.93657000  1.0 -0.2131924832
N  N383  1  0.29677000  0.85331000  0.83233000  1.0 -0.4216174545
N  N384  1  0.34478000  0.85322000  0.79106000  1.0 -0.4216174545
N  N385  1  0.33914000  0.80682000  0.83254000  1.0 -0.4216174545
N  N386  1  0.27348000  0.96438000  0.76564000  1.0 -0.2202514714
N  N387  1  0.45067000  0.77381000  0.76839000  1.0 -0.2252094883
N  N388  1  0.50255000  0.78985000  0.71099000  1.0 -0.4500609805
N  N389  1  0.54881000  0.72767000  0.73153000  1.0 -0.2131924832
N  N390  1  0.65830000  0.65692000  0.70232000  1.0 -0.4216174545
N  N391  1  0.78453000  0.20679000  0.51911000  1.0 -0.4500609805
N  N392  1  0.77475000  0.26421000  0.52447000  1.0 -0.2131924832
N  N393  1  0.85331000  0.29677000  0.51759000  1.0 -0.4216174545
N  N394  1  0.85322000  0.34478000  0.51094000  1.0 -0.4252752405
N  N395  1  0.80682000  0.33914000  0.52150000  1.0 -0.4216174545
N  N396  1  0.96438000  0.27348000  0.49650000  1.0 -0.2202514714
N  N397  1  0.77381000  0.45067000  0.50713000  1.0 -0.2252094883
N  N398  1  0.78985000  0.50255000  0.49661000  1.0 -0.4500609805
N  N399  1  0.72767000  0.54881000  0.49199000  1.0 -0.2131924832
N  N400  1  0.65692000  0.65830000  0.48246000  1.0 -0.4216174545
N  N401  1  0.20679000  0.51911000  0.78453000  1.0 -0.4500609805
N  N402  1  0.26421000  0.52447000  0.77475000  1.0 -0.2131924832
N  N403  1  0.29677000  0.51759000  0.85331000  1.0 -0.4216174545
N  N404  1  0.34478000  0.51094000  0.85322000  1.0 -0.4216174545
N  N405  1  0.33914000  0.52150000  0.80682000  1.0 -0.4216174545
N  N406  1  0.27348000  0.49650000  0.96438000  1.0 -0.2202514714
N  N407  1  0.45067000  0.50713000  0.77381000  1.0 -0.2252094883
N  N408  1  0.50255000  0.49661000  0.78985000  1.0 -0.4500609805
N  N409  1  0.54881000  0.49199000  0.72767000  1.0 -0.2131924832
N  N410  1  0.65830000  0.48246000  0.65692000  1.0 -0.4216174545
N  N411  1  0.78453000  0.98957000  0.20679000  1.0 -0.4500609805
N  N412  1  0.77475000  0.93657000  0.26421000  1.0 -0.2131924832
N  N413  1  0.85331000  0.83233000  0.29677000  1.0 -0.4216174545
N  N414  1  0.85322000  0.79106000  0.34478000  1.0 -0.4252752405
N  N415  1  0.80682000  0.83254000  0.33914000  1.0 -0.4216174545
N  N416  1  0.96438000  0.76564000  0.27348000  1.0 -0.2202514714
N  N417  1  0.77381000  0.76839000  0.45067000  1.0 -0.2252094883
N  N418  1  0.78985000  0.71099000  0.50255000  1.0 -0.4500609805
N  N419  1  0.72767000  0.73153000  0.54881000  1.0 -0.2131924832
N  N420  1  0.65692000  0.70232000  0.65830000  1.0 -0.4216174545
N  N421  1  0.51911000  0.20679000  0.98957000  1.0 -0.4500609805
N  N422  1  0.52447000  0.26421000  0.93657000  1.0 -0.2131924832
N  N423  1  0.51759000  0.29677000  0.83233000  1.0 -0.4216174545
N  N424  1  0.51094000  0.34478000  0.79106000  1.0 -0.4216174545
N  N425  1  0.52150000  0.33914000  0.83254000  1.0 -0.4216174545
N  N426  1  0.49650000  0.27348000  0.76564000  1.0 -0.2202514714
N  N427  1  0.50713000  0.45067000  0.76839000  1.0 -0.2252094883
N  N428  1  0.49661000  0.50255000  0.71099000  1.0 -0.4500609805
N  N429  1  0.49199000  0.54881000  0.73153000  1.0 -0.2131924832
N  N430  1  0.48246000  0.65830000  0.70232000  1.0 -0.4216174545
N  N431  1  0.98957000  0.78453000  0.51911000  1.0 -0.4500609805
N  N432  1  0.93657000  0.77475000  0.52447000  1.0 -0.2131924832
N  N433  1  0.83233000  0.85331000  0.51759000  1.0 -0.4216174545
N  N434  1  0.79106000  0.85322000  0.51094000  1.0 -0.4252752405
N  N435  1  0.83254000  0.80682000  0.52150000  1.0 -0.4216174545
N  N436  1  0.76564000  0.96438000  0.49650000  1.0 -0.2202514714
N  N437  1  0.76839000  0.77381000  0.50713000  1.0 -0.2252094883
N  N438  1  0.71099000  0.78985000  0.49661000  1.0 -0.4500609805
N  N439  1  0.73153000  0.72767000  0.49199000  1.0 -0.2131924832
N  N440  1  0.70232000  0.65692000  0.48246000  1.0 -0.4216174545
N  N441  1  0.98957000  0.20679000  0.78453000  1.0 -0.4500609805
N  N442  1  0.93657000  0.26421000  0.77475000  1.0 -0.2131924832
N  N443  1  0.83233000  0.29677000  0.85331000  1.0 -0.4216174545
N  N444  1  0.79106000  0.34478000  0.85322000  1.0 -0.4216174545
N  N445  1  0.83254000  0.33914000  0.80682000  1.0 -0.4216174545
N  N446  1  0.76564000  0.27348000  0.96438000  1.0 -0.2202514714
N  N447  1  0.76839000  0.45067000  0.77381000  1.0 -0.2252094883
N  N448  1  0.71099000  0.50255000  0.78985000  1.0 -0.4500609805
N  N449  1  0.73153000  0.54881000  0.72767000  1.0 -0.2131924832
N  N450  1  0.70232000  0.65830000  0.65692000  1.0 -0.4216174545
N  N451  1  0.51911000  0.78453000  0.20679000  1.0 -0.4500609805
N  N452  1  0.52447000  0.77475000  0.26421000  1.0 -0.2131924832
N  N453  1  0.51759000  0.85331000  0.29677000  1.0 -0.4216174545
N  N454  1  0.51094000  0.85322000  0.34478000  1.0 -0.4216174545
N  N455  1  0.52150000  0.80682000  0.33914000  1.0 -0.4216174545
N  N456  1  0.49650000  0.96438000  0.27348000  1.0 -0.2202514714
N  N457  1  0.50713000  0.77381000  0.45067000  1.0 -0.2252094883
N  N458  1  0.49661000  0.78985000  0.50255000  1.0 -0.4500609805
N  N459  1  0.49199000  0.72767000  0.54881000  1.0 -0.2131924832
N  N460  1  0.48246000  0.65692000  0.65830000  1.0 -0.4216174545
N  N461  1  0.78453000  0.51911000  0.98957000  1.0 -0.4500609805
N  N462  1  0.77475000  0.52447000  0.93657000  1.0 -0.2131924832
N  N463  1  0.85331000  0.51759000  0.83233000  1.0 -0.4216174545
N  N464  1  0.85322000  0.51094000  0.79106000  1.0 -0.4216174545
N  N465  1  0.80682000  0.52150000  0.83254000  1.0 -0.4216174545
N  N466  1  0.96438000  0.49650000  0.76564000  1.0 -0.2202514714
N  N467  1  0.77381000  0.50713000  0.76839000  1.0 -0.2252094883
N  N468  1  0.78985000  0.49661000  0.71099000  1.0 -0.4500609805
N  N469  1  0.72767000  0.49199000  0.73153000  1.0 -0.2131924832
N  N470  1  0.65692000  0.48246000  0.70232000  1.0 -0.4216174545
N  N471  1  0.20679000  0.98957000  0.51911000  1.0 -0.4500609805
N  N472  1  0.26421000  0.93657000  0.52447000  1.0 -0.2131924832
N  N473  1  0.29677000  0.83233000  0.51759000  1.0 -0.4216174545
N  N474  1  0.34478000  0.79106000  0.51094000  1.0 -0.4216174545
N  N475  1  0.33914000  0.83254000  0.52150000  1.0 -0.4216174545
N  N476  1  0.27348000  0.76564000  0.49650000  1.0 -0.2202514714
N  N477  1  0.45067000  0.76839000  0.50713000  1.0 -0.2252094883
N  N478  1  0.50255000  0.71099000  0.49661000  1.0 -0.4500609805
N  N479  1  0.54881000  0.73153000  0.49199000  1.0 -0.2131924832
N  N480  1  0.65830000  0.70232000  0.48246000  1.0 -0.4216174545
