# DDEC6 charges by PACMAN v1.1 (https://github.com/mtap-research/PACMAN-charge/)
data_FALBAX_FSR_pacman
_symmetry_space_group_name_H-M   'P 1'
_cell_length_a   53.02740000
_cell_length_b   53.02740000
_cell_length_c   53.02740000
_cell_angle_alpha   60.00000000
_cell_angle_beta   60.00000000
_cell_angle_gamma   60.00000000
_symmetry_Int_Tables_number   1
_chemical_formula_structural   CoH27C38S3N11O
_chemical_formula_sum   'Co48 H1296 C1824 S144 N528 O48'
_cell_volume   105435.29149954
_cell_formula_units_Z   48
loop_
 _symmetry_equiv_pos_site_id
 _symmetry_equiv_pos_as_xyz
  1  'x, y, z'
loop_
 _atom_site_type_symbol
 _atom_site_label
 _atom_site_symmetry_multiplicity
 _atom_site_fract_x
 _atom_site_fract_y
 _atom_site_fract_z
 _atom_site_occupancy
 _atom_site_charge
Co  Co1  1  0.88936000  0.36064000  0.62500000  1.0 0.6351067011
Co  Co2  1  0.36064000  0.88936000  0.12500000  1.0 0.6344310963
Co  Co3  1  0.88936000  0.12500000  0.36064000  1.0 0.6351067011
Co  Co4  1  0.12500000  0.36064000  0.88936000  1.0 0.6344310963
Co  Co5  1  0.88936000  0.62500000  0.12500000  1.0 0.6351067011
Co  Co6  1  0.36064000  0.12500000  0.62500000  1.0 0.6344310963
Co  Co7  1  0.62500000  0.36064000  0.12500000  1.0 0.6351067011
Co  Co8  1  0.12500000  0.88936000  0.62500000  1.0 0.6344310963
Co  Co9  1  0.62500000  0.12500000  0.88936000  1.0 0.6351067011
Co  Co10  1  0.12500000  0.62500000  0.36064000  1.0 0.6344310963
Co  Co11  1  0.62500000  0.88936000  0.36064000  1.0 0.6351067011
Co  Co12  1  0.36064000  0.62500000  0.88936000  1.0 0.6344310963
Co  Co13  1  0.86064000  0.38936000  0.12500000  1.0 0.6351067011
Co  Co14  1  0.38936000  0.86064000  0.62500000  1.0 0.6344310963
Co  Co15  1  0.86064000  0.62500000  0.38936000  1.0 0.6344310963
Co  Co16  1  0.62500000  0.38936000  0.86064000  1.0 0.6351067011
Co  Co17  1  0.86064000  0.12500000  0.62500000  1.0 0.6351067011
Co  Co18  1  0.38936000  0.62500000  0.12500000  1.0 0.6344310963
Co  Co19  1  0.12500000  0.38936000  0.62500000  1.0 0.6344310963
Co  Co20  1  0.62500000  0.86064000  0.12500000  1.0 0.6351067011
Co  Co21  1  0.12500000  0.62500000  0.86064000  1.0 0.6344310963
Co  Co22  1  0.62500000  0.12500000  0.38936000  1.0 0.6344310963
Co  Co23  1  0.12500000  0.86064000  0.38936000  1.0 0.6344310963
Co  Co24  1  0.38936000  0.12500000  0.86064000  1.0 0.6344310963
Co  Co25  1  0.87448000  0.12552000  0.87448000  1.0 0.6351067011
Co  Co26  1  0.37552000  0.12448000  0.12448000  1.0 0.6344310963
Co  Co27  1  0.12448000  0.12448000  0.37552000  1.0 0.6344310963
Co  Co28  1  0.12448000  0.37552000  0.12448000  1.0 0.6344310963
Co  Co29  1  0.12552000  0.12552000  0.87448000  1.0 0.6344310963
Co  Co30  1  0.37552000  0.37552000  0.12448000  1.0 0.6344310963
Co  Co31  1  0.12552000  0.87448000  0.87448000  1.0 0.6344310963
Co  Co32  1  0.12552000  0.87448000  0.12552000  1.0 0.6344310963
Co  Co33  1  0.12448000  0.37552000  0.37552000  1.0 0.6344310963
Co  Co34  1  0.37552000  0.12448000  0.37552000  1.0 0.6344310963
Co  Co35  1  0.87448000  0.12552000  0.12552000  1.0 0.6344310963
Co  Co36  1  0.87448000  0.87448000  0.12552000  1.0 0.6351067011
Co  Co37  1  0.87552000  0.62448000  0.87552000  1.0 0.6351067011
Co  Co38  1  0.37448000  0.62552000  0.62552000  1.0 0.6344310963
Co  Co39  1  0.62552000  0.62552000  0.37448000  1.0 0.6344310963
Co  Co40  1  0.62552000  0.37448000  0.62552000  1.0 0.6344310963
Co  Co41  1  0.62448000  0.62448000  0.87552000  1.0 0.6351067011
Co  Co42  1  0.37448000  0.37448000  0.62552000  1.0 0.6344310963
Co  Co43  1  0.62448000  0.87552000  0.87552000  1.0 0.6351067011
Co  Co44  1  0.62448000  0.87552000  0.62448000  1.0 0.6351067011
Co  Co45  1  0.62552000  0.37448000  0.37448000  1.0 0.6344310963
Co  Co46  1  0.37448000  0.62552000  0.37448000  1.0 0.6344310963
Co  Co47  1  0.87552000  0.62448000  0.62448000  1.0 0.6351067011
Co  Co48  1  0.87552000  0.87552000  0.62448000  1.0 0.6351067011
H  H1  1  0.78510000  0.95610000  0.05630000  1.0 0.128870168
H  H2  1  0.46490000  0.29390000  0.04750000  1.0 0.128870168
H  H3  1  0.29390000  0.04750000  0.46490000  1.0 0.128870168
H  H4  1  0.04750000  0.46490000  0.29390000  1.0 0.128870168
H  H5  1  0.29390000  0.19370000  0.04750000  1.0 0.128870168
H  H6  1  0.95610000  0.20250000  0.05630000  1.0 0.128870168
H  H7  1  0.19370000  0.46490000  0.04750000  1.0 0.128870168
H  H8  1  0.20250000  0.78510000  0.05630000  1.0 0.128870168
H  H9  1  0.19370000  0.04750000  0.29390000  1.0 0.128870168
H  H10  1  0.20250000  0.05630000  0.95610000  1.0 0.128870168
H  H11  1  0.95610000  0.78510000  0.20250000  1.0 0.128870168
H  H12  1  0.29390000  0.46490000  0.19370000  1.0 0.128870168
H  H13  1  0.19370000  0.29390000  0.46490000  1.0 0.128870168
H  H14  1  0.20250000  0.95610000  0.78510000  1.0 0.128870168
H  H15  1  0.46490000  0.19370000  0.29390000  1.0 0.128870168
H  H16  1  0.78510000  0.20250000  0.95610000  1.0 0.128870168
H  H17  1  0.78510000  0.05630000  0.20250000  1.0 0.128870168
H  H18  1  0.05630000  0.95610000  0.20250000  1.0 0.128870168
H  H19  1  0.04750000  0.29390000  0.19370000  1.0 0.128870168
H  H20  1  0.46490000  0.04750000  0.19370000  1.0 0.128870168
H  H21  1  0.05630000  0.20250000  0.78510000  1.0 0.128870168
H  H22  1  0.04750000  0.19370000  0.46490000  1.0 0.128870168
H  H23  1  0.95610000  0.05630000  0.78510000  1.0 0.128870168
H  H24  1  0.05630000  0.78510000  0.95610000  1.0 0.128870168
H  H25  1  0.96490000  0.79390000  0.69370000  1.0 0.128870168
H  H26  1  0.28510000  0.45610000  0.70250000  1.0 0.128870168
H  H27  1  0.45610000  0.70250000  0.28510000  1.0 0.128870168
H  H28  1  0.70250000  0.28510000  0.45610000  1.0 0.128870168
H  H29  1  0.45610000  0.55630000  0.70250000  1.0 0.128870168
H  H30  1  0.79390000  0.54750000  0.69370000  1.0 0.128870168
H  H31  1  0.55630000  0.28510000  0.70250000  1.0 0.128870168
H  H32  1  0.54750000  0.96490000  0.69370000  1.0 0.128870168
H  H33  1  0.55630000  0.70250000  0.45610000  1.0 0.128870168
H  H34  1  0.54750000  0.69370000  0.79390000  1.0 0.128870168
H  H35  1  0.79390000  0.96490000  0.54750000  1.0 0.128870168
H  H36  1  0.45610000  0.28510000  0.55630000  1.0 0.128870168
H  H37  1  0.55630000  0.45610000  0.28510000  1.0 0.128870168
H  H38  1  0.54750000  0.79390000  0.96490000  1.0 0.128870168
H  H39  1  0.28510000  0.55630000  0.45610000  1.0 0.128870168
H  H40  1  0.96490000  0.54750000  0.79390000  1.0 0.128870168
H  H41  1  0.96490000  0.69370000  0.54750000  1.0 0.128870168
H  H42  1  0.69370000  0.79390000  0.54750000  1.0 0.128870168
H  H43  1  0.70250000  0.45610000  0.55630000  1.0 0.128870168
H  H44  1  0.28510000  0.70250000  0.55630000  1.0 0.128870168
H  H45  1  0.69370000  0.54750000  0.96490000  1.0 0.128870168
H  H46  1  0.70250000  0.55630000  0.28510000  1.0 0.128870168
H  H47  1  0.79390000  0.69370000  0.96490000  1.0 0.128870168
H  H48  1  0.69370000  0.96490000  0.79390000  1.0 0.128870168
H  H49  1  0.77890000  0.00910000  0.03090000  1.0 0.1188968098
H  H50  1  0.47110000  0.24090000  0.06890000  1.0 0.1188968098
H  H51  1  0.24090000  0.06890000  0.47110000  1.0 0.1188968098
H  H52  1  0.06890000  0.47110000  0.24090000  1.0 0.1188968098
H  H53  1  0.24090000  0.21910000  0.06890000  1.0 0.1188968098
H  H54  1  0.00910000  0.18110000  0.03090000  1.0 0.1188968098
H  H55  1  0.21910000  0.47110000  0.06890000  1.0 0.1188968098
H  H56  1  0.18110000  0.77890000  0.03090000  1.0 0.1188968098
H  H57  1  0.21910000  0.06890000  0.24090000  1.0 0.1188968098
H  H58  1  0.18110000  0.03090000  0.00910000  1.0 0.1188968098
H  H59  1  0.00910000  0.77890000  0.18110000  1.0 0.1188968098
H  H60  1  0.24090000  0.47110000  0.21910000  1.0 0.1188968098
H  H61  1  0.21910000  0.24090000  0.47110000  1.0 0.1188968098
H  H62  1  0.18110000  0.00910000  0.77890000  1.0 0.1188968098
H  H63  1  0.47110000  0.21910000  0.24090000  1.0 0.1188968098
H  H64  1  0.77890000  0.18110000  0.00910000  1.0 0.1188968098
H  H65  1  0.77890000  0.03090000  0.18110000  1.0 0.1188968098
H  H66  1  0.03090000  0.00910000  0.18110000  1.0 0.1188968098
H  H67  1  0.06890000  0.24090000  0.21910000  1.0 0.1188968098
H  H68  1  0.47110000  0.06890000  0.21910000  1.0 0.1188968098
H  H69  1  0.03090000  0.18110000  0.77890000  1.0 0.1188968098
H  H70  1  0.06890000  0.21910000  0.47110000  1.0 0.1188968098
H  H71  1  0.00910000  0.03090000  0.77890000  1.0 0.1188968098
H  H72  1  0.03090000  0.77890000  0.00910000  1.0 0.1188968098
H  H73  1  0.97110000  0.74090000  0.71910000  1.0 0.1188968098
H  H74  1  0.27890000  0.50910000  0.68110000  1.0 0.1188968098
H  H75  1  0.50910000  0.68110000  0.27890000  1.0 0.1188968098
H  H76  1  0.68110000  0.27890000  0.50910000  1.0 0.1188968098
H  H77  1  0.50910000  0.53090000  0.68110000  1.0 0.1188968098
H  H78  1  0.74090000  0.56890000  0.71910000  1.0 0.1188968098
H  H79  1  0.53090000  0.27890000  0.68110000  1.0 0.1188968098
H  H80  1  0.56890000  0.97110000  0.71910000  1.0 0.1188968098
H  H81  1  0.53090000  0.68110000  0.50910000  1.0 0.1188968098
H  H82  1  0.56890000  0.71910000  0.74090000  1.0 0.1188968098
H  H83  1  0.74090000  0.97110000  0.56890000  1.0 0.1188968098
H  H84  1  0.50910000  0.27890000  0.53090000  1.0 0.1188968098
H  H85  1  0.53090000  0.50910000  0.27890000  1.0 0.1188968098
H  H86  1  0.56890000  0.74090000  0.97110000  1.0 0.1188968098
H  H87  1  0.27890000  0.53090000  0.50910000  1.0 0.1188968098
H  H88  1  0.97110000  0.56890000  0.74090000  1.0 0.1188968098
H  H89  1  0.97110000  0.71910000  0.56890000  1.0 0.1188968098
H  H90  1  0.71910000  0.74090000  0.56890000  1.0 0.1188968098
H  H91  1  0.68110000  0.50910000  0.53090000  1.0 0.1188968098
H  H92  1  0.27890000  0.68110000  0.53090000  1.0 0.1188968098
H  H93  1  0.71910000  0.56890000  0.97110000  1.0 0.1188968098
H  H94  1  0.68110000  0.53090000  0.27890000  1.0 0.1188968098
H  H95  1  0.74090000  0.71910000  0.97110000  1.0 0.1188968098
H  H96  1  0.71910000  0.97110000  0.74090000  1.0 0.1188968098
H  H97  1  0.86500000  0.98760000  0.96900000  1.0 0.1188968098
H  H98  1  0.38500000  0.26240000  0.07160000  1.0 0.1188968098
H  H99  1  0.26240000  0.07160000  0.38500000  1.0 0.1188968098
H  H100  1  0.07160000  0.38500000  0.26240000  1.0 0.1188968098
H  H101  1  0.26240000  0.28100000  0.07160000  1.0 0.1188968098
H  H102  1  0.98760000  0.17840000  0.96900000  1.0 0.1188968098
H  H103  1  0.28100000  0.38500000  0.07160000  1.0 0.1188968098
H  H104  1  0.17840000  0.86500000  0.96900000  1.0 0.1188968098
H  H105  1  0.28100000  0.07160000  0.26240000  1.0 0.1188968098
H  H106  1  0.17840000  0.96900000  0.98760000  1.0 0.1188968098
H  H107  1  0.98760000  0.86500000  0.17840000  1.0 0.1188968098
H  H108  1  0.26240000  0.38500000  0.28100000  1.0 0.1188968098
H  H109  1  0.28100000  0.26240000  0.38500000  1.0 0.1188968098
H  H110  1  0.17840000  0.98760000  0.86500000  1.0 0.1188968098
H  H111  1  0.38500000  0.28100000  0.26240000  1.0 0.1188968098
H  H112  1  0.86500000  0.17840000  0.98760000  1.0 0.1188968098
H  H113  1  0.86500000  0.96900000  0.17840000  1.0 0.1188968098
H  H114  1  0.96900000  0.98760000  0.17840000  1.0 0.1188968098
H  H115  1  0.07160000  0.26240000  0.28100000  1.0 0.1188968098
H  H116  1  0.38500000  0.07160000  0.28100000  1.0 0.1188968098
H  H117  1  0.96900000  0.17840000  0.86500000  1.0 0.1188968098
H  H118  1  0.07160000  0.28100000  0.38500000  1.0 0.1188968098
H  H119  1  0.98760000  0.96900000  0.86500000  1.0 0.1188968098
H  H120  1  0.96900000  0.86500000  0.98760000  1.0 0.1188968098
H  H121  1  0.88500000  0.76240000  0.78100000  1.0 0.1188968098
H  H122  1  0.36500000  0.48760000  0.67840000  1.0 0.1188968098
H  H123  1  0.48760000  0.67840000  0.36500000  1.0 0.1188968098
H  H124  1  0.67840000  0.36500000  0.48760000  1.0 0.1188968098
H  H125  1  0.48760000  0.46900000  0.67840000  1.0 0.1188968098
H  H126  1  0.76240000  0.57160000  0.78100000  1.0 0.1188968098
H  H127  1  0.46900000  0.36500000  0.67840000  1.0 0.1188968098
H  H128  1  0.57160000  0.88500000  0.78100000  1.0 0.1188968098
H  H129  1  0.46900000  0.67840000  0.48760000  1.0 0.1188968098
H  H130  1  0.57160000  0.78100000  0.76240000  1.0 0.1188968098
H  H131  1  0.76240000  0.88500000  0.57160000  1.0 0.1188968098
H  H132  1  0.48760000  0.36500000  0.46900000  1.0 0.1188968098
H  H133  1  0.46900000  0.48760000  0.36500000  1.0 0.1188968098
H  H134  1  0.57160000  0.76240000  0.88500000  1.0 0.1188968098
H  H135  1  0.36500000  0.46900000  0.48760000  1.0 0.1188968098
H  H136  1  0.88500000  0.57160000  0.76240000  1.0 0.1188968098
H  H137  1  0.88500000  0.78100000  0.57160000  1.0 0.1188968098
H  H138  1  0.78100000  0.76240000  0.57160000  1.0 0.1188968098
H  H139  1  0.67840000  0.48760000  0.46900000  1.0 0.1188968098
H  H140  1  0.36500000  0.67840000  0.46900000  1.0 0.1188968098
H  H141  1  0.78100000  0.57160000  0.88500000  1.0 0.1188968098
H  H142  1  0.67840000  0.46900000  0.36500000  1.0 0.1188968098
H  H143  1  0.76240000  0.78100000  0.88500000  1.0 0.1188968098
H  H144  1  0.78100000  0.88500000  0.76240000  1.0 0.1188968098
H  H145  1  0.87060000  0.93480000  0.99480000  1.0 0.128870168
H  H146  1  0.37940000  0.31520000  0.05020000  1.0 0.128870168
H  H147  1  0.31520000  0.05020000  0.37940000  1.0 0.128870168
H  H148  1  0.05020000  0.37940000  0.31520000  1.0 0.128870168
H  H149  1  0.31520000  0.25520000  0.05020000  1.0 0.128870168
H  H150  1  0.93480000  0.19980000  0.99480000  1.0 0.128870168
H  H151  1  0.25520000  0.37940000  0.05020000  1.0 0.128870168
H  H152  1  0.19980000  0.87060000  0.99480000  1.0 0.128870168
H  H153  1  0.25520000  0.05020000  0.31520000  1.0 0.128870168
H  H154  1  0.19980000  0.99480000  0.93480000  1.0 0.128870168
H  H155  1  0.93480000  0.87060000  0.19980000  1.0 0.128870168
H  H156  1  0.31520000  0.37940000  0.25520000  1.0 0.128870168
H  H157  1  0.25520000  0.31520000  0.37940000  1.0 0.128870168
H  H158  1  0.19980000  0.93480000  0.87060000  1.0 0.128870168
H  H159  1  0.37940000  0.25520000  0.31520000  1.0 0.128870168
H  H160  1  0.87060000  0.19980000  0.93480000  1.0 0.128870168
H  H161  1  0.87060000  0.99480000  0.19980000  1.0 0.128870168
H  H162  1  0.99480000  0.93480000  0.19980000  1.0 0.128870168
H  H163  1  0.05020000  0.31520000  0.25520000  1.0 0.128870168
H  H164  1  0.37940000  0.05020000  0.25520000  1.0 0.128870168
H  H165  1  0.99480000  0.19980000  0.87060000  1.0 0.128870168
H  H166  1  0.05020000  0.25520000  0.37940000  1.0 0.128870168
H  H167  1  0.93480000  0.99480000  0.87060000  1.0 0.128870168
H  H168  1  0.99480000  0.87060000  0.93480000  1.0 0.128870168
H  H169  1  0.87940000  0.81520000  0.75520000  1.0 0.128870168
H  H170  1  0.37060000  0.43480000  0.69980000  1.0 0.128870168
H  H171  1  0.43480000  0.69980000  0.37060000  1.0 0.128870168
H  H172  1  0.69980000  0.37060000  0.43480000  1.0 0.128870168
H  H173  1  0.43480000  0.49480000  0.69980000  1.0 0.128870168
H  H174  1  0.81520000  0.55020000  0.75520000  1.0 0.128870168
H  H175  1  0.49480000  0.37060000  0.69980000  1.0 0.128870168
H  H176  1  0.55020000  0.87940000  0.75520000  1.0 0.128870168
H  H177  1  0.49480000  0.69980000  0.43480000  1.0 0.128870168
H  H178  1  0.55020000  0.75520000  0.81520000  1.0 0.128870168
H  H179  1  0.81520000  0.87940000  0.55020000  1.0 0.128870168
H  H180  1  0.43480000  0.37060000  0.49480000  1.0 0.128870168
H  H181  1  0.49480000  0.43480000  0.37060000  1.0 0.128870168
H  H182  1  0.55020000  0.81520000  0.87940000  1.0 0.128870168
H  H183  1  0.37060000  0.49480000  0.43480000  1.0 0.128870168
H  H184  1  0.87940000  0.55020000  0.81520000  1.0 0.128870168
H  H185  1  0.87940000  0.75520000  0.55020000  1.0 0.128870168
H  H186  1  0.75520000  0.81520000  0.55020000  1.0 0.128870168
H  H187  1  0.69980000  0.43480000  0.49480000  1.0 0.128870168
H  H188  1  0.37060000  0.69980000  0.49480000  1.0 0.128870168
H  H189  1  0.75520000  0.55020000  0.87940000  1.0 0.128870168
H  H190  1  0.69980000  0.49480000  0.37060000  1.0 0.128870168
H  H191  1  0.81520000  0.75520000  0.87940000  1.0 0.128870168
H  H192  1  0.75520000  0.87940000  0.81520000  1.0 0.128870168
H  H193  1  0.82870000  0.03770000  0.95970000  1.0 0.2525487427
H  H194  1  0.42130000  0.21230000  0.07610000  1.0 0.2525487427
H  H195  1  0.21230000  0.07610000  0.42130000  1.0 0.2525487427
H  H196  1  0.07610000  0.42130000  0.21230000  1.0 0.2525487427
H  H197  1  0.21230000  0.29030000  0.07610000  1.0 0.2525487427
H  H198  1  0.03770000  0.17390000  0.95970000  1.0 0.2525487427
H  H199  1  0.29030000  0.42130000  0.07610000  1.0 0.2525487427
H  H200  1  0.17390000  0.82870000  0.95970000  1.0 0.2525487427
H  H201  1  0.29030000  0.07610000  0.21230000  1.0 0.2525487427
H  H202  1  0.17390000  0.95970000  0.03770000  1.0 0.2525487427
H  H203  1  0.03770000  0.82870000  0.17390000  1.0 0.2525487427
H  H204  1  0.21230000  0.42130000  0.29030000  1.0 0.2525487427
H  H205  1  0.29030000  0.21230000  0.42130000  1.0 0.2525487427
H  H206  1  0.17390000  0.03770000  0.82870000  1.0 0.2525487427
H  H207  1  0.42130000  0.29030000  0.21230000  1.0 0.2525487427
H  H208  1  0.82870000  0.17390000  0.03770000  1.0 0.2525487427
H  H209  1  0.82870000  0.95970000  0.17390000  1.0 0.2525487427
H  H210  1  0.95970000  0.03770000  0.17390000  1.0 0.2525487427
H  H211  1  0.07610000  0.21230000  0.29030000  1.0 0.2525487427
H  H212  1  0.42130000  0.07610000  0.29030000  1.0 0.2525487427
H  H213  1  0.95970000  0.17390000  0.82870000  1.0 0.2525487427
H  H214  1  0.07610000  0.29030000  0.42130000  1.0 0.2525487427
H  H215  1  0.03770000  0.95970000  0.82870000  1.0 0.2525487427
H  H216  1  0.95970000  0.82870000  0.03770000  1.0 0.2525487427
H  H217  1  0.92130000  0.71230000  0.79030000  1.0 0.2525487427
H  H218  1  0.32870000  0.53770000  0.67390000  1.0 0.2525487427
H  H219  1  0.53770000  0.67390000  0.32870000  1.0 0.2525487427
H  H220  1  0.67390000  0.32870000  0.53770000  1.0 0.2525487427
H  H221  1  0.53770000  0.45970000  0.67390000  1.0 0.2525487427
H  H222  1  0.71230000  0.57610000  0.79030000  1.0 0.2525487427
H  H223  1  0.45970000  0.32870000  0.67390000  1.0 0.2525487427
H  H224  1  0.57610000  0.92130000  0.79030000  1.0 0.2525487427
H  H225  1  0.45970000  0.67390000  0.53770000  1.0 0.2525487427
H  H226  1  0.57610000  0.79030000  0.71230000  1.0 0.2525487427
H  H227  1  0.71230000  0.92130000  0.57610000  1.0 0.2525487427
H  H228  1  0.53770000  0.32870000  0.45970000  1.0 0.2525487427
H  H229  1  0.45970000  0.53770000  0.32870000  1.0 0.2525487427
H  H230  1  0.57610000  0.71230000  0.92130000  1.0 0.2525487427
H  H231  1  0.32870000  0.45970000  0.53770000  1.0 0.2525487427
H  H232  1  0.92130000  0.57610000  0.71230000  1.0 0.2525487427
H  H233  1  0.92130000  0.79030000  0.57610000  1.0 0.2525487427
H  H234  1  0.79030000  0.71230000  0.57610000  1.0 0.2525487427
H  H235  1  0.67390000  0.53770000  0.45970000  1.0 0.2525487427
H  H236  1  0.32870000  0.67390000  0.45970000  1.0 0.2525487427
H  H237  1  0.79030000  0.57610000  0.92130000  1.0 0.2525487427
H  H238  1  0.67390000  0.45970000  0.32870000  1.0 0.2525487427
H  H239  1  0.71230000  0.79030000  0.92130000  1.0 0.2525487427
H  H240  1  0.79030000  0.92130000  0.71230000  1.0 0.2525487427
H  H241  1  0.79310000  0.03970000  0.03290000  1.0 0.107901196
H  H242  1  0.45690000  0.21030000  0.11570000  1.0 0.107901196
H  H243  1  0.21030000  0.11570000  0.45690000  1.0 0.107901196
H  H244  1  0.11570000  0.45690000  0.21030000  1.0 0.107901196
H  H245  1  0.21030000  0.21710000  0.11570000  1.0 0.107901196
H  H246  1  0.03970000  0.13430000  0.03290000  1.0 0.107901196
H  H247  1  0.21710000  0.45690000  0.11570000  1.0 0.107901196
H  H248  1  0.13430000  0.79310000  0.03290000  1.0 0.107901196
H  H249  1  0.21710000  0.11570000  0.21030000  1.0 0.107901196
H  H250  1  0.13430000  0.03290000  0.03970000  1.0 0.107901196
H  H251  1  0.03970000  0.79310000  0.13430000  1.0 0.107901196
H  H252  1  0.21030000  0.45690000  0.21710000  1.0 0.107901196
H  H253  1  0.21710000  0.21030000  0.45690000  1.0 0.107901196
H  H254  1  0.13430000  0.03970000  0.79310000  1.0 0.107901196
H  H255  1  0.45690000  0.21710000  0.21030000  1.0 0.107901196
H  H256  1  0.79310000  0.13430000  0.03970000  1.0 0.107901196
H  H257  1  0.79310000  0.03290000  0.13430000  1.0 0.107901196
H  H258  1  0.03290000  0.03970000  0.13430000  1.0 0.107901196
H  H259  1  0.11570000  0.21030000  0.21710000  1.0 0.107901196
H  H260  1  0.45690000  0.11570000  0.21710000  1.0 0.107901196
H  H261  1  0.03290000  0.13430000  0.79310000  1.0 0.107901196
H  H262  1  0.11570000  0.21710000  0.45690000  1.0 0.107901196
H  H263  1  0.03970000  0.03290000  0.79310000  1.0 0.107901196
H  H264  1  0.03290000  0.79310000  0.03970000  1.0 0.107901196
H  H265  1  0.95690000  0.71030000  0.71710000  1.0 0.107901196
H  H266  1  0.29310000  0.53970000  0.63430000  1.0 0.107901196
H  H267  1  0.53970000  0.63430000  0.29310000  1.0 0.107901196
H  H268  1  0.63430000  0.29310000  0.53970000  1.0 0.107901196
H  H269  1  0.53970000  0.53290000  0.63430000  1.0 0.107901196
H  H270  1  0.71030000  0.61570000  0.71710000  1.0 0.107901196
H  H271  1  0.53290000  0.29310000  0.63430000  1.0 0.107901196
H  H272  1  0.61570000  0.95690000  0.71710000  1.0 0.107901196
H  H273  1  0.53290000  0.63430000  0.53970000  1.0 0.107901196
H  H274  1  0.61570000  0.71710000  0.71030000  1.0 0.107901196
H  H275  1  0.71030000  0.95690000  0.61570000  1.0 0.107901196
H  H276  1  0.53970000  0.29310000  0.53290000  1.0 0.107901196
H  H277  1  0.53290000  0.53970000  0.29310000  1.0 0.107901196
H  H278  1  0.61570000  0.71030000  0.95690000  1.0 0.107901196
H  H279  1  0.29310000  0.53290000  0.53970000  1.0 0.107901196
H  H280  1  0.95690000  0.61570000  0.71030000  1.0 0.107901196
H  H281  1  0.95690000  0.71710000  0.61570000  1.0 0.107901196
H  H282  1  0.71710000  0.71030000  0.61570000  1.0 0.107901196
H  H283  1  0.63430000  0.53970000  0.53290000  1.0 0.107901196
H  H284  1  0.29310000  0.63430000  0.53290000  1.0 0.107901196
H  H285  1  0.71710000  0.61570000  0.95690000  1.0 0.107901196
H  H286  1  0.63430000  0.53290000  0.29310000  1.0 0.107901196
H  H287  1  0.71030000  0.71710000  0.95690000  1.0 0.107901196
H  H288  1  0.71710000  0.95690000  0.71030000  1.0 0.107901196
H  H289  1  0.76620000  0.08400000  0.04720000  1.0 0.1007196155
H  H290  1  0.48380000  0.16600000  0.14740000  1.0 0.1007196155
H  H291  1  0.16600000  0.14740000  0.48380000  1.0 0.1007196155
H  H292  1  0.14740000  0.48380000  0.16600000  1.0 0.1007196155
H  H293  1  0.16600000  0.20280000  0.14740000  1.0 0.1007196155
H  H294  1  0.08400000  0.10260000  0.04720000  1.0 0.1007196155
H  H295  1  0.20280000  0.48380000  0.14740000  1.0 0.1007196155
H  H296  1  0.10260000  0.76620000  0.04720000  1.0 0.1007196155
H  H297  1  0.20280000  0.14740000  0.16600000  1.0 0.1007196155
H  H298  1  0.10260000  0.04720000  0.08400000  1.0 0.1007196155
H  H299  1  0.08400000  0.76620000  0.10260000  1.0 0.1007196155
H  H300  1  0.16600000  0.48380000  0.20280000  1.0 0.1007196155
H  H301  1  0.20280000  0.16600000  0.48380000  1.0 0.1007196155
H  H302  1  0.10260000  0.08400000  0.76620000  1.0 0.1007196155
H  H303  1  0.48380000  0.20280000  0.16600000  1.0 0.1007196155
H  H304  1  0.76620000  0.10260000  0.08400000  1.0 0.1007196155
H  H305  1  0.76620000  0.04720000  0.10260000  1.0 0.1007196155
H  H306  1  0.04720000  0.08400000  0.10260000  1.0 0.1007196155
H  H307  1  0.14740000  0.16600000  0.20280000  1.0 0.1007196155
H  H308  1  0.48380000  0.14740000  0.20280000  1.0 0.1007196155
H  H309  1  0.04720000  0.10260000  0.76620000  1.0 0.1007196155
H  H310  1  0.14740000  0.20280000  0.48380000  1.0 0.1007196155
H  H311  1  0.08400000  0.04720000  0.76620000  1.0 0.1007196155
H  H312  1  0.04720000  0.76620000  0.08400000  1.0 0.1007196155
H  H313  1  0.98380000  0.66600000  0.70280000  1.0 0.1007196155
H  H314  1  0.26620000  0.58400000  0.60260000  1.0 0.1007196155
H  H315  1  0.58400000  0.60260000  0.26620000  1.0 0.1007196155
H  H316  1  0.60260000  0.26620000  0.58400000  1.0 0.1007196155
H  H317  1  0.58400000  0.54720000  0.60260000  1.0 0.1007196155
H  H318  1  0.66600000  0.64740000  0.70280000  1.0 0.1007196155
H  H319  1  0.54720000  0.26620000  0.60260000  1.0 0.1007196155
H  H320  1  0.64740000  0.98380000  0.70280000  1.0 0.1007196155
H  H321  1  0.54720000  0.60260000  0.58400000  1.0 0.1007196155
H  H322  1  0.64740000  0.70280000  0.66600000  1.0 0.1007196155
H  H323  1  0.66600000  0.98380000  0.64740000  1.0 0.1007196155
H  H324  1  0.58400000  0.26620000  0.54720000  1.0 0.1007196155
H  H325  1  0.54720000  0.58400000  0.26620000  1.0 0.1007196155
H  H326  1  0.64740000  0.66600000  0.98380000  1.0 0.1007196155
H  H327  1  0.26620000  0.54720000  0.58400000  1.0 0.1007196155
H  H328  1  0.98380000  0.64740000  0.66600000  1.0 0.1007196155
H  H329  1  0.98380000  0.70280000  0.64740000  1.0 0.1007196155
H  H330  1  0.70280000  0.66600000  0.64740000  1.0 0.1007196155
H  H331  1  0.60260000  0.58400000  0.54720000  1.0 0.1007196155
H  H332  1  0.26620000  0.60260000  0.54720000  1.0 0.1007196155
H  H333  1  0.70280000  0.64740000  0.98380000  1.0 0.1007196155
H  H334  1  0.60260000  0.54720000  0.26620000  1.0 0.1007196155
H  H335  1  0.66600000  0.70280000  0.98380000  1.0 0.1007196155
H  H336  1  0.70280000  0.98380000  0.66600000  1.0 0.1007196155
H  H337  1  0.75650000  0.13290000  0.00970000  1.0 0.1007196155
H  H338  1  0.49350000  0.11710000  0.14910000  1.0 0.1007196155
H  H339  1  0.11710000  0.14910000  0.49350000  1.0 0.1007196155
H  H340  1  0.14910000  0.49350000  0.11710000  1.0 0.1007196155
H  H341  1  0.11710000  0.24030000  0.14910000  1.0 0.1007196155
H  H342  1  0.13290000  0.10090000  0.00970000  1.0 0.1007196155
H  H343  1  0.24030000  0.49350000  0.14910000  1.0 0.1007196155
H  H344  1  0.10090000  0.75650000  0.00970000  1.0 0.1007196155
H  H345  1  0.24030000  0.14910000  0.11710000  1.0 0.1007196155
H  H346  1  0.10090000  0.00970000  0.13290000  1.0 0.1007196155
H  H347  1  0.13290000  0.75650000  0.10090000  1.0 0.1007196155
H  H348  1  0.11710000  0.49350000  0.24030000  1.0 0.1007196155
H  H349  1  0.24030000  0.11710000  0.49350000  1.0 0.1007196155
H  H350  1  0.10090000  0.13290000  0.75650000  1.0 0.1007196155
H  H351  1  0.49350000  0.24030000  0.11710000  1.0 0.1007196155
H  H352  1  0.75650000  0.10090000  0.13290000  1.0 0.1007196155
H  H353  1  0.75650000  0.00970000  0.10090000  1.0 0.1007196155
H  H354  1  0.00970000  0.13290000  0.10090000  1.0 0.1007196155
H  H355  1  0.14910000  0.11710000  0.24030000  1.0 0.1007196155
H  H356  1  0.49350000  0.14910000  0.24030000  1.0 0.1007196155
H  H357  1  0.00970000  0.10090000  0.75650000  1.0 0.1007196155
H  H358  1  0.14910000  0.24030000  0.49350000  1.0 0.1007196155
H  H359  1  0.13290000  0.00970000  0.75650000  1.0 0.1007196155
H  H360  1  0.00970000  0.75650000  0.13290000  1.0 0.1007196155
H  H361  1  0.99350000  0.61710000  0.74030000  1.0 0.1007196155
H  H362  1  0.25650000  0.63290000  0.60090000  1.0 0.1007196155
H  H363  1  0.63290000  0.60090000  0.25650000  1.0 0.1007196155
H  H364  1  0.60090000  0.25650000  0.63290000  1.0 0.1007196155
H  H365  1  0.63290000  0.50970000  0.60090000  1.0 0.1007196155
H  H366  1  0.61710000  0.64910000  0.74030000  1.0 0.1007196155
H  H367  1  0.50970000  0.25650000  0.60090000  1.0 0.1007196155
H  H368  1  0.64910000  0.99350000  0.74030000  1.0 0.1007196155
H  H369  1  0.50970000  0.60090000  0.63290000  1.0 0.1007196155
H  H370  1  0.64910000  0.74030000  0.61710000  1.0 0.1007196155
H  H371  1  0.61710000  0.99350000  0.64910000  1.0 0.1007196155
H  H372  1  0.63290000  0.25650000  0.50970000  1.0 0.1007196155
H  H373  1  0.50970000  0.63290000  0.25650000  1.0 0.1007196155
H  H374  1  0.64910000  0.61710000  0.99350000  1.0 0.1007196155
H  H375  1  0.25650000  0.50970000  0.63290000  1.0 0.1007196155
H  H376  1  0.99350000  0.64910000  0.61710000  1.0 0.1007196155
H  H377  1  0.99350000  0.74030000  0.64910000  1.0 0.1007196155
H  H378  1  0.74030000  0.61710000  0.64910000  1.0 0.1007196155
H  H379  1  0.60090000  0.63290000  0.50970000  1.0 0.1007196155
H  H380  1  0.25650000  0.60090000  0.50970000  1.0 0.1007196155
H  H381  1  0.74030000  0.64910000  0.99350000  1.0 0.1007196155
H  H382  1  0.60090000  0.50970000  0.25650000  1.0 0.1007196155
H  H383  1  0.61710000  0.74030000  0.99350000  1.0 0.1007196155
H  H384  1  0.74030000  0.99350000  0.61710000  1.0 0.1007196155
H  H385  1  0.77470000  0.13750000  0.95770000  1.0 0.1007196155
H  H386  1  0.47530000  0.11250000  0.11990000  1.0 0.1007196155
H  H387  1  0.11250000  0.11990000  0.47530000  1.0 0.1007196155
H  H388  1  0.11990000  0.47530000  0.11250000  1.0 0.1007196155
H  H389  1  0.11250000  0.29230000  0.11990000  1.0 0.1007196155
H  H390  1  0.13750000  0.13010000  0.95770000  1.0 0.1007196155
H  H391  1  0.29230000  0.47530000  0.11990000  1.0 0.1007196155
H  H392  1  0.13010000  0.77470000  0.95770000  1.0 0.1007196155
H  H393  1  0.29230000  0.11990000  0.11250000  1.0 0.1007196155
H  H394  1  0.13010000  0.95770000  0.13750000  1.0 0.1007196155
H  H395  1  0.13750000  0.77470000  0.13010000  1.0 0.1007196155
H  H396  1  0.11250000  0.47530000  0.29230000  1.0 0.1007196155
H  H397  1  0.29230000  0.11250000  0.47530000  1.0 0.1007196155
H  H398  1  0.13010000  0.13750000  0.77470000  1.0 0.1007196155
H  H399  1  0.47530000  0.29230000  0.11250000  1.0 0.1007196155
H  H400  1  0.77470000  0.13010000  0.13750000  1.0 0.1007196155
H  H401  1  0.77470000  0.95770000  0.13010000  1.0 0.1007196155
H  H402  1  0.95770000  0.13750000  0.13010000  1.0 0.1007196155
H  H403  1  0.11990000  0.11250000  0.29230000  1.0 0.1007196155
H  H404  1  0.47530000  0.11990000  0.29230000  1.0 0.1007196155
H  H405  1  0.95770000  0.13010000  0.77470000  1.0 0.1007196155
H  H406  1  0.11990000  0.29230000  0.47530000  1.0 0.1007196155
H  H407  1  0.13750000  0.95770000  0.77470000  1.0 0.1007196155
H  H408  1  0.95770000  0.77470000  0.13750000  1.0 0.1007196155
H  H409  1  0.97530000  0.61250000  0.79230000  1.0 0.1007196155
H  H410  1  0.27470000  0.63750000  0.63010000  1.0 0.1007196155
H  H411  1  0.63750000  0.63010000  0.27470000  1.0 0.1007196155
H  H412  1  0.63010000  0.27470000  0.63750000  1.0 0.1007196155
H  H413  1  0.63750000  0.45770000  0.63010000  1.0 0.1007196155
H  H414  1  0.61250000  0.61990000  0.79230000  1.0 0.1007196155
H  H415  1  0.45770000  0.27470000  0.63010000  1.0 0.1007196155
H  H416  1  0.61990000  0.97530000  0.79230000  1.0 0.1007196155
H  H417  1  0.45770000  0.63010000  0.63750000  1.0 0.1007196155
H  H418  1  0.61990000  0.79230000  0.61250000  1.0 0.1007196155
H  H419  1  0.61250000  0.97530000  0.61990000  1.0 0.1007196155
H  H420  1  0.63750000  0.27470000  0.45770000  1.0 0.1007196155
H  H421  1  0.45770000  0.63750000  0.27470000  1.0 0.1007196155
H  H422  1  0.61990000  0.61250000  0.97530000  1.0 0.1007196155
H  H423  1  0.27470000  0.45770000  0.63750000  1.0 0.1007196155
H  H424  1  0.97530000  0.61990000  0.61250000  1.0 0.1007196155
H  H425  1  0.97530000  0.79230000  0.61990000  1.0 0.1007196155
H  H426  1  0.79230000  0.61250000  0.61990000  1.0 0.1007196155
H  H427  1  0.63010000  0.63750000  0.45770000  1.0 0.1007196155
H  H428  1  0.27470000  0.63010000  0.45770000  1.0 0.1007196155
H  H429  1  0.79230000  0.61990000  0.97530000  1.0 0.1007196155
H  H430  1  0.63010000  0.45770000  0.27470000  1.0 0.1007196155
H  H431  1  0.61250000  0.79230000  0.97530000  1.0 0.1007196155
H  H432  1  0.79230000  0.97530000  0.61250000  1.0 0.1007196155
H  H433  1  0.80150000  0.09310000  0.94350000  1.0 0.1188968098
H  H434  1  0.44850000  0.15690000  0.08810000  1.0 0.1188968098
H  H435  1  0.15690000  0.08810000  0.44850000  1.0 0.1188968098
H  H436  1  0.08810000  0.44850000  0.15690000  1.0 0.1188968098
H  H437  1  0.15690000  0.30650000  0.08810000  1.0 0.1188968098
H  H438  1  0.09310000  0.16190000  0.94350000  1.0 0.1188968098
H  H439  1  0.30650000  0.44850000  0.08810000  1.0 0.1188968098
H  H440  1  0.16190000  0.80150000  0.94350000  1.0 0.1188968098
H  H441  1  0.30650000  0.08810000  0.15690000  1.0 0.1188968098
H  H442  1  0.16190000  0.94350000  0.09310000  1.0 0.1188968098
H  H443  1  0.09310000  0.80150000  0.16190000  1.0 0.1188968098
H  H444  1  0.15690000  0.44850000  0.30650000  1.0 0.1188968098
H  H445  1  0.30650000  0.15690000  0.44850000  1.0 0.1188968098
H  H446  1  0.16190000  0.09310000  0.80150000  1.0 0.1188968098
H  H447  1  0.44850000  0.30650000  0.15690000  1.0 0.1188968098
H  H448  1  0.80150000  0.16190000  0.09310000  1.0 0.1188968098
H  H449  1  0.80150000  0.94350000  0.16190000  1.0 0.1188968098
H  H450  1  0.94350000  0.09310000  0.16190000  1.0 0.1188968098
H  H451  1  0.08810000  0.15690000  0.30650000  1.0 0.1188968098
H  H452  1  0.44850000  0.08810000  0.30650000  1.0 0.1188968098
H  H453  1  0.94350000  0.16190000  0.80150000  1.0 0.1188968098
H  H454  1  0.08810000  0.30650000  0.44850000  1.0 0.1188968098
H  H455  1  0.09310000  0.94350000  0.80150000  1.0 0.1188968098
H  H456  1  0.94350000  0.80150000  0.09310000  1.0 0.1188968098
H  H457  1  0.94850000  0.65690000  0.80650000  1.0 0.1188968098
H  H458  1  0.30150000  0.59310000  0.66190000  1.0 0.1188968098
H  H459  1  0.59310000  0.66190000  0.30150000  1.0 0.1188968098
H  H460  1  0.66190000  0.30150000  0.59310000  1.0 0.1188968098
H  H461  1  0.59310000  0.44350000  0.66190000  1.0 0.1188968098
H  H462  1  0.65690000  0.58810000  0.80650000  1.0 0.1188968098
H  H463  1  0.44350000  0.30150000  0.66190000  1.0 0.1188968098
H  H464  1  0.58810000  0.94850000  0.80650000  1.0 0.1188968098
H  H465  1  0.44350000  0.66190000  0.59310000  1.0 0.1188968098
H  H466  1  0.58810000  0.80650000  0.65690000  1.0 0.1188968098
H  H467  1  0.65690000  0.94850000  0.58810000  1.0 0.1188968098
H  H468  1  0.59310000  0.30150000  0.44350000  1.0 0.1188968098
H  H469  1  0.44350000  0.59310000  0.30150000  1.0 0.1188968098
H  H470  1  0.58810000  0.65690000  0.94850000  1.0 0.1188968098
H  H471  1  0.30150000  0.44350000  0.59310000  1.0 0.1188968098
H  H472  1  0.94850000  0.58810000  0.65690000  1.0 0.1188968098
H  H473  1  0.94850000  0.80650000  0.58810000  1.0 0.1188968098
H  H474  1  0.80650000  0.65690000  0.58810000  1.0 0.1188968098
H  H475  1  0.66190000  0.59310000  0.44350000  1.0 0.1188968098
H  H476  1  0.30150000  0.66190000  0.44350000  1.0 0.1188968098
H  H477  1  0.80650000  0.58810000  0.94850000  1.0 0.1188968098
H  H478  1  0.66190000  0.44350000  0.30150000  1.0 0.1188968098
H  H479  1  0.65690000  0.80650000  0.94850000  1.0 0.1188968098
H  H480  1  0.80650000  0.94850000  0.65690000  1.0 0.1188968098
H  H481  1  0.81330000  0.90910000  0.05310000  1.0 0.3396784548
H  H482  1  0.43670000  0.34090000  0.02550000  1.0 0.3396784548
H  H483  1  0.34090000  0.02550000  0.43670000  1.0 0.3396784548
H  H484  1  0.02550000  0.43670000  0.34090000  1.0 0.3396784548
H  H485  1  0.34090000  0.19690000  0.02550000  1.0 0.3396784548
H  H486  1  0.90910000  0.22450000  0.05310000  1.0 0.3396784548
H  H487  1  0.19690000  0.43670000  0.02550000  1.0 0.3396784548
H  H488  1  0.22450000  0.81330000  0.05310000  1.0 0.3396784548
H  H489  1  0.19690000  0.02550000  0.34090000  1.0 0.3396784548
H  H490  1  0.22450000  0.05310000  0.90910000  1.0 0.3396784548
H  H491  1  0.90910000  0.81330000  0.22450000  1.0 0.3396784548
H  H492  1  0.34090000  0.43670000  0.19690000  1.0 0.3396784548
H  H493  1  0.19690000  0.34090000  0.43670000  1.0 0.3396784548
H  H494  1  0.22450000  0.90910000  0.81330000  1.0 0.3396784548
H  H495  1  0.43670000  0.19690000  0.34090000  1.0 0.3396784548
H  H496  1  0.81330000  0.22450000  0.90910000  1.0 0.3396784548
H  H497  1  0.81330000  0.05310000  0.22450000  1.0 0.3396784548
H  H498  1  0.05310000  0.90910000  0.22450000  1.0 0.3396784548
H  H499  1  0.02550000  0.34090000  0.19690000  1.0 0.3396784548
H  H500  1  0.43670000  0.02550000  0.19690000  1.0 0.3396784548
H  H501  1  0.05310000  0.22450000  0.81330000  1.0 0.3396784548
H  H502  1  0.02550000  0.19690000  0.43670000  1.0 0.3396784548
H  H503  1  0.90910000  0.05310000  0.81330000  1.0 0.3396784548
H  H504  1  0.05310000  0.81330000  0.90910000  1.0 0.3396784548
H  H505  1  0.93670000  0.84090000  0.69690000  1.0 0.3396784548
H  H506  1  0.31330000  0.40910000  0.72450000  1.0 0.3396784548
H  H507  1  0.40910000  0.72450000  0.31330000  1.0 0.3396784548
H  H508  1  0.72450000  0.31330000  0.40910000  1.0 0.3396784548
H  H509  1  0.40910000  0.55310000  0.72450000  1.0 0.3396784548
H  H510  1  0.84090000  0.52550000  0.69690000  1.0 0.3396784548
H  H511  1  0.55310000  0.31330000  0.72450000  1.0 0.3396784548
H  H512  1  0.52550000  0.93670000  0.69690000  1.0 0.3396784548
H  H513  1  0.55310000  0.72450000  0.40910000  1.0 0.3396784548
H  H514  1  0.52550000  0.69690000  0.84090000  1.0 0.3396784548
H  H515  1  0.84090000  0.93670000  0.52550000  1.0 0.3396784548
H  H516  1  0.40910000  0.31330000  0.55310000  1.0 0.3396784548
H  H517  1  0.55310000  0.40910000  0.31330000  1.0 0.3396784548
H  H518  1  0.52550000  0.84090000  0.93670000  1.0 0.3396784548
H  H519  1  0.31330000  0.55310000  0.40910000  1.0 0.3396784548
H  H520  1  0.93670000  0.52550000  0.84090000  1.0 0.3396784548
H  H521  1  0.93670000  0.69690000  0.52550000  1.0 0.3396784548
H  H522  1  0.69690000  0.84090000  0.52550000  1.0 0.3396784548
H  H523  1  0.72450000  0.40910000  0.55310000  1.0 0.3396784548
H  H524  1  0.31330000  0.72450000  0.55310000  1.0 0.3396784548
H  H525  1  0.69690000  0.52550000  0.93670000  1.0 0.3396784548
H  H526  1  0.72450000  0.55310000  0.31330000  1.0 0.3396784548
H  H527  1  0.84090000  0.69690000  0.93670000  1.0 0.3396784548
H  H528  1  0.69690000  0.93670000  0.84090000  1.0 0.3396784548
H  H529  1  0.88510000  0.31290000  0.61070000  1.0 0.1007196155
H  H530  1  0.36490000  0.93710000  0.05870000  1.0 0.1007196155
H  H531  1  0.93710000  0.05870000  0.36490000  1.0 0.1007196155
H  H532  1  0.05870000  0.36490000  0.93710000  1.0 0.1007196155
H  H533  1  0.93710000  0.63930000  0.05870000  1.0 0.1007196155
H  H534  1  0.31290000  0.19130000  0.61070000  1.0 0.1007196155
H  H535  1  0.63930000  0.36490000  0.05870000  1.0 0.1007196155
H  H536  1  0.19130000  0.88510000  0.61070000  1.0 0.1007196155
H  H537  1  0.63930000  0.05870000  0.93710000  1.0 0.1007196155
H  H538  1  0.19130000  0.61070000  0.31290000  1.0 0.1007196155
H  H539  1  0.31290000  0.88510000  0.19130000  1.0 0.1007196155
H  H540  1  0.93710000  0.36490000  0.63930000  1.0 0.1007196155
H  H541  1  0.63930000  0.93710000  0.36490000  1.0 0.1007196155
H  H542  1  0.19130000  0.31290000  0.88510000  1.0 0.1007196155
H  H543  1  0.36490000  0.63930000  0.93710000  1.0 0.1007196155
H  H544  1  0.88510000  0.19130000  0.31290000  1.0 0.1007196155
H  H545  1  0.88510000  0.61070000  0.19130000  1.0 0.1007196155
H  H546  1  0.61070000  0.31290000  0.19130000  1.0 0.1007196155
H  H547  1  0.05870000  0.93710000  0.63930000  1.0 0.1007196155
H  H548  1  0.36490000  0.05870000  0.63930000  1.0 0.1007196155
H  H549  1  0.61070000  0.19130000  0.88510000  1.0 0.1007196155
H  H550  1  0.05870000  0.63930000  0.36490000  1.0 0.1007196155
H  H551  1  0.31290000  0.61070000  0.88510000  1.0 0.1007196155
H  H552  1  0.61070000  0.88510000  0.31290000  1.0 0.1007196155
H  H553  1  0.86490000  0.43710000  0.13930000  1.0 0.1007196155
H  H554  1  0.38510000  0.81290000  0.69130000  1.0 0.1007196155
H  H555  1  0.81290000  0.69130000  0.38510000  1.0 0.1007196155
H  H556  1  0.69130000  0.38510000  0.81290000  1.0 0.1007196155
H  H557  1  0.81290000  0.11070000  0.69130000  1.0 0.1007196155
H  H558  1  0.43710000  0.55870000  0.13930000  1.0 0.1007196155
H  H559  1  0.11070000  0.38510000  0.69130000  1.0 0.1007196155
H  H560  1  0.55870000  0.86490000  0.13930000  1.0 0.1007196155
H  H561  1  0.11070000  0.69130000  0.81290000  1.0 0.1007196155
H  H562  1  0.55870000  0.13930000  0.43710000  1.0 0.1007196155
H  H563  1  0.43710000  0.86490000  0.55870000  1.0 0.1007196155
H  H564  1  0.81290000  0.38510000  0.11070000  1.0 0.1007196155
H  H565  1  0.11070000  0.81290000  0.38510000  1.0 0.1007196155
H  H566  1  0.55870000  0.43710000  0.86490000  1.0 0.1007196155
H  H567  1  0.38510000  0.11070000  0.81290000  1.0 0.1007196155
H  H568  1  0.86490000  0.55870000  0.43710000  1.0 0.1007196155
H  H569  1  0.86490000  0.13930000  0.55870000  1.0 0.1007196155
H  H570  1  0.13930000  0.43710000  0.55870000  1.0 0.1007196155
H  H571  1  0.69130000  0.81290000  0.11070000  1.0 0.1007196155
H  H572  1  0.38510000  0.69130000  0.11070000  1.0 0.1007196155
H  H573  1  0.13930000  0.55870000  0.86490000  1.0 0.1007196155
H  H574  1  0.69130000  0.11070000  0.38510000  1.0 0.1007196155
H  H575  1  0.43710000  0.13930000  0.86490000  1.0 0.1007196155
H  H576  1  0.13930000  0.86490000  0.43710000  1.0 0.1007196155
H  H577  1  0.88600000  0.26240000  0.63260000  1.0 0.128870168
H  H578  1  0.36400000  0.98760000  0.03100000  1.0 0.128870168
H  H579  1  0.98760000  0.03100000  0.36400000  1.0 0.128870168
H  H580  1  0.03100000  0.36400000  0.98760000  1.0 0.128870168
H  H581  1  0.98760000  0.61740000  0.03100000  1.0 0.128870168
H  H582  1  0.26240000  0.21900000  0.63260000  1.0 0.128870168
H  H583  1  0.61740000  0.36400000  0.03100000  1.0 0.128870168
H  H584  1  0.21900000  0.88600000  0.63260000  1.0 0.128870168
H  H585  1  0.61740000  0.03100000  0.98760000  1.0 0.128870168
H  H586  1  0.21900000  0.63260000  0.26240000  1.0 0.128870168
H  H587  1  0.26240000  0.88600000  0.21900000  1.0 0.128870168
H  H588  1  0.98760000  0.36400000  0.61740000  1.0 0.128870168
H  H589  1  0.61740000  0.98760000  0.36400000  1.0 0.128870168
H  H590  1  0.21900000  0.26240000  0.88600000  1.0 0.128870168
H  H591  1  0.36400000  0.61740000  0.98760000  1.0 0.128870168
H  H592  1  0.88600000  0.21900000  0.26240000  1.0 0.128870168
H  H593  1  0.88600000  0.63260000  0.21900000  1.0 0.128870168
H  H594  1  0.63260000  0.26240000  0.21900000  1.0 0.128870168
H  H595  1  0.03100000  0.98760000  0.61740000  1.0 0.128870168
H  H596  1  0.36400000  0.03100000  0.61740000  1.0 0.128870168
H  H597  1  0.63260000  0.21900000  0.88600000  1.0 0.128870168
H  H598  1  0.03100000  0.61740000  0.36400000  1.0 0.128870168
H  H599  1  0.26240000  0.63260000  0.88600000  1.0 0.128870168
H  H600  1  0.63260000  0.88600000  0.26240000  1.0 0.128870168
H  H601  1  0.86400000  0.48760000  0.11740000  1.0 0.128870168
H  H602  1  0.38600000  0.76240000  0.71900000  1.0 0.128870168
H  H603  1  0.76240000  0.71900000  0.38600000  1.0 0.128870168
H  H604  1  0.71900000  0.38600000  0.76240000  1.0 0.128870168
H  H605  1  0.76240000  0.13260000  0.71900000  1.0 0.128870168
H  H606  1  0.48760000  0.53100000  0.11740000  1.0 0.128870168
H  H607  1  0.13260000  0.38600000  0.71900000  1.0 0.128870168
H  H608  1  0.53100000  0.86400000  0.11740000  1.0 0.128870168
H  H609  1  0.13260000  0.71900000  0.76240000  1.0 0.128870168
H  H610  1  0.53100000  0.11740000  0.48760000  1.0 0.128870168
H  H611  1  0.48760000  0.86400000  0.53100000  1.0 0.128870168
H  H612  1  0.76240000  0.38600000  0.13260000  1.0 0.128870168
H  H613  1  0.13260000  0.76240000  0.38600000  1.0 0.128870168
H  H614  1  0.53100000  0.48760000  0.86400000  1.0 0.128870168
H  H615  1  0.38600000  0.13260000  0.76240000  1.0 0.128870168
H  H616  1  0.86400000  0.53100000  0.48760000  1.0 0.128870168
H  H617  1  0.86400000  0.11740000  0.53100000  1.0 0.128870168
H  H618  1  0.11740000  0.48760000  0.53100000  1.0 0.128870168
H  H619  1  0.71900000  0.76240000  0.13260000  1.0 0.128870168
H  H620  1  0.38600000  0.71900000  0.13260000  1.0 0.128870168
H  H621  1  0.11740000  0.53100000  0.86400000  1.0 0.128870168
H  H622  1  0.71900000  0.13260000  0.38600000  1.0 0.128870168
H  H623  1  0.48760000  0.11740000  0.86400000  1.0 0.128870168
H  H624  1  0.11740000  0.86400000  0.48760000  1.0 0.128870168
H  H625  1  0.91830000  0.24890000  0.69450000  1.0 0.128870168
H  H626  1  0.33170000  0.00110000  0.11170000  1.0 0.128870168
H  H627  1  0.00110000  0.11170000  0.33170000  1.0 0.128870168
H  H628  1  0.11170000  0.33170000  0.00110000  1.0 0.128870168
H  H629  1  0.00110000  0.55550000  0.11170000  1.0 0.128870168
H  H630  1  0.24890000  0.13830000  0.69450000  1.0 0.128870168
H  H631  1  0.55550000  0.33170000  0.11170000  1.0 0.128870168
H  H632  1  0.13830000  0.91830000  0.69450000  1.0 0.128870168
H  H633  1  0.55550000  0.11170000  0.00110000  1.0 0.128870168
H  H634  1  0.13830000  0.69450000  0.24890000  1.0 0.128870168
H  H635  1  0.24890000  0.91830000  0.13830000  1.0 0.128870168
H  H636  1  0.00110000  0.33170000  0.55550000  1.0 0.128870168
H  H637  1  0.55550000  0.00110000  0.33170000  1.0 0.128870168
H  H638  1  0.13830000  0.24890000  0.91830000  1.0 0.128870168
H  H639  1  0.33170000  0.55550000  0.00110000  1.0 0.128870168
H  H640  1  0.91830000  0.13830000  0.24890000  1.0 0.128870168
H  H641  1  0.91830000  0.69450000  0.13830000  1.0 0.128870168
H  H642  1  0.69450000  0.24890000  0.13830000  1.0 0.128870168
H  H643  1  0.11170000  0.00110000  0.55550000  1.0 0.128870168
H  H644  1  0.33170000  0.11170000  0.55550000  1.0 0.128870168
H  H645  1  0.69450000  0.13830000  0.91830000  1.0 0.128870168
H  H646  1  0.11170000  0.55550000  0.33170000  1.0 0.128870168
H  H647  1  0.24890000  0.69450000  0.91830000  1.0 0.128870168
H  H648  1  0.69450000  0.91830000  0.24890000  1.0 0.128870168
H  H649  1  0.83170000  0.50110000  0.05550000  1.0 0.128870168
H  H650  1  0.41830000  0.74890000  0.63830000  1.0 0.128870168
H  H651  1  0.74890000  0.63830000  0.41830000  1.0 0.128870168
H  H652  1  0.63830000  0.41830000  0.74890000  1.0 0.128870168
H  H653  1  0.74890000  0.19450000  0.63830000  1.0 0.128870168
H  H654  1  0.50110000  0.61170000  0.05550000  1.0 0.128870168
H  H655  1  0.19450000  0.41830000  0.63830000  1.0 0.128870168
H  H656  1  0.61170000  0.83170000  0.05550000  1.0 0.128870168
H  H657  1  0.19450000  0.63830000  0.74890000  1.0 0.128870168
H  H658  1  0.61170000  0.05550000  0.50110000  1.0 0.128870168
H  H659  1  0.50110000  0.83170000  0.61170000  1.0 0.128870168
H  H660  1  0.74890000  0.41830000  0.19450000  1.0 0.128870168
H  H661  1  0.19450000  0.74890000  0.41830000  1.0 0.128870168
H  H662  1  0.61170000  0.50110000  0.83170000  1.0 0.128870168
H  H663  1  0.41830000  0.19450000  0.74890000  1.0 0.128870168
H  H664  1  0.83170000  0.61170000  0.50110000  1.0 0.128870168
H  H665  1  0.83170000  0.05550000  0.61170000  1.0 0.128870168
H  H666  1  0.05550000  0.50110000  0.61170000  1.0 0.128870168
H  H667  1  0.63830000  0.74890000  0.19450000  1.0 0.128870168
H  H668  1  0.41830000  0.63830000  0.19450000  1.0 0.128870168
H  H669  1  0.05550000  0.61170000  0.83170000  1.0 0.128870168
H  H670  1  0.63830000  0.19450000  0.41830000  1.0 0.128870168
H  H671  1  0.50110000  0.05550000  0.83170000  1.0 0.128870168
H  H672  1  0.05550000  0.83170000  0.50110000  1.0 0.128870168
H  H673  1  0.91890000  0.29910000  0.66910000  1.0 0.1007196155
H  H674  1  0.33110000  0.95090000  0.13710000  1.0 0.1007196155
H  H675  1  0.95090000  0.13710000  0.33110000  1.0 0.1007196155
H  H676  1  0.13710000  0.33110000  0.95090000  1.0 0.1007196155
H  H677  1  0.95090000  0.58090000  0.13710000  1.0 0.1007196155
H  H678  1  0.29910000  0.11290000  0.66910000  1.0 0.1007196155
H  H679  1  0.58090000  0.33110000  0.13710000  1.0 0.1007196155
H  H680  1  0.11290000  0.91890000  0.66910000  1.0 0.1007196155
H  H681  1  0.58090000  0.13710000  0.95090000  1.0 0.1007196155
H  H682  1  0.11290000  0.66910000  0.29910000  1.0 0.1007196155
H  H683  1  0.29910000  0.91890000  0.11290000  1.0 0.1007196155
H  H684  1  0.95090000  0.33110000  0.58090000  1.0 0.1007196155
H  H685  1  0.58090000  0.95090000  0.33110000  1.0 0.1007196155
H  H686  1  0.11290000  0.29910000  0.91890000  1.0 0.1007196155
H  H687  1  0.33110000  0.58090000  0.95090000  1.0 0.1007196155
H  H688  1  0.91890000  0.11290000  0.29910000  1.0 0.1007196155
H  H689  1  0.91890000  0.66910000  0.11290000  1.0 0.1007196155
H  H690  1  0.66910000  0.29910000  0.11290000  1.0 0.1007196155
H  H691  1  0.13710000  0.95090000  0.58090000  1.0 0.1007196155
H  H692  1  0.33110000  0.13710000  0.58090000  1.0 0.1007196155
H  H693  1  0.66910000  0.11290000  0.91890000  1.0 0.1007196155
H  H694  1  0.13710000  0.58090000  0.33110000  1.0 0.1007196155
H  H695  1  0.29910000  0.66910000  0.91890000  1.0 0.1007196155
H  H696  1  0.66910000  0.91890000  0.29910000  1.0 0.1007196155
H  H697  1  0.83110000  0.45090000  0.08090000  1.0 0.1007196155
H  H698  1  0.41890000  0.79910000  0.61290000  1.0 0.1007196155
H  H699  1  0.79910000  0.61290000  0.41890000  1.0 0.1007196155
H  H700  1  0.61290000  0.41890000  0.79910000  1.0 0.1007196155
H  H701  1  0.79910000  0.16910000  0.61290000  1.0 0.1007196155
H  H702  1  0.45090000  0.63710000  0.08090000  1.0 0.1007196155
H  H703  1  0.16910000  0.41890000  0.61290000  1.0 0.1007196155
H  H704  1  0.63710000  0.83110000  0.08090000  1.0 0.1007196155
H  H705  1  0.16910000  0.61290000  0.79910000  1.0 0.1007196155
H  H706  1  0.63710000  0.08090000  0.45090000  1.0 0.1007196155
H  H707  1  0.45090000  0.83110000  0.63710000  1.0 0.1007196155
H  H708  1  0.79910000  0.41890000  0.16910000  1.0 0.1007196155
H  H709  1  0.16910000  0.79910000  0.41890000  1.0 0.1007196155
H  H710  1  0.63710000  0.45090000  0.83110000  1.0 0.1007196155
H  H711  1  0.41890000  0.16910000  0.79910000  1.0 0.1007196155
H  H712  1  0.83110000  0.63710000  0.45090000  1.0 0.1007196155
H  H713  1  0.83110000  0.08090000  0.63710000  1.0 0.1007196155
H  H714  1  0.08090000  0.45090000  0.63710000  1.0 0.1007196155
H  H715  1  0.61290000  0.79910000  0.16910000  1.0 0.1007196155
H  H716  1  0.41890000  0.61290000  0.16910000  1.0 0.1007196155
H  H717  1  0.08090000  0.63710000  0.83110000  1.0 0.1007196155
H  H718  1  0.61290000  0.16910000  0.41890000  1.0 0.1007196155
H  H719  1  0.45090000  0.08090000  0.83110000  1.0 0.1007196155
H  H720  1  0.08090000  0.83110000  0.45090000  1.0 0.1007196155
H  H721  1  0.88350000  0.17430000  0.61090000  1.0 0.1007196155
H  H722  1  0.36650000  0.07570000  0.91870000  1.0 0.1007196155
H  H723  1  0.07570000  0.91870000  0.36650000  1.0 0.1007196155
H  H724  1  0.91870000  0.36650000  0.07570000  1.0 0.1007196155
H  H725  1  0.07570000  0.63910000  0.91870000  1.0 0.1007196155
H  H726  1  0.17430000  0.33130000  0.61090000  1.0 0.1007196155
H  H727  1  0.63910000  0.36650000  0.91870000  1.0 0.1007196155
H  H728  1  0.33130000  0.88350000  0.61090000  1.0 0.1007196155
H  H729  1  0.63910000  0.91870000  0.07570000  1.0 0.1007196155
H  H730  1  0.33130000  0.61090000  0.17430000  1.0 0.1007196155
H  H731  1  0.17430000  0.88350000  0.33130000  1.0 0.1007196155
H  H732  1  0.07570000  0.36650000  0.63910000  1.0 0.1007196155
H  H733  1  0.63910000  0.07570000  0.36650000  1.0 0.1007196155
H  H734  1  0.33130000  0.17430000  0.88350000  1.0 0.1007196155
H  H735  1  0.36650000  0.63910000  0.07570000  1.0 0.1007196155
H  H736  1  0.88350000  0.33130000  0.17430000  1.0 0.1007196155
H  H737  1  0.88350000  0.61090000  0.33130000  1.0 0.1007196155
H  H738  1  0.61090000  0.17430000  0.33130000  1.0 0.1007196155
H  H739  1  0.91870000  0.07570000  0.63910000  1.0 0.1007196155
H  H740  1  0.36650000  0.91870000  0.63910000  1.0 0.1007196155
H  H741  1  0.61090000  0.33130000  0.88350000  1.0 0.1007196155
H  H742  1  0.91870000  0.63910000  0.36650000  1.0 0.1007196155
H  H743  1  0.17430000  0.61090000  0.88350000  1.0 0.1007196155
H  H744  1  0.61090000  0.88350000  0.17430000  1.0 0.1007196155
H  H745  1  0.86650000  0.57570000  0.13910000  1.0 0.1007196155
H  H746  1  0.38350000  0.67430000  0.83130000  1.0 0.1007196155
H  H747  1  0.67430000  0.83130000  0.38350000  1.0 0.1007196155
H  H748  1  0.83130000  0.38350000  0.67430000  1.0 0.1007196155
H  H749  1  0.67430000  0.11090000  0.83130000  1.0 0.1007196155
H  H750  1  0.57570000  0.41870000  0.13910000  1.0 0.1007196155
H  H751  1  0.11090000  0.38350000  0.83130000  1.0 0.1007196155
H  H752  1  0.41870000  0.86650000  0.13910000  1.0 0.1007196155
H  H753  1  0.11090000  0.83130000  0.67430000  1.0 0.1007196155
H  H754  1  0.41870000  0.13910000  0.57570000  1.0 0.1007196155
H  H755  1  0.57570000  0.86650000  0.41870000  1.0 0.1007196155
H  H756  1  0.67430000  0.38350000  0.11090000  1.0 0.1007196155
H  H757  1  0.11090000  0.67430000  0.38350000  1.0 0.1007196155
H  H758  1  0.41870000  0.57570000  0.86650000  1.0 0.1007196155
H  H759  1  0.38350000  0.11090000  0.67430000  1.0 0.1007196155
H  H760  1  0.86650000  0.41870000  0.57570000  1.0 0.1007196155
H  H761  1  0.86650000  0.13910000  0.41870000  1.0 0.1007196155
H  H762  1  0.13910000  0.57570000  0.41870000  1.0 0.1007196155
H  H763  1  0.83130000  0.67430000  0.11090000  1.0 0.1007196155
H  H764  1  0.38350000  0.83130000  0.11090000  1.0 0.1007196155
H  H765  1  0.13910000  0.41870000  0.86650000  1.0 0.1007196155
H  H766  1  0.83130000  0.11090000  0.38350000  1.0 0.1007196155
H  H767  1  0.57570000  0.13910000  0.86650000  1.0 0.1007196155
H  H768  1  0.13910000  0.86650000  0.57570000  1.0 0.1007196155
H  H769  1  0.89290000  0.19610000  0.63210000  1.0 0.128870168
H  H770  1  0.35710000  0.05390000  0.97110000  1.0 0.128870168
H  H771  1  0.05390000  0.97110000  0.35710000  1.0 0.128870168
H  H772  1  0.97110000  0.35710000  0.05390000  1.0 0.128870168
H  H773  1  0.05390000  0.61790000  0.97110000  1.0 0.128870168
H  H774  1  0.19610000  0.27890000  0.63210000  1.0 0.128870168
H  H775  1  0.61790000  0.35710000  0.97110000  1.0 0.128870168
H  H776  1  0.27890000  0.89290000  0.63210000  1.0 0.128870168
H  H777  1  0.61790000  0.97110000  0.05390000  1.0 0.128870168
H  H778  1  0.27890000  0.63210000  0.19610000  1.0 0.128870168
H  H779  1  0.19610000  0.89290000  0.27890000  1.0 0.128870168
H  H780  1  0.05390000  0.35710000  0.61790000  1.0 0.128870168
H  H781  1  0.61790000  0.05390000  0.35710000  1.0 0.128870168
H  H782  1  0.27890000  0.19610000  0.89290000  1.0 0.128870168
H  H783  1  0.35710000  0.61790000  0.05390000  1.0 0.128870168
H  H784  1  0.89290000  0.27890000  0.19610000  1.0 0.128870168
H  H785  1  0.89290000  0.63210000  0.27890000  1.0 0.128870168
H  H786  1  0.63210000  0.19610000  0.27890000  1.0 0.128870168
H  H787  1  0.97110000  0.05390000  0.61790000  1.0 0.128870168
H  H788  1  0.35710000  0.97110000  0.61790000  1.0 0.128870168
H  H789  1  0.63210000  0.27890000  0.89290000  1.0 0.128870168
H  H790  1  0.97110000  0.61790000  0.35710000  1.0 0.128870168
H  H791  1  0.19610000  0.63210000  0.89290000  1.0 0.128870168
H  H792  1  0.63210000  0.89290000  0.19610000  1.0 0.128870168
H  H793  1  0.85710000  0.55390000  0.11790000  1.0 0.128870168
H  H794  1  0.39290000  0.69610000  0.77890000  1.0 0.128870168
H  H795  1  0.69610000  0.77890000  0.39290000  1.0 0.128870168
H  H796  1  0.77890000  0.39290000  0.69610000  1.0 0.128870168
H  H797  1  0.69610000  0.13210000  0.77890000  1.0 0.128870168
H  H798  1  0.55390000  0.47110000  0.11790000  1.0 0.128870168
H  H799  1  0.13210000  0.39290000  0.77890000  1.0 0.128870168
H  H800  1  0.47110000  0.85710000  0.11790000  1.0 0.128870168
H  H801  1  0.13210000  0.77890000  0.69610000  1.0 0.128870168
H  H802  1  0.47110000  0.11790000  0.55390000  1.0 0.128870168
H  H803  1  0.55390000  0.85710000  0.47110000  1.0 0.128870168
H  H804  1  0.69610000  0.39290000  0.13210000  1.0 0.128870168
H  H805  1  0.13210000  0.69610000  0.39290000  1.0 0.128870168
H  H806  1  0.47110000  0.55390000  0.85710000  1.0 0.128870168
H  H807  1  0.39290000  0.13210000  0.69610000  1.0 0.128870168
H  H808  1  0.85710000  0.47110000  0.55390000  1.0 0.128870168
H  H809  1  0.85710000  0.11790000  0.47110000  1.0 0.128870168
H  H810  1  0.11790000  0.55390000  0.47110000  1.0 0.128870168
H  H811  1  0.77890000  0.69610000  0.13210000  1.0 0.128870168
H  H812  1  0.39290000  0.77890000  0.13210000  1.0 0.128870168
H  H813  1  0.11790000  0.47110000  0.85710000  1.0 0.128870168
H  H814  1  0.77890000  0.13210000  0.39290000  1.0 0.128870168
H  H815  1  0.55390000  0.11790000  0.85710000  1.0 0.128870168
H  H816  1  0.11790000  0.85710000  0.55390000  1.0 0.128870168
H  H817  1  0.87210000  0.12950000  0.71410000  1.0 0.128870168
H  H818  1  0.37790000  0.12050000  0.96570000  1.0 0.128870168
H  H819  1  0.12050000  0.96570000  0.37790000  1.0 0.128870168
H  H820  1  0.96570000  0.37790000  0.12050000  1.0 0.128870168
H  H821  1  0.12050000  0.53590000  0.96570000  1.0 0.128870168
H  H822  1  0.12950000  0.28430000  0.71410000  1.0 0.128870168
H  H823  1  0.53590000  0.37790000  0.96570000  1.0 0.128870168
H  H824  1  0.28430000  0.87210000  0.71410000  1.0 0.128870168
H  H825  1  0.53590000  0.96570000  0.12050000  1.0 0.128870168
H  H826  1  0.28430000  0.71410000  0.12950000  1.0 0.128870168
H  H827  1  0.12950000  0.87210000  0.28430000  1.0 0.128870168
H  H828  1  0.12050000  0.37790000  0.53590000  1.0 0.128870168
H  H829  1  0.53590000  0.12050000  0.37790000  1.0 0.128870168
H  H830  1  0.28430000  0.12950000  0.87210000  1.0 0.128870168
H  H831  1  0.37790000  0.53590000  0.12050000  1.0 0.128870168
H  H832  1  0.87210000  0.28430000  0.12950000  1.0 0.128870168
H  H833  1  0.87210000  0.71410000  0.28430000  1.0 0.128870168
H  H834  1  0.71410000  0.12950000  0.28430000  1.0 0.128870168
H  H835  1  0.96570000  0.12050000  0.53590000  1.0 0.128870168
H  H836  1  0.37790000  0.96570000  0.53590000  1.0 0.128870168
H  H837  1  0.71410000  0.28430000  0.87210000  1.0 0.128870168
H  H838  1  0.96570000  0.53590000  0.37790000  1.0 0.128870168
H  H839  1  0.12950000  0.71410000  0.87210000  1.0 0.128870168
H  H840  1  0.71410000  0.87210000  0.12950000  1.0 0.128870168
H  H841  1  0.87790000  0.62050000  0.03590000  1.0 0.128870168
H  H842  1  0.37210000  0.62950000  0.78430000  1.0 0.128870168
H  H843  1  0.62950000  0.78430000  0.37210000  1.0 0.128870168
H  H844  1  0.78430000  0.37210000  0.62950000  1.0 0.128870168
H  H845  1  0.62950000  0.21410000  0.78430000  1.0 0.128870168
H  H846  1  0.62050000  0.46570000  0.03590000  1.0 0.128870168
H  H847  1  0.21410000  0.37210000  0.78430000  1.0 0.128870168
H  H848  1  0.46570000  0.87790000  0.03590000  1.0 0.128870168
H  H849  1  0.21410000  0.78430000  0.62950000  1.0 0.128870168
H  H850  1  0.46570000  0.03590000  0.62050000  1.0 0.128870168
H  H851  1  0.62050000  0.87790000  0.46570000  1.0 0.128870168
H  H852  1  0.62950000  0.37210000  0.21410000  1.0 0.128870168
H  H853  1  0.21410000  0.62950000  0.37210000  1.0 0.128870168
H  H854  1  0.46570000  0.62050000  0.87790000  1.0 0.128870168
H  H855  1  0.37210000  0.21410000  0.62950000  1.0 0.128870168
H  H856  1  0.87790000  0.46570000  0.62050000  1.0 0.128870168
H  H857  1  0.87790000  0.03590000  0.46570000  1.0 0.128870168
H  H858  1  0.03590000  0.62050000  0.46570000  1.0 0.128870168
H  H859  1  0.78430000  0.62950000  0.21410000  1.0 0.128870168
H  H860  1  0.37210000  0.78430000  0.21410000  1.0 0.128870168
H  H861  1  0.03590000  0.46570000  0.87790000  1.0 0.128870168
H  H862  1  0.78430000  0.21410000  0.37210000  1.0 0.128870168
H  H863  1  0.62050000  0.03590000  0.87790000  1.0 0.128870168
H  H864  1  0.03590000  0.87790000  0.62050000  1.0 0.128870168
H  H865  1  0.86270000  0.11010000  0.69030000  1.0 0.1007196155
H  H866  1  0.38730000  0.13990000  0.91310000  1.0 0.1007196155
H  H867  1  0.13990000  0.91310000  0.38730000  1.0 0.1007196155
H  H868  1  0.91310000  0.38730000  0.13990000  1.0 0.1007196155
H  H869  1  0.13990000  0.55970000  0.91310000  1.0 0.1007196155
H  H870  1  0.11010000  0.33690000  0.69030000  1.0 0.1007196155
H  H871  1  0.55970000  0.38730000  0.91310000  1.0 0.1007196155
H  H872  1  0.33690000  0.86270000  0.69030000  1.0 0.1007196155
H  H873  1  0.55970000  0.91310000  0.13990000  1.0 0.1007196155
H  H874  1  0.33690000  0.69030000  0.11010000  1.0 0.1007196155
H  H875  1  0.11010000  0.86270000  0.33690000  1.0 0.1007196155
H  H876  1  0.13990000  0.38730000  0.55970000  1.0 0.1007196155
H  H877  1  0.55970000  0.13990000  0.38730000  1.0 0.1007196155
H  H878  1  0.33690000  0.11010000  0.86270000  1.0 0.1007196155
H  H879  1  0.38730000  0.55970000  0.13990000  1.0 0.1007196155
H  H880  1  0.86270000  0.33690000  0.11010000  1.0 0.1007196155
H  H881  1  0.86270000  0.69030000  0.33690000  1.0 0.1007196155
H  H882  1  0.69030000  0.11010000  0.33690000  1.0 0.1007196155
H  H883  1  0.91310000  0.13990000  0.55970000  1.0 0.1007196155
H  H884  1  0.38730000  0.91310000  0.55970000  1.0 0.1007196155
H  H885  1  0.69030000  0.33690000  0.86270000  1.0 0.1007196155
H  H886  1  0.91310000  0.55970000  0.38730000  1.0 0.1007196155
H  H887  1  0.11010000  0.69030000  0.86270000  1.0 0.1007196155
H  H888  1  0.69030000  0.86270000  0.11010000  1.0 0.1007196155
H  H889  1  0.88730000  0.63990000  0.05970000  1.0 0.1007196155
H  H890  1  0.36270000  0.61010000  0.83690000  1.0 0.1007196155
H  H891  1  0.61010000  0.83690000  0.36270000  1.0 0.1007196155
H  H892  1  0.83690000  0.36270000  0.61010000  1.0 0.1007196155
H  H893  1  0.61010000  0.19030000  0.83690000  1.0 0.1007196155
H  H894  1  0.63990000  0.41310000  0.05970000  1.0 0.1007196155
H  H895  1  0.19030000  0.36270000  0.83690000  1.0 0.1007196155
H  H896  1  0.41310000  0.88730000  0.05970000  1.0 0.1007196155
H  H897  1  0.19030000  0.83690000  0.61010000  1.0 0.1007196155
H  H898  1  0.41310000  0.05970000  0.63990000  1.0 0.1007196155
H  H899  1  0.63990000  0.88730000  0.41310000  1.0 0.1007196155
H  H900  1  0.61010000  0.36270000  0.19030000  1.0 0.1007196155
H  H901  1  0.19030000  0.61010000  0.36270000  1.0 0.1007196155
H  H902  1  0.41310000  0.63990000  0.88730000  1.0 0.1007196155
H  H903  1  0.36270000  0.19030000  0.61010000  1.0 0.1007196155
H  H904  1  0.88730000  0.41310000  0.63990000  1.0 0.1007196155
H  H905  1  0.88730000  0.05970000  0.41310000  1.0 0.1007196155
H  H906  1  0.05970000  0.63990000  0.41310000  1.0 0.1007196155
H  H907  1  0.83690000  0.61010000  0.19030000  1.0 0.1007196155
H  H908  1  0.36270000  0.83690000  0.19030000  1.0 0.1007196155
H  H909  1  0.05970000  0.41310000  0.88730000  1.0 0.1007196155
H  H910  1  0.83690000  0.19030000  0.36270000  1.0 0.1007196155
H  H911  1  0.63990000  0.05970000  0.88730000  1.0 0.1007196155
H  H912  1  0.05970000  0.88730000  0.63990000  1.0 0.1007196155
H  H913  1  0.89670000  0.10370000  0.81990000  1.0 0.0798190702
H  H914  1  0.35330000  0.14630000  0.07030000  1.0 0.0798190702
H  H915  1  0.14630000  0.07030000  0.35330000  1.0 0.0798190702
H  H916  1  0.07030000  0.35330000  0.14630000  1.0 0.0798190702
H  H917  1  0.14630000  0.43010000  0.07030000  1.0 0.0798190702
H  H918  1  0.10370000  0.17970000  0.81990000  1.0 0.0798190702
H  H919  1  0.43010000  0.35330000  0.07030000  1.0 0.0798190702
H  H920  1  0.17970000  0.89670000  0.81990000  1.0 0.0798190702
H  H921  1  0.43010000  0.07030000  0.14630000  1.0 0.0798190702
H  H922  1  0.17970000  0.81990000  0.10370000  1.0 0.0798190702
H  H923  1  0.10370000  0.89670000  0.17970000  1.0 0.0798190702
H  H924  1  0.14630000  0.35330000  0.43010000  1.0 0.0798190702
H  H925  1  0.43010000  0.14630000  0.35330000  1.0 0.0798190702
H  H926  1  0.17970000  0.10370000  0.89670000  1.0 0.0798190702
H  H927  1  0.35330000  0.43010000  0.14630000  1.0 0.0798190702
H  H928  1  0.89670000  0.17970000  0.10370000  1.0 0.0798190702
H  H929  1  0.89670000  0.81990000  0.17970000  1.0 0.0798190702
H  H930  1  0.81990000  0.10370000  0.17970000  1.0 0.0798190702
H  H931  1  0.07030000  0.14630000  0.43010000  1.0 0.0798190702
H  H932  1  0.35330000  0.07030000  0.43010000  1.0 0.0798190702
H  H933  1  0.81990000  0.17970000  0.89670000  1.0 0.0798190702
H  H934  1  0.07030000  0.43010000  0.35330000  1.0 0.0798190702
H  H935  1  0.10370000  0.81990000  0.89670000  1.0 0.0798190702
H  H936  1  0.81990000  0.89670000  0.10370000  1.0 0.0798190702
H  H937  1  0.85330000  0.64630000  0.93010000  1.0 0.0798190702
H  H938  1  0.39670000  0.60370000  0.67970000  1.0 0.0798190702
H  H939  1  0.60370000  0.67970000  0.39670000  1.0 0.0798190702
H  H940  1  0.67970000  0.39670000  0.60370000  1.0 0.0798190702
H  H941  1  0.60370000  0.31990000  0.67970000  1.0 0.0798190702
H  H942  1  0.64630000  0.57030000  0.93010000  1.0 0.0798190702
H  H943  1  0.31990000  0.39670000  0.67970000  1.0 0.0798190702
H  H944  1  0.57030000  0.85330000  0.93010000  1.0 0.0798190702
H  H945  1  0.31990000  0.67970000  0.60370000  1.0 0.0798190702
H  H946  1  0.57030000  0.93010000  0.64630000  1.0 0.0798190702
H  H947  1  0.64630000  0.85330000  0.57030000  1.0 0.0798190702
H  H948  1  0.60370000  0.39670000  0.31990000  1.0 0.0798190702
H  H949  1  0.31990000  0.60370000  0.39670000  1.0 0.0798190702
H  H950  1  0.57030000  0.64630000  0.85330000  1.0 0.0798190702
H  H951  1  0.39670000  0.31990000  0.60370000  1.0 0.0798190702
H  H952  1  0.85330000  0.57030000  0.64630000  1.0 0.0798190702
H  H953  1  0.85330000  0.93010000  0.57030000  1.0 0.0798190702
H  H954  1  0.93010000  0.64630000  0.57030000  1.0 0.0798190702
H  H955  1  0.67970000  0.60370000  0.31990000  1.0 0.0798190702
H  H956  1  0.39670000  0.67970000  0.31990000  1.0 0.0798190702
H  H957  1  0.93010000  0.57030000  0.85330000  1.0 0.0798190702
H  H958  1  0.67970000  0.31990000  0.39670000  1.0 0.0798190702
H  H959  1  0.64630000  0.93010000  0.85330000  1.0 0.0798190702
H  H960  1  0.93010000  0.85330000  0.64630000  1.0 0.0798190702
H  H961  1  0.90160000  0.12240000  0.76880000  1.0 0.128870168
H  H962  1  0.34840000  0.12760000  0.04280000  1.0 0.128870168
H  H963  1  0.12760000  0.04280000  0.34840000  1.0 0.128870168
H  H964  1  0.04280000  0.34840000  0.12760000  1.0 0.128870168
H  H965  1  0.12760000  0.48120000  0.04280000  1.0 0.128870168
H  H966  1  0.12240000  0.20720000  0.76880000  1.0 0.128870168
H  H967  1  0.48120000  0.34840000  0.04280000  1.0 0.128870168
H  H968  1  0.20720000  0.90160000  0.76880000  1.0 0.128870168
H  H969  1  0.48120000  0.04280000  0.12760000  1.0 0.128870168
H  H970  1  0.20720000  0.76880000  0.12240000  1.0 0.128870168
H  H971  1  0.12240000  0.90160000  0.20720000  1.0 0.128870168
H  H972  1  0.12760000  0.34840000  0.48120000  1.0 0.128870168
H  H973  1  0.48120000  0.12760000  0.34840000  1.0 0.128870168
H  H974  1  0.20720000  0.12240000  0.90160000  1.0 0.128870168
H  H975  1  0.34840000  0.48120000  0.12760000  1.0 0.128870168
H  H976  1  0.90160000  0.20720000  0.12240000  1.0 0.128870168
H  H977  1  0.90160000  0.76880000  0.20720000  1.0 0.128870168
H  H978  1  0.76880000  0.12240000  0.20720000  1.0 0.128870168
H  H979  1  0.04280000  0.12760000  0.48120000  1.0 0.128870168
H  H980  1  0.34840000  0.04280000  0.48120000  1.0 0.128870168
H  H981  1  0.76880000  0.20720000  0.90160000  1.0 0.128870168
H  H982  1  0.04280000  0.48120000  0.34840000  1.0 0.128870168
H  H983  1  0.12240000  0.76880000  0.90160000  1.0 0.128870168
H  H984  1  0.76880000  0.90160000  0.12240000  1.0 0.128870168
H  H985  1  0.84840000  0.62760000  0.98120000  1.0 0.128870168
H  H986  1  0.40160000  0.62240000  0.70720000  1.0 0.128870168
H  H987  1  0.62240000  0.70720000  0.40160000  1.0 0.128870168
H  H988  1  0.70720000  0.40160000  0.62240000  1.0 0.128870168
H  H989  1  0.62240000  0.26880000  0.70720000  1.0 0.128870168
H  H990  1  0.62760000  0.54280000  0.98120000  1.0 0.128870168
H  H991  1  0.26880000  0.40160000  0.70720000  1.0 0.128870168
H  H992  1  0.54280000  0.84840000  0.98120000  1.0 0.128870168
H  H993  1  0.26880000  0.70720000  0.62240000  1.0 0.128870168
H  H994  1  0.54280000  0.98120000  0.62760000  1.0 0.128870168
H  H995  1  0.62760000  0.84840000  0.54280000  1.0 0.128870168
H  H996  1  0.62240000  0.40160000  0.26880000  1.0 0.128870168
H  H997  1  0.26880000  0.62240000  0.40160000  1.0 0.128870168
H  H998  1  0.54280000  0.62760000  0.84840000  1.0 0.128870168
H  H999  1  0.40160000  0.26880000  0.62240000  1.0 0.128870168
H  H1000  1  0.84840000  0.54280000  0.62760000  1.0 0.128870168
H  H1001  1  0.84840000  0.98120000  0.54280000  1.0 0.128870168
H  H1002  1  0.98120000  0.62760000  0.54280000  1.0 0.128870168
H  H1003  1  0.70720000  0.62240000  0.26880000  1.0 0.128870168
H  H1004  1  0.40160000  0.70720000  0.26880000  1.0 0.128870168
H  H1005  1  0.98120000  0.54280000  0.84840000  1.0 0.128870168
H  H1006  1  0.70720000  0.26880000  0.40160000  1.0 0.128870168
H  H1007  1  0.62760000  0.98120000  0.84840000  1.0 0.128870168
H  H1008  1  0.98120000  0.84840000  0.62760000  1.0 0.128870168
H  H1009  1  0.87430000  0.20870000  0.76870000  1.0 0.1370698993
H  H1010  1  0.37570000  0.04130000  0.10170000  1.0 0.1370698993
H  H1011  1  0.04130000  0.10170000  0.37570000  1.0 0.1370698993
H  H1012  1  0.10170000  0.37570000  0.04130000  1.0 0.1370698993
H  H1013  1  0.04130000  0.48130000  0.10170000  1.0 0.1370698993
H  H1014  1  0.20870000  0.14830000  0.76870000  1.0 0.1370698993
H  H1015  1  0.48130000  0.37570000  0.10170000  1.0 0.1370698993
H  H1016  1  0.14830000  0.87430000  0.76870000  1.0 0.1370698993
H  H1017  1  0.48130000  0.10170000  0.04130000  1.0 0.1370698993
H  H1018  1  0.14830000  0.76870000  0.20870000  1.0 0.1370698993
H  H1019  1  0.20870000  0.87430000  0.14830000  1.0 0.1370698993
H  H1020  1  0.04130000  0.37570000  0.48130000  1.0 0.1370698993
H  H1021  1  0.48130000  0.04130000  0.37570000  1.0 0.1370698993
H  H1022  1  0.14830000  0.20870000  0.87430000  1.0 0.1370698993
H  H1023  1  0.37570000  0.48130000  0.04130000  1.0 0.1370698993
H  H1024  1  0.87430000  0.14830000  0.20870000  1.0 0.1370698993
H  H1025  1  0.87430000  0.76870000  0.14830000  1.0 0.1370698993
H  H1026  1  0.76870000  0.20870000  0.14830000  1.0 0.1370698993
H  H1027  1  0.10170000  0.04130000  0.48130000  1.0 0.1370698993
H  H1028  1  0.37570000  0.10170000  0.48130000  1.0 0.1370698993
H  H1029  1  0.76870000  0.14830000  0.87430000  1.0 0.1370698993
H  H1030  1  0.10170000  0.48130000  0.37570000  1.0 0.1370698993
H  H1031  1  0.20870000  0.76870000  0.87430000  1.0 0.1370698993
H  H1032  1  0.76870000  0.87430000  0.20870000  1.0 0.1370698993
H  H1033  1  0.87570000  0.54130000  0.98130000  1.0 0.1370698993
H  H1034  1  0.37430000  0.70870000  0.64830000  1.0 0.1370698993
H  H1035  1  0.70870000  0.64830000  0.37430000  1.0 0.1370698993
H  H1036  1  0.64830000  0.37430000  0.70870000  1.0 0.1370698993
H  H1037  1  0.70870000  0.26870000  0.64830000  1.0 0.1370698993
H  H1038  1  0.54130000  0.60170000  0.98130000  1.0 0.1370698993
H  H1039  1  0.26870000  0.37430000  0.64830000  1.0 0.1370698993
H  H1040  1  0.60170000  0.87570000  0.98130000  1.0 0.1370698993
H  H1041  1  0.26870000  0.64830000  0.70870000  1.0 0.1370698993
H  H1042  1  0.60170000  0.98130000  0.54130000  1.0 0.1370698993
H  H1043  1  0.54130000  0.87570000  0.60170000  1.0 0.1370698993
H  H1044  1  0.70870000  0.37430000  0.26870000  1.0 0.1370698993
H  H1045  1  0.26870000  0.70870000  0.37430000  1.0 0.1370698993
H  H1046  1  0.60170000  0.54130000  0.87570000  1.0 0.1370698993
H  H1047  1  0.37430000  0.26870000  0.70870000  1.0 0.1370698993
H  H1048  1  0.87570000  0.60170000  0.54130000  1.0 0.1370698993
H  H1049  1  0.87570000  0.98130000  0.60170000  1.0 0.1370698993
H  H1050  1  0.98130000  0.54130000  0.60170000  1.0 0.1370698993
H  H1051  1  0.64830000  0.70870000  0.26870000  1.0 0.1370698993
H  H1052  1  0.37430000  0.64830000  0.26870000  1.0 0.1370698993
H  H1053  1  0.98130000  0.60170000  0.87570000  1.0 0.1370698993
H  H1054  1  0.64830000  0.26870000  0.37430000  1.0 0.1370698993
H  H1055  1  0.54130000  0.98130000  0.87570000  1.0 0.1370698993
H  H1056  1  0.98130000  0.87570000  0.54130000  1.0 0.1370698993
H  H1057  1  0.86850000  0.18730000  0.82130000  1.0 0.1007196155
H  H1058  1  0.38150000  0.06270000  0.12710000  1.0 0.1007196155
H  H1059  1  0.06270000  0.12710000  0.38150000  1.0 0.1007196155
H  H1060  1  0.12710000  0.38150000  0.06270000  1.0 0.1007196155
H  H1061  1  0.06270000  0.42870000  0.12710000  1.0 0.1007196155
H  H1062  1  0.18730000  0.12290000  0.82130000  1.0 0.1007196155
H  H1063  1  0.42870000  0.38150000  0.12710000  1.0 0.1007196155
H  H1064  1  0.12290000  0.86850000  0.82130000  1.0 0.1007196155
H  H1065  1  0.42870000  0.12710000  0.06270000  1.0 0.1007196155
H  H1066  1  0.12290000  0.82130000  0.18730000  1.0 0.1007196155
H  H1067  1  0.18730000  0.86850000  0.12290000  1.0 0.1007196155
H  H1068  1  0.06270000  0.38150000  0.42870000  1.0 0.1007196155
H  H1069  1  0.42870000  0.06270000  0.38150000  1.0 0.1007196155
H  H1070  1  0.12290000  0.18730000  0.86850000  1.0 0.1007196155
H  H1071  1  0.38150000  0.42870000  0.06270000  1.0 0.1007196155
H  H1072  1  0.86850000  0.12290000  0.18730000  1.0 0.1007196155
H  H1073  1  0.86850000  0.82130000  0.12290000  1.0 0.1007196155
H  H1074  1  0.82130000  0.18730000  0.12290000  1.0 0.1007196155
H  H1075  1  0.12710000  0.06270000  0.42870000  1.0 0.1007196155
H  H1076  1  0.38150000  0.12710000  0.42870000  1.0 0.1007196155
H  H1077  1  0.82130000  0.12290000  0.86850000  1.0 0.1007196155
H  H1078  1  0.12710000  0.42870000  0.38150000  1.0 0.1007196155
H  H1079  1  0.18730000  0.82130000  0.86850000  1.0 0.1007196155
H  H1080  1  0.82130000  0.86850000  0.18730000  1.0 0.1007196155
H  H1081  1  0.88150000  0.56270000  0.92870000  1.0 0.1007196155
H  H1082  1  0.36850000  0.68730000  0.62290000  1.0 0.1007196155
H  H1083  1  0.68730000  0.62290000  0.36850000  1.0 0.1007196155
H  H1084  1  0.62290000  0.36850000  0.68730000  1.0 0.1007196155
H  H1085  1  0.68730000  0.32130000  0.62290000  1.0 0.1007196155
H  H1086  1  0.56270000  0.62710000  0.92870000  1.0 0.1007196155
H  H1087  1  0.32130000  0.36850000  0.62290000  1.0 0.1007196155
H  H1088  1  0.62710000  0.88150000  0.92870000  1.0 0.1007196155
H  H1089  1  0.32130000  0.62290000  0.68730000  1.0 0.1007196155
H  H1090  1  0.62710000  0.92870000  0.56270000  1.0 0.1007196155
H  H1091  1  0.56270000  0.88150000  0.62710000  1.0 0.1007196155
H  H1092  1  0.68730000  0.36850000  0.32130000  1.0 0.1007196155
H  H1093  1  0.32130000  0.68730000  0.36850000  1.0 0.1007196155
H  H1094  1  0.62710000  0.56270000  0.88150000  1.0 0.1007196155
H  H1095  1  0.36850000  0.32130000  0.68730000  1.0 0.1007196155
H  H1096  1  0.88150000  0.62710000  0.56270000  1.0 0.1007196155
H  H1097  1  0.88150000  0.92870000  0.62710000  1.0 0.1007196155
H  H1098  1  0.92870000  0.56270000  0.62710000  1.0 0.1007196155
H  H1099  1  0.62290000  0.68730000  0.32130000  1.0 0.1007196155
H  H1100  1  0.36850000  0.62290000  0.32130000  1.0 0.1007196155
H  H1101  1  0.92870000  0.62710000  0.88150000  1.0 0.1007196155
H  H1102  1  0.62290000  0.32130000  0.36850000  1.0 0.1007196155
H  H1103  1  0.56270000  0.92870000  0.88150000  1.0 0.1007196155
H  H1104  1  0.92870000  0.88150000  0.56270000  1.0 0.1007196155
H  H1105  1  0.85320000  0.14380000  0.93220000  1.0 0.0798190702
H  H1106  1  0.39680000  0.10620000  0.17920000  1.0 0.0798190702
H  H1107  1  0.10620000  0.17920000  0.39680000  1.0 0.0798190702
H  H1108  1  0.17920000  0.39680000  0.10620000  1.0 0.0798190702
H  H1109  1  0.10620000  0.31780000  0.17920000  1.0 0.0798190702
H  H1110  1  0.14380000  0.07080000  0.93220000  1.0 0.0798190702
H  H1111  1  0.31780000  0.39680000  0.17920000  1.0 0.0798190702
H  H1112  1  0.07080000  0.85320000  0.93220000  1.0 0.0798190702
H  H1113  1  0.31780000  0.17920000  0.10620000  1.0 0.0798190702
H  H1114  1  0.07080000  0.93220000  0.14380000  1.0 0.0798190702
H  H1115  1  0.14380000  0.85320000  0.07080000  1.0 0.0798190702
H  H1116  1  0.10620000  0.39680000  0.31780000  1.0 0.0798190702
H  H1117  1  0.31780000  0.10620000  0.39680000  1.0 0.0798190702
H  H1118  1  0.07080000  0.14380000  0.85320000  1.0 0.0798190702
H  H1119  1  0.39680000  0.31780000  0.10620000  1.0 0.0798190702
H  H1120  1  0.85320000  0.07080000  0.14380000  1.0 0.0798190702
H  H1121  1  0.85320000  0.93220000  0.07080000  1.0 0.0798190702
H  H1122  1  0.93220000  0.14380000  0.07080000  1.0 0.0798190702
H  H1123  1  0.17920000  0.10620000  0.31780000  1.0 0.0798190702
H  H1124  1  0.39680000  0.17920000  0.31780000  1.0 0.0798190702
H  H1125  1  0.93220000  0.07080000  0.85320000  1.0 0.0798190702
H  H1126  1  0.17920000  0.31780000  0.39680000  1.0 0.0798190702
H  H1127  1  0.14380000  0.93220000  0.85320000  1.0 0.0798190702
H  H1128  1  0.93220000  0.85320000  0.14380000  1.0 0.0798190702
H  H1129  1  0.89680000  0.60620000  0.81780000  1.0 0.0798190702
H  H1130  1  0.35320000  0.64380000  0.57080000  1.0 0.0798190702
H  H1131  1  0.64380000  0.57080000  0.35320000  1.0 0.0798190702
H  H1132  1  0.57080000  0.35320000  0.64380000  1.0 0.0798190702
H  H1133  1  0.64380000  0.43220000  0.57080000  1.0 0.0798190702
H  H1134  1  0.60620000  0.67920000  0.81780000  1.0 0.0798190702
H  H1135  1  0.43220000  0.35320000  0.57080000  1.0 0.0798190702
H  H1136  1  0.67920000  0.89680000  0.81780000  1.0 0.0798190702
H  H1137  1  0.43220000  0.57080000  0.64380000  1.0 0.0798190702
H  H1138  1  0.67920000  0.81780000  0.60620000  1.0 0.0798190702
H  H1139  1  0.60620000  0.89680000  0.67920000  1.0 0.0798190702
H  H1140  1  0.64380000  0.35320000  0.43220000  1.0 0.0798190702
H  H1141  1  0.43220000  0.64380000  0.35320000  1.0 0.0798190702
H  H1142  1  0.67920000  0.60620000  0.89680000  1.0 0.0798190702
H  H1143  1  0.35320000  0.43220000  0.64380000  1.0 0.0798190702
H  H1144  1  0.89680000  0.67920000  0.60620000  1.0 0.0798190702
H  H1145  1  0.89680000  0.81780000  0.67920000  1.0 0.0798190702
H  H1146  1  0.81780000  0.60620000  0.67920000  1.0 0.0798190702
H  H1147  1  0.57080000  0.64380000  0.43220000  1.0 0.0798190702
H  H1148  1  0.35320000  0.57080000  0.43220000  1.0 0.0798190702
H  H1149  1  0.81780000  0.67920000  0.89680000  1.0 0.0798190702
H  H1150  1  0.57080000  0.43220000  0.35320000  1.0 0.0798190702
H  H1151  1  0.60620000  0.81780000  0.89680000  1.0 0.0798190702
H  H1152  1  0.81780000  0.89680000  0.60620000  1.0 0.0798190702
H  H1153  1  0.84760000  0.12180000  0.98340000  1.0 0.128870168
H  H1154  1  0.40240000  0.12820000  0.20280000  1.0 0.128870168
H  H1155  1  0.12820000  0.20280000  0.40240000  1.0 0.128870168
H  H1156  1  0.20280000  0.40240000  0.12820000  1.0 0.128870168
H  H1157  1  0.12820000  0.26660000  0.20280000  1.0 0.128870168
H  H1158  1  0.12180000  0.04720000  0.98340000  1.0 0.1188968098
H  H1159  1  0.26660000  0.40240000  0.20280000  1.0 0.128870168
H  H1160  1  0.04720000  0.84760000  0.98340000  1.0 0.128870168
H  H1161  1  0.26660000  0.20280000  0.12820000  1.0 0.128870168
H  H1162  1  0.04720000  0.98340000  0.12180000  1.0 0.128870168
H  H1163  1  0.12180000  0.84760000  0.04720000  1.0 0.128870168
H  H1164  1  0.12820000  0.40240000  0.26660000  1.0 0.128870168
H  H1165  1  0.26660000  0.12820000  0.40240000  1.0 0.128870168
H  H1166  1  0.04720000  0.12180000  0.84760000  1.0 0.128870168
H  H1167  1  0.40240000  0.26660000  0.12820000  1.0 0.128870168
H  H1168  1  0.84760000  0.04720000  0.12180000  1.0 0.128870168
H  H1169  1  0.84760000  0.98340000  0.04720000  1.0 0.128870168
H  H1170  1  0.98340000  0.12180000  0.04720000  1.0 0.128870168
H  H1171  1  0.20280000  0.12820000  0.26660000  1.0 0.128870168
H  H1172  1  0.40240000  0.20280000  0.26660000  1.0 0.128870168
H  H1173  1  0.98340000  0.04720000  0.84760000  1.0 0.128870168
H  H1174  1  0.20280000  0.26660000  0.40240000  1.0 0.128870168
H  H1175  1  0.12180000  0.98340000  0.84760000  1.0 0.128870168
H  H1176  1  0.98340000  0.84760000  0.12180000  1.0 0.128870168
H  H1177  1  0.90240000  0.62820000  0.76660000  1.0 0.128870168
H  H1178  1  0.34760000  0.62180000  0.54720000  1.0 0.128870168
H  H1179  1  0.62180000  0.54720000  0.34760000  1.0 0.128870168
H  H1180  1  0.54720000  0.34760000  0.62180000  1.0 0.128870168
H  H1181  1  0.62180000  0.48340000  0.54720000  1.0 0.128870168
H  H1182  1  0.62820000  0.70280000  0.76660000  1.0 0.128870168
H  H1183  1  0.48340000  0.34760000  0.54720000  1.0 0.128870168
H  H1184  1  0.70280000  0.90240000  0.76660000  1.0 0.128870168
H  H1185  1  0.48340000  0.54720000  0.62180000  1.0 0.128870168
H  H1186  1  0.70280000  0.76660000  0.62820000  1.0 0.128870168
H  H1187  1  0.62820000  0.90240000  0.70280000  1.0 0.128870168
H  H1188  1  0.62180000  0.34760000  0.48340000  1.0 0.128870168
H  H1189  1  0.48340000  0.62180000  0.34760000  1.0 0.128870168
H  H1190  1  0.70280000  0.62820000  0.90240000  1.0 0.128870168
H  H1191  1  0.34760000  0.48340000  0.62180000  1.0 0.128870168
H  H1192  1  0.90240000  0.70280000  0.62820000  1.0 0.128870168
H  H1193  1  0.90240000  0.76660000  0.70280000  1.0 0.128870168
H  H1194  1  0.76660000  0.62820000  0.70280000  1.0 0.128870168
H  H1195  1  0.54720000  0.62180000  0.48340000  1.0 0.128870168
H  H1196  1  0.34760000  0.54720000  0.48340000  1.0 0.128870168
H  H1197  1  0.76660000  0.70280000  0.90240000  1.0 0.128870168
H  H1198  1  0.54720000  0.48340000  0.34760000  1.0 0.128870168
H  H1199  1  0.62820000  0.76660000  0.90240000  1.0 0.128870168
H  H1200  1  0.76660000  0.90240000  0.62820000  1.0 0.128870168
H  H1201  1  0.87330000  0.03930000  0.97770000  1.0 0.1188968098
H  H1202  1  0.37670000  0.21070000  0.14030000  1.0 0.1188968098
H  H1203  1  0.21070000  0.14030000  0.37670000  1.0 0.1188968098
H  H1204  1  0.14030000  0.37670000  0.21070000  1.0 0.1188968098
H  H1205  1  0.21070000  0.27230000  0.14030000  1.0 0.1188968098
H  H1206  1  0.03930000  0.10970000  0.97770000  1.0 0.1188968098
H  H1207  1  0.27230000  0.37670000  0.14030000  1.0 0.1188968098
H  H1208  1  0.10970000  0.87330000  0.97770000  1.0 0.1188968098
H  H1209  1  0.27230000  0.14030000  0.21070000  1.0 0.1188968098
H  H1210  1  0.10970000  0.97770000  0.03930000  1.0 0.1188968098
H  H1211  1  0.03930000  0.87330000  0.10970000  1.0 0.1188968098
H  H1212  1  0.21070000  0.37670000  0.27230000  1.0 0.1188968098
H  H1213  1  0.27230000  0.21070000  0.37670000  1.0 0.1188968098
H  H1214  1  0.10970000  0.03930000  0.87330000  1.0 0.1188968098
H  H1215  1  0.37670000  0.27230000  0.21070000  1.0 0.1188968098
H  H1216  1  0.87330000  0.10970000  0.03930000  1.0 0.1188968098
H  H1217  1  0.87330000  0.97770000  0.10970000  1.0 0.1188968098
H  H1218  1  0.97770000  0.03930000  0.10970000  1.0 0.1188968098
H  H1219  1  0.14030000  0.21070000  0.27230000  1.0 0.1188968098
H  H1220  1  0.37670000  0.14030000  0.27230000  1.0 0.1188968098
H  H1221  1  0.97770000  0.10970000  0.87330000  1.0 0.1188968098
H  H1222  1  0.14030000  0.27230000  0.37670000  1.0 0.1188968098
H  H1223  1  0.03930000  0.97770000  0.87330000  1.0 0.1188968098
H  H1224  1  0.97770000  0.87330000  0.03930000  1.0 0.1188968098
H  H1225  1  0.87670000  0.71070000  0.77230000  1.0 0.1188968098
H  H1226  1  0.37330000  0.53930000  0.60970000  1.0 0.1188968098
H  H1227  1  0.53930000  0.60970000  0.37330000  1.0 0.1188968098
H  H1228  1  0.60970000  0.37330000  0.53930000  1.0 0.1188968098
H  H1229  1  0.53930000  0.47770000  0.60970000  1.0 0.1188968098
H  H1230  1  0.71070000  0.64030000  0.77230000  1.0 0.1188968098
H  H1231  1  0.47770000  0.37330000  0.60970000  1.0 0.1188968098
H  H1232  1  0.64030000  0.87670000  0.77230000  1.0 0.1188968098
H  H1233  1  0.47770000  0.60970000  0.53930000  1.0 0.1188968098
H  H1234  1  0.64030000  0.77230000  0.71070000  1.0 0.1188968098
H  H1235  1  0.71070000  0.87670000  0.64030000  1.0 0.1188968098
H  H1236  1  0.53930000  0.37330000  0.47770000  1.0 0.1188968098
H  H1237  1  0.47770000  0.53930000  0.37330000  1.0 0.1188968098
H  H1238  1  0.64030000  0.71070000  0.87670000  1.0 0.1188968098
H  H1239  1  0.37330000  0.47770000  0.53930000  1.0 0.1188968098
H  H1240  1  0.87670000  0.64030000  0.71070000  1.0 0.1188968098
H  H1241  1  0.87670000  0.77230000  0.64030000  1.0 0.1188968098
H  H1242  1  0.77230000  0.71070000  0.64030000  1.0 0.1188968098
H  H1243  1  0.60970000  0.53930000  0.47770000  1.0 0.1188968098
H  H1244  1  0.37330000  0.60970000  0.47770000  1.0 0.1188968098
H  H1245  1  0.77230000  0.64030000  0.87670000  1.0 0.1188968098
H  H1246  1  0.60970000  0.47770000  0.37330000  1.0 0.1188968098
H  H1247  1  0.71070000  0.77230000  0.87670000  1.0 0.1188968098
H  H1248  1  0.77230000  0.87670000  0.71070000  1.0 0.1188968098
H  H1249  1  0.88280000  0.06340000  0.92480000  1.0 0.0899659653
H  H1250  1  0.36720000  0.18660000  0.12100000  1.0 0.0899659653
H  H1251  1  0.18660000  0.12100000  0.36720000  1.0 0.0899659653
H  H1252  1  0.12100000  0.36720000  0.18660000  1.0 0.0899659653
H  H1253  1  0.18660000  0.32520000  0.12100000  1.0 0.0899659653
H  H1254  1  0.06340000  0.12900000  0.92480000  1.0 0.0899659653
H  H1255  1  0.32520000  0.36720000  0.12100000  1.0 0.0899659653
H  H1256  1  0.12900000  0.88280000  0.92480000  1.0 0.0899659653
H  H1257  1  0.32520000  0.12100000  0.18660000  1.0 0.0899659653
H  H1258  1  0.12900000  0.92480000  0.06340000  1.0 0.0899659653
H  H1259  1  0.06340000  0.88280000  0.12900000  1.0 0.0899659653
H  H1260  1  0.18660000  0.36720000  0.32520000  1.0 0.0899659653
H  H1261  1  0.32520000  0.18660000  0.36720000  1.0 0.0899659653
H  H1262  1  0.12900000  0.06340000  0.88280000  1.0 0.0899659653
H  H1263  1  0.36720000  0.32520000  0.18660000  1.0 0.0899659653
H  H1264  1  0.88280000  0.12900000  0.06340000  1.0 0.0899659653
H  H1265  1  0.88280000  0.92480000  0.12900000  1.0 0.0899659653
H  H1266  1  0.92480000  0.06340000  0.12900000  1.0 0.0899659653
H  H1267  1  0.12100000  0.18660000  0.32520000  1.0 0.0899659653
H  H1268  1  0.36720000  0.12100000  0.32520000  1.0 0.0899659653
H  H1269  1  0.92480000  0.12900000  0.88280000  1.0 0.0899659653
H  H1270  1  0.12100000  0.32520000  0.36720000  1.0 0.0899659653
H  H1271  1  0.06340000  0.92480000  0.88280000  1.0 0.0899659653
H  H1272  1  0.92480000  0.88280000  0.06340000  1.0 0.0899659653
H  H1273  1  0.86720000  0.68660000  0.82520000  1.0 0.0899659653
H  H1274  1  0.38280000  0.56340000  0.62900000  1.0 0.0899659653
H  H1275  1  0.56340000  0.62900000  0.38280000  1.0 0.0899659653
H  H1276  1  0.62900000  0.38280000  0.56340000  1.0 0.0899659653
H  H1277  1  0.56340000  0.42480000  0.62900000  1.0 0.0899659653
H  H1278  1  0.68660000  0.62100000  0.82520000  1.0 0.0899659653
H  H1279  1  0.42480000  0.38280000  0.62900000  1.0 0.0899659653
H  H1280  1  0.62100000  0.86720000  0.82520000  1.0 0.0899659653
H  H1281  1  0.42480000  0.62900000  0.56340000  1.0 0.0899659653
H  H1282  1  0.62100000  0.82520000  0.68660000  1.0 0.0899659653
H  H1283  1  0.68660000  0.86720000  0.62100000  1.0 0.0899659653
H  H1284  1  0.56340000  0.38280000  0.42480000  1.0 0.0899659653
H  H1285  1  0.42480000  0.56340000  0.38280000  1.0 0.0899659653
H  H1286  1  0.62100000  0.68660000  0.86720000  1.0 0.0899659653
H  H1287  1  0.38280000  0.42480000  0.56340000  1.0 0.0899659653
H  H1288  1  0.86720000  0.62100000  0.68660000  1.0 0.0899659653
H  H1289  1  0.86720000  0.82520000  0.62100000  1.0 0.0899659653
H  H1290  1  0.82520000  0.68660000  0.62100000  1.0 0.0899659653
H  H1291  1  0.62900000  0.56340000  0.42480000  1.0 0.0899659653
H  H1292  1  0.38280000  0.62900000  0.42480000  1.0 0.0899659653
H  H1293  1  0.82520000  0.62100000  0.86720000  1.0 0.0899659653
H  H1294  1  0.62900000  0.42480000  0.38280000  1.0 0.0899659653
H  H1295  1  0.68660000  0.82520000  0.86720000  1.0 0.0899659653
H  H1296  1  0.82520000  0.86720000  0.68660000  1.0 0.0899659653
C  C1  1  0.82723000  0.94243000  0.02597000  1.0 0.1880900121
C  C2  1  0.42277000  0.30757000  0.04563000  1.0 0.1880900121
C  C3  1  0.30757000  0.04563000  0.42277000  1.0 0.1880900121
C  C4  1  0.04563000  0.42277000  0.30757000  1.0 0.1880900121
C  C5  1  0.30757000  0.22403000  0.04563000  1.0 0.1880900121
C  C6  1  0.94243000  0.20437000  0.02597000  1.0 0.1880900121
C  C7  1  0.22403000  0.42277000  0.04563000  1.0 0.1880900121
C  C8  1  0.20437000  0.82723000  0.02597000  1.0 0.1880900121
C  C9  1  0.22403000  0.04563000  0.30757000  1.0 0.1880900121
C  C10  1  0.20437000  0.02597000  0.94243000  1.0 0.1880900121
C  C11  1  0.94243000  0.82723000  0.20437000  1.0 0.1880900121
C  C12  1  0.30757000  0.42277000  0.22403000  1.0 0.1880900121
C  C13  1  0.22403000  0.30757000  0.42277000  1.0 0.1880900121
C  C14  1  0.20437000  0.94243000  0.82723000  1.0 0.1880900121
C  C15  1  0.42277000  0.22403000  0.30757000  1.0 0.1880900121
C  C16  1  0.82723000  0.20437000  0.94243000  1.0 0.1880900121
C  C17  1  0.82723000  0.02597000  0.20437000  1.0 0.1880900121
C  C18  1  0.02597000  0.94243000  0.20437000  1.0 0.1880900121
C  C19  1  0.04563000  0.30757000  0.22403000  1.0 0.1880900121
C  C20  1  0.42277000  0.04563000  0.22403000  1.0 0.1880900121
C  C21  1  0.02597000  0.20437000  0.82723000  1.0 0.1880900121
C  C22  1  0.04563000  0.22403000  0.42277000  1.0 0.1880900121
C  C23  1  0.94243000  0.02597000  0.82723000  1.0 0.1880900121
C  C24  1  0.02597000  0.82723000  0.94243000  1.0 0.1880900121
C  C25  1  0.92277000  0.80757000  0.72403000  1.0 0.1880900121
C  C26  1  0.32723000  0.44243000  0.70437000  1.0 0.1880900121
C  C27  1  0.44243000  0.70437000  0.32723000  1.0 0.1880900121
C  C28  1  0.70437000  0.32723000  0.44243000  1.0 0.1880900121
C  C29  1  0.44243000  0.52597000  0.70437000  1.0 0.1880900121
C  C30  1  0.80757000  0.54563000  0.72403000  1.0 0.1880900121
C  C31  1  0.52597000  0.32723000  0.70437000  1.0 0.1880900121
C  C32  1  0.54563000  0.92277000  0.72403000  1.0 0.1880900121
C  C33  1  0.52597000  0.70437000  0.44243000  1.0 0.1880900121
C  C34  1  0.54563000  0.72403000  0.80757000  1.0 0.1880900121
C  C35  1  0.80757000  0.92277000  0.54563000  1.0 0.1880900121
C  C36  1  0.44243000  0.32723000  0.52597000  1.0 0.1880900121
C  C37  1  0.52597000  0.44243000  0.32723000  1.0 0.1880900121
C  C38  1  0.54563000  0.80757000  0.92277000  1.0 0.1880900121
C  C39  1  0.32723000  0.52597000  0.44243000  1.0 0.1880900121
C  C40  1  0.92277000  0.54563000  0.80757000  1.0 0.1880900121
C  C41  1  0.92277000  0.72403000  0.54563000  1.0 0.1880900121
C  C42  1  0.72403000  0.80757000  0.54563000  1.0 0.1880900121
C  C43  1  0.70437000  0.44243000  0.52597000  1.0 0.1880900121
C  C44  1  0.32723000  0.70437000  0.52597000  1.0 0.1880900121
C  C45  1  0.72403000  0.54563000  0.92277000  1.0 0.1880900121
C  C46  1  0.70437000  0.52597000  0.32723000  1.0 0.1880900121
C  C47  1  0.80757000  0.72403000  0.92277000  1.0 0.1880900121
C  C48  1  0.72403000  0.92277000  0.80757000  1.0 0.1880900121
C  C49  1  0.80086000  0.96286000  0.03818000  1.0 -0.2169976334
C  C50  1  0.44914000  0.28714000  0.05190000  1.0 -0.2169976334
C  C51  1  0.28714000  0.05190000  0.44914000  1.0 -0.2169976334
C  C52  1  0.05190000  0.44914000  0.28714000  1.0 -0.2169976334
C  C53  1  0.28714000  0.21182000  0.05190000  1.0 -0.2169976334
C  C54  1  0.96286000  0.19810000  0.03818000  1.0 -0.2169976334
C  C55  1  0.21182000  0.44914000  0.05190000  1.0 -0.2169976334
C  C56  1  0.19810000  0.80086000  0.03818000  1.0 -0.2169976334
C  C57  1  0.21182000  0.05190000  0.28714000  1.0 -0.2169976334
C  C58  1  0.19810000  0.03818000  0.96286000  1.0 -0.2169976334
C  C59  1  0.96286000  0.80086000  0.19810000  1.0 -0.2169976334
C  C60  1  0.28714000  0.44914000  0.21182000  1.0 -0.2169976334
C  C61  1  0.21182000  0.28714000  0.44914000  1.0 -0.2169976334
C  C62  1  0.19810000  0.96286000  0.80086000  1.0 -0.2169976334
C  C63  1  0.44914000  0.21182000  0.28714000  1.0 -0.2169976334
C  C64  1  0.80086000  0.19810000  0.96286000  1.0 -0.2169976334
C  C65  1  0.80086000  0.03818000  0.19810000  1.0 -0.2169976334
C  C66  1  0.03818000  0.96286000  0.19810000  1.0 -0.2169976334
C  C67  1  0.05190000  0.28714000  0.21182000  1.0 -0.2169976334
C  C68  1  0.44914000  0.05190000  0.21182000  1.0 -0.2169976334
C  C69  1  0.03818000  0.19810000  0.80086000  1.0 -0.2169976334
C  C70  1  0.05190000  0.21182000  0.44914000  1.0 -0.2169976334
C  C71  1  0.96286000  0.03818000  0.80086000  1.0 -0.2169976334
C  C72  1  0.03818000  0.80086000  0.96286000  1.0 -0.2169976334
C  C73  1  0.94914000  0.78714000  0.71182000  1.0 -0.2169976334
C  C74  1  0.30086000  0.46286000  0.69810000  1.0 -0.2169976334
C  C75  1  0.46286000  0.69810000  0.30086000  1.0 -0.2169976334
C  C76  1  0.69810000  0.30086000  0.46286000  1.0 -0.2169976334
C  C77  1  0.46286000  0.53818000  0.69810000  1.0 -0.2169976334
C  C78  1  0.78714000  0.55190000  0.71182000  1.0 -0.2169976334
C  C79  1  0.53818000  0.30086000  0.69810000  1.0 -0.2169976334
C  C80  1  0.55190000  0.94914000  0.71182000  1.0 -0.2169976334
C  C81  1  0.53818000  0.69810000  0.46286000  1.0 -0.2169976334
C  C82  1  0.55190000  0.71182000  0.78714000  1.0 -0.2169976334
C  C83  1  0.78714000  0.94914000  0.55190000  1.0 -0.2169976334
C  C84  1  0.46286000  0.30086000  0.53818000  1.0 -0.2169976334
C  C85  1  0.53818000  0.46286000  0.30086000  1.0 -0.2169976334
C  C86  1  0.55190000  0.78714000  0.94914000  1.0 -0.2169976334
C  C87  1  0.30086000  0.53818000  0.46286000  1.0 -0.2169976334
C  C88  1  0.94914000  0.55190000  0.78714000  1.0 -0.2169976334
C  C89  1  0.94914000  0.71182000  0.55190000  1.0 -0.2169976334
C  C90  1  0.71182000  0.78714000  0.55190000  1.0 -0.2169976334
C  C91  1  0.69810000  0.46286000  0.53818000  1.0 -0.2169976334
C  C92  1  0.30086000  0.69810000  0.53818000  1.0 -0.2169976334
C  C93  1  0.71182000  0.55190000  0.94914000  1.0 -0.2169976334
C  C94  1  0.69810000  0.53818000  0.30086000  1.0 -0.2169976334
C  C95  1  0.78714000  0.71182000  0.94914000  1.0 -0.2169976334
C  C96  1  0.71182000  0.94914000  0.78714000  1.0 -0.2169976334
C  C97  1  0.79759000  0.99405000  0.02335000  1.0 -0.1682731108
C  C98  1  0.45241000  0.25595000  0.06499000  1.0 -0.1682731108
C  C99  1  0.25595000  0.06499000  0.45241000  1.0 -0.1682731108
C  C100  1  0.06499000  0.45241000  0.25595000  1.0 -0.1682731108
C  C101  1  0.25595000  0.22665000  0.06499000  1.0 -0.1682731108
C  C102  1  0.99405000  0.18501000  0.02335000  1.0 -0.1682731108
C  C103  1  0.22665000  0.45241000  0.06499000  1.0 -0.1682731108
C  C104  1  0.18501000  0.79759000  0.02335000  1.0 -0.1682731108
C  C105  1  0.22665000  0.06499000  0.25595000  1.0 -0.1682731108
C  C106  1  0.18501000  0.02335000  0.99405000  1.0 -0.1682731108
C  C107  1  0.99405000  0.79759000  0.18501000  1.0 -0.1682731108
C  C108  1  0.25595000  0.45241000  0.22665000  1.0 -0.1682731108
C  C109  1  0.22665000  0.25595000  0.45241000  1.0 -0.1682731108
C  C110  1  0.18501000  0.99405000  0.79759000  1.0 -0.1682731108
C  C111  1  0.45241000  0.22665000  0.25595000  1.0 -0.1682731108
C  C112  1  0.79759000  0.18501000  0.99405000  1.0 -0.1682731108
C  C113  1  0.79759000  0.02335000  0.18501000  1.0 -0.1682731108
C  C114  1  0.02335000  0.99405000  0.18501000  1.0 -0.1682731108
C  C115  1  0.06499000  0.25595000  0.22665000  1.0 -0.1682731108
C  C116  1  0.45241000  0.06499000  0.22665000  1.0 -0.1682731108
C  C117  1  0.02335000  0.18501000  0.79759000  1.0 -0.1682731108
C  C118  1  0.06499000  0.22665000  0.45241000  1.0 -0.1682731108
C  C119  1  0.99405000  0.02335000  0.79759000  1.0 -0.1682731108
C  C120  1  0.02335000  0.79759000  0.99405000  1.0 -0.1682731108
C  C121  1  0.95241000  0.75595000  0.72665000  1.0 -0.1682731108
C  C122  1  0.29759000  0.49405000  0.68501000  1.0 -0.1682731108
C  C123  1  0.49405000  0.68501000  0.29759000  1.0 -0.1682731108
C  C124  1  0.68501000  0.29759000  0.49405000  1.0 -0.1682731108
C  C125  1  0.49405000  0.52335000  0.68501000  1.0 -0.1682731108
C  C126  1  0.75595000  0.56499000  0.72665000  1.0 -0.1682731108
C  C127  1  0.52335000  0.29759000  0.68501000  1.0 -0.1682731108
C  C128  1  0.56499000  0.95241000  0.72665000  1.0 -0.1682731108
C  C129  1  0.52335000  0.68501000  0.49405000  1.0 -0.1682731108
C  C130  1  0.56499000  0.72665000  0.75595000  1.0 -0.1682731108
C  C131  1  0.75595000  0.95241000  0.56499000  1.0 -0.1682731108
C  C132  1  0.49405000  0.29759000  0.52335000  1.0 -0.1682731108
C  C133  1  0.52335000  0.49405000  0.29759000  1.0 -0.1682731108
C  C134  1  0.56499000  0.75595000  0.95241000  1.0 -0.1682731108
C  C135  1  0.29759000  0.52335000  0.49405000  1.0 -0.1682731108
C  C136  1  0.95241000  0.56499000  0.75595000  1.0 -0.1682731108
C  C137  1  0.95241000  0.72665000  0.56499000  1.0 -0.1682731108
C  C138  1  0.72665000  0.75595000  0.56499000  1.0 -0.1682731108
C  C139  1  0.68501000  0.49405000  0.52335000  1.0 -0.1682731108
C  C140  1  0.29759000  0.68501000  0.52335000  1.0 -0.1682731108
C  C141  1  0.72665000  0.56499000  0.95241000  1.0 -0.1682731108
C  C142  1  0.68501000  0.52335000  0.29759000  1.0 -0.1682731108
C  C143  1  0.75595000  0.72665000  0.95241000  1.0 -0.1682731108
C  C144  1  0.72665000  0.95241000  0.75595000  1.0 -0.1682731108
C  C145  1  0.82149000  0.00327000  0.99761000  1.0 0.1985148337
C  C146  1  0.42851000  0.24673000  0.07237000  1.0 0.1985148337
C  C147  1  0.24673000  0.07237000  0.42851000  1.0 0.1985148337
C  C148  1  0.07237000  0.42851000  0.24673000  1.0 0.1985148337
C  C149  1  0.24673000  0.25239000  0.07237000  1.0 0.1985148337
C  C150  1  0.00327000  0.17763000  0.99761000  1.0 0.1985148337
C  C151  1  0.25239000  0.42851000  0.07237000  1.0 0.1985148337
C  C152  1  0.17763000  0.82149000  0.99761000  1.0 0.1985148337
C  C153  1  0.25239000  0.07237000  0.24673000  1.0 0.1985148337
C  C154  1  0.17763000  0.99761000  0.00327000  1.0 0.1985148337
C  C155  1  0.00327000  0.82149000  0.17763000  1.0 0.1985148337
C  C156  1  0.24673000  0.42851000  0.25239000  1.0 0.1985148337
C  C157  1  0.25239000  0.24673000  0.42851000  1.0 0.1985148337
C  C158  1  0.17763000  0.00327000  0.82149000  1.0 0.1985148337
C  C159  1  0.42851000  0.25239000  0.24673000  1.0 0.1985148337
C  C160  1  0.82149000  0.17763000  0.00327000  1.0 0.1985148337
C  C161  1  0.82149000  0.99761000  0.17763000  1.0 0.1985148337
C  C162  1  0.99761000  0.00327000  0.17763000  1.0 0.1985148337
C  C163  1  0.07237000  0.24673000  0.25239000  1.0 0.1985148337
C  C164  1  0.42851000  0.07237000  0.25239000  1.0 0.1985148337
C  C165  1  0.99761000  0.17763000  0.82149000  1.0 0.1985148337
C  C166  1  0.07237000  0.25239000  0.42851000  1.0 0.1985148337
C  C167  1  0.00327000  0.99761000  0.82149000  1.0 0.1985148337
C  C168  1  0.99761000  0.82149000  0.00327000  1.0 0.1985148337
C  C169  1  0.92851000  0.74673000  0.75239000  1.0 0.1985148337
C  C170  1  0.32149000  0.50327000  0.67763000  1.0 0.1985148337
C  C171  1  0.50327000  0.67763000  0.32149000  1.0 0.1985148337
C  C172  1  0.67763000  0.32149000  0.50327000  1.0 0.1985148337
C  C173  1  0.50327000  0.49761000  0.67763000  1.0 0.1985148337
C  C174  1  0.74673000  0.57237000  0.75239000  1.0 0.1985148337
C  C175  1  0.49761000  0.32149000  0.67763000  1.0 0.1985148337
C  C176  1  0.57237000  0.92851000  0.75239000  1.0 0.1985148337
C  C177  1  0.49761000  0.67763000  0.50327000  1.0 0.1985148337
C  C178  1  0.57237000  0.75239000  0.74673000  1.0 0.1985148337
C  C179  1  0.74673000  0.92851000  0.57237000  1.0 0.1985148337
C  C180  1  0.50327000  0.32149000  0.49761000  1.0 0.1985148337
C  C181  1  0.49761000  0.50327000  0.32149000  1.0 0.1985148337
C  C182  1  0.57237000  0.74673000  0.92851000  1.0 0.1985148337
C  C183  1  0.32149000  0.49761000  0.50327000  1.0 0.1985148337
C  C184  1  0.92851000  0.57237000  0.74673000  1.0 0.1985148337
C  C185  1  0.92851000  0.75239000  0.57237000  1.0 0.1985148337
C  C186  1  0.75239000  0.74673000  0.57237000  1.0 0.1985148337
C  C187  1  0.67763000  0.50327000  0.49761000  1.0 0.1985148337
C  C188  1  0.32149000  0.67763000  0.49761000  1.0 0.1985148337
C  C189  1  0.75239000  0.57237000  0.92851000  1.0 0.1985148337
C  C190  1  0.67763000  0.49761000  0.32149000  1.0 0.1985148337
C  C191  1  0.74673000  0.75239000  0.92851000  1.0 0.1985148337
C  C192  1  0.75239000  0.92851000  0.74673000  1.0 0.1985148337
C  C193  1  0.84868000  0.98130000  0.98666000  1.0 -0.1822351838
C  C194  1  0.40132000  0.26870000  0.06664000  1.0 -0.1822351838
C  C195  1  0.26870000  0.06664000  0.40132000  1.0 -0.1822351838
C  C196  1  0.06664000  0.40132000  0.26870000  1.0 -0.1822351838
C  C197  1  0.26870000  0.26334000  0.06664000  1.0 -0.1822351838
C  C198  1  0.98130000  0.18336000  0.98666000  1.0 -0.1822351838
C  C199  1  0.26334000  0.40132000  0.06664000  1.0 -0.1822351838
C  C200  1  0.18336000  0.84868000  0.98666000  1.0 -0.1822351838
C  C201  1  0.26334000  0.06664000  0.26870000  1.0 -0.1822351838
C  C202  1  0.18336000  0.98666000  0.98130000  1.0 -0.1822351838
C  C203  1  0.98130000  0.84868000  0.18336000  1.0 -0.1822351838
C  C204  1  0.26870000  0.40132000  0.26334000  1.0 -0.1822351838
C  C205  1  0.26334000  0.26870000  0.40132000  1.0 -0.1822351838
C  C206  1  0.18336000  0.98130000  0.84868000  1.0 -0.1822351838
C  C207  1  0.40132000  0.26334000  0.26870000  1.0 -0.1822351838
C  C208  1  0.84868000  0.18336000  0.98130000  1.0 -0.1822351838
C  C209  1  0.84868000  0.98666000  0.18336000  1.0 -0.1822351838
C  C210  1  0.98666000  0.98130000  0.18336000  1.0 -0.1822351838
C  C211  1  0.06664000  0.26870000  0.26334000  1.0 -0.1822351838
C  C212  1  0.40132000  0.06664000  0.26334000  1.0 -0.1822351838
C  C213  1  0.98666000  0.18336000  0.84868000  1.0 -0.1822351838
C  C214  1  0.06664000  0.26334000  0.40132000  1.0 -0.1822351838
C  C215  1  0.98130000  0.98666000  0.84868000  1.0 -0.1822351838
C  C216  1  0.98666000  0.84868000  0.98130000  1.0 -0.1822351838
C  C217  1  0.90132000  0.76870000  0.76334000  1.0 -0.1822351838
C  C218  1  0.34868000  0.48130000  0.68336000  1.0 -0.1822351838
C  C219  1  0.48130000  0.68336000  0.34868000  1.0 -0.1822351838
C  C220  1  0.68336000  0.34868000  0.48130000  1.0 -0.1822351838
C  C221  1  0.48130000  0.48666000  0.68336000  1.0 -0.1822351838
C  C222  1  0.76870000  0.56664000  0.76334000  1.0 -0.1822351838
C  C223  1  0.48666000  0.34868000  0.68336000  1.0 -0.1822351838
C  C224  1  0.56664000  0.90132000  0.76334000  1.0 -0.1822351838
C  C225  1  0.48666000  0.68336000  0.48130000  1.0 -0.1822351838
C  C226  1  0.56664000  0.76334000  0.76870000  1.0 -0.1822351838
C  C227  1  0.76870000  0.90132000  0.56664000  1.0 -0.1822351838
C  C228  1  0.48130000  0.34868000  0.48666000  1.0 -0.1822351838
C  C229  1  0.48666000  0.48130000  0.34868000  1.0 -0.1822351838
C  C230  1  0.56664000  0.76870000  0.90132000  1.0 -0.1822351838
C  C231  1  0.34868000  0.48666000  0.48130000  1.0 -0.1822351838
C  C232  1  0.90132000  0.56664000  0.76870000  1.0 -0.1822351838
C  C233  1  0.90132000  0.76334000  0.56664000  1.0 -0.1822351838
C  C234  1  0.76334000  0.76870000  0.56664000  1.0 -0.1822351838
C  C235  1  0.68336000  0.48130000  0.48666000  1.0 -0.1822351838
C  C236  1  0.34868000  0.68336000  0.48666000  1.0 -0.1822351838
C  C237  1  0.76334000  0.56664000  0.90132000  1.0 -0.1822351838
C  C238  1  0.68336000  0.48666000  0.34868000  1.0 -0.1822351838
C  C239  1  0.76870000  0.76334000  0.90132000  1.0 -0.1822351838
C  C240  1  0.76334000  0.90132000  0.76870000  1.0 -0.1822351838
C  C241  1  0.85195000  0.95011000  0.00147000  1.0 -0.1902037277
C  C242  1  0.39805000  0.29989000  0.05353000  1.0 -0.1902037277
C  C243  1  0.29989000  0.05353000  0.39805000  1.0 -0.1902037277
C  C244  1  0.05353000  0.39805000  0.29989000  1.0 -0.1902037277
C  C245  1  0.29989000  0.24853000  0.05353000  1.0 -0.1902037277
C  C246  1  0.95011000  0.19647000  0.00147000  1.0 -0.1902037277
C  C247  1  0.24853000  0.39805000  0.05353000  1.0 -0.1902037277
C  C248  1  0.19647000  0.85195000  0.00147000  1.0 -0.1902037277
C  C249  1  0.24853000  0.05353000  0.29989000  1.0 -0.1902037277
C  C250  1  0.19647000  0.00147000  0.95011000  1.0 -0.1902037277
C  C251  1  0.95011000  0.85195000  0.19647000  1.0 -0.1902037277
C  C252  1  0.29989000  0.39805000  0.24853000  1.0 -0.1902037277
C  C253  1  0.24853000  0.29989000  0.39805000  1.0 -0.1902037277
C  C254  1  0.19647000  0.95011000  0.85195000  1.0 -0.1902037277
C  C255  1  0.39805000  0.24853000  0.29989000  1.0 -0.1902037277
C  C256  1  0.85195000  0.19647000  0.95011000  1.0 -0.1902037277
C  C257  1  0.85195000  0.00147000  0.19647000  1.0 -0.1902037277
C  C258  1  0.00147000  0.95011000  0.19647000  1.0 -0.1902037277
C  C259  1  0.05353000  0.29989000  0.24853000  1.0 -0.1902037277
C  C260  1  0.39805000  0.05353000  0.24853000  1.0 -0.1902037277
C  C261  1  0.00147000  0.19647000  0.85195000  1.0 -0.1902037277
C  C262  1  0.05353000  0.24853000  0.39805000  1.0 -0.1902037277
C  C263  1  0.95011000  0.00147000  0.85195000  1.0 -0.1902037277
C  C264  1  0.00147000  0.85195000  0.95011000  1.0 -0.1902037277
C  C265  1  0.89805000  0.79989000  0.74853000  1.0 -0.1902037277
C  C266  1  0.35195000  0.45011000  0.69647000  1.0 -0.1902037277
C  C267  1  0.45011000  0.69647000  0.35195000  1.0 -0.1902037277
C  C268  1  0.69647000  0.35195000  0.45011000  1.0 -0.1902037277
C  C269  1  0.45011000  0.50147000  0.69647000  1.0 -0.1902037277
C  C270  1  0.79989000  0.55353000  0.74853000  1.0 -0.1902037277
C  C271  1  0.50147000  0.35195000  0.69647000  1.0 -0.1902037277
C  C272  1  0.55353000  0.89805000  0.74853000  1.0 -0.1902037277
C  C273  1  0.50147000  0.69647000  0.45011000  1.0 -0.1902037277
C  C274  1  0.55353000  0.74853000  0.79989000  1.0 -0.1902037277
C  C275  1  0.79989000  0.89805000  0.55353000  1.0 -0.1902037277
C  C276  1  0.45011000  0.35195000  0.50147000  1.0 -0.1902037277
C  C277  1  0.50147000  0.45011000  0.35195000  1.0 -0.1902037277
C  C278  1  0.55353000  0.79989000  0.89805000  1.0 -0.1902037277
C  C279  1  0.35195000  0.50147000  0.45011000  1.0 -0.1902037277
C  C280  1  0.89805000  0.55353000  0.79989000  1.0 -0.1902037277
C  C281  1  0.89805000  0.74853000  0.55353000  1.0 -0.1902037277
C  C282  1  0.74853000  0.79989000  0.55353000  1.0 -0.1902037277
C  C283  1  0.69647000  0.45011000  0.50147000  1.0 -0.1902037277
C  C284  1  0.35195000  0.69647000  0.50147000  1.0 -0.1902037277
C  C285  1  0.74853000  0.55353000  0.89805000  1.0 -0.1902037277
C  C286  1  0.69647000  0.50147000  0.35195000  1.0 -0.1902037277
C  C287  1  0.79989000  0.74853000  0.89805000  1.0 -0.1902037277
C  C288  1  0.74853000  0.89805000  0.79989000  1.0 -0.1902037277
C  C289  1  0.80200000  0.06240000  0.98660000  1.0 0.2151124213
C  C290  1  0.44800000  0.18760000  0.10100000  1.0 0.2151124213
C  C291  1  0.18760000  0.10100000  0.44800000  1.0 0.2151124213
C  C292  1  0.10100000  0.44800000  0.18760000  1.0 0.2151124213
C  C293  1  0.18760000  0.26340000  0.10100000  1.0 0.2151124213
C  C294  1  0.06240000  0.14900000  0.98660000  1.0 0.2151124213
C  C295  1  0.26340000  0.44800000  0.10100000  1.0 0.2151124213
C  C296  1  0.14900000  0.80200000  0.98660000  1.0 0.2151124213
C  C297  1  0.26340000  0.10100000  0.18760000  1.0 0.2151124213
C  C298  1  0.14900000  0.98660000  0.06240000  1.0 0.2151124213
C  C299  1  0.06240000  0.80200000  0.14900000  1.0 0.2151124213
C  C300  1  0.18760000  0.44800000  0.26340000  1.0 0.2151124213
C  C301  1  0.26340000  0.18760000  0.44800000  1.0 0.2151124213
C  C302  1  0.14900000  0.06240000  0.80200000  1.0 0.2151124213
C  C303  1  0.44800000  0.26340000  0.18760000  1.0 0.2151124213
C  C304  1  0.80200000  0.14900000  0.06240000  1.0 0.2151124213
C  C305  1  0.80200000  0.98660000  0.14900000  1.0 0.2151124213
C  C306  1  0.98660000  0.06240000  0.14900000  1.0 0.2151124213
C  C307  1  0.10100000  0.18760000  0.26340000  1.0 0.2151124213
C  C308  1  0.44800000  0.10100000  0.26340000  1.0 0.2151124213
C  C309  1  0.98660000  0.14900000  0.80200000  1.0 0.2151124213
C  C310  1  0.10100000  0.26340000  0.44800000  1.0 0.2151124213
C  C311  1  0.06240000  0.98660000  0.80200000  1.0 0.2151124213
C  C312  1  0.98660000  0.80200000  0.06240000  1.0 0.2151124213
C  C313  1  0.94800000  0.68760000  0.76340000  1.0 0.2151124213
C  C314  1  0.30200000  0.56240000  0.64900000  1.0 0.2151124213
C  C315  1  0.56240000  0.64900000  0.30200000  1.0 0.2151124213
C  C316  1  0.64900000  0.30200000  0.56240000  1.0 0.2151124213
C  C317  1  0.56240000  0.48660000  0.64900000  1.0 0.2151124213
C  C318  1  0.68760000  0.60100000  0.76340000  1.0 0.2151124213
C  C319  1  0.48660000  0.30200000  0.64900000  1.0 0.2151124213
C  C320  1  0.60100000  0.94800000  0.76340000  1.0 0.2151124213
C  C321  1  0.48660000  0.64900000  0.56240000  1.0 0.2151124213
C  C322  1  0.60100000  0.76340000  0.68760000  1.0 0.2151124213
C  C323  1  0.68760000  0.94800000  0.60100000  1.0 0.2151124213
C  C324  1  0.56240000  0.30200000  0.48660000  1.0 0.2151124213
C  C325  1  0.48660000  0.56240000  0.30200000  1.0 0.2151124213
C  C326  1  0.60100000  0.68760000  0.94800000  1.0 0.2151124213
C  C327  1  0.30200000  0.48660000  0.56240000  1.0 0.2151124213
C  C328  1  0.94800000  0.60100000  0.68760000  1.0 0.2151124213
C  C329  1  0.94800000  0.76340000  0.60100000  1.0 0.2151124213
C  C330  1  0.76340000  0.68760000  0.60100000  1.0 0.2151124213
C  C331  1  0.64900000  0.56240000  0.48660000  1.0 0.2151124213
C  C332  1  0.30200000  0.64900000  0.48660000  1.0 0.2151124213
C  C333  1  0.76340000  0.60100000  0.94800000  1.0 0.2151124213
C  C334  1  0.64900000  0.48660000  0.30200000  1.0 0.2151124213
C  C335  1  0.68760000  0.76340000  0.94800000  1.0 0.2151124213
C  C336  1  0.76340000  0.94800000  0.68760000  1.0 0.2151124213
C  C337  1  0.79004000  0.05960000  0.01754000  1.0 -0.1989546472
C  C338  1  0.45996000  0.19040000  0.11718000  1.0 -0.1989546472
C  C339  1  0.19040000  0.11718000  0.45996000  1.0 -0.1989546472
C  C340  1  0.11718000  0.45996000  0.19040000  1.0 -0.1989546472
C  C341  1  0.19040000  0.23246000  0.11718000  1.0 -0.1989546472
C  C342  1  0.05960000  0.13282000  0.01754000  1.0 -0.1989546472
C  C343  1  0.23246000  0.45996000  0.11718000  1.0 -0.1989546472
C  C344  1  0.13282000  0.79004000  0.01754000  1.0 -0.1989546472
C  C345  1  0.23246000  0.11718000  0.19040000  1.0 -0.1989546472
C  C346  1  0.13282000  0.01754000  0.05960000  1.0 -0.1989546472
C  C347  1  0.05960000  0.79004000  0.13282000  1.0 -0.1989546472
C  C348  1  0.19040000  0.45996000  0.23246000  1.0 -0.1989546472
C  C349  1  0.23246000  0.19040000  0.45996000  1.0 -0.1989546472
C  C350  1  0.13282000  0.05960000  0.79004000  1.0 -0.1989546472
C  C351  1  0.45996000  0.23246000  0.19040000  1.0 -0.1989546472
C  C352  1  0.79004000  0.13282000  0.05960000  1.0 -0.1989546472
C  C353  1  0.79004000  0.01754000  0.13282000  1.0 -0.1989546472
C  C354  1  0.01754000  0.05960000  0.13282000  1.0 -0.1989546472
C  C355  1  0.11718000  0.19040000  0.23246000  1.0 -0.1989546472
C  C356  1  0.45996000  0.11718000  0.23246000  1.0 -0.1989546472
C  C357  1  0.01754000  0.13282000  0.79004000  1.0 -0.1989546472
C  C358  1  0.11718000  0.23246000  0.45996000  1.0 -0.1989546472
C  C359  1  0.05960000  0.01754000  0.79004000  1.0 -0.1989546472
C  C360  1  0.01754000  0.79004000  0.05960000  1.0 -0.1989546472
C  C361  1  0.95996000  0.69040000  0.73246000  1.0 -0.1989546472
C  C362  1  0.29004000  0.55960000  0.63282000  1.0 -0.1989546472
C  C363  1  0.55960000  0.63282000  0.29004000  1.0 -0.1989546472
C  C364  1  0.63282000  0.29004000  0.55960000  1.0 -0.1989546472
C  C365  1  0.55960000  0.51754000  0.63282000  1.0 -0.1989546472
C  C366  1  0.69040000  0.61718000  0.73246000  1.0 -0.1989546472
C  C367  1  0.51754000  0.29004000  0.63282000  1.0 -0.1989546472
C  C368  1  0.61718000  0.95996000  0.73246000  1.0 -0.1989546472
C  C369  1  0.51754000  0.63282000  0.55960000  1.0 -0.1989546472
C  C370  1  0.61718000  0.73246000  0.69040000  1.0 -0.1989546472
C  C371  1  0.69040000  0.95996000  0.61718000  1.0 -0.1989546472
C  C372  1  0.55960000  0.29004000  0.51754000  1.0 -0.1989546472
C  C373  1  0.51754000  0.55960000  0.29004000  1.0 -0.1989546472
C  C374  1  0.61718000  0.69040000  0.95996000  1.0 -0.1989546472
C  C375  1  0.29004000  0.51754000  0.55960000  1.0 -0.1989546472
C  C376  1  0.95996000  0.61718000  0.69040000  1.0 -0.1989546472
C  C377  1  0.95996000  0.73246000  0.61718000  1.0 -0.1989546472
C  C378  1  0.73246000  0.69040000  0.61718000  1.0 -0.1989546472
C  C379  1  0.63282000  0.55960000  0.51754000  1.0 -0.1989546472
C  C380  1  0.29004000  0.63282000  0.51754000  1.0 -0.1989546472
C  C381  1  0.73246000  0.61718000  0.95996000  1.0 -0.1989546472
C  C382  1  0.63282000  0.51754000  0.29004000  1.0 -0.1989546472
C  C383  1  0.69040000  0.73246000  0.95996000  1.0 -0.1989546472
C  C384  1  0.73246000  0.95996000  0.69040000  1.0 -0.1989546472
C  C385  1  0.77353000  0.08591000  0.02607000  1.0 -0.0871612489
C  C386  1  0.47647000  0.16409000  0.13551000  1.0 -0.0871612489
C  C387  1  0.16409000  0.13551000  0.47647000  1.0 -0.0871612489
C  C388  1  0.13551000  0.47647000  0.16409000  1.0 -0.0871612489
C  C389  1  0.16409000  0.22393000  0.13551000  1.0 -0.0871612489
C  C390  1  0.08591000  0.11449000  0.02607000  1.0 -0.0871612489
C  C391  1  0.22393000  0.47647000  0.13551000  1.0 -0.0871612489
C  C392  1  0.11449000  0.77353000  0.02607000  1.0 -0.0871612489
C  C393  1  0.22393000  0.13551000  0.16409000  1.0 -0.0871612489
C  C394  1  0.11449000  0.02607000  0.08591000  1.0 -0.0871612489
C  C395  1  0.08591000  0.77353000  0.11449000  1.0 -0.0871612489
C  C396  1  0.16409000  0.47647000  0.22393000  1.0 -0.0871612489
C  C397  1  0.22393000  0.16409000  0.47647000  1.0 -0.0871612489
C  C398  1  0.11449000  0.08591000  0.77353000  1.0 -0.0871612489
C  C399  1  0.47647000  0.22393000  0.16409000  1.0 -0.0871612489
C  C400  1  0.77353000  0.11449000  0.08591000  1.0 -0.0871612489
C  C401  1  0.77353000  0.02607000  0.11449000  1.0 -0.0871612489
C  C402  1  0.02607000  0.08591000  0.11449000  1.0 -0.0871612489
C  C403  1  0.13551000  0.16409000  0.22393000  1.0 -0.0871612489
C  C404  1  0.47647000  0.13551000  0.22393000  1.0 -0.0871612489
C  C405  1  0.02607000  0.11449000  0.77353000  1.0 -0.0871612489
C  C406  1  0.13551000  0.22393000  0.47647000  1.0 -0.0871612489
C  C407  1  0.08591000  0.02607000  0.77353000  1.0 -0.0871612489
C  C408  1  0.02607000  0.77353000  0.08591000  1.0 -0.0871612489
C  C409  1  0.97647000  0.66409000  0.72393000  1.0 -0.0871612489
C  C410  1  0.27353000  0.58591000  0.61449000  1.0 -0.0871612489
C  C411  1  0.58591000  0.61449000  0.27353000  1.0 -0.0871612489
C  C412  1  0.61449000  0.27353000  0.58591000  1.0 -0.0871612489
C  C413  1  0.58591000  0.52607000  0.61449000  1.0 -0.0871612489
C  C414  1  0.66409000  0.63551000  0.72393000  1.0 -0.0871612489
C  C415  1  0.52607000  0.27353000  0.61449000  1.0 -0.0871612489
C  C416  1  0.63551000  0.97647000  0.72393000  1.0 -0.0871612489
C  C417  1  0.52607000  0.61449000  0.58591000  1.0 -0.0871612489
C  C418  1  0.63551000  0.72393000  0.66409000  1.0 -0.0871612489
C  C419  1  0.66409000  0.97647000  0.63551000  1.0 -0.0871612489
C  C420  1  0.58591000  0.27353000  0.52607000  1.0 -0.0871612489
C  C421  1  0.52607000  0.58591000  0.27353000  1.0 -0.0871612489
C  C422  1  0.63551000  0.66409000  0.97647000  1.0 -0.0871612489
C  C423  1  0.27353000  0.52607000  0.58591000  1.0 -0.0871612489
C  C424  1  0.97647000  0.63551000  0.66409000  1.0 -0.0871612489
C  C425  1  0.97647000  0.72393000  0.63551000  1.0 -0.0871612489
C  C426  1  0.72393000  0.66409000  0.63551000  1.0 -0.0871612489
C  C427  1  0.61449000  0.58591000  0.52607000  1.0 -0.0871612489
C  C428  1  0.27353000  0.61449000  0.52607000  1.0 -0.0871612489
C  C429  1  0.72393000  0.63551000  0.97647000  1.0 -0.0871612489
C  C430  1  0.61449000  0.52607000  0.27353000  1.0 -0.0871612489
C  C431  1  0.66409000  0.72393000  0.97647000  1.0 -0.0871612489
C  C432  1  0.72393000  0.97647000  0.66409000  1.0 -0.0871612489
C  C433  1  0.76778000  0.11496000  0.00378000  1.0 -0.1379826922
C  C434  1  0.48222000  0.13504000  0.13652000  1.0 -0.1379826922
C  C435  1  0.13504000  0.13652000  0.48222000  1.0 -0.1379826922
C  C436  1  0.13652000  0.48222000  0.13504000  1.0 -0.1379826922
C  C437  1  0.13504000  0.24622000  0.13652000  1.0 -0.1379826922
C  C438  1  0.11496000  0.11348000  0.00378000  1.0 -0.1379826922
C  C439  1  0.24622000  0.48222000  0.13652000  1.0 -0.1379826922
C  C440  1  0.11348000  0.76778000  0.00378000  1.0 -0.1379826922
C  C441  1  0.24622000  0.13652000  0.13504000  1.0 -0.1379826922
C  C442  1  0.11348000  0.00378000  0.11496000  1.0 -0.1379826922
C  C443  1  0.11496000  0.76778000  0.11348000  1.0 -0.1379826922
C  C444  1  0.13504000  0.48222000  0.24622000  1.0 -0.1379826922
C  C445  1  0.24622000  0.13504000  0.48222000  1.0 -0.1379826922
C  C446  1  0.11348000  0.11496000  0.76778000  1.0 -0.1379826922
C  C447  1  0.48222000  0.24622000  0.13504000  1.0 -0.1379826922
C  C448  1  0.76778000  0.11348000  0.11496000  1.0 -0.1379826922
C  C449  1  0.76778000  0.00378000  0.11348000  1.0 -0.1379826922
C  C450  1  0.00378000  0.11496000  0.11348000  1.0 -0.1379826922
C  C451  1  0.13652000  0.13504000  0.24622000  1.0 -0.1379826922
C  C452  1  0.48222000  0.13652000  0.24622000  1.0 -0.1379826922
C  C453  1  0.00378000  0.11348000  0.76778000  1.0 -0.1379826922
C  C454  1  0.13652000  0.24622000  0.48222000  1.0 -0.1379826922
C  C455  1  0.11496000  0.00378000  0.76778000  1.0 -0.1379826922
C  C456  1  0.00378000  0.76778000  0.11496000  1.0 -0.1379826922
C  C457  1  0.98222000  0.63504000  0.74622000  1.0 -0.1379826922
C  C458  1  0.26778000  0.61496000  0.61348000  1.0 -0.1379826922
C  C459  1  0.61496000  0.61348000  0.26778000  1.0 -0.1379826922
C  C460  1  0.61348000  0.26778000  0.61496000  1.0 -0.1379826922
C  C461  1  0.61496000  0.50378000  0.61348000  1.0 -0.1379826922
C  C462  1  0.63504000  0.63652000  0.74622000  1.0 -0.1379826922
C  C463  1  0.50378000  0.26778000  0.61348000  1.0 -0.1379826922
C  C464  1  0.63652000  0.98222000  0.74622000  1.0 -0.1379826922
C  C465  1  0.50378000  0.61348000  0.61496000  1.0 -0.1379826922
C  C466  1  0.63652000  0.74622000  0.63504000  1.0 -0.1379826922
C  C467  1  0.63504000  0.98222000  0.63652000  1.0 -0.1379826922
C  C468  1  0.61496000  0.26778000  0.50378000  1.0 -0.1379826922
C  C469  1  0.50378000  0.61496000  0.26778000  1.0 -0.1379826922
C  C470  1  0.63652000  0.63504000  0.98222000  1.0 -0.1379826922
C  C471  1  0.26778000  0.50378000  0.61496000  1.0 -0.1379826922
C  C472  1  0.98222000  0.63652000  0.63504000  1.0 -0.1379826922
C  C473  1  0.98222000  0.74622000  0.63652000  1.0 -0.1379826922
C  C474  1  0.74622000  0.63504000  0.63652000  1.0 -0.1379826922
C  C475  1  0.61348000  0.61496000  0.50378000  1.0 -0.1379826922
C  C476  1  0.26778000  0.61348000  0.50378000  1.0 -0.1379826922
C  C477  1  0.74622000  0.63652000  0.98222000  1.0 -0.1379826922
C  C478  1  0.61348000  0.50378000  0.26778000  1.0 -0.1379826922
C  C479  1  0.63504000  0.74622000  0.98222000  1.0 -0.1379826922
C  C480  1  0.74622000  0.98222000  0.63504000  1.0 -0.1379826922
C  C481  1  0.77855000  0.11769000  0.97295000  1.0 -0.0871612489
C  C482  1  0.47145000  0.13231000  0.11919000  1.0 -0.0871612489
C  C483  1  0.13231000  0.11919000  0.47145000  1.0 -0.0871612489
C  C484  1  0.11919000  0.47145000  0.13231000  1.0 -0.0871612489
C  C485  1  0.13231000  0.27705000  0.11919000  1.0 -0.0871612489
C  C486  1  0.11769000  0.13081000  0.97295000  1.0 -0.0871612489
C  C487  1  0.27705000  0.47145000  0.11919000  1.0 -0.0871612489
C  C488  1  0.13081000  0.77855000  0.97295000  1.0 -0.0871612489
C  C489  1  0.27705000  0.11919000  0.13231000  1.0 -0.0871612489
C  C490  1  0.13081000  0.97295000  0.11769000  1.0 -0.0871612489
C  C491  1  0.11769000  0.77855000  0.13081000  1.0 -0.0871612489
C  C492  1  0.13231000  0.47145000  0.27705000  1.0 -0.0871612489
C  C493  1  0.27705000  0.13231000  0.47145000  1.0 -0.0871612489
C  C494  1  0.13081000  0.11769000  0.77855000  1.0 -0.0871612489
C  C495  1  0.47145000  0.27705000  0.13231000  1.0 -0.0871612489
C  C496  1  0.77855000  0.13081000  0.11769000  1.0 -0.0871612489
C  C497  1  0.77855000  0.97295000  0.13081000  1.0 -0.0871612489
C  C498  1  0.97295000  0.11769000  0.13081000  1.0 -0.0871612489
C  C499  1  0.11919000  0.13231000  0.27705000  1.0 -0.0871612489
C  C500  1  0.47145000  0.11919000  0.27705000  1.0 -0.0871612489
C  C501  1  0.97295000  0.13081000  0.77855000  1.0 -0.0871612489
C  C502  1  0.11919000  0.27705000  0.47145000  1.0 -0.0871612489
C  C503  1  0.11769000  0.97295000  0.77855000  1.0 -0.0871612489
C  C504  1  0.97295000  0.77855000  0.11769000  1.0 -0.0871612489
C  C505  1  0.97145000  0.63231000  0.77705000  1.0 -0.0871612489
C  C506  1  0.27855000  0.61769000  0.63081000  1.0 -0.0871612489
C  C507  1  0.61769000  0.63081000  0.27855000  1.0 -0.0871612489
C  C508  1  0.63081000  0.27855000  0.61769000  1.0 -0.0871612489
C  C509  1  0.61769000  0.47295000  0.63081000  1.0 -0.0871612489
C  C510  1  0.63231000  0.61919000  0.77705000  1.0 -0.0871612489
C  C511  1  0.47295000  0.27855000  0.63081000  1.0 -0.0871612489
C  C512  1  0.61919000  0.97145000  0.77705000  1.0 -0.0871612489
C  C513  1  0.47295000  0.63081000  0.61769000  1.0 -0.0871612489
C  C514  1  0.61919000  0.77705000  0.63231000  1.0 -0.0871612489
C  C515  1  0.63231000  0.97145000  0.61919000  1.0 -0.0871612489
C  C516  1  0.61769000  0.27855000  0.47295000  1.0 -0.0871612489
C  C517  1  0.47295000  0.61769000  0.27855000  1.0 -0.0871612489
C  C518  1  0.61919000  0.63231000  0.97145000  1.0 -0.0871612489
C  C519  1  0.27855000  0.47295000  0.61769000  1.0 -0.0871612489
C  C520  1  0.97145000  0.61919000  0.63231000  1.0 -0.0871612489
C  C521  1  0.97145000  0.77705000  0.61919000  1.0 -0.0871612489
C  C522  1  0.77705000  0.63231000  0.61919000  1.0 -0.0871612489
C  C523  1  0.63081000  0.61769000  0.47295000  1.0 -0.0871612489
C  C524  1  0.27855000  0.63081000  0.47295000  1.0 -0.0871612489
C  C525  1  0.77705000  0.61919000  0.97145000  1.0 -0.0871612489
C  C526  1  0.63081000  0.47295000  0.27855000  1.0 -0.0871612489
C  C527  1  0.63231000  0.77705000  0.97145000  1.0 -0.0871612489
C  C528  1  0.77705000  0.97145000  0.63231000  1.0 -0.0871612489
C  C529  1  0.79507000  0.09137000  0.96441000  1.0 -0.2125124082
C  C530  1  0.45493000  0.15863000  0.10085000  1.0 -0.2125124082
C  C531  1  0.15863000  0.10085000  0.45493000  1.0 -0.2125124082
C  C532  1  0.10085000  0.45493000  0.15863000  1.0 -0.2125124082
C  C533  1  0.15863000  0.28559000  0.10085000  1.0 -0.2125124082
C  C534  1  0.09137000  0.14915000  0.96441000  1.0 -0.2125124082
C  C535  1  0.28559000  0.45493000  0.10085000  1.0 -0.2125124082
C  C536  1  0.14915000  0.79507000  0.96441000  1.0 -0.2125124082
C  C537  1  0.28559000  0.10085000  0.15863000  1.0 -0.2125124082
C  C538  1  0.14915000  0.96441000  0.09137000  1.0 -0.2125124082
C  C539  1  0.09137000  0.79507000  0.14915000  1.0 -0.2125124082
C  C540  1  0.15863000  0.45493000  0.28559000  1.0 -0.2125124082
C  C541  1  0.28559000  0.15863000  0.45493000  1.0 -0.2125124082
C  C542  1  0.14915000  0.09137000  0.79507000  1.0 -0.2125124082
C  C543  1  0.45493000  0.28559000  0.15863000  1.0 -0.2125124082
C  C544  1  0.79507000  0.14915000  0.09137000  1.0 -0.2125124082
C  C545  1  0.79507000  0.96441000  0.14915000  1.0 -0.2125124082
C  C546  1  0.96441000  0.09137000  0.14915000  1.0 -0.2125124082
C  C547  1  0.10085000  0.15863000  0.28559000  1.0 -0.2125124082
C  C548  1  0.45493000  0.10085000  0.28559000  1.0 -0.2125124082
C  C549  1  0.96441000  0.14915000  0.79507000  1.0 -0.2125124082
C  C550  1  0.10085000  0.28559000  0.45493000  1.0 -0.2125124082
C  C551  1  0.09137000  0.96441000  0.79507000  1.0 -0.2125124082
C  C552  1  0.96441000  0.79507000  0.09137000  1.0 -0.2125124082
C  C553  1  0.95493000  0.65863000  0.78559000  1.0 -0.2125124082
C  C554  1  0.29507000  0.59137000  0.64915000  1.0 -0.2125124082
C  C555  1  0.59137000  0.64915000  0.29507000  1.0 -0.2125124082
C  C556  1  0.64915000  0.29507000  0.59137000  1.0 -0.2125124082
C  C557  1  0.59137000  0.46441000  0.64915000  1.0 -0.2125124082
C  C558  1  0.65863000  0.60085000  0.78559000  1.0 -0.2125124082
C  C559  1  0.46441000  0.29507000  0.64915000  1.0 -0.2125124082
C  C560  1  0.60085000  0.95493000  0.78559000  1.0 -0.2125124082
C  C561  1  0.46441000  0.64915000  0.59137000  1.0 -0.2125124082
C  C562  1  0.60085000  0.78559000  0.65863000  1.0 -0.2125124082
C  C563  1  0.65863000  0.95493000  0.60085000  1.0 -0.2125124082
C  C564  1  0.59137000  0.29507000  0.46441000  1.0 -0.2125124082
C  C565  1  0.46441000  0.59137000  0.29507000  1.0 -0.2125124082
C  C566  1  0.60085000  0.65863000  0.95493000  1.0 -0.2125124082
C  C567  1  0.29507000  0.46441000  0.59137000  1.0 -0.2125124082
C  C568  1  0.95493000  0.60085000  0.65863000  1.0 -0.2125124082
C  C569  1  0.95493000  0.78559000  0.60085000  1.0 -0.2125124082
C  C570  1  0.78559000  0.65863000  0.60085000  1.0 -0.2125124082
C  C571  1  0.64915000  0.59137000  0.46441000  1.0 -0.2125124082
C  C572  1  0.29507000  0.64915000  0.46441000  1.0 -0.2125124082
C  C573  1  0.78559000  0.60085000  0.95493000  1.0 -0.2125124082
C  C574  1  0.64915000  0.46441000  0.29507000  1.0 -0.2125124082
C  C575  1  0.65863000  0.78559000  0.95493000  1.0 -0.2125124082
C  C576  1  0.78559000  0.95493000  0.65863000  1.0 -0.2125124082
C  C577  1  0.90693000  0.37049000  0.55569000  1.0 0.20966747
C  C578  1  0.34307000  0.87951000  0.08311000  1.0 0.20966747
C  C579  1  0.87951000  0.08311000  0.34307000  1.0 0.20966747
C  C580  1  0.08311000  0.34307000  0.87951000  1.0 0.20966747
C  C581  1  0.87951000  0.69431000  0.08311000  1.0 0.20966747
C  C582  1  0.37049000  0.16689000  0.55569000  1.0 0.20966747
C  C583  1  0.69431000  0.34307000  0.08311000  1.0 0.20966747
C  C584  1  0.16689000  0.90693000  0.55569000  1.0 0.20966747
C  C585  1  0.69431000  0.08311000  0.87951000  1.0 0.20966747
C  C586  1  0.16689000  0.55569000  0.37049000  1.0 0.20966747
C  C587  1  0.37049000  0.90693000  0.16689000  1.0 0.20966747
C  C588  1  0.87951000  0.34307000  0.69431000  1.0 0.20966747
C  C589  1  0.69431000  0.87951000  0.34307000  1.0 0.20966747
C  C590  1  0.16689000  0.37049000  0.90693000  1.0 0.20966747
C  C591  1  0.34307000  0.69431000  0.87951000  1.0 0.20966747
C  C592  1  0.90693000  0.16689000  0.37049000  1.0 0.20966747
C  C593  1  0.90693000  0.55569000  0.16689000  1.0 0.20966747
C  C594  1  0.55569000  0.37049000  0.16689000  1.0 0.20966747
C  C595  1  0.08311000  0.87951000  0.69431000  1.0 0.20966747
C  C596  1  0.34307000  0.08311000  0.69431000  1.0 0.20966747
C  C597  1  0.55569000  0.16689000  0.90693000  1.0 0.20966747
C  C598  1  0.08311000  0.69431000  0.34307000  1.0 0.20966747
C  C599  1  0.37049000  0.55569000  0.90693000  1.0 0.20966747
C  C600  1  0.55569000  0.90693000  0.37049000  1.0 0.20966747
C  C601  1  0.84307000  0.37951000  0.19431000  1.0 0.20966747
C  C602  1  0.40693000  0.87049000  0.66689000  1.0 0.20966747
C  C603  1  0.87049000  0.66689000  0.40693000  1.0 0.20966747
C  C604  1  0.66689000  0.40693000  0.87049000  1.0 0.20966747
C  C605  1  0.87049000  0.05569000  0.66689000  1.0 0.20966747
C  C606  1  0.37951000  0.58311000  0.19431000  1.0 0.20966747
C  C607  1  0.05569000  0.40693000  0.66689000  1.0 0.20966747
C  C608  1  0.58311000  0.84307000  0.19431000  1.0 0.20966747
C  C609  1  0.05569000  0.66689000  0.87049000  1.0 0.20966747
C  C610  1  0.58311000  0.19431000  0.37951000  1.0 0.20966747
C  C611  1  0.37951000  0.84307000  0.58311000  1.0 0.20966747
C  C612  1  0.87049000  0.40693000  0.05569000  1.0 0.20966747
C  C613  1  0.05569000  0.87049000  0.40693000  1.0 0.20966747
C  C614  1  0.58311000  0.37951000  0.84307000  1.0 0.20966747
C  C615  1  0.40693000  0.05569000  0.87049000  1.0 0.20966747
C  C616  1  0.84307000  0.58311000  0.37951000  1.0 0.20966747
C  C617  1  0.84307000  0.19431000  0.58311000  1.0 0.20966747
C  C618  1  0.19431000  0.37951000  0.58311000  1.0 0.20966747
C  C619  1  0.66689000  0.87049000  0.05569000  1.0 0.20966747
C  C620  1  0.40693000  0.66689000  0.05569000  1.0 0.20966747
C  C621  1  0.19431000  0.58311000  0.84307000  1.0 0.20966747
C  C622  1  0.66689000  0.05569000  0.40693000  1.0 0.20966747
C  C623  1  0.37951000  0.19431000  0.84307000  1.0 0.20966747
C  C624  1  0.19431000  0.84307000  0.37951000  1.0 0.20966747
C  C625  1  0.89146000  0.29976000  0.62838000  1.0 0.0715963005
C  C626  1  0.35854000  0.95024000  0.06960000  1.0 0.0715963005
C  C627  1  0.95024000  0.06960000  0.35854000  1.0 0.0715963005
C  C628  1  0.06960000  0.35854000  0.95024000  1.0 0.0715963005
C  C629  1  0.95024000  0.62162000  0.06960000  1.0 0.0715963005
C  C630  1  0.29976000  0.18040000  0.62838000  1.0 0.0715963005
C  C631  1  0.62162000  0.35854000  0.06960000  1.0 0.0715963005
C  C632  1  0.18040000  0.89146000  0.62838000  1.0 0.0715963005
C  C633  1  0.62162000  0.06960000  0.95024000  1.0 0.0715963005
C  C634  1  0.18040000  0.62838000  0.29976000  1.0 0.0715963005
C  C635  1  0.29976000  0.89146000  0.18040000  1.0 0.0715963005
C  C636  1  0.95024000  0.35854000  0.62162000  1.0 0.0715963005
C  C637  1  0.62162000  0.95024000  0.35854000  1.0 0.0715963005
C  C638  1  0.18040000  0.29976000  0.89146000  1.0 0.0715963005
C  C639  1  0.35854000  0.62162000  0.95024000  1.0 0.0715963005
C  C640  1  0.89146000  0.18040000  0.29976000  1.0 0.0715963005
C  C641  1  0.89146000  0.62838000  0.18040000  1.0 0.0715963005
C  C642  1  0.62838000  0.29976000  0.18040000  1.0 0.0715963005
C  C643  1  0.06960000  0.95024000  0.62162000  1.0 0.0715963005
C  C644  1  0.35854000  0.06960000  0.62162000  1.0 0.0715963005
C  C645  1  0.62838000  0.18040000  0.89146000  1.0 0.0715963005
C  C646  1  0.06960000  0.62162000  0.35854000  1.0 0.0715963005
C  C647  1  0.29976000  0.62838000  0.89146000  1.0 0.0715963005
C  C648  1  0.62838000  0.89146000  0.29976000  1.0 0.0715963005
C  C649  1  0.85854000  0.45024000  0.12162000  1.0 0.0715963005
C  C650  1  0.39146000  0.79976000  0.68040000  1.0 0.0715963005
C  C651  1  0.79976000  0.68040000  0.39146000  1.0 0.0715963005
C  C652  1  0.68040000  0.39146000  0.79976000  1.0 0.0715963005
C  C653  1  0.79976000  0.12838000  0.68040000  1.0 0.0715963005
C  C654  1  0.45024000  0.56960000  0.12162000  1.0 0.0715963005
C  C655  1  0.12838000  0.39146000  0.68040000  1.0 0.0715963005
C  C656  1  0.56960000  0.85854000  0.12162000  1.0 0.0715963005
C  C657  1  0.12838000  0.68040000  0.79976000  1.0 0.0715963005
C  C658  1  0.56960000  0.12162000  0.45024000  1.0 0.0715963005
C  C659  1  0.45024000  0.85854000  0.56960000  1.0 0.0715963005
C  C660  1  0.79976000  0.39146000  0.12838000  1.0 0.0715963005
C  C661  1  0.12838000  0.79976000  0.39146000  1.0 0.0715963005
C  C662  1  0.56960000  0.45024000  0.85854000  1.0 0.0715963005
C  C663  1  0.39146000  0.12838000  0.79976000  1.0 0.0715963005
C  C664  1  0.85854000  0.56960000  0.45024000  1.0 0.0715963005
C  C665  1  0.85854000  0.12162000  0.56960000  1.0 0.0715963005
C  C666  1  0.12162000  0.45024000  0.56960000  1.0 0.0715963005
C  C667  1  0.68040000  0.79976000  0.12838000  1.0 0.0715963005
C  C668  1  0.39146000  0.68040000  0.12838000  1.0 0.0715963005
C  C669  1  0.12162000  0.56960000  0.85854000  1.0 0.0715963005
C  C670  1  0.68040000  0.12838000  0.39146000  1.0 0.0715963005
C  C671  1  0.45024000  0.12162000  0.85854000  1.0 0.0715963005
C  C672  1  0.12162000  0.85854000  0.45024000  1.0 0.0715963005
C  C673  1  0.89177000  0.26981000  0.64125000  1.0 -0.1682731108
C  C674  1  0.35823000  0.98019000  0.05283000  1.0 -0.1682731108
C  C675  1  0.98019000  0.05283000  0.35823000  1.0 -0.1682731108
C  C676  1  0.05283000  0.35823000  0.98019000  1.0 -0.1682731108
C  C677  1  0.98019000  0.60875000  0.05283000  1.0 -0.1682731108
C  C678  1  0.26981000  0.19717000  0.64125000  1.0 -0.1682731108
C  C679  1  0.60875000  0.35823000  0.05283000  1.0 -0.1682731108
C  C680  1  0.19717000  0.89177000  0.64125000  1.0 -0.1682731108
C  C681  1  0.60875000  0.05283000  0.98019000  1.0 -0.1682731108
C  C682  1  0.19717000  0.64125000  0.26981000  1.0 -0.1682731108
C  C683  1  0.26981000  0.89177000  0.19717000  1.0 -0.1682731108
C  C684  1  0.98019000  0.35823000  0.60875000  1.0 -0.1682731108
C  C685  1  0.60875000  0.98019000  0.35823000  1.0 -0.1682731108
C  C686  1  0.19717000  0.26981000  0.89177000  1.0 -0.1682731108
C  C687  1  0.35823000  0.60875000  0.98019000  1.0 -0.1682731108
C  C688  1  0.89177000  0.19717000  0.26981000  1.0 -0.1682731108
C  C689  1  0.89177000  0.64125000  0.19717000  1.0 -0.1682731108
C  C690  1  0.64125000  0.26981000  0.19717000  1.0 -0.1682731108
C  C691  1  0.05283000  0.98019000  0.60875000  1.0 -0.1682731108
C  C692  1  0.35823000  0.05283000  0.60875000  1.0 -0.1682731108
C  C693  1  0.64125000  0.19717000  0.89177000  1.0 -0.1682731108
C  C694  1  0.05283000  0.60875000  0.35823000  1.0 -0.1682731108
C  C695  1  0.26981000  0.64125000  0.89177000  1.0 -0.1682731108
C  C696  1  0.64125000  0.89177000  0.26981000  1.0 -0.1682731108
C  C697  1  0.85823000  0.48019000  0.10875000  1.0 -0.1682731108
C  C698  1  0.39177000  0.76981000  0.69717000  1.0 -0.1682731108
C  C699  1  0.76981000  0.69717000  0.39177000  1.0 -0.1682731108
C  C700  1  0.69717000  0.39177000  0.76981000  1.0 -0.1682731108
C  C701  1  0.76981000  0.14125000  0.69717000  1.0 -0.1682731108
C  C702  1  0.48019000  0.55283000  0.10875000  1.0 -0.1682731108
C  C703  1  0.14125000  0.39177000  0.69717000  1.0 -0.1682731108
C  C704  1  0.55283000  0.85823000  0.10875000  1.0 -0.1682731108
C  C705  1  0.14125000  0.69717000  0.76981000  1.0 -0.1682731108
C  C706  1  0.55283000  0.10875000  0.48019000  1.0 -0.1682731108
C  C707  1  0.48019000  0.85823000  0.55283000  1.0 -0.1682731108
C  C708  1  0.76981000  0.39177000  0.14125000  1.0 -0.1682731108
C  C709  1  0.14125000  0.76981000  0.39177000  1.0 -0.1682731108
C  C710  1  0.55283000  0.48019000  0.85823000  1.0 -0.1682731108
C  C711  1  0.39177000  0.14125000  0.76981000  1.0 -0.1682731108
C  C712  1  0.85823000  0.55283000  0.48019000  1.0 -0.1682731108
C  C713  1  0.85823000  0.10875000  0.55283000  1.0 -0.1682731108
C  C714  1  0.10875000  0.48019000  0.55283000  1.0 -0.1682731108
C  C715  1  0.69717000  0.76981000  0.14125000  1.0 -0.1682731108
C  C716  1  0.39177000  0.69717000  0.14125000  1.0 -0.1682731108
C  C717  1  0.10875000  0.55283000  0.85823000  1.0 -0.1682731108
C  C718  1  0.69717000  0.14125000  0.39177000  1.0 -0.1682731108
C  C719  1  0.48019000  0.10875000  0.85823000  1.0 -0.1682731108
C  C720  1  0.10875000  0.85823000  0.48019000  1.0 -0.1682731108
C  C721  1  0.90080000  0.25056000  0.66718000  1.0 0.0488295178
C  C722  1  0.34920000  0.99944000  0.06854000  1.0 0.0488295178
C  C723  1  0.99944000  0.06854000  0.34920000  1.0 0.0488295178
C  C724  1  0.06854000  0.34920000  0.99944000  1.0 0.0488295178
C  C725  1  0.99944000  0.58282000  0.06854000  1.0 0.0488295178
C  C726  1  0.25056000  0.18146000  0.66718000  1.0 0.0488295178
C  C727  1  0.58282000  0.34920000  0.06854000  1.0 0.0488295178
C  C728  1  0.18146000  0.90080000  0.66718000  1.0 0.0488295178
C  C729  1  0.58282000  0.06854000  0.99944000  1.0 0.0488295178
C  C730  1  0.18146000  0.66718000  0.25056000  1.0 0.0488295178
C  C731  1  0.25056000  0.90080000  0.18146000  1.0 0.0488295178
C  C732  1  0.99944000  0.34920000  0.58282000  1.0 0.0488295178
C  C733  1  0.58282000  0.99944000  0.34920000  1.0 0.0488295178
C  C734  1  0.18146000  0.25056000  0.90080000  1.0 0.0488295178
C  C735  1  0.34920000  0.58282000  0.99944000  1.0 0.0488295178
C  C736  1  0.90080000  0.18146000  0.25056000  1.0 0.0488295178
C  C737  1  0.90080000  0.66718000  0.18146000  1.0 0.0488295178
C  C738  1  0.66718000  0.25056000  0.18146000  1.0 0.0488295178
C  C739  1  0.06854000  0.99944000  0.58282000  1.0 0.0488295178
C  C740  1  0.34920000  0.06854000  0.58282000  1.0 0.0488295178
C  C741  1  0.66718000  0.18146000  0.90080000  1.0 0.0488295178
C  C742  1  0.06854000  0.58282000  0.34920000  1.0 0.0488295178
C  C743  1  0.25056000  0.66718000  0.90080000  1.0 0.0488295178
C  C744  1  0.66718000  0.90080000  0.25056000  1.0 0.0488295178
C  C745  1  0.84920000  0.49944000  0.08282000  1.0 0.0488295178
C  C746  1  0.40080000  0.75056000  0.68146000  1.0 0.0488295178
C  C747  1  0.75056000  0.68146000  0.40080000  1.0 0.0488295178
C  C748  1  0.68146000  0.40080000  0.75056000  1.0 0.0488295178
C  C749  1  0.75056000  0.16718000  0.68146000  1.0 0.0488295178
C  C750  1  0.49944000  0.56854000  0.08282000  1.0 0.0488295178
C  C751  1  0.16718000  0.40080000  0.68146000  1.0 0.0488295178
C  C752  1  0.56854000  0.84920000  0.08282000  1.0 0.0488295178
C  C753  1  0.16718000  0.68146000  0.75056000  1.0 0.0488295178
C  C754  1  0.56854000  0.08282000  0.49944000  1.0 0.0488295178
C  C755  1  0.49944000  0.84920000  0.56854000  1.0 0.0488295178
C  C756  1  0.75056000  0.40080000  0.16718000  1.0 0.0488295178
C  C757  1  0.16718000  0.75056000  0.40080000  1.0 0.0488295178
C  C758  1  0.56854000  0.49944000  0.84920000  1.0 0.0488295178
C  C759  1  0.40080000  0.16718000  0.75056000  1.0 0.0488295178
C  C760  1  0.84920000  0.56854000  0.49944000  1.0 0.0488295178
C  C761  1  0.84920000  0.08282000  0.56854000  1.0 0.0488295178
C  C762  1  0.08282000  0.49944000  0.56854000  1.0 0.0488295178
C  C763  1  0.68146000  0.75056000  0.16718000  1.0 0.0488295178
C  C764  1  0.40080000  0.68146000  0.16718000  1.0 0.0488295178
C  C765  1  0.08282000  0.56854000  0.84920000  1.0 0.0488295178
C  C766  1  0.68146000  0.16718000  0.40080000  1.0 0.0488295178
C  C767  1  0.49944000  0.08282000  0.84920000  1.0 0.0488295178
C  C768  1  0.08282000  0.84920000  0.49944000  1.0 0.0488295178
C  C769  1  0.91106000  0.26172000  0.67742000  1.0 -0.1546355365
C  C770  1  0.33894000  0.98828000  0.10020000  1.0 -0.1546355365
C  C771  1  0.98828000  0.10020000  0.33894000  1.0 -0.1546355365
C  C772  1  0.10020000  0.33894000  0.98828000  1.0 -0.1546355365
C  C773  1  0.98828000  0.57258000  0.10020000  1.0 -0.1546355365
C  C774  1  0.26172000  0.14980000  0.67742000  1.0 -0.1546355365
C  C775  1  0.57258000  0.33894000  0.10020000  1.0 -0.1546355365
C  C776  1  0.14980000  0.91106000  0.67742000  1.0 -0.1546355365
C  C777  1  0.57258000  0.10020000  0.98828000  1.0 -0.1546355365
C  C778  1  0.14980000  0.67742000  0.26172000  1.0 -0.1546355365
C  C779  1  0.26172000  0.91106000  0.14980000  1.0 -0.1546355365
C  C780  1  0.98828000  0.33894000  0.57258000  1.0 -0.1546355365
C  C781  1  0.57258000  0.98828000  0.33894000  1.0 -0.1546355365
C  C782  1  0.14980000  0.26172000  0.91106000  1.0 -0.1546355365
C  C783  1  0.33894000  0.57258000  0.98828000  1.0 -0.1546355365
C  C784  1  0.91106000  0.14980000  0.26172000  1.0 -0.1546355365
C  C785  1  0.91106000  0.67742000  0.14980000  1.0 -0.1546355365
C  C786  1  0.67742000  0.26172000  0.14980000  1.0 -0.1546355365
C  C787  1  0.10020000  0.98828000  0.57258000  1.0 -0.1546355365
C  C788  1  0.33894000  0.10020000  0.57258000  1.0 -0.1546355365
C  C789  1  0.67742000  0.14980000  0.91106000  1.0 -0.1546355365
C  C790  1  0.10020000  0.57258000  0.33894000  1.0 -0.1546355365
C  C791  1  0.26172000  0.67742000  0.91106000  1.0 -0.1546355365
C  C792  1  0.67742000  0.91106000  0.26172000  1.0 -0.1546355365
C  C793  1  0.83894000  0.48828000  0.07258000  1.0 -0.1546355365
C  C794  1  0.41106000  0.76172000  0.64980000  1.0 -0.1546355365
C  C795  1  0.76172000  0.64980000  0.41106000  1.0 -0.1546355365
C  C796  1  0.64980000  0.41106000  0.76172000  1.0 -0.1546355365
C  C797  1  0.76172000  0.17742000  0.64980000  1.0 -0.1546355365
C  C798  1  0.48828000  0.60020000  0.07258000  1.0 -0.1546355365
C  C799  1  0.17742000  0.41106000  0.64980000  1.0 -0.1546355365
C  C800  1  0.60020000  0.83894000  0.07258000  1.0 -0.1546355365
C  C801  1  0.17742000  0.64980000  0.76172000  1.0 -0.1546355365
C  C802  1  0.60020000  0.07258000  0.48828000  1.0 -0.1546355365
C  C803  1  0.48828000  0.83894000  0.60020000  1.0 -0.1546355365
C  C804  1  0.76172000  0.41106000  0.17742000  1.0 -0.1546355365
C  C805  1  0.17742000  0.76172000  0.41106000  1.0 -0.1546355365
C  C806  1  0.60020000  0.48828000  0.83894000  1.0 -0.1546355365
C  C807  1  0.41106000  0.17742000  0.76172000  1.0 -0.1546355365
C  C808  1  0.83894000  0.60020000  0.48828000  1.0 -0.1546355365
C  C809  1  0.83894000  0.07258000  0.60020000  1.0 -0.1546355365
C  C810  1  0.07258000  0.48828000  0.60020000  1.0 -0.1546355365
C  C811  1  0.64980000  0.76172000  0.17742000  1.0 -0.1546355365
C  C812  1  0.41106000  0.64980000  0.17742000  1.0 -0.1546355365
C  C813  1  0.07258000  0.60020000  0.83894000  1.0 -0.1546355365
C  C814  1  0.64980000  0.17742000  0.41106000  1.0 -0.1546355365
C  C815  1  0.48828000  0.07258000  0.83894000  1.0 -0.1546355365
C  C816  1  0.07258000  0.83894000  0.48828000  1.0 -0.1546355365
C  C817  1  0.91077000  0.29195000  0.66253000  1.0 0.0798190702
C  C818  1  0.33923000  0.95805000  0.11525000  1.0 0.0798190702
C  C819  1  0.95805000  0.11525000  0.33923000  1.0 0.0798190702
C  C820  1  0.11525000  0.33923000  0.95805000  1.0 0.0798190702
C  C821  1  0.95805000  0.58747000  0.11525000  1.0 0.0798190702
C  C822  1  0.29195000  0.13475000  0.66253000  1.0 0.0798190702
C  C823  1  0.58747000  0.33923000  0.11525000  1.0 0.0798190702
C  C824  1  0.13475000  0.91077000  0.66253000  1.0 0.0798190702
C  C825  1  0.58747000  0.11525000  0.95805000  1.0 0.0798190702
C  C826  1  0.13475000  0.66253000  0.29195000  1.0 0.0798190702
C  C827  1  0.29195000  0.91077000  0.13475000  1.0 0.0798190702
C  C828  1  0.95805000  0.33923000  0.58747000  1.0 0.0798190702
C  C829  1  0.58747000  0.95805000  0.33923000  1.0 0.0798190702
C  C830  1  0.13475000  0.29195000  0.91077000  1.0 0.0798190702
C  C831  1  0.33923000  0.58747000  0.95805000  1.0 0.0798190702
C  C832  1  0.91077000  0.13475000  0.29195000  1.0 0.0798190702
C  C833  1  0.91077000  0.66253000  0.13475000  1.0 0.0798190702
C  C834  1  0.66253000  0.29195000  0.13475000  1.0 0.0798190702
C  C835  1  0.11525000  0.95805000  0.58747000  1.0 0.0798190702
C  C836  1  0.33923000  0.11525000  0.58747000  1.0 0.0798190702
C  C837  1  0.66253000  0.13475000  0.91077000  1.0 0.0798190702
C  C838  1  0.11525000  0.58747000  0.33923000  1.0 0.0798190702
C  C839  1  0.29195000  0.66253000  0.91077000  1.0 0.0798190702
C  C840  1  0.66253000  0.91077000  0.29195000  1.0 0.0798190702
C  C841  1  0.83923000  0.45805000  0.08747000  1.0 0.0798190702
C  C842  1  0.41077000  0.79195000  0.63475000  1.0 0.0798190702
C  C843  1  0.79195000  0.63475000  0.41077000  1.0 0.0798190702
C  C844  1  0.63475000  0.41077000  0.79195000  1.0 0.0798190702
C  C845  1  0.79195000  0.16253000  0.63475000  1.0 0.0798190702
C  C846  1  0.45805000  0.61525000  0.08747000  1.0 0.0798190702
C  C847  1  0.16253000  0.41077000  0.63475000  1.0 0.0798190702
C  C848  1  0.61525000  0.83923000  0.08747000  1.0 0.0798190702
C  C849  1  0.16253000  0.63475000  0.79195000  1.0 0.0798190702
C  C850  1  0.61525000  0.08747000  0.45805000  1.0 0.0798190702
C  C851  1  0.45805000  0.83923000  0.61525000  1.0 0.0798190702
C  C852  1  0.79195000  0.41077000  0.16253000  1.0 0.0798190702
C  C853  1  0.16253000  0.79195000  0.41077000  1.0 0.0798190702
C  C854  1  0.61525000  0.45805000  0.83923000  1.0 0.0798190702
C  C855  1  0.41077000  0.16253000  0.79195000  1.0 0.0798190702
C  C856  1  0.83923000  0.61525000  0.45805000  1.0 0.0798190702
C  C857  1  0.83923000  0.08747000  0.61525000  1.0 0.0798190702
C  C858  1  0.08747000  0.45805000  0.61525000  1.0 0.0798190702
C  C859  1  0.63475000  0.79195000  0.16253000  1.0 0.0798190702
C  C860  1  0.41077000  0.63475000  0.16253000  1.0 0.0798190702
C  C861  1  0.08747000  0.61525000  0.83923000  1.0 0.0798190702
C  C862  1  0.63475000  0.16253000  0.41077000  1.0 0.0798190702
C  C863  1  0.45805000  0.08747000  0.83923000  1.0 0.0798190702
C  C864  1  0.08747000  0.83923000  0.45805000  1.0 0.0798190702
C  C865  1  0.89650000  0.22010000  0.68528000  1.0 0.3668159538
C  C866  1  0.35350000  0.02990000  0.05188000  1.0 0.3668159538
C  C867  1  0.02990000  0.05188000  0.35350000  1.0 0.3668159538
C  C868  1  0.05188000  0.35350000  0.02990000  1.0 0.3668159538
C  C869  1  0.02990000  0.56472000  0.05188000  1.0 0.3668159538
C  C870  1  0.22010000  0.19812000  0.68528000  1.0 0.3668159538
C  C871  1  0.56472000  0.35350000  0.05188000  1.0 0.3668159538
C  C872  1  0.19812000  0.89650000  0.68528000  1.0 0.3668159538
C  C873  1  0.56472000  0.05188000  0.02990000  1.0 0.3668159538
C  C874  1  0.19812000  0.68528000  0.22010000  1.0 0.3668159538
C  C875  1  0.22010000  0.89650000  0.19812000  1.0 0.3668159538
C  C876  1  0.02990000  0.35350000  0.56472000  1.0 0.3668159538
C  C877  1  0.56472000  0.02990000  0.35350000  1.0 0.3668159538
C  C878  1  0.19812000  0.22010000  0.89650000  1.0 0.3668159538
C  C879  1  0.35350000  0.56472000  0.02990000  1.0 0.3668159538
C  C880  1  0.89650000  0.19812000  0.22010000  1.0 0.3668159538
C  C881  1  0.89650000  0.68528000  0.19812000  1.0 0.3668159538
C  C882  1  0.68528000  0.22010000  0.19812000  1.0 0.3668159538
C  C883  1  0.05188000  0.02990000  0.56472000  1.0 0.3668159538
C  C884  1  0.35350000  0.05188000  0.56472000  1.0 0.3668159538
C  C885  1  0.68528000  0.19812000  0.89650000  1.0 0.3668159538
C  C886  1  0.05188000  0.56472000  0.35350000  1.0 0.3668159538
C  C887  1  0.22010000  0.68528000  0.89650000  1.0 0.3668159538
C  C888  1  0.68528000  0.89650000  0.22010000  1.0 0.3668159538
C  C889  1  0.85350000  0.52990000  0.06472000  1.0 0.3668159538
C  C890  1  0.39650000  0.72010000  0.69812000  1.0 0.3668159538
C  C891  1  0.72010000  0.69812000  0.39650000  1.0 0.3668159538
C  C892  1  0.69812000  0.39650000  0.72010000  1.0 0.3668159538
C  C893  1  0.72010000  0.18528000  0.69812000  1.0 0.3668159538
C  C894  1  0.52990000  0.55188000  0.06472000  1.0 0.3668159538
C  C895  1  0.18528000  0.39650000  0.69812000  1.0 0.3668159538
C  C896  1  0.55188000  0.85350000  0.06472000  1.0 0.3668159538
C  C897  1  0.18528000  0.69812000  0.72010000  1.0 0.3668159538
C  C898  1  0.55188000  0.06472000  0.52990000  1.0 0.3668159538
C  C899  1  0.52990000  0.85350000  0.55188000  1.0 0.3668159538
C  C900  1  0.72010000  0.39650000  0.18528000  1.0 0.3668159538
C  C901  1  0.18528000  0.72010000  0.39650000  1.0 0.3668159538
C  C902  1  0.55188000  0.52990000  0.85350000  1.0 0.3668159538
C  C903  1  0.39650000  0.18528000  0.72010000  1.0 0.3668159538
C  C904  1  0.85350000  0.55188000  0.52990000  1.0 0.3668159538
C  C905  1  0.85350000  0.06472000  0.55188000  1.0 0.3668159538
C  C906  1  0.06472000  0.52990000  0.55188000  1.0 0.3668159538
C  C907  1  0.69812000  0.72010000  0.18528000  1.0 0.3668159538
C  C908  1  0.39650000  0.69812000  0.18528000  1.0 0.3668159538
C  C909  1  0.06472000  0.55188000  0.85350000  1.0 0.3668159538
C  C910  1  0.69812000  0.18528000  0.39650000  1.0 0.3668159538
C  C911  1  0.52990000  0.06472000  0.85350000  1.0 0.3668159538
C  C912  1  0.06472000  0.85350000  0.52990000  1.0 0.3668159538
C  C913  1  0.88758000  0.18024000  0.68990000  1.0 0.3668159538
C  C914  1  0.36242000  0.06976000  0.00772000  1.0 0.3668159538
C  C915  1  0.06976000  0.00772000  0.36242000  1.0 0.3668159538
C  C916  1  0.00772000  0.36242000  0.06976000  1.0 0.3668159538
C  C917  1  0.06976000  0.56010000  0.00772000  1.0 0.3668159538
C  C918  1  0.18024000  0.24228000  0.68990000  1.0 0.3668159538
C  C919  1  0.56010000  0.36242000  0.00772000  1.0 0.3668159538
C  C920  1  0.24228000  0.88758000  0.68990000  1.0 0.3668159538
C  C921  1  0.56010000  0.00772000  0.06976000  1.0 0.3668159538
C  C922  1  0.24228000  0.68990000  0.18024000  1.0 0.3668159538
C  C923  1  0.18024000  0.88758000  0.24228000  1.0 0.3668159538
C  C924  1  0.06976000  0.36242000  0.56010000  1.0 0.3668159538
C  C925  1  0.56010000  0.06976000  0.36242000  1.0 0.3668159538
C  C926  1  0.24228000  0.18024000  0.88758000  1.0 0.3668159538
C  C927  1  0.36242000  0.56010000  0.06976000  1.0 0.3668159538
C  C928  1  0.88758000  0.24228000  0.18024000  1.0 0.3668159538
C  C929  1  0.88758000  0.68990000  0.24228000  1.0 0.3668159538
C  C930  1  0.68990000  0.18024000  0.24228000  1.0 0.3668159538
C  C931  1  0.00772000  0.06976000  0.56010000  1.0 0.3668159538
C  C932  1  0.36242000  0.00772000  0.56010000  1.0 0.3668159538
C  C933  1  0.68990000  0.24228000  0.88758000  1.0 0.3668159538
C  C934  1  0.00772000  0.56010000  0.36242000  1.0 0.3668159538
C  C935  1  0.18024000  0.68990000  0.88758000  1.0 0.3668159538
C  C936  1  0.68990000  0.88758000  0.18024000  1.0 0.3668159538
C  C937  1  0.86242000  0.56976000  0.06010000  1.0 0.3668159538
C  C938  1  0.38758000  0.68024000  0.74228000  1.0 0.3668159538
C  C939  1  0.68024000  0.74228000  0.38758000  1.0 0.3668159538
C  C940  1  0.74228000  0.38758000  0.68024000  1.0 0.3668159538
C  C941  1  0.68024000  0.18990000  0.74228000  1.0 0.3668159538
C  C942  1  0.56976000  0.50772000  0.06010000  1.0 0.3668159538
C  C943  1  0.18990000  0.38758000  0.74228000  1.0 0.3668159538
C  C944  1  0.50772000  0.86242000  0.06010000  1.0 0.3668159538
C  C945  1  0.18990000  0.74228000  0.68024000  1.0 0.3668159538
C  C946  1  0.50772000  0.06010000  0.56976000  1.0 0.3668159538
C  C947  1  0.56976000  0.86242000  0.50772000  1.0 0.3668159538
C  C948  1  0.68024000  0.38758000  0.18990000  1.0 0.3668159538
C  C949  1  0.18990000  0.68024000  0.38758000  1.0 0.3668159538
C  C950  1  0.50772000  0.56976000  0.86242000  1.0 0.3668159538
C  C951  1  0.38758000  0.18990000  0.68024000  1.0 0.3668159538
C  C952  1  0.86242000  0.50772000  0.56976000  1.0 0.3668159538
C  C953  1  0.86242000  0.06010000  0.50772000  1.0 0.3668159538
C  C954  1  0.06010000  0.56976000  0.50772000  1.0 0.3668159538
C  C955  1  0.74228000  0.68024000  0.18990000  1.0 0.3668159538
C  C956  1  0.38758000  0.74228000  0.18990000  1.0 0.3668159538
C  C957  1  0.06010000  0.50772000  0.86242000  1.0 0.3668159538
C  C958  1  0.74228000  0.18990000  0.38758000  1.0 0.3668159538
C  C959  1  0.56976000  0.06010000  0.86242000  1.0 0.3668159538
C  C960  1  0.06010000  0.86242000  0.56976000  1.0 0.3668159538
C  C961  1  0.89066000  0.18104000  0.73040000  1.0 0.3495030204
C  C962  1  0.35934000  0.06896000  0.05210000  1.0 0.3495030204
C  C963  1  0.06896000  0.05210000  0.35934000  1.0 0.3495030204
C  C964  1  0.05210000  0.35934000  0.06896000  1.0 0.3495030204
C  C965  1  0.06896000  0.51960000  0.05210000  1.0 0.3495030204
C  C966  1  0.18104000  0.19790000  0.73040000  1.0 0.3495030204
C  C967  1  0.51960000  0.35934000  0.05210000  1.0 0.3495030204
C  C968  1  0.19790000  0.89066000  0.73040000  1.0 0.3495030204
C  C969  1  0.51960000  0.05210000  0.06896000  1.0 0.3495030204
C  C970  1  0.19790000  0.73040000  0.18104000  1.0 0.3495030204
C  C971  1  0.18104000  0.89066000  0.19790000  1.0 0.3495030204
C  C972  1  0.06896000  0.35934000  0.51960000  1.0 0.3495030204
C  C973  1  0.51960000  0.06896000  0.35934000  1.0 0.3495030204
C  C974  1  0.19790000  0.18104000  0.89066000  1.0 0.3495030204
C  C975  1  0.35934000  0.51960000  0.06896000  1.0 0.3495030204
C  C976  1  0.89066000  0.19790000  0.18104000  1.0 0.3495030204
C  C977  1  0.89066000  0.73040000  0.19790000  1.0 0.3495030204
C  C978  1  0.73040000  0.18104000  0.19790000  1.0 0.3495030204
C  C979  1  0.05210000  0.06896000  0.51960000  1.0 0.3495030204
C  C980  1  0.35934000  0.05210000  0.51960000  1.0 0.3495030204
C  C981  1  0.73040000  0.19790000  0.89066000  1.0 0.3495030204
C  C982  1  0.05210000  0.51960000  0.35934000  1.0 0.3495030204
C  C983  1  0.18104000  0.73040000  0.89066000  1.0 0.3495030204
C  C984  1  0.73040000  0.89066000  0.18104000  1.0 0.3495030204
C  C985  1  0.85934000  0.56896000  0.01960000  1.0 0.3495030204
C  C986  1  0.39066000  0.68104000  0.69790000  1.0 0.3495030204
C  C987  1  0.68104000  0.69790000  0.39066000  1.0 0.3495030204
C  C988  1  0.69790000  0.39066000  0.68104000  1.0 0.3495030204
C  C989  1  0.68104000  0.23040000  0.69790000  1.0 0.3495030204
C  C990  1  0.56896000  0.55210000  0.01960000  1.0 0.3495030204
C  C991  1  0.23040000  0.39066000  0.69790000  1.0 0.3495030204
C  C992  1  0.55210000  0.85934000  0.01960000  1.0 0.3495030204
C  C993  1  0.23040000  0.69790000  0.68104000  1.0 0.3495030204
C  C994  1  0.55210000  0.01960000  0.56896000  1.0 0.3495030204
C  C995  1  0.56896000  0.85934000  0.55210000  1.0 0.3495030204
C  C996  1  0.68104000  0.39066000  0.23040000  1.0 0.3495030204
C  C997  1  0.23040000  0.68104000  0.39066000  1.0 0.3495030204
C  C998  1  0.55210000  0.56896000  0.85934000  1.0 0.3495030204
C  C999  1  0.39066000  0.23040000  0.68104000  1.0 0.3495030204
C  C1000  1  0.85934000  0.55210000  0.56896000  1.0 0.3495030204
C  C1001  1  0.85934000  0.01960000  0.55210000  1.0 0.3495030204
C  C1002  1  0.01960000  0.56896000  0.55210000  1.0 0.3495030204
C  C1003  1  0.69790000  0.68104000  0.23040000  1.0 0.3495030204
C  C1004  1  0.39066000  0.69790000  0.23040000  1.0 0.3495030204
C  C1005  1  0.01960000  0.55210000  0.85934000  1.0 0.3495030204
C  C1006  1  0.69790000  0.23040000  0.39066000  1.0 0.3495030204
C  C1007  1  0.56896000  0.01960000  0.85934000  1.0 0.3495030204
C  C1008  1  0.01960000  0.85934000  0.56896000  1.0 0.3495030204
C  C1009  1  0.88071000  0.16529000  0.63237000  1.0 0.0798190702
C  C1010  1  0.36929000  0.08471000  0.92837000  1.0 0.0798190702
C  C1011  1  0.08471000  0.92837000  0.36929000  1.0 0.0798190702
C  C1012  1  0.92837000  0.36929000  0.08471000  1.0 0.0798190702
C  C1013  1  0.08471000  0.61763000  0.92837000  1.0 0.0798190702
C  C1014  1  0.16529000  0.32163000  0.63237000  1.0 0.0798190702
C  C1015  1  0.61763000  0.36929000  0.92837000  1.0 0.0798190702
C  C1016  1  0.32163000  0.88071000  0.63237000  1.0 0.0798190702
C  C1017  1  0.61763000  0.92837000  0.08471000  1.0 0.0798190702
C  C1018  1  0.32163000  0.63237000  0.16529000  1.0 0.0798190702
C  C1019  1  0.16529000  0.88071000  0.32163000  1.0 0.0798190702
C  C1020  1  0.08471000  0.36929000  0.61763000  1.0 0.0798190702
C  C1021  1  0.61763000  0.08471000  0.36929000  1.0 0.0798190702
C  C1022  1  0.32163000  0.16529000  0.88071000  1.0 0.0798190702
C  C1023  1  0.36929000  0.61763000  0.08471000  1.0 0.0798190702
C  C1024  1  0.88071000  0.32163000  0.16529000  1.0 0.0798190702
C  C1025  1  0.88071000  0.63237000  0.32163000  1.0 0.0798190702
C  C1026  1  0.63237000  0.16529000  0.32163000  1.0 0.0798190702
C  C1027  1  0.92837000  0.08471000  0.61763000  1.0 0.0798190702
C  C1028  1  0.36929000  0.92837000  0.61763000  1.0 0.0798190702
C  C1029  1  0.63237000  0.32163000  0.88071000  1.0 0.0798190702
C  C1030  1  0.92837000  0.61763000  0.36929000  1.0 0.0798190702
C  C1031  1  0.16529000  0.63237000  0.88071000  1.0 0.0798190702
C  C1032  1  0.63237000  0.88071000  0.16529000  1.0 0.0798190702
C  C1033  1  0.86929000  0.58471000  0.11763000  1.0 0.0798190702
C  C1034  1  0.38071000  0.66529000  0.82163000  1.0 0.0798190702
C  C1035  1  0.66529000  0.82163000  0.38071000  1.0 0.0798190702
C  C1036  1  0.82163000  0.38071000  0.66529000  1.0 0.0798190702
C  C1037  1  0.66529000  0.13237000  0.82163000  1.0 0.0798190702
C  C1038  1  0.58471000  0.42837000  0.11763000  1.0 0.0798190702
C  C1039  1  0.13237000  0.38071000  0.82163000  1.0 0.0798190702
C  C1040  1  0.42837000  0.86929000  0.11763000  1.0 0.0798190702
C  C1041  1  0.13237000  0.82163000  0.66529000  1.0 0.0798190702
C  C1042  1  0.42837000  0.11763000  0.58471000  1.0 0.0798190702
C  C1043  1  0.58471000  0.86929000  0.42837000  1.0 0.0798190702
C  C1044  1  0.66529000  0.38071000  0.13237000  1.0 0.0798190702
C  C1045  1  0.13237000  0.66529000  0.38071000  1.0 0.0798190702
C  C1046  1  0.42837000  0.58471000  0.86929000  1.0 0.0798190702
C  C1047  1  0.38071000  0.13237000  0.66529000  1.0 0.0798190702
C  C1048  1  0.86929000  0.42837000  0.58471000  1.0 0.0798190702
C  C1049  1  0.86929000  0.11763000  0.42837000  1.0 0.0798190702
C  C1050  1  0.11763000  0.58471000  0.42837000  1.0 0.0798190702
C  C1051  1  0.82163000  0.66529000  0.13237000  1.0 0.0798190702
C  C1052  1  0.38071000  0.82163000  0.13237000  1.0 0.0798190702
C  C1053  1  0.11763000  0.42837000  0.86929000  1.0 0.0798190702
C  C1054  1  0.82163000  0.13237000  0.38071000  1.0 0.0798190702
C  C1055  1  0.58471000  0.11763000  0.86929000  1.0 0.0798190702
C  C1056  1  0.11763000  0.86929000  0.58471000  1.0 0.0798190702
C  C1057  1  0.88645000  0.17855000  0.64467000  1.0 -0.1569609012
C  C1058  1  0.36355000  0.07145000  0.95967000  1.0 -0.1569609012
C  C1059  1  0.07145000  0.95967000  0.36355000  1.0 -0.1569609012
C  C1060  1  0.95967000  0.36355000  0.07145000  1.0 -0.1569609012
C  C1061  1  0.07145000  0.60533000  0.95967000  1.0 -0.1569609012
C  C1062  1  0.17855000  0.29033000  0.64467000  1.0 -0.1569609012
C  C1063  1  0.60533000  0.36355000  0.95967000  1.0 -0.1569609012
C  C1064  1  0.29033000  0.88645000  0.64467000  1.0 -0.1569609012
C  C1065  1  0.60533000  0.95967000  0.07145000  1.0 -0.1569609012
C  C1066  1  0.29033000  0.64467000  0.17855000  1.0 -0.1569609012
C  C1067  1  0.17855000  0.88645000  0.29033000  1.0 -0.1569609012
C  C1068  1  0.07145000  0.36355000  0.60533000  1.0 -0.1569609012
C  C1069  1  0.60533000  0.07145000  0.36355000  1.0 -0.1569609012
C  C1070  1  0.29033000  0.17855000  0.88645000  1.0 -0.1569609012
C  C1071  1  0.36355000  0.60533000  0.07145000  1.0 -0.1569609012
C  C1072  1  0.88645000  0.29033000  0.17855000  1.0 -0.1569609012
C  C1073  1  0.88645000  0.64467000  0.29033000  1.0 -0.1569609012
C  C1074  1  0.64467000  0.17855000  0.29033000  1.0 -0.1569609012
C  C1075  1  0.95967000  0.07145000  0.60533000  1.0 -0.1569609012
C  C1076  1  0.36355000  0.95967000  0.60533000  1.0 -0.1569609012
C  C1077  1  0.64467000  0.29033000  0.88645000  1.0 -0.1569609012
C  C1078  1  0.95967000  0.60533000  0.36355000  1.0 -0.1569609012
C  C1079  1  0.17855000  0.64467000  0.88645000  1.0 -0.1569609012
C  C1080  1  0.64467000  0.88645000  0.17855000  1.0 -0.1569609012
C  C1081  1  0.86355000  0.57145000  0.10533000  1.0 -0.1569609012
C  C1082  1  0.38645000  0.67855000  0.79033000  1.0 -0.1569609012
C  C1083  1  0.67855000  0.79033000  0.38645000  1.0 -0.1569609012
C  C1084  1  0.79033000  0.38645000  0.67855000  1.0 -0.1569609012
C  C1085  1  0.67855000  0.14467000  0.79033000  1.0 -0.1569609012
C  C1086  1  0.57145000  0.45967000  0.10533000  1.0 -0.1569609012
C  C1087  1  0.14467000  0.38645000  0.79033000  1.0 -0.1569609012
C  C1088  1  0.45967000  0.86355000  0.10533000  1.0 -0.1569609012
C  C1089  1  0.14467000  0.79033000  0.67855000  1.0 -0.1569609012
C  C1090  1  0.45967000  0.10533000  0.57145000  1.0 -0.1569609012
C  C1091  1  0.57145000  0.86355000  0.45967000  1.0 -0.1569609012
C  C1092  1  0.67855000  0.38645000  0.14467000  1.0 -0.1569609012
C  C1093  1  0.14467000  0.67855000  0.38645000  1.0 -0.1569609012
C  C1094  1  0.45967000  0.57145000  0.86355000  1.0 -0.1569609012
C  C1095  1  0.38645000  0.14467000  0.67855000  1.0 -0.1569609012
C  C1096  1  0.86355000  0.45967000  0.57145000  1.0 -0.1569609012
C  C1097  1  0.86355000  0.10533000  0.45967000  1.0 -0.1569609012
C  C1098  1  0.10533000  0.57145000  0.45967000  1.0 -0.1569609012
C  C1099  1  0.79033000  0.67855000  0.14467000  1.0 -0.1569609012
C  C1100  1  0.38645000  0.79033000  0.14467000  1.0 -0.1569609012
C  C1101  1  0.10533000  0.45967000  0.86355000  1.0 -0.1569609012
C  C1102  1  0.79033000  0.14467000  0.38645000  1.0 -0.1569609012
C  C1103  1  0.57145000  0.10533000  0.86355000  1.0 -0.1569609012
C  C1104  1  0.10533000  0.86355000  0.57145000  1.0 -0.1569609012
C  C1105  1  0.88267000  0.16561000  0.67599000  1.0 0.0488295178
C  C1106  1  0.36733000  0.08439000  0.97427000  1.0 0.0488295178
C  C1107  1  0.08439000  0.97427000  0.36733000  1.0 0.0488295178
C  C1108  1  0.97427000  0.36733000  0.08439000  1.0 0.0488295178
C  C1109  1  0.08439000  0.57401000  0.97427000  1.0 0.0488295178
C  C1110  1  0.16561000  0.27573000  0.67599000  1.0 0.0488295178
C  C1111  1  0.57401000  0.36733000  0.97427000  1.0 0.0488295178
C  C1112  1  0.27573000  0.88267000  0.67599000  1.0 0.0488295178
C  C1113  1  0.57401000  0.97427000  0.08439000  1.0 0.0488295178
C  C1114  1  0.27573000  0.67599000  0.16561000  1.0 0.0488295178
C  C1115  1  0.16561000  0.88267000  0.27573000  1.0 0.0488295178
C  C1116  1  0.08439000  0.36733000  0.57401000  1.0 0.0488295178
C  C1117  1  0.57401000  0.08439000  0.36733000  1.0 0.0488295178
C  C1118  1  0.27573000  0.16561000  0.88267000  1.0 0.0488295178
C  C1119  1  0.36733000  0.57401000  0.08439000  1.0 0.0488295178
C  C1120  1  0.88267000  0.27573000  0.16561000  1.0 0.0488295178
C  C1121  1  0.88267000  0.67599000  0.27573000  1.0 0.0488295178
C  C1122  1  0.67599000  0.16561000  0.27573000  1.0 0.0488295178
C  C1123  1  0.97427000  0.08439000  0.57401000  1.0 0.0488295178
C  C1124  1  0.36733000  0.97427000  0.57401000  1.0 0.0488295178
C  C1125  1  0.67599000  0.27573000  0.88267000  1.0 0.0488295178
C  C1126  1  0.97427000  0.57401000  0.36733000  1.0 0.0488295178
C  C1127  1  0.16561000  0.67599000  0.88267000  1.0 0.0488295178
C  C1128  1  0.67599000  0.88267000  0.16561000  1.0 0.0488295178
C  C1129  1  0.86733000  0.58439000  0.07401000  1.0 0.0488295178
C  C1130  1  0.38267000  0.66561000  0.77573000  1.0 0.0488295178
C  C1131  1  0.66561000  0.77573000  0.38267000  1.0 0.0488295178
C  C1132  1  0.77573000  0.38267000  0.66561000  1.0 0.0488295178
C  C1133  1  0.66561000  0.17599000  0.77573000  1.0 0.0488295178
C  C1134  1  0.58439000  0.47427000  0.07401000  1.0 0.0488295178
C  C1135  1  0.17599000  0.38267000  0.77573000  1.0 0.0488295178
C  C1136  1  0.47427000  0.86733000  0.07401000  1.0 0.0488295178
C  C1137  1  0.17599000  0.77573000  0.66561000  1.0 0.0488295178
C  C1138  1  0.47427000  0.07401000  0.58439000  1.0 0.0488295178
C  C1139  1  0.58439000  0.86733000  0.47427000  1.0 0.0488295178
C  C1140  1  0.66561000  0.38267000  0.17599000  1.0 0.0488295178
C  C1141  1  0.17599000  0.66561000  0.38267000  1.0 0.0488295178
C  C1142  1  0.47427000  0.58439000  0.86733000  1.0 0.0488295178
C  C1143  1  0.38267000  0.17599000  0.66561000  1.0 0.0488295178
C  C1144  1  0.86733000  0.47427000  0.58439000  1.0 0.0488295178
C  C1145  1  0.86733000  0.07401000  0.47427000  1.0 0.0488295178
C  C1146  1  0.07401000  0.58439000  0.47427000  1.0 0.0488295178
C  C1147  1  0.77573000  0.66561000  0.17599000  1.0 0.0488295178
C  C1148  1  0.38267000  0.77573000  0.17599000  1.0 0.0488295178
C  C1149  1  0.07401000  0.47427000  0.86733000  1.0 0.0488295178
C  C1150  1  0.77573000  0.17599000  0.38267000  1.0 0.0488295178
C  C1151  1  0.58439000  0.07401000  0.86733000  1.0 0.0488295178
C  C1152  1  0.07401000  0.86733000  0.58439000  1.0 0.0488295178
C  C1153  1  0.87414000  0.13946000  0.69282000  1.0 -0.1682731108
C  C1154  1  0.37586000  0.11054000  0.95642000  1.0 -0.1682731108
C  C1155  1  0.11054000  0.95642000  0.37586000  1.0 -0.1682731108
C  C1156  1  0.95642000  0.37586000  0.11054000  1.0 -0.1682731108
C  C1157  1  0.11054000  0.55718000  0.95642000  1.0 -0.1682731108
C  C1158  1  0.13946000  0.29358000  0.69282000  1.0 -0.1682731108
C  C1159  1  0.55718000  0.37586000  0.95642000  1.0 -0.1682731108
C  C1160  1  0.29358000  0.87414000  0.69282000  1.0 -0.1682731108
C  C1161  1  0.55718000  0.95642000  0.11054000  1.0 -0.1682731108
C  C1162  1  0.29358000  0.69282000  0.13946000  1.0 -0.1682731108
C  C1163  1  0.13946000  0.87414000  0.29358000  1.0 -0.1682731108
C  C1164  1  0.11054000  0.37586000  0.55718000  1.0 -0.1682731108
C  C1165  1  0.55718000  0.11054000  0.37586000  1.0 -0.1682731108
C  C1166  1  0.29358000  0.13946000  0.87414000  1.0 -0.1682731108
C  C1167  1  0.37586000  0.55718000  0.11054000  1.0 -0.1682731108
C  C1168  1  0.87414000  0.29358000  0.13946000  1.0 -0.1682731108
C  C1169  1  0.87414000  0.69282000  0.29358000  1.0 -0.1682731108
C  C1170  1  0.69282000  0.13946000  0.29358000  1.0 -0.1682731108
C  C1171  1  0.95642000  0.11054000  0.55718000  1.0 -0.1682731108
C  C1172  1  0.37586000  0.95642000  0.55718000  1.0 -0.1682731108
C  C1173  1  0.69282000  0.29358000  0.87414000  1.0 -0.1682731108
C  C1174  1  0.95642000  0.55718000  0.37586000  1.0 -0.1682731108
C  C1175  1  0.13946000  0.69282000  0.87414000  1.0 -0.1682731108
C  C1176  1  0.69282000  0.87414000  0.13946000  1.0 -0.1682731108
C  C1177  1  0.87586000  0.61054000  0.05718000  1.0 -0.1682731108
C  C1178  1  0.37414000  0.63946000  0.79358000  1.0 -0.1682731108
C  C1179  1  0.63946000  0.79358000  0.37414000  1.0 -0.1682731108
C  C1180  1  0.79358000  0.37414000  0.63946000  1.0 -0.1682731108
C  C1181  1  0.63946000  0.19282000  0.79358000  1.0 -0.1682731108
C  C1182  1  0.61054000  0.45642000  0.05718000  1.0 -0.1682731108
C  C1183  1  0.19282000  0.37414000  0.79358000  1.0 -0.1682731108
C  C1184  1  0.45642000  0.87586000  0.05718000  1.0 -0.1682731108
C  C1185  1  0.19282000  0.79358000  0.63946000  1.0 -0.1682731108
C  C1186  1  0.45642000  0.05718000  0.61054000  1.0 -0.1682731108
C  C1187  1  0.61054000  0.87586000  0.45642000  1.0 -0.1682731108
C  C1188  1  0.63946000  0.37414000  0.19282000  1.0 -0.1682731108
C  C1189  1  0.19282000  0.63946000  0.37414000  1.0 -0.1682731108
C  C1190  1  0.45642000  0.61054000  0.87586000  1.0 -0.1682731108
C  C1191  1  0.37414000  0.19282000  0.63946000  1.0 -0.1682731108
C  C1192  1  0.87586000  0.45642000  0.61054000  1.0 -0.1682731108
C  C1193  1  0.87586000  0.05718000  0.45642000  1.0 -0.1682731108
C  C1194  1  0.05718000  0.61054000  0.45642000  1.0 -0.1682731108
C  C1195  1  0.79358000  0.63946000  0.19282000  1.0 -0.1682731108
C  C1196  1  0.37414000  0.79358000  0.19282000  1.0 -0.1682731108
C  C1197  1  0.05718000  0.45642000  0.87586000  1.0 -0.1682731108
C  C1198  1  0.79358000  0.19282000  0.37414000  1.0 -0.1682731108
C  C1199  1  0.61054000  0.05718000  0.87586000  1.0 -0.1682731108
C  C1200  1  0.05718000  0.87586000  0.61054000  1.0 -0.1682731108
C  C1201  1  0.86871000  0.12797000  0.67835000  1.0 0.0715963005
C  C1202  1  0.38129000  0.12203000  0.92503000  1.0 0.0715963005
C  C1203  1  0.12203000  0.92503000  0.38129000  1.0 0.0715963005
C  C1204  1  0.92503000  0.38129000  0.12203000  1.0 0.0715963005
C  C1205  1  0.12203000  0.57165000  0.92503000  1.0 0.0715963005
C  C1206  1  0.12797000  0.32497000  0.67835000  1.0 0.0715963005
C  C1207  1  0.57165000  0.38129000  0.92503000  1.0 0.0715963005
C  C1208  1  0.32497000  0.86871000  0.67835000  1.0 0.0715963005
C  C1209  1  0.57165000  0.92503000  0.12203000  1.0 0.0715963005
C  C1210  1  0.32497000  0.67835000  0.12797000  1.0 0.0715963005
C  C1211  1  0.12797000  0.86871000  0.32497000  1.0 0.0715963005
C  C1212  1  0.12203000  0.38129000  0.57165000  1.0 0.0715963005
C  C1213  1  0.57165000  0.12203000  0.38129000  1.0 0.0715963005
C  C1214  1  0.32497000  0.12797000  0.86871000  1.0 0.0715963005
C  C1215  1  0.38129000  0.57165000  0.12203000  1.0 0.0715963005
C  C1216  1  0.86871000  0.32497000  0.12797000  1.0 0.0715963005
C  C1217  1  0.86871000  0.67835000  0.32497000  1.0 0.0715963005
C  C1218  1  0.67835000  0.12797000  0.32497000  1.0 0.0715963005
C  C1219  1  0.92503000  0.12203000  0.57165000  1.0 0.0715963005
C  C1220  1  0.38129000  0.92503000  0.57165000  1.0 0.0715963005
C  C1221  1  0.67835000  0.32497000  0.86871000  1.0 0.0715963005
C  C1222  1  0.92503000  0.57165000  0.38129000  1.0 0.0715963005
C  C1223  1  0.12797000  0.67835000  0.86871000  1.0 0.0715963005
C  C1224  1  0.67835000  0.86871000  0.12797000  1.0 0.0715963005
C  C1225  1  0.88129000  0.62203000  0.07165000  1.0 0.0715963005
C  C1226  1  0.36871000  0.62797000  0.82497000  1.0 0.0715963005
C  C1227  1  0.62797000  0.82497000  0.36871000  1.0 0.0715963005
C  C1228  1  0.82497000  0.36871000  0.62797000  1.0 0.0715963005
C  C1229  1  0.62797000  0.17835000  0.82497000  1.0 0.0715963005
C  C1230  1  0.62203000  0.42503000  0.07165000  1.0 0.0715963005
C  C1231  1  0.17835000  0.36871000  0.82497000  1.0 0.0715963005
C  C1232  1  0.42503000  0.88129000  0.07165000  1.0 0.0715963005
C  C1233  1  0.17835000  0.82497000  0.62797000  1.0 0.0715963005
C  C1234  1  0.42503000  0.07165000  0.62203000  1.0 0.0715963005
C  C1235  1  0.62203000  0.88129000  0.42503000  1.0 0.0715963005
C  C1236  1  0.62797000  0.36871000  0.17835000  1.0 0.0715963005
C  C1237  1  0.17835000  0.62797000  0.36871000  1.0 0.0715963005
C  C1238  1  0.42503000  0.62203000  0.88129000  1.0 0.0715963005
C  C1239  1  0.36871000  0.17835000  0.62797000  1.0 0.0715963005
C  C1240  1  0.88129000  0.42503000  0.62203000  1.0 0.0715963005
C  C1241  1  0.88129000  0.07165000  0.42503000  1.0 0.0715963005
C  C1242  1  0.07165000  0.62203000  0.42503000  1.0 0.0715963005
C  C1243  1  0.82497000  0.62797000  0.17835000  1.0 0.0715963005
C  C1244  1  0.36871000  0.82497000  0.17835000  1.0 0.0715963005
C  C1245  1  0.07165000  0.42503000  0.88129000  1.0 0.0715963005
C  C1246  1  0.82497000  0.17835000  0.36871000  1.0 0.0715963005
C  C1247  1  0.62203000  0.07165000  0.88129000  1.0 0.0715963005
C  C1248  1  0.07165000  0.88129000  0.62203000  1.0 0.0715963005
C  C1249  1  0.89174000  0.12540000  0.80950000  1.0 0.0586106643
C  C1250  1  0.35826000  0.12460000  0.07664000  1.0 0.0586106643
C  C1251  1  0.12460000  0.07664000  0.35826000  1.0 0.0586106643
C  C1252  1  0.07664000  0.35826000  0.12460000  1.0 0.0586106643
C  C1253  1  0.12460000  0.44050000  0.07664000  1.0 0.0586106643
C  C1254  1  0.12540000  0.17336000  0.80950000  1.0 0.0586106643
C  C1255  1  0.44050000  0.35826000  0.07664000  1.0 0.0586106643
C  C1256  1  0.17336000  0.89174000  0.80950000  1.0 0.0586106643
C  C1257  1  0.44050000  0.07664000  0.12460000  1.0 0.0586106643
C  C1258  1  0.17336000  0.80950000  0.12540000  1.0 0.0586106643
C  C1259  1  0.12540000  0.89174000  0.17336000  1.0 0.0586106643
C  C1260  1  0.12460000  0.35826000  0.44050000  1.0 0.0586106643
C  C1261  1  0.44050000  0.12460000  0.35826000  1.0 0.0586106643
C  C1262  1  0.17336000  0.12540000  0.89174000  1.0 0.0586106643
C  C1263  1  0.35826000  0.44050000  0.12460000  1.0 0.0586106643
C  C1264  1  0.89174000  0.17336000  0.12540000  1.0 0.0586106643
C  C1265  1  0.89174000  0.80950000  0.17336000  1.0 0.0586106643
C  C1266  1  0.80950000  0.12540000  0.17336000  1.0 0.0586106643
C  C1267  1  0.07664000  0.12460000  0.44050000  1.0 0.0586106643
C  C1268  1  0.35826000  0.07664000  0.44050000  1.0 0.0586106643
C  C1269  1  0.80950000  0.17336000  0.89174000  1.0 0.0586106643
C  C1270  1  0.07664000  0.44050000  0.35826000  1.0 0.0586106643
C  C1271  1  0.12540000  0.80950000  0.89174000  1.0 0.0586106643
C  C1272  1  0.80950000  0.89174000  0.12540000  1.0 0.0586106643
C  C1273  1  0.85826000  0.62460000  0.94050000  1.0 0.0586106643
C  C1274  1  0.39174000  0.62540000  0.67336000  1.0 0.0586106643
C  C1275  1  0.62540000  0.67336000  0.39174000  1.0 0.0586106643
C  C1276  1  0.67336000  0.39174000  0.62540000  1.0 0.0586106643
C  C1277  1  0.62540000  0.30950000  0.67336000  1.0 0.0586106643
C  C1278  1  0.62460000  0.57664000  0.94050000  1.0 0.0586106643
C  C1279  1  0.30950000  0.39174000  0.67336000  1.0 0.0586106643
C  C1280  1  0.57664000  0.85826000  0.94050000  1.0 0.0586106643
C  C1281  1  0.30950000  0.67336000  0.62540000  1.0 0.0586106643
C  C1282  1  0.57664000  0.94050000  0.62460000  1.0 0.0586106643
C  C1283  1  0.62460000  0.85826000  0.57664000  1.0 0.0586106643
C  C1284  1  0.62540000  0.39174000  0.30950000  1.0 0.0586106643
C  C1285  1  0.30950000  0.62540000  0.39174000  1.0 0.0586106643
C  C1286  1  0.57664000  0.62460000  0.85826000  1.0 0.0586106643
C  C1287  1  0.39174000  0.30950000  0.62540000  1.0 0.0586106643
C  C1288  1  0.85826000  0.57664000  0.62460000  1.0 0.0586106643
C  C1289  1  0.85826000  0.94050000  0.57664000  1.0 0.0586106643
C  C1290  1  0.94050000  0.62460000  0.57664000  1.0 0.0586106643
C  C1291  1  0.67336000  0.62540000  0.30950000  1.0 0.0586106643
C  C1292  1  0.39174000  0.67336000  0.30950000  1.0 0.0586106643
C  C1293  1  0.94050000  0.57664000  0.85826000  1.0 0.0586106643
C  C1294  1  0.67336000  0.30950000  0.39174000  1.0 0.0586106643
C  C1295  1  0.62460000  0.94050000  0.85826000  1.0 0.0586106643
C  C1296  1  0.94050000  0.85826000  0.62460000  1.0 0.0586106643
C  C1297  1  0.89495000  0.13621000  0.77907000  1.0 -0.1902037277
C  C1298  1  0.35505000  0.11379000  0.06023000  1.0 -0.1902037277
C  C1299  1  0.11379000  0.06023000  0.35505000  1.0 -0.1902037277
C  C1300  1  0.06023000  0.35505000  0.11379000  1.0 -0.1902037277
C  C1301  1  0.11379000  0.47093000  0.06023000  1.0 -0.1902037277
C  C1302  1  0.13621000  0.18977000  0.77907000  1.0 -0.1902037277
C  C1303  1  0.47093000  0.35505000  0.06023000  1.0 -0.1902037277
C  C1304  1  0.18977000  0.89495000  0.77907000  1.0 -0.1902037277
C  C1305  1  0.47093000  0.06023000  0.11379000  1.0 -0.1902037277
C  C1306  1  0.18977000  0.77907000  0.13621000  1.0 -0.1902037277
C  C1307  1  0.13621000  0.89495000  0.18977000  1.0 -0.1902037277
C  C1308  1  0.11379000  0.35505000  0.47093000  1.0 -0.1902037277
C  C1309  1  0.47093000  0.11379000  0.35505000  1.0 -0.1902037277
C  C1310  1  0.18977000  0.13621000  0.89495000  1.0 -0.1902037277
C  C1311  1  0.35505000  0.47093000  0.11379000  1.0 -0.1902037277
C  C1312  1  0.89495000  0.18977000  0.13621000  1.0 -0.1902037277
C  C1313  1  0.89495000  0.77907000  0.18977000  1.0 -0.1902037277
C  C1314  1  0.77907000  0.13621000  0.18977000  1.0 -0.1902037277
C  C1315  1  0.06023000  0.11379000  0.47093000  1.0 -0.1902037277
C  C1316  1  0.35505000  0.06023000  0.47093000  1.0 -0.1902037277
C  C1317  1  0.77907000  0.18977000  0.89495000  1.0 -0.1902037277
C  C1318  1  0.06023000  0.47093000  0.35505000  1.0 -0.1902037277
C  C1319  1  0.13621000  0.77907000  0.89495000  1.0 -0.1902037277
C  C1320  1  0.77907000  0.89495000  0.13621000  1.0 -0.1902037277
C  C1321  1  0.85505000  0.61379000  0.97093000  1.0 -0.1902037277
C  C1322  1  0.39495000  0.63621000  0.68977000  1.0 -0.1902037277
C  C1323  1  0.63621000  0.68977000  0.39495000  1.0 -0.1902037277
C  C1324  1  0.68977000  0.39495000  0.63621000  1.0 -0.1902037277
C  C1325  1  0.63621000  0.27907000  0.68977000  1.0 -0.1902037277
C  C1326  1  0.61379000  0.56023000  0.97093000  1.0 -0.1902037277
C  C1327  1  0.27907000  0.39495000  0.68977000  1.0 -0.1902037277
C  C1328  1  0.56023000  0.85505000  0.97093000  1.0 -0.1902037277
C  C1329  1  0.27907000  0.68977000  0.63621000  1.0 -0.1902037277
C  C1330  1  0.56023000  0.97093000  0.61379000  1.0 -0.1902037277
C  C1331  1  0.61379000  0.85505000  0.56023000  1.0 -0.1902037277
C  C1332  1  0.63621000  0.39495000  0.27907000  1.0 -0.1902037277
C  C1333  1  0.27907000  0.63621000  0.39495000  1.0 -0.1902037277
C  C1334  1  0.56023000  0.61379000  0.85505000  1.0 -0.1902037277
C  C1335  1  0.39495000  0.27907000  0.63621000  1.0 -0.1902037277
C  C1336  1  0.85505000  0.56023000  0.61379000  1.0 -0.1902037277
C  C1337  1  0.85505000  0.97093000  0.56023000  1.0 -0.1902037277
C  C1338  1  0.97093000  0.61379000  0.56023000  1.0 -0.1902037277
C  C1339  1  0.68977000  0.63621000  0.27907000  1.0 -0.1902037277
C  C1340  1  0.39495000  0.68977000  0.27907000  1.0 -0.1902037277
C  C1341  1  0.97093000  0.56023000  0.85505000  1.0 -0.1902037277
C  C1342  1  0.68977000  0.27907000  0.39495000  1.0 -0.1902037277
C  C1343  1  0.61379000  0.97093000  0.85505000  1.0 -0.1902037277
C  C1344  1  0.97093000  0.85505000  0.61379000  1.0 -0.1902037277
C  C1345  1  0.88842000  0.16780000  0.76326000  1.0 0.0586106643
C  C1346  1  0.36158000  0.08220000  0.06948000  1.0 0.0586106643
C  C1347  1  0.08220000  0.06948000  0.36158000  1.0 0.0586106643
C  C1348  1  0.06948000  0.36158000  0.08220000  1.0 0.0586106643
C  C1349  1  0.08220000  0.48674000  0.06948000  1.0 0.0586106643
C  C1350  1  0.16780000  0.18052000  0.76326000  1.0 0.0586106643
C  C1351  1  0.48674000  0.36158000  0.06948000  1.0 0.0586106643
C  C1352  1  0.18052000  0.88842000  0.76326000  1.0 0.0586106643
C  C1353  1  0.48674000  0.06948000  0.08220000  1.0 0.0586106643
C  C1354  1  0.18052000  0.76326000  0.16780000  1.0 0.0586106643
C  C1355  1  0.16780000  0.88842000  0.18052000  1.0 0.0586106643
C  C1356  1  0.08220000  0.36158000  0.48674000  1.0 0.0586106643
C  C1357  1  0.48674000  0.08220000  0.36158000  1.0 0.0586106643
C  C1358  1  0.18052000  0.16780000  0.88842000  1.0 0.0586106643
C  C1359  1  0.36158000  0.48674000  0.08220000  1.0 0.0586106643
C  C1360  1  0.88842000  0.18052000  0.16780000  1.0 0.0586106643
C  C1361  1  0.88842000  0.76326000  0.18052000  1.0 0.0586106643
C  C1362  1  0.76326000  0.16780000  0.18052000  1.0 0.0586106643
C  C1363  1  0.06948000  0.08220000  0.48674000  1.0 0.0586106643
C  C1364  1  0.36158000  0.06948000  0.48674000  1.0 0.0586106643
C  C1365  1  0.76326000  0.18052000  0.88842000  1.0 0.0586106643
C  C1366  1  0.06948000  0.48674000  0.36158000  1.0 0.0586106643
C  C1367  1  0.16780000  0.76326000  0.88842000  1.0 0.0586106643
C  C1368  1  0.76326000  0.88842000  0.16780000  1.0 0.0586106643
C  C1369  1  0.86158000  0.58220000  0.98674000  1.0 0.0586106643
C  C1370  1  0.38842000  0.66780000  0.68052000  1.0 0.0586106643
C  C1371  1  0.66780000  0.68052000  0.38842000  1.0 0.0586106643
C  C1372  1  0.68052000  0.38842000  0.66780000  1.0 0.0586106643
C  C1373  1  0.66780000  0.26326000  0.68052000  1.0 0.0586106643
C  C1374  1  0.58220000  0.56948000  0.98674000  1.0 0.0586106643
C  C1375  1  0.26326000  0.38842000  0.68052000  1.0 0.0586106643
C  C1376  1  0.56948000  0.86158000  0.98674000  1.0 0.0586106643
C  C1377  1  0.26326000  0.68052000  0.66780000  1.0 0.0586106643
C  C1378  1  0.56948000  0.98674000  0.58220000  1.0 0.0586106643
C  C1379  1  0.58220000  0.86158000  0.56948000  1.0 0.0586106643
C  C1380  1  0.66780000  0.38842000  0.26326000  1.0 0.0586106643
C  C1381  1  0.26326000  0.66780000  0.38842000  1.0 0.0586106643
C  C1382  1  0.56948000  0.58220000  0.86158000  1.0 0.0586106643
C  C1383  1  0.38842000  0.26326000  0.66780000  1.0 0.0586106643
C  C1384  1  0.86158000  0.56948000  0.58220000  1.0 0.0586106643
C  C1385  1  0.86158000  0.98674000  0.56948000  1.0 0.0586106643
C  C1386  1  0.98674000  0.58220000  0.56948000  1.0 0.0586106643
C  C1387  1  0.68052000  0.66780000  0.26326000  1.0 0.0586106643
C  C1388  1  0.38842000  0.68052000  0.26326000  1.0 0.0586106643
C  C1389  1  0.98674000  0.56948000  0.86158000  1.0 0.0586106643
C  C1390  1  0.68052000  0.26326000  0.38842000  1.0 0.0586106643
C  C1391  1  0.58220000  0.98674000  0.86158000  1.0 0.0586106643
C  C1392  1  0.98674000  0.86158000  0.58220000  1.0 0.0586106643
C  C1393  1  0.87873000  0.18711000  0.77895000  1.0 -0.1682731108
C  C1394  1  0.37127000  0.06289000  0.09479000  1.0 -0.1682731108
C  C1395  1  0.06289000  0.09479000  0.37127000  1.0 -0.1682731108
C  C1396  1  0.09479000  0.37127000  0.06289000  1.0 -0.1682731108
C  C1397  1  0.06289000  0.47105000  0.09479000  1.0 -0.1682731108
C  C1398  1  0.18711000  0.15521000  0.77895000  1.0 -0.1682731108
C  C1399  1  0.47105000  0.37127000  0.09479000  1.0 -0.1682731108
C  C1400  1  0.15521000  0.87873000  0.77895000  1.0 -0.1682731108
C  C1401  1  0.47105000  0.09479000  0.06289000  1.0 -0.1682731108
C  C1402  1  0.15521000  0.77895000  0.18711000  1.0 -0.1682731108
C  C1403  1  0.18711000  0.87873000  0.15521000  1.0 -0.1682731108
C  C1404  1  0.06289000  0.37127000  0.47105000  1.0 -0.1682731108
C  C1405  1  0.47105000  0.06289000  0.37127000  1.0 -0.1682731108
C  C1406  1  0.15521000  0.18711000  0.87873000  1.0 -0.1682731108
C  C1407  1  0.37127000  0.47105000  0.06289000  1.0 -0.1682731108
C  C1408  1  0.87873000  0.15521000  0.18711000  1.0 -0.1682731108
C  C1409  1  0.87873000  0.77895000  0.15521000  1.0 -0.1682731108
C  C1410  1  0.77895000  0.18711000  0.15521000  1.0 -0.1682731108
C  C1411  1  0.09479000  0.06289000  0.47105000  1.0 -0.1682731108
C  C1412  1  0.37127000  0.09479000  0.47105000  1.0 -0.1682731108
C  C1413  1  0.77895000  0.15521000  0.87873000  1.0 -0.1682731108
C  C1414  1  0.09479000  0.47105000  0.37127000  1.0 -0.1682731108
C  C1415  1  0.18711000  0.77895000  0.87873000  1.0 -0.1682731108
C  C1416  1  0.77895000  0.87873000  0.18711000  1.0 -0.1682731108
C  C1417  1  0.87127000  0.56289000  0.97105000  1.0 -0.1682731108
C  C1418  1  0.37873000  0.68711000  0.65521000  1.0 -0.1682731108
C  C1419  1  0.68711000  0.65521000  0.37873000  1.0 -0.1682731108
C  C1420  1  0.65521000  0.37873000  0.68711000  1.0 -0.1682731108
C  C1421  1  0.68711000  0.27895000  0.65521000  1.0 -0.1682731108
C  C1422  1  0.56289000  0.59479000  0.97105000  1.0 -0.1682731108
C  C1423  1  0.27895000  0.37873000  0.65521000  1.0 -0.1682731108
C  C1424  1  0.59479000  0.87127000  0.97105000  1.0 -0.1682731108
C  C1425  1  0.27895000  0.65521000  0.68711000  1.0 -0.1682731108
C  C1426  1  0.59479000  0.97105000  0.56289000  1.0 -0.1682731108
C  C1427  1  0.56289000  0.87127000  0.59479000  1.0 -0.1682731108
C  C1428  1  0.68711000  0.37873000  0.27895000  1.0 -0.1682731108
C  C1429  1  0.27895000  0.68711000  0.37873000  1.0 -0.1682731108
C  C1430  1  0.59479000  0.56289000  0.87127000  1.0 -0.1682731108
C  C1431  1  0.37873000  0.27895000  0.68711000  1.0 -0.1682731108
C  C1432  1  0.87127000  0.59479000  0.56289000  1.0 -0.1682731108
C  C1433  1  0.87127000  0.97105000  0.59479000  1.0 -0.1682731108
C  C1434  1  0.97105000  0.56289000  0.59479000  1.0 -0.1682731108
C  C1435  1  0.65521000  0.68711000  0.27895000  1.0 -0.1682731108
C  C1436  1  0.37873000  0.65521000  0.27895000  1.0 -0.1682731108
C  C1437  1  0.97105000  0.59479000  0.87127000  1.0 -0.1682731108
C  C1438  1  0.65521000  0.27895000  0.37873000  1.0 -0.1682731108
C  C1439  1  0.56289000  0.97105000  0.87127000  1.0 -0.1682731108
C  C1440  1  0.97105000  0.87127000  0.56289000  1.0 -0.1682731108
C  C1441  1  0.87556000  0.17408000  0.81028000  1.0 0.0798190702
C  C1442  1  0.37444000  0.07592000  0.10992000  1.0 0.0798190702
C  C1443  1  0.07592000  0.10992000  0.37444000  1.0 0.0798190702
C  C1444  1  0.10992000  0.37444000  0.07592000  1.0 0.0798190702
C  C1445  1  0.07592000  0.43972000  0.10992000  1.0 0.0798190702
C  C1446  1  0.17408000  0.14008000  0.81028000  1.0 0.0798190702
C  C1447  1  0.43972000  0.37444000  0.10992000  1.0 0.0798190702
C  C1448  1  0.14008000  0.87556000  0.81028000  1.0 0.0798190702
C  C1449  1  0.43972000  0.10992000  0.07592000  1.0 0.0798190702
C  C1450  1  0.14008000  0.81028000  0.17408000  1.0 0.0798190702
C  C1451  1  0.17408000  0.87556000  0.14008000  1.0 0.0798190702
C  C1452  1  0.07592000  0.37444000  0.43972000  1.0 0.0798190702
C  C1453  1  0.43972000  0.07592000  0.37444000  1.0 0.0798190702
C  C1454  1  0.14008000  0.17408000  0.87556000  1.0 0.0798190702
C  C1455  1  0.37444000  0.43972000  0.07592000  1.0 0.0798190702
C  C1456  1  0.87556000  0.14008000  0.17408000  1.0 0.0798190702
C  C1457  1  0.87556000  0.81028000  0.14008000  1.0 0.0798190702
C  C1458  1  0.81028000  0.17408000  0.14008000  1.0 0.0798190702
C  C1459  1  0.10992000  0.07592000  0.43972000  1.0 0.0798190702
C  C1460  1  0.37444000  0.10992000  0.43972000  1.0 0.0798190702
C  C1461  1  0.81028000  0.14008000  0.87556000  1.0 0.0798190702
C  C1462  1  0.10992000  0.43972000  0.37444000  1.0 0.0798190702
C  C1463  1  0.17408000  0.81028000  0.87556000  1.0 0.0798190702
C  C1464  1  0.81028000  0.87556000  0.17408000  1.0 0.0798190702
C  C1465  1  0.87444000  0.57592000  0.93972000  1.0 0.0798190702
C  C1466  1  0.37556000  0.67408000  0.64008000  1.0 0.0798190702
C  C1467  1  0.67408000  0.64008000  0.37556000  1.0 0.0798190702
C  C1468  1  0.64008000  0.37556000  0.67408000  1.0 0.0798190702
C  C1469  1  0.67408000  0.31028000  0.64008000  1.0 0.0798190702
C  C1470  1  0.57592000  0.60992000  0.93972000  1.0 0.0798190702
C  C1471  1  0.31028000  0.37556000  0.64008000  1.0 0.0798190702
C  C1472  1  0.60992000  0.87444000  0.93972000  1.0 0.0798190702
C  C1473  1  0.31028000  0.64008000  0.67408000  1.0 0.0798190702
C  C1474  1  0.60992000  0.93972000  0.57592000  1.0 0.0798190702
C  C1475  1  0.57592000  0.87444000  0.60992000  1.0 0.0798190702
C  C1476  1  0.67408000  0.37556000  0.31028000  1.0 0.0798190702
C  C1477  1  0.31028000  0.67408000  0.37556000  1.0 0.0798190702
C  C1478  1  0.60992000  0.57592000  0.87444000  1.0 0.0798190702
C  C1479  1  0.37556000  0.31028000  0.67408000  1.0 0.0798190702
C  C1480  1  0.87444000  0.60992000  0.57592000  1.0 0.0798190702
C  C1481  1  0.87444000  0.93972000  0.60992000  1.0 0.0798190702
C  C1482  1  0.93972000  0.57592000  0.60992000  1.0 0.0798190702
C  C1483  1  0.64008000  0.67408000  0.31028000  1.0 0.0798190702
C  C1484  1  0.37556000  0.64008000  0.31028000  1.0 0.0798190702
C  C1485  1  0.93972000  0.60992000  0.87444000  1.0 0.0798190702
C  C1486  1  0.64008000  0.31028000  0.37556000  1.0 0.0798190702
C  C1487  1  0.57592000  0.93972000  0.87444000  1.0 0.0798190702
C  C1488  1  0.93972000  0.87444000  0.57592000  1.0 0.0798190702
C  C1489  1  0.86896000  0.06338000  0.88508000  1.0 0.128870168
C  C1490  1  0.38104000  0.18662000  0.06742000  1.0 0.128870168
C  C1491  1  0.18662000  0.06742000  0.38104000  1.0 0.128870168
C  C1492  1  0.06742000  0.38104000  0.18662000  1.0 0.128870168
C  C1493  1  0.18662000  0.36492000  0.06742000  1.0 0.128870168
C  C1494  1  0.06338000  0.18258000  0.88508000  1.0 0.128870168
C  C1495  1  0.36492000  0.38104000  0.06742000  1.0 0.128870168
C  C1496  1  0.18258000  0.86896000  0.88508000  1.0 0.128870168
C  C1497  1  0.36492000  0.06742000  0.18662000  1.0 0.128870168
C  C1498  1  0.18258000  0.88508000  0.06338000  1.0 0.128870168
C  C1499  1  0.06338000  0.86896000  0.18258000  1.0 0.128870168
C  C1500  1  0.18662000  0.38104000  0.36492000  1.0 0.128870168
C  C1501  1  0.36492000  0.18662000  0.38104000  1.0 0.128870168
C  C1502  1  0.18258000  0.06338000  0.86896000  1.0 0.128870168
C  C1503  1  0.38104000  0.36492000  0.18662000  1.0 0.128870168
C  C1504  1  0.86896000  0.18258000  0.06338000  1.0 0.128870168
C  C1505  1  0.86896000  0.88508000  0.18258000  1.0 0.128870168
C  C1506  1  0.88508000  0.06338000  0.18258000  1.0 0.128870168
C  C1507  1  0.06742000  0.18662000  0.36492000  1.0 0.128870168
C  C1508  1  0.38104000  0.06742000  0.36492000  1.0 0.128870168
C  C1509  1  0.88508000  0.18258000  0.86896000  1.0 0.128870168
C  C1510  1  0.06742000  0.36492000  0.38104000  1.0 0.128870168
C  C1511  1  0.06338000  0.88508000  0.86896000  1.0 0.128870168
C  C1512  1  0.88508000  0.86896000  0.06338000  1.0 0.128870168
C  C1513  1  0.88104000  0.68662000  0.86492000  1.0 0.128870168
C  C1514  1  0.36896000  0.56338000  0.68258000  1.0 0.128870168
C  C1515  1  0.56338000  0.68258000  0.36896000  1.0 0.128870168
C  C1516  1  0.68258000  0.36896000  0.56338000  1.0 0.128870168
C  C1517  1  0.56338000  0.38508000  0.68258000  1.0 0.128870168
C  C1518  1  0.68662000  0.56742000  0.86492000  1.0 0.128870168
C  C1519  1  0.38508000  0.36896000  0.68258000  1.0 0.128870168
C  C1520  1  0.56742000  0.88104000  0.86492000  1.0 0.128870168
C  C1521  1  0.38508000  0.68258000  0.56338000  1.0 0.128870168
C  C1522  1  0.56742000  0.86492000  0.68662000  1.0 0.128870168
C  C1523  1  0.68662000  0.88104000  0.56742000  1.0 0.128870168
C  C1524  1  0.56338000  0.36896000  0.38508000  1.0 0.128870168
C  C1525  1  0.38508000  0.56338000  0.36896000  1.0 0.128870168
C  C1526  1  0.56742000  0.68662000  0.88104000  1.0 0.128870168
C  C1527  1  0.36896000  0.38508000  0.56338000  1.0 0.128870168
C  C1528  1  0.88104000  0.56742000  0.68662000  1.0 0.128870168
C  C1529  1  0.88104000  0.86492000  0.56742000  1.0 0.128870168
C  C1530  1  0.86492000  0.68662000  0.56742000  1.0 0.128870168
C  C1531  1  0.68258000  0.56338000  0.38508000  1.0 0.128870168
C  C1532  1  0.36896000  0.68258000  0.38508000  1.0 0.128870168
C  C1533  1  0.86492000  0.56742000  0.88104000  1.0 0.128870168
C  C1534  1  0.68258000  0.38508000  0.36896000  1.0 0.128870168
C  C1535  1  0.68662000  0.86492000  0.88104000  1.0 0.128870168
C  C1536  1  0.86492000  0.88104000  0.68662000  1.0 0.128870168
C  C1537  1  0.85775000  0.12209000  0.94135000  1.0 0.0715963005
C  C1538  1  0.39225000  0.12791000  0.17119000  1.0 0.0715963005
C  C1539  1  0.12791000  0.17119000  0.39225000  1.0 0.0715963005
C  C1540  1  0.17119000  0.39225000  0.12791000  1.0 0.0715963005
C  C1541  1  0.12791000  0.30865000  0.17119000  1.0 0.0715963005
C  C1542  1  0.12209000  0.07881000  0.94135000  1.0 0.0715963005
C  C1543  1  0.30865000  0.39225000  0.17119000  1.0 0.0715963005
C  C1544  1  0.07881000  0.85775000  0.94135000  1.0 0.0715963005
C  C1545  1  0.30865000  0.17119000  0.12791000  1.0 0.0715963005
C  C1546  1  0.07881000  0.94135000  0.12209000  1.0 0.0715963005
C  C1547  1  0.12209000  0.85775000  0.07881000  1.0 0.0715963005
C  C1548  1  0.12791000  0.39225000  0.30865000  1.0 0.0715963005
C  C1549  1  0.30865000  0.12791000  0.39225000  1.0 0.0715963005
C  C1550  1  0.07881000  0.12209000  0.85775000  1.0 0.0715963005
C  C1551  1  0.39225000  0.30865000  0.12791000  1.0 0.0715963005
C  C1552  1  0.85775000  0.07881000  0.12209000  1.0 0.0715963005
C  C1553  1  0.85775000  0.94135000  0.07881000  1.0 0.0715963005
C  C1554  1  0.94135000  0.12209000  0.07881000  1.0 0.0715963005
C  C1555  1  0.17119000  0.12791000  0.30865000  1.0 0.0715963005
C  C1556  1  0.39225000  0.17119000  0.30865000  1.0 0.0715963005
C  C1557  1  0.94135000  0.07881000  0.85775000  1.0 0.0715963005
C  C1558  1  0.17119000  0.30865000  0.39225000  1.0 0.0715963005
C  C1559  1  0.12209000  0.94135000  0.85775000  1.0 0.0715963005
C  C1560  1  0.94135000  0.85775000  0.12209000  1.0 0.0715963005
C  C1561  1  0.89225000  0.62791000  0.80865000  1.0 0.0715963005
C  C1562  1  0.35775000  0.62209000  0.57881000  1.0 0.0715963005
C  C1563  1  0.62209000  0.57881000  0.35775000  1.0 0.0715963005
C  C1564  1  0.57881000  0.35775000  0.62209000  1.0 0.0715963005
C  C1565  1  0.62209000  0.44135000  0.57881000  1.0 0.0715963005
C  C1566  1  0.62791000  0.67119000  0.80865000  1.0 0.0715963005
C  C1567  1  0.44135000  0.35775000  0.57881000  1.0 0.0715963005
C  C1568  1  0.67119000  0.89225000  0.80865000  1.0 0.0715963005
C  C1569  1  0.44135000  0.57881000  0.62209000  1.0 0.0715963005
C  C1570  1  0.67119000  0.80865000  0.62791000  1.0 0.0715963005
C  C1571  1  0.62791000  0.89225000  0.67119000  1.0 0.0715963005
C  C1572  1  0.62209000  0.35775000  0.44135000  1.0 0.0715963005
C  C1573  1  0.44135000  0.62209000  0.35775000  1.0 0.0715963005
C  C1574  1  0.67119000  0.62791000  0.89225000  1.0 0.0715963005
C  C1575  1  0.35775000  0.44135000  0.62209000  1.0 0.0715963005
C  C1576  1  0.89225000  0.67119000  0.62791000  1.0 0.0715963005
C  C1577  1  0.89225000  0.80865000  0.67119000  1.0 0.0715963005
C  C1578  1  0.80865000  0.62791000  0.67119000  1.0 0.0715963005
C  C1579  1  0.57881000  0.62209000  0.44135000  1.0 0.0715963005
C  C1580  1  0.35775000  0.57881000  0.44135000  1.0 0.0715963005
C  C1581  1  0.80865000  0.67119000  0.89225000  1.0 0.0715963005
C  C1582  1  0.57881000  0.44135000  0.35775000  1.0 0.0715963005
C  C1583  1  0.62791000  0.80865000  0.89225000  1.0 0.0715963005
C  C1584  1  0.80865000  0.89225000  0.62791000  1.0 0.0715963005
C  C1585  1  0.85408000  0.10910000  0.97206000  1.0 -0.1822351838
C  C1586  1  0.39592000  0.14090000  0.18524000  1.0 -0.1822351838
C  C1587  1  0.14090000  0.18524000  0.39592000  1.0 -0.1822351838
C  C1588  1  0.18524000  0.39592000  0.14090000  1.0 -0.1822351838
C  C1589  1  0.14090000  0.27794000  0.18524000  1.0 -0.1822351838
C  C1590  1  0.10910000  0.06476000  0.97206000  1.0 -0.1822351838
C  C1591  1  0.27794000  0.39592000  0.18524000  1.0 -0.1822351838
C  C1592  1  0.06476000  0.85408000  0.97206000  1.0 -0.1822351838
C  C1593  1  0.27794000  0.18524000  0.14090000  1.0 -0.1822351838
C  C1594  1  0.06476000  0.97206000  0.10910000  1.0 -0.1822351838
C  C1595  1  0.10910000  0.85408000  0.06476000  1.0 -0.1822351838
C  C1596  1  0.14090000  0.39592000  0.27794000  1.0 -0.1822351838
C  C1597  1  0.27794000  0.14090000  0.39592000  1.0 -0.1822351838
C  C1598  1  0.06476000  0.10910000  0.85408000  1.0 -0.1822351838
C  C1599  1  0.39592000  0.27794000  0.14090000  1.0 -0.1822351838
C  C1600  1  0.85408000  0.06476000  0.10910000  1.0 -0.1822351838
C  C1601  1  0.85408000  0.97206000  0.06476000  1.0 -0.1822351838
C  C1602  1  0.97206000  0.10910000  0.06476000  1.0 -0.1822351838
C  C1603  1  0.18524000  0.14090000  0.27794000  1.0 -0.1822351838
C  C1604  1  0.39592000  0.18524000  0.27794000  1.0 -0.1822351838
C  C1605  1  0.97206000  0.06476000  0.85408000  1.0 -0.1822351838
C  C1606  1  0.18524000  0.27794000  0.39592000  1.0 -0.1822351838
C  C1607  1  0.10910000  0.97206000  0.85408000  1.0 -0.1822351838
C  C1608  1  0.97206000  0.85408000  0.10910000  1.0 -0.1822351838
C  C1609  1  0.89592000  0.64090000  0.77794000  1.0 -0.1822351838
C  C1610  1  0.35408000  0.60910000  0.56476000  1.0 -0.1822351838
C  C1611  1  0.60910000  0.56476000  0.35408000  1.0 -0.1822351838
C  C1612  1  0.56476000  0.35408000  0.60910000  1.0 -0.1822351838
C  C1613  1  0.60910000  0.47206000  0.56476000  1.0 -0.1822351838
C  C1614  1  0.64090000  0.68524000  0.77794000  1.0 -0.1822351838
C  C1615  1  0.47206000  0.35408000  0.56476000  1.0 -0.1822351838
C  C1616  1  0.68524000  0.89592000  0.77794000  1.0 -0.1822351838
C  C1617  1  0.47206000  0.56476000  0.60910000  1.0 -0.1822351838
C  C1618  1  0.68524000  0.77794000  0.64090000  1.0 -0.1822351838
C  C1619  1  0.64090000  0.89592000  0.68524000  1.0 -0.1822351838
C  C1620  1  0.60910000  0.35408000  0.47206000  1.0 -0.1822351838
C  C1621  1  0.47206000  0.60910000  0.35408000  1.0 -0.1822351838
C  C1622  1  0.68524000  0.64090000  0.89592000  1.0 -0.1822351838
C  C1623  1  0.35408000  0.47206000  0.60910000  1.0 -0.1822351838
C  C1624  1  0.89592000  0.68524000  0.64090000  1.0 -0.1822351838
C  C1625  1  0.89592000  0.77794000  0.68524000  1.0 -0.1822351838
C  C1626  1  0.77794000  0.64090000  0.68524000  1.0 -0.1822351838
C  C1627  1  0.56476000  0.60910000  0.47206000  1.0 -0.1822351838
C  C1628  1  0.35408000  0.56476000  0.47206000  1.0 -0.1822351838
C  C1629  1  0.77794000  0.68524000  0.89592000  1.0 -0.1822351838
C  C1630  1  0.56476000  0.47206000  0.35408000  1.0 -0.1822351838
C  C1631  1  0.64090000  0.77794000  0.89592000  1.0 -0.1822351838
C  C1632  1  0.77794000  0.89592000  0.64090000  1.0 -0.1822351838
C  C1633  1  0.85968000  0.07790000  0.98662000  1.0 0.0488295178
C  C1634  1  0.39032000  0.17210000  0.17420000  1.0 0.0488295178
C  C1635  1  0.17210000  0.17420000  0.39032000  1.0 0.0488295178
C  C1636  1  0.17420000  0.39032000  0.17210000  1.0 0.0488295178
C  C1637  1  0.17210000  0.26338000  0.17420000  1.0 0.0488295178
C  C1638  1  0.07790000  0.07580000  0.98662000  1.0 0.0488295178
C  C1639  1  0.26338000  0.39032000  0.17420000  1.0 0.0488295178
C  C1640  1  0.07580000  0.85968000  0.98662000  1.0 0.0488295178
C  C1641  1  0.26338000  0.17420000  0.17210000  1.0 0.0488295178
C  C1642  1  0.07580000  0.98662000  0.07790000  1.0 0.0488295178
C  C1643  1  0.07790000  0.85968000  0.07580000  1.0 0.0488295178
C  C1644  1  0.17210000  0.39032000  0.26338000  1.0 0.0488295178
C  C1645  1  0.26338000  0.17210000  0.39032000  1.0 0.0488295178
C  C1646  1  0.07580000  0.07790000  0.85968000  1.0 0.0488295178
C  C1647  1  0.39032000  0.26338000  0.17210000  1.0 0.0488295178
C  C1648  1  0.85968000  0.07580000  0.07790000  1.0 0.0488295178
C  C1649  1  0.85968000  0.98662000  0.07580000  1.0 0.0488295178
C  C1650  1  0.98662000  0.07790000  0.07580000  1.0 0.0488295178
C  C1651  1  0.17420000  0.17210000  0.26338000  1.0 0.0488295178
C  C1652  1  0.39032000  0.17420000  0.26338000  1.0 0.0488295178
C  C1653  1  0.98662000  0.07580000  0.85968000  1.0 0.0488295178
C  C1654  1  0.17420000  0.26338000  0.39032000  1.0 0.0488295178
C  C1655  1  0.07790000  0.98662000  0.85968000  1.0 0.0488295178
C  C1656  1  0.98662000  0.85968000  0.07790000  1.0 0.0488295178
C  C1657  1  0.89032000  0.67210000  0.76338000  1.0 0.0488295178
C  C1658  1  0.35968000  0.57790000  0.57580000  1.0 0.0488295178
C  C1659  1  0.57790000  0.57580000  0.35968000  1.0 0.0488295178
C  C1660  1  0.57580000  0.35968000  0.57790000  1.0 0.0488295178
C  C1661  1  0.57790000  0.48662000  0.57580000  1.0 0.0488295178
C  C1662  1  0.67210000  0.67420000  0.76338000  1.0 0.0488295178
C  C1663  1  0.48662000  0.35968000  0.57580000  1.0 0.0488295178
C  C1664  1  0.67420000  0.89032000  0.76338000  1.0 0.0488295178
C  C1665  1  0.48662000  0.57580000  0.57790000  1.0 0.0488295178
C  C1666  1  0.67420000  0.76338000  0.67210000  1.0 0.0488295178
C  C1667  1  0.67210000  0.89032000  0.67420000  1.0 0.0488295178
C  C1668  1  0.57790000  0.35968000  0.48662000  1.0 0.0488295178
C  C1669  1  0.48662000  0.57790000  0.35968000  1.0 0.0488295178
C  C1670  1  0.67420000  0.67210000  0.89032000  1.0 0.0488295178
C  C1671  1  0.35968000  0.48662000  0.57790000  1.0 0.0488295178
C  C1672  1  0.89032000  0.67420000  0.67210000  1.0 0.0488295178
C  C1673  1  0.89032000  0.76338000  0.67420000  1.0 0.0488295178
C  C1674  1  0.76338000  0.67210000  0.67420000  1.0 0.0488295178
C  C1675  1  0.57580000  0.57790000  0.48662000  1.0 0.0488295178
C  C1676  1  0.35968000  0.57580000  0.48662000  1.0 0.0488295178
C  C1677  1  0.76338000  0.67420000  0.89032000  1.0 0.0488295178
C  C1678  1  0.57580000  0.48662000  0.35968000  1.0 0.0488295178
C  C1679  1  0.67210000  0.76338000  0.89032000  1.0 0.0488295178
C  C1680  1  0.76338000  0.89032000  0.67210000  1.0 0.0488295178
C  C1681  1  0.86964000  0.06086000  0.96874000  1.0 -0.1569609012
C  C1682  1  0.38036000  0.18914000  0.14924000  1.0 -0.1569609012
C  C1683  1  0.18914000  0.14924000  0.38036000  1.0 -0.1569609012
C  C1684  1  0.14924000  0.38036000  0.18914000  1.0 -0.1569609012
C  C1685  1  0.18914000  0.28126000  0.14924000  1.0 -0.1569609012
C  C1686  1  0.06086000  0.10076000  0.96874000  1.0 -0.1569609012
C  C1687  1  0.28126000  0.38036000  0.14924000  1.0 -0.1569609012
C  C1688  1  0.10076000  0.86964000  0.96874000  1.0 -0.1569609012
C  C1689  1  0.28126000  0.14924000  0.18914000  1.0 -0.1569609012
C  C1690  1  0.10076000  0.96874000  0.06086000  1.0 -0.1569609012
C  C1691  1  0.06086000  0.86964000  0.10076000  1.0 -0.1569609012
C  C1692  1  0.18914000  0.38036000  0.28126000  1.0 -0.1569609012
C  C1693  1  0.28126000  0.18914000  0.38036000  1.0 -0.1569609012
C  C1694  1  0.10076000  0.06086000  0.86964000  1.0 -0.1569609012
C  C1695  1  0.38036000  0.28126000  0.18914000  1.0 -0.1569609012
C  C1696  1  0.86964000  0.10076000  0.06086000  1.0 -0.1569609012
C  C1697  1  0.86964000  0.96874000  0.10076000  1.0 -0.1569609012
C  C1698  1  0.96874000  0.06086000  0.10076000  1.0 -0.1569609012
C  C1699  1  0.14924000  0.18914000  0.28126000  1.0 -0.1569609012
C  C1700  1  0.38036000  0.14924000  0.28126000  1.0 -0.1569609012
C  C1701  1  0.96874000  0.10076000  0.86964000  1.0 -0.1569609012
C  C1702  1  0.14924000  0.28126000  0.38036000  1.0 -0.1569609012
C  C1703  1  0.06086000  0.96874000  0.86964000  1.0 -0.1569609012
C  C1704  1  0.96874000  0.86964000  0.06086000  1.0 -0.1569609012
C  C1705  1  0.88036000  0.68914000  0.78126000  1.0 -0.1569609012
C  C1706  1  0.36964000  0.56086000  0.60076000  1.0 -0.1569609012
C  C1707  1  0.56086000  0.60076000  0.36964000  1.0 -0.1569609012
C  C1708  1  0.60076000  0.36964000  0.56086000  1.0 -0.1569609012
C  C1709  1  0.56086000  0.46874000  0.60076000  1.0 -0.1569609012
C  C1710  1  0.68914000  0.64924000  0.78126000  1.0 -0.1569609012
C  C1711  1  0.46874000  0.36964000  0.60076000  1.0 -0.1569609012
C  C1712  1  0.64924000  0.88036000  0.78126000  1.0 -0.1569609012
C  C1713  1  0.46874000  0.60076000  0.56086000  1.0 -0.1569609012
C  C1714  1  0.64924000  0.78126000  0.68914000  1.0 -0.1569609012
C  C1715  1  0.68914000  0.88036000  0.64924000  1.0 -0.1569609012
C  C1716  1  0.56086000  0.36964000  0.46874000  1.0 -0.1569609012
C  C1717  1  0.46874000  0.56086000  0.36964000  1.0 -0.1569609012
C  C1718  1  0.64924000  0.68914000  0.88036000  1.0 -0.1569609012
C  C1719  1  0.36964000  0.46874000  0.56086000  1.0 -0.1569609012
C  C1720  1  0.88036000  0.64924000  0.68914000  1.0 -0.1569609012
C  C1721  1  0.88036000  0.78126000  0.64924000  1.0 -0.1569609012
C  C1722  1  0.78126000  0.68914000  0.64924000  1.0 -0.1569609012
C  C1723  1  0.60076000  0.56086000  0.46874000  1.0 -0.1569609012
C  C1724  1  0.36964000  0.60076000  0.46874000  1.0 -0.1569609012
C  C1725  1  0.78126000  0.64924000  0.88036000  1.0 -0.1569609012
C  C1726  1  0.60076000  0.46874000  0.36964000  1.0 -0.1569609012
C  C1727  1  0.68914000  0.78126000  0.88036000  1.0 -0.1569609012
C  C1728  1  0.78126000  0.88036000  0.68914000  1.0 -0.1569609012
C  C1729  1  0.87426000  0.07558000  0.93730000  1.0 0.0488295178
C  C1730  1  0.37574000  0.17442000  0.13714000  1.0 0.0488295178
C  C1731  1  0.17442000  0.13714000  0.37574000  1.0 0.0488295178
C  C1732  1  0.13714000  0.37574000  0.17442000  1.0 0.0488295178
C  C1733  1  0.17442000  0.31270000  0.13714000  1.0 0.0488295178
C  C1734  1  0.07558000  0.11286000  0.93730000  1.0 0.0488295178
C  C1735  1  0.31270000  0.37574000  0.13714000  1.0 0.0488295178
C  C1736  1  0.11286000  0.87426000  0.93730000  1.0 0.0488295178
C  C1737  1  0.31270000  0.13714000  0.17442000  1.0 0.0488295178
C  C1738  1  0.11286000  0.93730000  0.07558000  1.0 0.0488295178
C  C1739  1  0.07558000  0.87426000  0.11286000  1.0 0.0488295178
C  C1740  1  0.17442000  0.37574000  0.31270000  1.0 0.0488295178
C  C1741  1  0.31270000  0.17442000  0.37574000  1.0 0.0488295178
C  C1742  1  0.11286000  0.07558000  0.87426000  1.0 0.0488295178
C  C1743  1  0.37574000  0.31270000  0.17442000  1.0 0.0488295178
C  C1744  1  0.87426000  0.11286000  0.07558000  1.0 0.0488295178
C  C1745  1  0.87426000  0.93730000  0.11286000  1.0 0.0488295178
C  C1746  1  0.93730000  0.07558000  0.11286000  1.0 0.0488295178
C  C1747  1  0.13714000  0.17442000  0.31270000  1.0 0.0488295178
C  C1748  1  0.37574000  0.13714000  0.31270000  1.0 0.0488295178
C  C1749  1  0.93730000  0.11286000  0.87426000  1.0 0.0488295178
C  C1750  1  0.13714000  0.31270000  0.37574000  1.0 0.0488295178
C  C1751  1  0.07558000  0.93730000  0.87426000  1.0 0.0488295178
C  C1752  1  0.93730000  0.87426000  0.07558000  1.0 0.0488295178
C  C1753  1  0.87574000  0.67442000  0.81270000  1.0 0.0488295178
C  C1754  1  0.37426000  0.57558000  0.61286000  1.0 0.0488295178
C  C1755  1  0.57558000  0.61286000  0.37426000  1.0 0.0488295178
C  C1756  1  0.61286000  0.37426000  0.57558000  1.0 0.0488295178
C  C1757  1  0.57558000  0.43730000  0.61286000  1.0 0.0488295178
C  C1758  1  0.67442000  0.63714000  0.81270000  1.0 0.0488295178
C  C1759  1  0.43730000  0.37426000  0.61286000  1.0 0.0488295178
C  C1760  1  0.63714000  0.87574000  0.81270000  1.0 0.0488295178
C  C1761  1  0.43730000  0.61286000  0.57558000  1.0 0.0488295178
C  C1762  1  0.63714000  0.81270000  0.67442000  1.0 0.0488295178
C  C1763  1  0.67442000  0.87574000  0.63714000  1.0 0.0488295178
C  C1764  1  0.57558000  0.37426000  0.43730000  1.0 0.0488295178
C  C1765  1  0.43730000  0.57558000  0.37426000  1.0 0.0488295178
C  C1766  1  0.63714000  0.67442000  0.87574000  1.0 0.0488295178
C  C1767  1  0.37426000  0.43730000  0.57558000  1.0 0.0488295178
C  C1768  1  0.87574000  0.63714000  0.67442000  1.0 0.0488295178
C  C1769  1  0.87574000  0.81270000  0.63714000  1.0 0.0488295178
C  C1770  1  0.81270000  0.67442000  0.63714000  1.0 0.0488295178
C  C1771  1  0.61286000  0.57558000  0.43730000  1.0 0.0488295178
C  C1772  1  0.37426000  0.61286000  0.43730000  1.0 0.0488295178
C  C1773  1  0.81270000  0.63714000  0.87574000  1.0 0.0488295178
C  C1774  1  0.61286000  0.43730000  0.37426000  1.0 0.0488295178
C  C1775  1  0.67442000  0.81270000  0.87574000  1.0 0.0488295178
C  C1776  1  0.81270000  0.87574000  0.67442000  1.0 0.0488295178
C  C1777  1  0.85807000  0.06201000  0.01889000  1.0 0.3495030204
C  C1778  1  0.39193000  0.18799000  0.18897000  1.0 0.3495030204
C  C1779  1  0.18799000  0.18897000  0.39193000  1.0 0.3495030204
C  C1780  1  0.18897000  0.39193000  0.18799000  1.0 0.3495030204
C  C1781  1  0.18799000  0.23111000  0.18897000  1.0 0.3495030204
C  C1782  1  0.06201000  0.06103000  0.01889000  1.0 0.3495030204
C  C1783  1  0.23111000  0.39193000  0.18897000  1.0 0.3495030204
C  C1784  1  0.06103000  0.85807000  0.01889000  1.0 0.3495030204
C  C1785  1  0.23111000  0.18897000  0.18799000  1.0 0.3495030204
C  C1786  1  0.06103000  0.01889000  0.06201000  1.0 0.3495030204
C  C1787  1  0.06201000  0.85807000  0.06103000  1.0 0.3495030204
C  C1788  1  0.18799000  0.39193000  0.23111000  1.0 0.3495030204
C  C1789  1  0.23111000  0.18799000  0.39193000  1.0 0.3495030204
C  C1790  1  0.06103000  0.06201000  0.85807000  1.0 0.3495030204
C  C1791  1  0.39193000  0.23111000  0.18799000  1.0 0.3495030204
C  C1792  1  0.85807000  0.06103000  0.06201000  1.0 0.3495030204
C  C1793  1  0.85807000  0.01889000  0.06103000  1.0 0.3495030204
C  C1794  1  0.01889000  0.06201000  0.06103000  1.0 0.3495030204
C  C1795  1  0.18897000  0.18799000  0.23111000  1.0 0.3495030204
C  C1796  1  0.39193000  0.18897000  0.23111000  1.0 0.3495030204
C  C1797  1  0.01889000  0.06103000  0.85807000  1.0 0.3495030204
C  C1798  1  0.18897000  0.23111000  0.39193000  1.0 0.3495030204
C  C1799  1  0.06201000  0.01889000  0.85807000  1.0 0.3495030204
C  C1800  1  0.01889000  0.85807000  0.06201000  1.0 0.3495030204
C  C1801  1  0.89193000  0.68799000  0.73111000  1.0 0.3495030204
C  C1802  1  0.35807000  0.56201000  0.56103000  1.0 0.3495030204
C  C1803  1  0.56201000  0.56103000  0.35807000  1.0 0.3495030204
C  C1804  1  0.56103000  0.35807000  0.56201000  1.0 0.3495030204
C  C1805  1  0.56201000  0.51889000  0.56103000  1.0 0.3495030204
C  C1806  1  0.68799000  0.68897000  0.73111000  1.0 0.3495030204
C  C1807  1  0.51889000  0.35807000  0.56103000  1.0 0.3495030204
C  C1808  1  0.68897000  0.89193000  0.73111000  1.0 0.3495030204
C  C1809  1  0.51889000  0.56103000  0.56201000  1.0 0.3495030204
C  C1810  1  0.68897000  0.73111000  0.68799000  1.0 0.3495030204
C  C1811  1  0.68799000  0.89193000  0.68897000  1.0 0.3495030204
C  C1812  1  0.56201000  0.35807000  0.51889000  1.0 0.3495030204
C  C1813  1  0.51889000  0.56201000  0.35807000  1.0 0.3495030204
C  C1814  1  0.68897000  0.68799000  0.89193000  1.0 0.3495030204
C  C1815  1  0.35807000  0.51889000  0.56201000  1.0 0.3495030204
C  C1816  1  0.89193000  0.68897000  0.68799000  1.0 0.3495030204
C  C1817  1  0.89193000  0.73111000  0.68897000  1.0 0.3495030204
C  C1818  1  0.73111000  0.68799000  0.68897000  1.0 0.3495030204
C  C1819  1  0.56103000  0.56201000  0.51889000  1.0 0.3495030204
C  C1820  1  0.35807000  0.56103000  0.51889000  1.0 0.3495030204
C  C1821  1  0.73111000  0.68897000  0.89193000  1.0 0.3495030204
C  C1822  1  0.56103000  0.51889000  0.35807000  1.0 0.3495030204
C  C1823  1  0.68799000  0.73111000  0.89193000  1.0 0.3495030204
C  C1824  1  0.73111000  0.89193000  0.68799000  1.0 0.3495030204
S  S1  1  0.92555000  0.37897000  0.51825000  1.0 -0.1902037277
S  S2  1  0.32445000  0.87103000  0.07277000  1.0 -0.1902037277
S  S3  1  0.87103000  0.07277000  0.32445000  1.0 -0.1902037277
S  S4  1  0.07277000  0.32445000  0.87103000  1.0 -0.1902037277
S  S5  1  0.87103000  0.73175000  0.07277000  1.0 -0.1902037277
S  S6  1  0.37897000  0.17723000  0.51825000  1.0 -0.1902037277
S  S7  1  0.73175000  0.32445000  0.07277000  1.0 -0.1902037277
S  S8  1  0.17723000  0.92555000  0.51825000  1.0 -0.1902037277
S  S9  1  0.73175000  0.07277000  0.87103000  1.0 -0.1902037277
S  S10  1  0.17723000  0.51825000  0.37897000  1.0 -0.1902037277
S  S11  1  0.37897000  0.92555000  0.17723000  1.0 -0.1902037277
S  S12  1  0.87103000  0.32445000  0.73175000  1.0 -0.1902037277
S  S13  1  0.73175000  0.87103000  0.32445000  1.0 -0.1902037277
S  S14  1  0.17723000  0.37897000  0.92555000  1.0 -0.1902037277
S  S15  1  0.32445000  0.73175000  0.87103000  1.0 -0.1902037277
S  S16  1  0.92555000  0.17723000  0.37897000  1.0 -0.1902037277
S  S17  1  0.92555000  0.51825000  0.17723000  1.0 -0.1902037277
S  S18  1  0.51825000  0.37897000  0.17723000  1.0 -0.1902037277
S  S19  1  0.07277000  0.87103000  0.73175000  1.0 -0.1902037277
S  S20  1  0.32445000  0.07277000  0.73175000  1.0 -0.1902037277
S  S21  1  0.51825000  0.17723000  0.92555000  1.0 -0.1902037277
S  S22  1  0.07277000  0.73175000  0.32445000  1.0 -0.1902037277
S  S23  1  0.37897000  0.51825000  0.92555000  1.0 -0.1902037277
S  S24  1  0.51825000  0.92555000  0.37897000  1.0 -0.1902037277
S  S25  1  0.82445000  0.37103000  0.23175000  1.0 -0.1902037277
S  S26  1  0.42555000  0.87897000  0.67723000  1.0 -0.1902037277
S  S27  1  0.87897000  0.67723000  0.42555000  1.0 -0.1902037277
S  S28  1  0.67723000  0.42555000  0.87897000  1.0 -0.1902037277
S  S29  1  0.87897000  0.01825000  0.67723000  1.0 -0.1902037277
S  S30  1  0.37103000  0.57277000  0.23175000  1.0 -0.1902037277
S  S31  1  0.01825000  0.42555000  0.67723000  1.0 -0.1902037277
S  S32  1  0.57277000  0.82445000  0.23175000  1.0 -0.1902037277
S  S33  1  0.01825000  0.67723000  0.87897000  1.0 -0.1902037277
S  S34  1  0.57277000  0.23175000  0.37103000  1.0 -0.1902037277
S  S35  1  0.37103000  0.82445000  0.57277000  1.0 -0.1902037277
S  S36  1  0.87897000  0.42555000  0.01825000  1.0 -0.1902037277
S  S37  1  0.01825000  0.87897000  0.42555000  1.0 -0.1902037277
S  S38  1  0.57277000  0.37103000  0.82445000  1.0 -0.1902037277
S  S39  1  0.42555000  0.01825000  0.87897000  1.0 -0.1902037277
S  S40  1  0.82445000  0.57277000  0.37103000  1.0 -0.1989546472
S  S41  1  0.82445000  0.23175000  0.57277000  1.0 -0.1902037277
S  S42  1  0.23175000  0.37103000  0.57277000  1.0 -0.1902037277
S  S43  1  0.67723000  0.87897000  0.01825000  1.0 -0.1902037277
S  S44  1  0.42555000  0.67723000  0.01825000  1.0 -0.1902037277
S  S45  1  0.23175000  0.57277000  0.82445000  1.0 -0.1902037277
S  S46  1  0.67723000  0.01825000  0.42555000  1.0 -0.1902037277
S  S47  1  0.37103000  0.23175000  0.82445000  1.0 -0.1902037277
S  S48  1  0.23175000  0.82445000  0.37103000  1.0 -0.1902037277
S  S49  1  0.86047000  0.03077000  0.90207000  1.0 -0.071876892
S  S50  1  0.38953000  0.21923000  0.04331000  1.0 -0.071876892
S  S51  1  0.21923000  0.04331000  0.38953000  1.0 -0.071876892
S  S52  1  0.04331000  0.38953000  0.21923000  1.0 -0.071876892
S  S53  1  0.21923000  0.34793000  0.04331000  1.0 -0.071876892
S  S54  1  0.03077000  0.20669000  0.90207000  1.0 -0.071876892
S  S55  1  0.34793000  0.38953000  0.04331000  1.0 -0.071876892
S  S56  1  0.20669000  0.86047000  0.90207000  1.0 -0.071876892
S  S57  1  0.34793000  0.04331000  0.21923000  1.0 -0.071876892
S  S58  1  0.20669000  0.90207000  0.03077000  1.0 -0.071876892
S  S59  1  0.03077000  0.86047000  0.20669000  1.0 -0.071876892
S  S60  1  0.21923000  0.38953000  0.34793000  1.0 -0.071876892
S  S61  1  0.34793000  0.21923000  0.38953000  1.0 -0.071876892
S  S62  1  0.20669000  0.03077000  0.86047000  1.0 -0.071876892
S  S63  1  0.38953000  0.34793000  0.21923000  1.0 -0.071876892
S  S64  1  0.86047000  0.20669000  0.03077000  1.0 -0.071876892
S  S65  1  0.86047000  0.90207000  0.20669000  1.0 -0.071876892
S  S66  1  0.90207000  0.03077000  0.20669000  1.0 -0.071876892
S  S67  1  0.04331000  0.21923000  0.34793000  1.0 -0.071876892
S  S68  1  0.38953000  0.04331000  0.34793000  1.0 -0.071876892
S  S69  1  0.90207000  0.20669000  0.86047000  1.0 -0.071876892
S  S70  1  0.04331000  0.34793000  0.38953000  1.0 -0.071876892
S  S71  1  0.03077000  0.90207000  0.86047000  1.0 -0.0755909647
S  S72  1  0.90207000  0.86047000  0.03077000  1.0 -0.071876892
S  S73  1  0.88953000  0.71923000  0.84793000  1.0 -0.071876892
S  S74  1  0.36047000  0.53077000  0.70669000  1.0 -0.071876892
S  S75  1  0.53077000  0.70669000  0.36047000  1.0 -0.071876892
S  S76  1  0.70669000  0.36047000  0.53077000  1.0 -0.071876892
S  S77  1  0.53077000  0.40207000  0.70669000  1.0 -0.071876892
S  S78  1  0.71923000  0.54331000  0.84793000  1.0 -0.071876892
S  S79  1  0.40207000  0.36047000  0.70669000  1.0 -0.071876892
S  S80  1  0.54331000  0.88953000  0.84793000  1.0 -0.071876892
S  S81  1  0.40207000  0.70669000  0.53077000  1.0 -0.071876892
S  S82  1  0.54331000  0.84793000  0.71923000  1.0 -0.071876892
S  S83  1  0.71923000  0.88953000  0.54331000  1.0 -0.071876892
S  S84  1  0.53077000  0.36047000  0.40207000  1.0 -0.071876892
S  S85  1  0.40207000  0.53077000  0.36047000  1.0 -0.071876892
S  S86  1  0.54331000  0.71923000  0.88953000  1.0 -0.071876892
S  S87  1  0.36047000  0.40207000  0.53077000  1.0 -0.071876892
S  S88  1  0.88953000  0.54331000  0.71923000  1.0 -0.071876892
S  S89  1  0.88953000  0.84793000  0.54331000  1.0 -0.071876892
S  S90  1  0.84793000  0.71923000  0.54331000  1.0 -0.071876892
S  S91  1  0.70669000  0.53077000  0.40207000  1.0 -0.071876892
S  S92  1  0.36047000  0.70669000  0.40207000  1.0 -0.071876892
S  S93  1  0.84793000  0.54331000  0.88953000  1.0 -0.071876892
S  S94  1  0.70669000  0.40207000  0.36047000  1.0 -0.071876892
S  S95  1  0.71923000  0.84793000  0.88953000  1.0 -0.071876892
S  S96  1  0.84793000  0.88953000  0.71923000  1.0 -0.071876892
S  S97  1  0.88648000  0.02892000  0.87408000  1.0 0.0586106643
S  S98  1  0.36352000  0.22108000  0.03948000  1.0 0.0586106643
S  S99  1  0.22108000  0.03948000  0.36352000  1.0 0.0586106643
S  S100  1  0.03948000  0.36352000  0.22108000  1.0 0.0586106643
S  S101  1  0.22108000  0.37592000  0.03948000  1.0 0.0586106643
S  S102  1  0.02892000  0.21052000  0.87408000  1.0 0.0586106643
S  S103  1  0.37592000  0.36352000  0.03948000  1.0 0.0586106643
S  S104  1  0.21052000  0.88648000  0.87408000  1.0 0.0586106643
S  S105  1  0.37592000  0.03948000  0.22108000  1.0 0.0586106643
S  S106  1  0.21052000  0.87408000  0.02892000  1.0 0.0586106643
S  S107  1  0.02892000  0.88648000  0.21052000  1.0 0.0586106643
S  S108  1  0.22108000  0.36352000  0.37592000  1.0 0.0586106643
S  S109  1  0.37592000  0.22108000  0.36352000  1.0 0.0586106643
S  S110  1  0.21052000  0.02892000  0.88648000  1.0 0.0586106643
S  S111  1  0.36352000  0.37592000  0.22108000  1.0 0.0586106643
S  S112  1  0.88648000  0.21052000  0.02892000  1.0 0.0586106643
S  S113  1  0.88648000  0.87408000  0.21052000  1.0 0.0586106643
S  S114  1  0.87408000  0.02892000  0.21052000  1.0 0.0586106643
S  S115  1  0.03948000  0.22108000  0.37592000  1.0 0.0586106643
S  S116  1  0.36352000  0.03948000  0.37592000  1.0 0.0586106643
S  S117  1  0.87408000  0.21052000  0.88648000  1.0 0.0586106643
S  S118  1  0.03948000  0.37592000  0.36352000  1.0 0.0586106643
S  S119  1  0.02892000  0.87408000  0.88648000  1.0 0.0586106643
S  S120  1  0.87408000  0.88648000  0.02892000  1.0 0.0586106643
S  S121  1  0.86352000  0.72108000  0.87592000  1.0 0.0586106643
S  S122  1  0.38648000  0.52892000  0.71052000  1.0 0.0586106643
S  S123  1  0.52892000  0.71052000  0.38648000  1.0 0.0586106643
S  S124  1  0.71052000  0.38648000  0.52892000  1.0 0.0586106643
S  S125  1  0.52892000  0.37408000  0.71052000  1.0 0.0586106643
S  S126  1  0.72108000  0.53948000  0.87592000  1.0 0.0586106643
S  S127  1  0.37408000  0.38648000  0.71052000  1.0 0.0586106643
S  S128  1  0.53948000  0.86352000  0.87592000  1.0 0.0586106643
S  S129  1  0.37408000  0.71052000  0.52892000  1.0 0.0586106643
S  S130  1  0.53948000  0.87592000  0.72108000  1.0 0.0586106643
S  S131  1  0.72108000  0.86352000  0.53948000  1.0 0.0586106643
S  S132  1  0.52892000  0.38648000  0.37408000  1.0 0.0586106643
S  S133  1  0.37408000  0.52892000  0.38648000  1.0 0.0586106643
S  S134  1  0.53948000  0.72108000  0.86352000  1.0 0.0586106643
S  S135  1  0.38648000  0.37408000  0.52892000  1.0 0.0586106643
S  S136  1  0.86352000  0.53948000  0.72108000  1.0 0.0586106643
S  S137  1  0.86352000  0.87592000  0.53948000  1.0 0.0586106643
S  S138  1  0.87592000  0.72108000  0.53948000  1.0 0.0586106643
S  S139  1  0.71052000  0.52892000  0.37408000  1.0 0.0586106643
S  S140  1  0.38648000  0.71052000  0.37408000  1.0 0.0586106643
S  S141  1  0.87592000  0.53948000  0.86352000  1.0 0.0586106643
S  S142  1  0.71052000  0.37408000  0.38648000  1.0 0.0586106643
S  S143  1  0.72108000  0.87592000  0.86352000  1.0 0.0586106643
S  S144  1  0.87592000  0.86352000  0.72108000  1.0 0.0586106643
N  N1  1  0.81820000  0.03480000  0.97960000  1.0 -0.3999870361
N  N2  1  0.43180000  0.21520000  0.08260000  1.0 -0.3999870361
N  N3  1  0.21520000  0.08260000  0.43180000  1.0 -0.3999870361
N  N4  1  0.08260000  0.43180000  0.21520000  1.0 -0.3999870361
N  N5  1  0.21520000  0.27040000  0.08260000  1.0 -0.3999870361
N  N6  1  0.03480000  0.16740000  0.97960000  1.0 -0.3999870361
N  N7  1  0.27040000  0.43180000  0.08260000  1.0 -0.3999870361
N  N8  1  0.16740000  0.81820000  0.97960000  1.0 -0.3999870361
N  N9  1  0.27040000  0.08260000  0.21520000  1.0 -0.3999870361
N  N10  1  0.16740000  0.97960000  0.03480000  1.0 -0.3999870361
N  N11  1  0.03480000  0.81820000  0.16740000  1.0 -0.3999870361
N  N12  1  0.21520000  0.43180000  0.27040000  1.0 -0.3999870361
N  N13  1  0.27040000  0.21520000  0.43180000  1.0 -0.3999870361
N  N14  1  0.16740000  0.03480000  0.81820000  1.0 -0.3999870361
N  N15  1  0.43180000  0.27040000  0.21520000  1.0 -0.3999870361
N  N16  1  0.81820000  0.16740000  0.03480000  1.0 -0.3999870361
N  N17  1  0.81820000  0.97960000  0.16740000  1.0 -0.3999870361
N  N18  1  0.97960000  0.03480000  0.16740000  1.0 -0.3999870361
N  N19  1  0.08260000  0.21520000  0.27040000  1.0 -0.3999870361
N  N20  1  0.43180000  0.08260000  0.27040000  1.0 -0.3999870361
N  N21  1  0.97960000  0.16740000  0.81820000  1.0 -0.3999870361
N  N22  1  0.08260000  0.27040000  0.43180000  1.0 -0.3999870361
N  N23  1  0.03480000  0.97960000  0.81820000  1.0 -0.3999870361
N  N24  1  0.97960000  0.81820000  0.03480000  1.0 -0.3999870361
N  N25  1  0.93180000  0.71520000  0.77040000  1.0 -0.3999870361
N  N26  1  0.31820000  0.53480000  0.66740000  1.0 -0.3999870361
N  N27  1  0.53480000  0.66740000  0.31820000  1.0 -0.3999870361
N  N28  1  0.66740000  0.31820000  0.53480000  1.0 -0.3999870361
N  N29  1  0.53480000  0.47960000  0.66740000  1.0 -0.3999870361
N  N30  1  0.71520000  0.58260000  0.77040000  1.0 -0.3999870361
N  N31  1  0.47960000  0.31820000  0.66740000  1.0 -0.3999870361
N  N32  1  0.58260000  0.93180000  0.77040000  1.0 -0.3999870361
N  N33  1  0.47960000  0.66740000  0.53480000  1.0 -0.3999870361
N  N34  1  0.58260000  0.77040000  0.71520000  1.0 -0.3999870361
N  N35  1  0.71520000  0.93180000  0.58260000  1.0 -0.3999870361
N  N36  1  0.53480000  0.31820000  0.47960000  1.0 -0.3999870361
N  N37  1  0.47960000  0.53480000  0.31820000  1.0 -0.3999870361
N  N38  1  0.58260000  0.71520000  0.93180000  1.0 -0.3999870361
N  N39  1  0.31820000  0.47960000  0.53480000  1.0 -0.3999870361
N  N40  1  0.93180000  0.58260000  0.71520000  1.0 -0.3999870361
N  N41  1  0.93180000  0.77040000  0.58260000  1.0 -0.3999870361
N  N42  1  0.77040000  0.71520000  0.58260000  1.0 -0.3999870361
N  N43  1  0.66740000  0.53480000  0.47960000  1.0 -0.3999870361
N  N44  1  0.31820000  0.66740000  0.47960000  1.0 -0.3999870361
N  N45  1  0.77040000  0.58260000  0.93180000  1.0 -0.3999870361
N  N46  1  0.66740000  0.47960000  0.31820000  1.0 -0.3999870361
N  N47  1  0.71520000  0.77040000  0.93180000  1.0 -0.3999870361
N  N48  1  0.77040000  0.93180000  0.71520000  1.0 -0.3999870361
N  N49  1  0.89411000  0.36457000  0.58179000  1.0 -0.4527920749
N  N50  1  0.35589000  0.88543000  0.09047000  1.0 -0.4527920749
N  N51  1  0.88543000  0.09047000  0.35589000  1.0 -0.4527920749
N  N52  1  0.09047000  0.35589000  0.88543000  1.0 -0.4527920749
N  N53  1  0.88543000  0.66821000  0.09047000  1.0 -0.4527920749
N  N54  1  0.36457000  0.15953000  0.58179000  1.0 -0.4527920749
N  N55  1  0.66821000  0.35589000  0.09047000  1.0 -0.4527920749
N  N56  1  0.15953000  0.89411000  0.58179000  1.0 -0.4527920749
N  N57  1  0.66821000  0.09047000  0.88543000  1.0 -0.4527920749
N  N58  1  0.15953000  0.58179000  0.36457000  1.0 -0.4527920749
N  N59  1  0.36457000  0.89411000  0.15953000  1.0 -0.4527920749
N  N60  1  0.88543000  0.35589000  0.66821000  1.0 -0.4527920749
N  N61  1  0.66821000  0.88543000  0.35589000  1.0 -0.4527920749
N  N62  1  0.15953000  0.36457000  0.89411000  1.0 -0.4527920749
N  N63  1  0.35589000  0.66821000  0.88543000  1.0 -0.4527920749
N  N64  1  0.89411000  0.15953000  0.36457000  1.0 -0.4527920749
N  N65  1  0.89411000  0.58179000  0.15953000  1.0 -0.4527920749
N  N66  1  0.58179000  0.36457000  0.15953000  1.0 -0.4527920749
N  N67  1  0.09047000  0.88543000  0.66821000  1.0 -0.4527920749
N  N68  1  0.35589000  0.09047000  0.66821000  1.0 -0.4527920749
N  N69  1  0.58179000  0.15953000  0.89411000  1.0 -0.4527920749
N  N70  1  0.09047000  0.66821000  0.35589000  1.0 -0.4527920749
N  N71  1  0.36457000  0.58179000  0.89411000  1.0 -0.4527920749
N  N72  1  0.58179000  0.89411000  0.36457000  1.0 -0.4527920749
N  N73  1  0.85589000  0.38543000  0.16821000  1.0 -0.4527920749
N  N74  1  0.39411000  0.86457000  0.65953000  1.0 -0.4527920749
N  N75  1  0.86457000  0.65953000  0.39411000  1.0 -0.4527920749
N  N76  1  0.65953000  0.39411000  0.86457000  1.0 -0.4527920749
N  N77  1  0.86457000  0.08179000  0.65953000  1.0 -0.4527920749
N  N78  1  0.38543000  0.59047000  0.16821000  1.0 -0.4527920749
N  N79  1  0.08179000  0.39411000  0.65953000  1.0 -0.4527920749
N  N80  1  0.59047000  0.85589000  0.16821000  1.0 -0.4527920749
N  N81  1  0.08179000  0.65953000  0.86457000  1.0 -0.4527920749
N  N82  1  0.59047000  0.16821000  0.38543000  1.0 -0.4527920749
N  N83  1  0.38543000  0.85589000  0.59047000  1.0 -0.4527920749
N  N84  1  0.86457000  0.39411000  0.08179000  1.0 -0.4527920749
N  N85  1  0.08179000  0.86457000  0.39411000  1.0 -0.4527920749
N  N86  1  0.59047000  0.38543000  0.85589000  1.0 -0.4527920749
N  N87  1  0.39411000  0.08179000  0.86457000  1.0 -0.4527920749
N  N88  1  0.85589000  0.59047000  0.38543000  1.0 -0.4527920749
N  N89  1  0.85589000  0.16821000  0.59047000  1.0 -0.4527920749
N  N90  1  0.16821000  0.38543000  0.59047000  1.0 -0.4527920749
N  N91  1  0.65953000  0.86457000  0.08179000  1.0 -0.4527920749
N  N92  1  0.39411000  0.65953000  0.08179000  1.0 -0.4527920749
N  N93  1  0.16821000  0.59047000  0.85589000  1.0 -0.4527920749
N  N94  1  0.65953000  0.08179000  0.39411000  1.0 -0.4527920749
N  N95  1  0.38543000  0.16821000  0.85589000  1.0 -0.4527920749
N  N96  1  0.16821000  0.85589000  0.38543000  1.0 -0.4527920749
N  N97  1  0.89947000  0.31157000  0.63921000  1.0 -0.2125124082
N  N98  1  0.35053000  0.93843000  0.10025000  1.0 -0.2125124082
N  N99  1  0.93843000  0.10025000  0.35053000  1.0 -0.2125124082
N  N100  1  0.10025000  0.35053000  0.93843000  1.0 -0.2125124082
N  N101  1  0.93843000  0.61079000  0.10025000  1.0 -0.2125124082
N  N102  1  0.31157000  0.14975000  0.63921000  1.0 -0.2125124082
N  N103  1  0.61079000  0.35053000  0.10025000  1.0 -0.2125124082
N  N104  1  0.14975000  0.89947000  0.63921000  1.0 -0.2125124082
N  N105  1  0.61079000  0.10025000  0.93843000  1.0 -0.2125124082
N  N106  1  0.14975000  0.63921000  0.31157000  1.0 -0.2125124082
N  N107  1  0.31157000  0.89947000  0.14975000  1.0 -0.2125124082
N  N108  1  0.93843000  0.35053000  0.61079000  1.0 -0.2125124082
N  N109  1  0.61079000  0.93843000  0.35053000  1.0 -0.2125124082
N  N110  1  0.14975000  0.31157000  0.89947000  1.0 -0.2125124082
N  N111  1  0.35053000  0.61079000  0.93843000  1.0 -0.2125124082
N  N112  1  0.89947000  0.14975000  0.31157000  1.0 -0.2125124082
N  N113  1  0.89947000  0.63921000  0.14975000  1.0 -0.2125124082
N  N114  1  0.63921000  0.31157000  0.14975000  1.0 -0.2125124082
N  N115  1  0.10025000  0.93843000  0.61079000  1.0 -0.2125124082
N  N116  1  0.35053000  0.10025000  0.61079000  1.0 -0.2125124082
N  N117  1  0.63921000  0.14975000  0.89947000  1.0 -0.2125124082
N  N118  1  0.10025000  0.61079000  0.35053000  1.0 -0.2125124082
N  N119  1  0.31157000  0.63921000  0.89947000  1.0 -0.2125124082
N  N120  1  0.63921000  0.89947000  0.31157000  1.0 -0.2125124082
N  N121  1  0.85053000  0.43843000  0.11079000  1.0 -0.2125124082
N  N122  1  0.39947000  0.81157000  0.64975000  1.0 -0.2125124082
N  N123  1  0.81157000  0.64975000  0.39947000  1.0 -0.2125124082
N  N124  1  0.64975000  0.39947000  0.81157000  1.0 -0.2125124082
N  N125  1  0.81157000  0.13921000  0.64975000  1.0 -0.2125124082
N  N126  1  0.43843000  0.60025000  0.11079000  1.0 -0.2125124082
N  N127  1  0.13921000  0.39947000  0.64975000  1.0 -0.2125124082
N  N128  1  0.60025000  0.85053000  0.11079000  1.0 -0.2125124082
N  N129  1  0.13921000  0.64975000  0.81157000  1.0 -0.2125124082
N  N130  1  0.60025000  0.11079000  0.43843000  1.0 -0.2125124082
N  N131  1  0.43843000  0.85053000  0.60025000  1.0 -0.2125124082
N  N132  1  0.81157000  0.39947000  0.13921000  1.0 -0.2125124082
N  N133  1  0.13921000  0.81157000  0.39947000  1.0 -0.2125124082
N  N134  1  0.60025000  0.43843000  0.85053000  1.0 -0.2125124082
N  N135  1  0.39947000  0.13921000  0.81157000  1.0 -0.2125124082
N  N136  1  0.85053000  0.60025000  0.43843000  1.0 -0.2125124082
N  N137  1  0.85053000  0.11079000  0.60025000  1.0 -0.2125124082
N  N138  1  0.11079000  0.43843000  0.60025000  1.0 -0.2125124082
N  N139  1  0.64975000  0.81157000  0.13921000  1.0 -0.2125124082
N  N140  1  0.39947000  0.64975000  0.13921000  1.0 -0.2125124082
N  N141  1  0.11079000  0.60025000  0.85053000  1.0 -0.2125124082
N  N142  1  0.64975000  0.13921000  0.39947000  1.0 -0.2125124082
N  N143  1  0.43843000  0.11079000  0.85053000  1.0 -0.2125124082
N  N144  1  0.11079000  0.85053000  0.43843000  1.0 -0.2125124082
N  N145  1  0.89259000  0.20733000  0.67177000  1.0 -0.4203868934
N  N146  1  0.35741000  0.04267000  0.02169000  1.0 -0.4203868934
N  N147  1  0.04267000  0.02169000  0.35741000  1.0 -0.4203868934
N  N148  1  0.02169000  0.35741000  0.04267000  1.0 -0.4203868934
N  N149  1  0.04267000  0.57823000  0.02169000  1.0 -0.4203868934
N  N150  1  0.20733000  0.22831000  0.67177000  1.0 -0.4203868934
N  N151  1  0.57823000  0.35741000  0.02169000  1.0 -0.4203868934
N  N152  1  0.22831000  0.89259000  0.67177000  1.0 -0.4203868934
N  N153  1  0.57823000  0.02169000  0.04267000  1.0 -0.4203868934
N  N154  1  0.22831000  0.67177000  0.20733000  1.0 -0.4203868934
N  N155  1  0.20733000  0.89259000  0.22831000  1.0 -0.4203868934
N  N156  1  0.04267000  0.35741000  0.57823000  1.0 -0.4203868934
N  N157  1  0.57823000  0.04267000  0.35741000  1.0 -0.4203868934
N  N158  1  0.22831000  0.20733000  0.89259000  1.0 -0.4203868934
N  N159  1  0.35741000  0.57823000  0.04267000  1.0 -0.4203868934
N  N160  1  0.89259000  0.22831000  0.20733000  1.0 -0.4203868934
N  N161  1  0.89259000  0.67177000  0.22831000  1.0 -0.4203868934
N  N162  1  0.67177000  0.20733000  0.22831000  1.0 -0.4203868934
N  N163  1  0.02169000  0.04267000  0.57823000  1.0 -0.4203868934
N  N164  1  0.35741000  0.02169000  0.57823000  1.0 -0.4203868934
N  N165  1  0.67177000  0.22831000  0.89259000  1.0 -0.4203868934
N  N166  1  0.02169000  0.57823000  0.35741000  1.0 -0.4203868934
N  N167  1  0.20733000  0.67177000  0.89259000  1.0 -0.4203868934
N  N168  1  0.67177000  0.89259000  0.20733000  1.0 -0.4203868934
N  N169  1  0.85741000  0.54267000  0.07823000  1.0 -0.4203868934
N  N170  1  0.39259000  0.70733000  0.72831000  1.0 -0.4203868934
N  N171  1  0.70733000  0.72831000  0.39259000  1.0 -0.4203868934
N  N172  1  0.72831000  0.39259000  0.70733000  1.0 -0.4203868934
N  N173  1  0.70733000  0.17177000  0.72831000  1.0 -0.4203868934
N  N174  1  0.54267000  0.52169000  0.07823000  1.0 -0.4203868934
N  N175  1  0.17177000  0.39259000  0.72831000  1.0 -0.4203868934
N  N176  1  0.52169000  0.85741000  0.07823000  1.0 -0.4203868934
N  N177  1  0.17177000  0.72831000  0.70733000  1.0 -0.4203868934
N  N178  1  0.52169000  0.07823000  0.54267000  1.0 -0.4203868934
N  N179  1  0.54267000  0.85741000  0.52169000  1.0 -0.4203868934
N  N180  1  0.70733000  0.39259000  0.17177000  1.0 -0.4203868934
N  N181  1  0.17177000  0.70733000  0.39259000  1.0 -0.4203868934
N  N182  1  0.52169000  0.54267000  0.85741000  1.0 -0.4203868934
N  N183  1  0.39259000  0.17177000  0.70733000  1.0 -0.4203868934
N  N184  1  0.85741000  0.52169000  0.54267000  1.0 -0.4203868934
N  N185  1  0.85741000  0.07823000  0.52169000  1.0 -0.4203868934
N  N186  1  0.07823000  0.54267000  0.52169000  1.0 -0.4203868934
N  N187  1  0.72831000  0.70733000  0.17177000  1.0 -0.4203868934
N  N188  1  0.39259000  0.72831000  0.17177000  1.0 -0.4203868934
N  N189  1  0.07823000  0.52169000  0.85741000  1.0 -0.4203868934
N  N190  1  0.72831000  0.17177000  0.39259000  1.0 -0.4203868934
N  N191  1  0.54267000  0.07823000  0.85741000  1.0 -0.4203868934
N  N192  1  0.07823000  0.85741000  0.54267000  1.0 -0.4203868934
N  N193  1  0.88594000  0.16606000  0.71978000  1.0 -0.4326612359
N  N194  1  0.36406000  0.08394000  0.02178000  1.0 -0.4326612359
N  N195  1  0.08394000  0.02178000  0.36406000  1.0 -0.4326612359
N  N196  1  0.02178000  0.36406000  0.08394000  1.0 -0.4326612359
N  N197  1  0.08394000  0.53022000  0.02178000  1.0 -0.4326612359
N  N198  1  0.16606000  0.22822000  0.71978000  1.0 -0.4326612359
N  N199  1  0.53022000  0.36406000  0.02178000  1.0 -0.4326612359
N  N200  1  0.22822000  0.88594000  0.71978000  1.0 -0.4326612359
N  N201  1  0.53022000  0.02178000  0.08394000  1.0 -0.4326612359
N  N202  1  0.22822000  0.71978000  0.16606000  1.0 -0.4326612359
N  N203  1  0.16606000  0.88594000  0.22822000  1.0 -0.4326612359
N  N204  1  0.08394000  0.36406000  0.53022000  1.0 -0.4326612359
N  N205  1  0.53022000  0.08394000  0.36406000  1.0 -0.4326612359
N  N206  1  0.22822000  0.16606000  0.88594000  1.0 -0.4326612359
N  N207  1  0.36406000  0.53022000  0.08394000  1.0 -0.4326612359
N  N208  1  0.88594000  0.22822000  0.16606000  1.0 -0.4326612359
N  N209  1  0.88594000  0.71978000  0.22822000  1.0 -0.4326612359
N  N210  1  0.71978000  0.16606000  0.22822000  1.0 -0.4326612359
N  N211  1  0.02178000  0.08394000  0.53022000  1.0 -0.4326612359
N  N212  1  0.36406000  0.02178000  0.53022000  1.0 -0.4326612359
N  N213  1  0.71978000  0.22822000  0.88594000  1.0 -0.4326612359
N  N214  1  0.02178000  0.53022000  0.36406000  1.0 -0.4326612359
N  N215  1  0.16606000  0.71978000  0.88594000  1.0 -0.4326612359
N  N216  1  0.71978000  0.88594000  0.16606000  1.0 -0.4326612359
N  N217  1  0.86406000  0.58394000  0.03022000  1.0 -0.4326612359
N  N218  1  0.38594000  0.66606000  0.72822000  1.0 -0.4326612359
N  N219  1  0.66606000  0.72822000  0.38594000  1.0 -0.4326612359
N  N220  1  0.72822000  0.38594000  0.66606000  1.0 -0.4326612359
N  N221  1  0.66606000  0.21978000  0.72822000  1.0 -0.4326612359
N  N222  1  0.58394000  0.52178000  0.03022000  1.0 -0.4326612359
N  N223  1  0.21978000  0.38594000  0.72822000  1.0 -0.4326612359
N  N224  1  0.52178000  0.86406000  0.03022000  1.0 -0.4326612359
N  N225  1  0.21978000  0.72822000  0.66606000  1.0 -0.4326612359
N  N226  1  0.52178000  0.03022000  0.58394000  1.0 -0.4326612359
N  N227  1  0.58394000  0.86406000  0.52178000  1.0 -0.4326612359
N  N228  1  0.66606000  0.38594000  0.21978000  1.0 -0.4326612359
N  N229  1  0.21978000  0.66606000  0.38594000  1.0 -0.4326612359
N  N230  1  0.52178000  0.58394000  0.86406000  1.0 -0.4326612359
N  N231  1  0.38594000  0.21978000  0.66606000  1.0 -0.4326612359
N  N232  1  0.86406000  0.52178000  0.58394000  1.0 -0.4326612359
N  N233  1  0.86406000  0.03022000  0.52178000  1.0 -0.4326612359
N  N234  1  0.03022000  0.58394000  0.52178000  1.0 -0.4326612359
N  N235  1  0.72822000  0.66606000  0.21978000  1.0 -0.4326612359
N  N236  1  0.38594000  0.72822000  0.21978000  1.0 -0.4326612359
N  N237  1  0.03022000  0.52178000  0.86406000  1.0 -0.4326612359
N  N238  1  0.72822000  0.21978000  0.38594000  1.0 -0.4326612359
N  N239  1  0.58394000  0.03022000  0.86406000  1.0 -0.4326612359
N  N240  1  0.03022000  0.86406000  0.58394000  1.0 -0.4326612359
N  N241  1  0.89650000  0.20754000  0.71414000  1.0 -0.4203868934
N  N242  1  0.35350000  0.04246000  0.06818000  1.0 -0.4203868934
N  N243  1  0.04246000  0.06818000  0.35350000  1.0 -0.4203868934
N  N244  1  0.06818000  0.35350000  0.04246000  1.0 -0.4203868934
N  N245  1  0.04246000  0.53586000  0.06818000  1.0 -0.4203868934
N  N246  1  0.20754000  0.18182000  0.71414000  1.0 -0.4203868934
N  N247  1  0.53586000  0.35350000  0.06818000  1.0 -0.4203868934
N  N248  1  0.18182000  0.89650000  0.71414000  1.0 -0.4203868934
N  N249  1  0.53586000  0.06818000  0.04246000  1.0 -0.4203868934
N  N250  1  0.18182000  0.71414000  0.20754000  1.0 -0.4203868934
N  N251  1  0.20754000  0.89650000  0.18182000  1.0 -0.4203868934
N  N252  1  0.04246000  0.35350000  0.53586000  1.0 -0.4203868934
N  N253  1  0.53586000  0.04246000  0.35350000  1.0 -0.4203868934
N  N254  1  0.18182000  0.20754000  0.89650000  1.0 -0.4203868934
N  N255  1  0.35350000  0.53586000  0.04246000  1.0 -0.4203868934
N  N256  1  0.89650000  0.18182000  0.20754000  1.0 -0.4203868934
N  N257  1  0.89650000  0.71414000  0.18182000  1.0 -0.4203868934
N  N258  1  0.71414000  0.20754000  0.18182000  1.0 -0.4203868934
N  N259  1  0.06818000  0.04246000  0.53586000  1.0 -0.4203868934
N  N260  1  0.35350000  0.06818000  0.53586000  1.0 -0.4203868934
N  N261  1  0.71414000  0.18182000  0.89650000  1.0 -0.4203868934
N  N262  1  0.06818000  0.53586000  0.35350000  1.0 -0.4203868934
N  N263  1  0.20754000  0.71414000  0.89650000  1.0 -0.4203868934
N  N264  1  0.71414000  0.89650000  0.20754000  1.0 -0.4203868934
N  N265  1  0.85350000  0.54246000  0.03586000  1.0 -0.4203868934
N  N266  1  0.39650000  0.70754000  0.68182000  1.0 -0.4203868934
N  N267  1  0.70754000  0.68182000  0.39650000  1.0 -0.4203868934
N  N268  1  0.68182000  0.39650000  0.70754000  1.0 -0.4203868934
N  N269  1  0.70754000  0.21414000  0.68182000  1.0 -0.4203868934
N  N270  1  0.54246000  0.56818000  0.03586000  1.0 -0.4203868934
N  N271  1  0.21414000  0.39650000  0.68182000  1.0 -0.4203868934
N  N272  1  0.56818000  0.85350000  0.03586000  1.0 -0.4203868934
N  N273  1  0.21414000  0.68182000  0.70754000  1.0 -0.4203868934
N  N274  1  0.56818000  0.03586000  0.54246000  1.0 -0.4203868934
N  N275  1  0.54246000  0.85350000  0.56818000  1.0 -0.4203868934
N  N276  1  0.70754000  0.39650000  0.21414000  1.0 -0.4203868934
N  N277  1  0.21414000  0.70754000  0.39650000  1.0 -0.4203868934
N  N278  1  0.56818000  0.54246000  0.85350000  1.0 -0.4203868934
N  N279  1  0.39650000  0.21414000  0.70754000  1.0 -0.4203868934
N  N280  1  0.85350000  0.56818000  0.54246000  1.0 -0.4203868934
N  N281  1  0.85350000  0.03586000  0.56818000  1.0 -0.4203868934
N  N282  1  0.03586000  0.54246000  0.56818000  1.0 -0.4203868934
N  N283  1  0.68182000  0.70754000  0.21414000  1.0 -0.4203868934
N  N284  1  0.39650000  0.68182000  0.21414000  1.0 -0.4203868934
N  N285  1  0.03586000  0.56818000  0.85350000  1.0 -0.4203868934
N  N286  1  0.68182000  0.21414000  0.39650000  1.0 -0.4203868934
N  N287  1  0.54246000  0.03586000  0.85350000  1.0 -0.4203868934
N  N288  1  0.03586000  0.85350000  0.54246000  1.0 -0.4203868934
N  N289  1  0.87150000  0.14064000  0.64848000  1.0 -0.2169976334
N  N290  1  0.37850000  0.10936000  0.91062000  1.0 -0.2169976334
N  N291  1  0.10936000  0.91062000  0.37850000  1.0 -0.2169976334
N  N292  1  0.91062000  0.37850000  0.10936000  1.0 -0.2169976334
N  N293  1  0.10936000  0.60152000  0.91062000  1.0 -0.2169976334
N  N294  1  0.14064000  0.33938000  0.64848000  1.0 -0.2169976334
N  N295  1  0.60152000  0.37850000  0.91062000  1.0 -0.2169976334
N  N296  1  0.33938000  0.87150000  0.64848000  1.0 -0.2169976334
N  N297  1  0.60152000  0.91062000  0.10936000  1.0 -0.2169976334
N  N298  1  0.33938000  0.64848000  0.14064000  1.0 -0.2169976334
N  N299  1  0.14064000  0.87150000  0.33938000  1.0 -0.2169976334
N  N300  1  0.10936000  0.37850000  0.60152000  1.0 -0.2169976334
N  N301  1  0.60152000  0.10936000  0.37850000  1.0 -0.2169976334
N  N302  1  0.33938000  0.14064000  0.87150000  1.0 -0.2169976334
N  N303  1  0.37850000  0.60152000  0.10936000  1.0 -0.2169976334
N  N304  1  0.87150000  0.33938000  0.14064000  1.0 -0.2169976334
N  N305  1  0.87150000  0.64848000  0.33938000  1.0 -0.2169976334
N  N306  1  0.64848000  0.14064000  0.33938000  1.0 -0.2169976334
N  N307  1  0.91062000  0.10936000  0.60152000  1.0 -0.2169976334
N  N308  1  0.37850000  0.91062000  0.60152000  1.0 -0.2169976334
N  N309  1  0.64848000  0.33938000  0.87150000  1.0 -0.2169976334
N  N310  1  0.91062000  0.60152000  0.37850000  1.0 -0.2169976334
N  N311  1  0.14064000  0.64848000  0.87150000  1.0 -0.2169976334
N  N312  1  0.64848000  0.87150000  0.14064000  1.0 -0.2169976334
N  N313  1  0.87850000  0.60936000  0.10152000  1.0 -0.2169976334
N  N314  1  0.37150000  0.64064000  0.83938000  1.0 -0.2169976334
N  N315  1  0.64064000  0.83938000  0.37150000  1.0 -0.2169976334
N  N316  1  0.83938000  0.37150000  0.64064000  1.0 -0.2169976334
N  N317  1  0.64064000  0.14848000  0.83938000  1.0 -0.2169976334
N  N318  1  0.60936000  0.41062000  0.10152000  1.0 -0.2169976334
N  N319  1  0.14848000  0.37150000  0.83938000  1.0 -0.2169976334
N  N320  1  0.41062000  0.87850000  0.10152000  1.0 -0.2169976334
N  N321  1  0.14848000  0.83938000  0.64064000  1.0 -0.2169976334
N  N322  1  0.41062000  0.10152000  0.60936000  1.0 -0.2169976334
N  N323  1  0.60936000  0.87850000  0.41062000  1.0 -0.2169976334
N  N324  1  0.64064000  0.37150000  0.14848000  1.0 -0.2169976334
N  N325  1  0.14848000  0.64064000  0.37150000  1.0 -0.2169976334
N  N326  1  0.41062000  0.60936000  0.87850000  1.0 -0.2169976334
N  N327  1  0.37150000  0.14848000  0.64064000  1.0 -0.2169976334
N  N328  1  0.87850000  0.41062000  0.60936000  1.0 -0.2169976334
N  N329  1  0.87850000  0.10152000  0.41062000  1.0 -0.2169976334
N  N330  1  0.10152000  0.60936000  0.41062000  1.0 -0.2169976334
N  N331  1  0.83938000  0.64064000  0.14848000  1.0 -0.2169976334
N  N332  1  0.37150000  0.83938000  0.14848000  1.0 -0.2169976334
N  N333  1  0.10152000  0.41062000  0.87850000  1.0 -0.2169976334
N  N334  1  0.83938000  0.14848000  0.37150000  1.0 -0.2169976334
N  N335  1  0.60936000  0.10152000  0.87850000  1.0 -0.2169976334
N  N336  1  0.10152000  0.87850000  0.60936000  1.0 -0.2169976334
N  N337  1  0.88213000  0.14339000  0.82567000  1.0 -0.227906405
N  N338  1  0.36787000  0.10661000  0.10119000  1.0 -0.227906405
N  N339  1  0.10661000  0.10119000  0.36787000  1.0 -0.227906405
N  N340  1  0.10119000  0.36787000  0.10661000  1.0 -0.227906405
N  N341  1  0.10661000  0.42433000  0.10119000  1.0 -0.227906405
N  N342  1  0.14339000  0.14881000  0.82567000  1.0 -0.227906405
N  N343  1  0.42433000  0.36787000  0.10119000  1.0 -0.227906405
N  N344  1  0.14881000  0.88213000  0.82567000  1.0 -0.227906405
N  N345  1  0.42433000  0.10119000  0.10661000  1.0 -0.227906405
N  N346  1  0.14881000  0.82567000  0.14339000  1.0 -0.227906405
N  N347  1  0.14339000  0.88213000  0.14881000  1.0 -0.227906405
N  N348  1  0.10661000  0.36787000  0.42433000  1.0 -0.227906405
N  N349  1  0.42433000  0.10661000  0.36787000  1.0 -0.227906405
N  N350  1  0.14881000  0.14339000  0.88213000  1.0 -0.227906405
N  N351  1  0.36787000  0.42433000  0.10661000  1.0 -0.227906405
N  N352  1  0.88213000  0.14881000  0.14339000  1.0 -0.227906405
N  N353  1  0.88213000  0.82567000  0.14881000  1.0 -0.227906405
N  N354  1  0.82567000  0.14339000  0.14881000  1.0 -0.227906405
N  N355  1  0.10119000  0.10661000  0.42433000  1.0 -0.227906405
N  N356  1  0.36787000  0.10119000  0.42433000  1.0 -0.227906405
N  N357  1  0.82567000  0.14881000  0.88213000  1.0 -0.227906405
N  N358  1  0.10119000  0.42433000  0.36787000  1.0 -0.227906405
N  N359  1  0.14339000  0.82567000  0.88213000  1.0 -0.227906405
N  N360  1  0.82567000  0.88213000  0.14339000  1.0 -0.227906405
N  N361  1  0.86787000  0.60661000  0.92433000  1.0 -0.227906405
N  N362  1  0.38213000  0.64339000  0.64881000  1.0 -0.227906405
N  N363  1  0.64339000  0.64881000  0.38213000  1.0 -0.227906405
N  N364  1  0.64881000  0.38213000  0.64339000  1.0 -0.227906405
N  N365  1  0.64339000  0.32567000  0.64881000  1.0 -0.227906405
N  N366  1  0.60661000  0.60119000  0.92433000  1.0 -0.227906405
N  N367  1  0.32567000  0.38213000  0.64881000  1.0 -0.227906405
N  N368  1  0.60119000  0.86787000  0.92433000  1.0 -0.227906405
N  N369  1  0.32567000  0.64881000  0.64339000  1.0 -0.227906405
N  N370  1  0.60119000  0.92433000  0.60661000  1.0 -0.227906405
N  N371  1  0.60661000  0.86787000  0.60119000  1.0 -0.227906405
N  N372  1  0.64339000  0.38213000  0.32567000  1.0 -0.227906405
N  N373  1  0.32567000  0.64339000  0.38213000  1.0 -0.227906405
N  N374  1  0.60119000  0.60661000  0.86787000  1.0 -0.227906405
N  N375  1  0.38213000  0.32567000  0.64339000  1.0 -0.227906405
N  N376  1  0.86787000  0.60119000  0.60661000  1.0 -0.227906405
N  N377  1  0.86787000  0.92433000  0.60119000  1.0 -0.227906405
N  N378  1  0.92433000  0.60661000  0.60119000  1.0 -0.227906405
N  N379  1  0.64881000  0.64339000  0.32567000  1.0 -0.227906405
N  N380  1  0.38213000  0.64881000  0.32567000  1.0 -0.227906405
N  N381  1  0.92433000  0.60119000  0.86787000  1.0 -0.227906405
N  N382  1  0.64881000  0.32567000  0.38213000  1.0 -0.227906405
N  N383  1  0.60661000  0.92433000  0.86787000  1.0 -0.227906405
N  N384  1  0.92433000  0.86787000  0.60661000  1.0 -0.227906405
N  N385  1  0.87161000  0.08599000  0.87755000  1.0 -0.4326612359
N  N386  1  0.37839000  0.16401000  0.08515000  1.0 -0.4326612359
N  N387  1  0.16401000  0.08515000  0.37839000  1.0 -0.4326612359
N  N388  1  0.08515000  0.37839000  0.16401000  1.0 -0.4326612359
N  N389  1  0.16401000  0.37245000  0.08515000  1.0 -0.4326612359
N  N390  1  0.08599000  0.16485000  0.87755000  1.0 -0.4326612359
N  N391  1  0.37245000  0.37839000  0.08515000  1.0 -0.4326612359
N  N392  1  0.16485000  0.87161000  0.87755000  1.0 -0.4353103455
N  N393  1  0.37245000  0.08515000  0.16401000  1.0 -0.4326612359
N  N394  1  0.16485000  0.87755000  0.08599000  1.0 -0.4326612359
N  N395  1  0.08599000  0.87161000  0.16485000  1.0 -0.4326612359
N  N396  1  0.16401000  0.37839000  0.37245000  1.0 -0.4326612359
N  N397  1  0.37245000  0.16401000  0.37839000  1.0 -0.4326612359
N  N398  1  0.16485000  0.08599000  0.87161000  1.0 -0.4326612359
N  N399  1  0.37839000  0.37245000  0.16401000  1.0 -0.4326612359
N  N400  1  0.87161000  0.16485000  0.08599000  1.0 -0.4326612359
N  N401  1  0.87161000  0.87755000  0.16485000  1.0 -0.4326612359
N  N402  1  0.87755000  0.08599000  0.16485000  1.0 -0.4326612359
N  N403  1  0.08515000  0.16401000  0.37245000  1.0 -0.4326612359
N  N404  1  0.37839000  0.08515000  0.37245000  1.0 -0.4326612359
N  N405  1  0.87755000  0.16485000  0.87161000  1.0 -0.4326612359
N  N406  1  0.08515000  0.37245000  0.37839000  1.0 -0.4326612359
N  N407  1  0.08599000  0.87755000  0.87161000  1.0 -0.4353103455
N  N408  1  0.87755000  0.87161000  0.08599000  1.0 -0.4326612359
N  N409  1  0.87839000  0.66401000  0.87245000  1.0 -0.4353103455
N  N410  1  0.37161000  0.58599000  0.66485000  1.0 -0.4326612359
N  N411  1  0.58599000  0.66485000  0.37161000  1.0 -0.4326612359
N  N412  1  0.66485000  0.37161000  0.58599000  1.0 -0.4326612359
N  N413  1  0.58599000  0.37755000  0.66485000  1.0 -0.4326612359
N  N414  1  0.66401000  0.58515000  0.87245000  1.0 -0.4326612359
N  N415  1  0.37755000  0.37161000  0.66485000  1.0 -0.4326612359
N  N416  1  0.58515000  0.87839000  0.87245000  1.0 -0.4353103455
N  N417  1  0.37755000  0.66485000  0.58599000  1.0 -0.4326612359
N  N418  1  0.58515000  0.87245000  0.66401000  1.0 -0.4353103455
N  N419  1  0.66401000  0.87839000  0.58515000  1.0 -0.4326612359
N  N420  1  0.58599000  0.37161000  0.37755000  1.0 -0.4326612359
N  N421  1  0.37755000  0.58599000  0.37161000  1.0 -0.4326612359
N  N422  1  0.58515000  0.66401000  0.87839000  1.0 -0.4326612359
N  N423  1  0.37161000  0.37755000  0.58599000  1.0 -0.4326612359
N  N424  1  0.87839000  0.58515000  0.66401000  1.0 -0.4326612359
N  N425  1  0.87839000  0.87245000  0.58515000  1.0 -0.4326612359
N  N426  1  0.87245000  0.66401000  0.58515000  1.0 -0.4326612359
N  N427  1  0.66485000  0.58599000  0.37755000  1.0 -0.4326612359
N  N428  1  0.37161000  0.66485000  0.37755000  1.0 -0.4353103455
N  N429  1  0.87245000  0.58515000  0.87839000  1.0 -0.4326612359
N  N430  1  0.66485000  0.37755000  0.37161000  1.0 -0.4326612359
N  N431  1  0.66401000  0.87245000  0.87839000  1.0 -0.4326612359
N  N432  1  0.87245000  0.87839000  0.66401000  1.0 -0.4326612359
N  N433  1  0.86699000  0.10653000  0.92381000  1.0 -0.2169976334
N  N434  1  0.38301000  0.14347000  0.14733000  1.0 -0.2169976334
N  N435  1  0.14347000  0.14733000  0.38301000  1.0 -0.2169976334
N  N436  1  0.14733000  0.38301000  0.14347000  1.0 -0.2169976334
N  N437  1  0.14347000  0.32619000  0.14733000  1.0 -0.2169976334
N  N438  1  0.10653000  0.10267000  0.92381000  1.0 -0.2169976334
N  N439  1  0.32619000  0.38301000  0.14733000  1.0 -0.2169976334
N  N440  1  0.10267000  0.86699000  0.92381000  1.0 -0.2169976334
N  N441  1  0.32619000  0.14733000  0.14347000  1.0 -0.2169976334
N  N442  1  0.10267000  0.92381000  0.10653000  1.0 -0.2169976334
N  N443  1  0.10653000  0.86699000  0.10267000  1.0 -0.2169976334
N  N444  1  0.14347000  0.38301000  0.32619000  1.0 -0.2169976334
N  N445  1  0.32619000  0.14347000  0.38301000  1.0 -0.2169976334
N  N446  1  0.10267000  0.10653000  0.86699000  1.0 -0.2169976334
N  N447  1  0.38301000  0.32619000  0.14347000  1.0 -0.2169976334
N  N448  1  0.86699000  0.10267000  0.10653000  1.0 -0.2169976334
N  N449  1  0.86699000  0.92381000  0.10267000  1.0 -0.2169976334
N  N450  1  0.92381000  0.10653000  0.10267000  1.0 -0.2169976334
N  N451  1  0.14733000  0.14347000  0.32619000  1.0 -0.2169976334
N  N452  1  0.38301000  0.14733000  0.32619000  1.0 -0.2169976334
N  N453  1  0.92381000  0.10267000  0.86699000  1.0 -0.2169976334
N  N454  1  0.14733000  0.32619000  0.38301000  1.0 -0.2169976334
N  N455  1  0.10653000  0.92381000  0.86699000  1.0 -0.2169976334
N  N456  1  0.92381000  0.86699000  0.10653000  1.0 -0.2169976334
N  N457  1  0.88301000  0.64347000  0.82619000  1.0 -0.2169976334
N  N458  1  0.36699000  0.60653000  0.60267000  1.0 -0.2169976334
N  N459  1  0.60653000  0.60267000  0.36699000  1.0 -0.2169976334
N  N460  1  0.60267000  0.36699000  0.60653000  1.0 -0.2169976334
N  N461  1  0.60653000  0.42381000  0.60267000  1.0 -0.2169976334
N  N462  1  0.64347000  0.64733000  0.82619000  1.0 -0.2169976334
N  N463  1  0.42381000  0.36699000  0.60267000  1.0 -0.2169976334
N  N464  1  0.64733000  0.88301000  0.82619000  1.0 -0.2169976334
N  N465  1  0.42381000  0.60267000  0.60653000  1.0 -0.2169976334
N  N466  1  0.64733000  0.82619000  0.64347000  1.0 -0.2169976334
N  N467  1  0.64347000  0.88301000  0.64733000  1.0 -0.2169976334
N  N468  1  0.60653000  0.36699000  0.42381000  1.0 -0.2169976334
N  N469  1  0.42381000  0.60653000  0.36699000  1.0 -0.2169976334
N  N470  1  0.64733000  0.64347000  0.88301000  1.0 -0.2169976334
N  N471  1  0.36699000  0.42381000  0.60653000  1.0 -0.2169976334
N  N472  1  0.88301000  0.64733000  0.64347000  1.0 -0.2169976334
N  N473  1  0.88301000  0.82619000  0.64733000  1.0 -0.2169976334
N  N474  1  0.82619000  0.64347000  0.64733000  1.0 -0.2169976334
N  N475  1  0.60267000  0.60653000  0.42381000  1.0 -0.2169976334
N  N476  1  0.36699000  0.60267000  0.42381000  1.0 -0.2169976334
N  N477  1  0.82619000  0.64733000  0.88301000  1.0 -0.2169976334
N  N478  1  0.60267000  0.42381000  0.36699000  1.0 -0.2169976334
N  N479  1  0.64347000  0.82619000  0.88301000  1.0 -0.2169976334
N  N480  1  0.82619000  0.88301000  0.64347000  1.0 -0.2169976334
N  N481  1  0.85746000  0.07732000  0.03330000  1.0 -0.4136420455
N  N482  1  0.39254000  0.17268000  0.21808000  1.0 -0.4136420455
N  N483  1  0.17268000  0.21808000  0.39254000  1.0 -0.4136420455
N  N484  1  0.21808000  0.39254000  0.17268000  1.0 -0.4136420455
N  N485  1  0.17268000  0.21670000  0.21808000  1.0 -0.4136420455
N  N486  1  0.07732000  0.03192000  0.03330000  1.0 -0.4136420455
N  N487  1  0.21670000  0.39254000  0.21808000  1.0 -0.4136420455
N  N488  1  0.03192000  0.85746000  0.03330000  1.0 -0.4136420455
N  N489  1  0.21670000  0.21808000  0.17268000  1.0 -0.4136420455
N  N490  1  0.03192000  0.03330000  0.07732000  1.0 -0.4136420455
N  N491  1  0.07732000  0.85746000  0.03192000  1.0 -0.4136420455
N  N492  1  0.17268000  0.39254000  0.21670000  1.0 -0.4136420455
N  N493  1  0.21670000  0.17268000  0.39254000  1.0 -0.4136420455
N  N494  1  0.03192000  0.07732000  0.85746000  1.0 -0.4136420455
N  N495  1  0.39254000  0.21670000  0.17268000  1.0 -0.4136420455
N  N496  1  0.85746000  0.03192000  0.07732000  1.0 -0.4136420455
N  N497  1  0.85746000  0.03330000  0.03192000  1.0 -0.4136420455
N  N498  1  0.03330000  0.07732000  0.03192000  1.0 -0.4136420455
N  N499  1  0.21808000  0.17268000  0.21670000  1.0 -0.4136420455
N  N500  1  0.39254000  0.21808000  0.21670000  1.0 -0.4136420455
N  N501  1  0.03330000  0.03192000  0.85746000  1.0 -0.4136420455
N  N502  1  0.21808000  0.21670000  0.39254000  1.0 -0.4136420455
N  N503  1  0.07732000  0.03330000  0.85746000  1.0 -0.4136420455
N  N504  1  0.03330000  0.85746000  0.07732000  1.0 -0.4136420455
N  N505  1  0.89254000  0.67268000  0.71670000  1.0 -0.4136420455
N  N506  1  0.35746000  0.57732000  0.53192000  1.0 -0.4136420455
N  N507  1  0.57732000  0.53192000  0.35746000  1.0 -0.4136420455
N  N508  1  0.53192000  0.35746000  0.57732000  1.0 -0.4136420455
N  N509  1  0.57732000  0.53330000  0.53192000  1.0 -0.4136420455
N  N510  1  0.67268000  0.71808000  0.71670000  1.0 -0.4136420455
N  N511  1  0.53330000  0.35746000  0.53192000  1.0 -0.4136420455
N  N512  1  0.71808000  0.89254000  0.71670000  1.0 -0.4136420455
N  N513  1  0.53330000  0.53192000  0.57732000  1.0 -0.4136420455
N  N514  1  0.71808000  0.71670000  0.67268000  1.0 -0.4136420455
N  N515  1  0.67268000  0.89254000  0.71808000  1.0 -0.4136420455
N  N516  1  0.57732000  0.35746000  0.53330000  1.0 -0.4136420455
N  N517  1  0.53330000  0.57732000  0.35746000  1.0 -0.4136420455
N  N518  1  0.71808000  0.67268000  0.89254000  1.0 -0.4136420455
N  N519  1  0.35746000  0.53330000  0.57732000  1.0 -0.4136420455
N  N520  1  0.89254000  0.71808000  0.67268000  1.0 -0.4136420455
N  N521  1  0.89254000  0.71670000  0.71808000  1.0 -0.4136420455
N  N522  1  0.71670000  0.67268000  0.71808000  1.0 -0.4136420455
N  N523  1  0.53192000  0.57732000  0.53330000  1.0 -0.4136420455
N  N524  1  0.35746000  0.53192000  0.53330000  1.0 -0.4136420455
N  N525  1  0.71670000  0.71808000  0.89254000  1.0 -0.4136420455
N  N526  1  0.53192000  0.53330000  0.35746000  1.0 -0.4136420455
N  N527  1  0.67268000  0.71670000  0.89254000  1.0 -0.4136420455
N  N528  1  0.71670000  0.89254000  0.67268000  1.0 -0.4136420455
O  O1  1  0.82890000  0.91170000  0.03750000  1.0 -0.2947688571
O  O2  1  0.42110000  0.33830000  0.02810000  1.0 -0.2947688571
O  O3  1  0.33830000  0.02810000  0.42110000  1.0 -0.2953818257
O  O4  1  0.02810000  0.42110000  0.33830000  1.0 -0.2953818257
O  O5  1  0.33830000  0.21250000  0.02810000  1.0 -0.2947688571
O  O6  1  0.91170000  0.22190000  0.03750000  1.0 -0.2947688571
O  O7  1  0.21250000  0.42110000  0.02810000  1.0 -0.2947688571
O  O8  1  0.22190000  0.82890000  0.03750000  1.0 -0.2947688571
O  O9  1  0.21250000  0.02810000  0.33830000  1.0 -0.2953818257
O  O10  1  0.22190000  0.03750000  0.91170000  1.0 -0.2953818257
O  O11  1  0.91170000  0.82890000  0.22190000  1.0 -0.2947688571
O  O12  1  0.33830000  0.42110000  0.21250000  1.0 -0.2953818257
O  O13  1  0.21250000  0.33830000  0.42110000  1.0 -0.2953818257
O  O14  1  0.22190000  0.91170000  0.82890000  1.0 -0.2947688571
O  O15  1  0.42110000  0.21250000  0.33830000  1.0 -0.2953818257
O  O16  1  0.82890000  0.22190000  0.91170000  1.0 -0.2953818257
O  O17  1  0.82890000  0.03750000  0.22190000  1.0 -0.2947688571
O  O18  1  0.03750000  0.91170000  0.22190000  1.0 -0.2947688571
O  O19  1  0.02810000  0.33830000  0.21250000  1.0 -0.2953818257
O  O20  1  0.42110000  0.02810000  0.21250000  1.0 -0.2953818257
O  O21  1  0.03750000  0.22190000  0.82890000  1.0 -0.2953818257
O  O22  1  0.02810000  0.21250000  0.42110000  1.0 -0.2953818257
O  O23  1  0.91170000  0.03750000  0.82890000  1.0 -0.2947688571
O  O24  1  0.03750000  0.82890000  0.91170000  1.0 -0.2947688571
O  O25  1  0.92110000  0.83830000  0.71250000  1.0 -0.2947688571
O  O26  1  0.32890000  0.41170000  0.72190000  1.0 -0.2953818257
O  O27  1  0.41170000  0.72190000  0.32890000  1.0 -0.2947688571
O  O28  1  0.72190000  0.32890000  0.41170000  1.0 -0.2953818257
O  O29  1  0.41170000  0.53750000  0.72190000  1.0 -0.2947688571
O  O30  1  0.83830000  0.52810000  0.71250000  1.0 -0.2947688571
O  O31  1  0.53750000  0.32890000  0.72190000  1.0 -0.2953818257
O  O32  1  0.52810000  0.92110000  0.71250000  1.0 -0.2947688571
O  O33  1  0.53750000  0.72190000  0.41170000  1.0 -0.2947688571
O  O34  1  0.52810000  0.71250000  0.83830000  1.0 -0.2947688571
O  O35  1  0.83830000  0.92110000  0.52810000  1.0 -0.2947688571
O  O36  1  0.41170000  0.32890000  0.53750000  1.0 -0.2953818257
O  O37  1  0.53750000  0.41170000  0.32890000  1.0 -0.2947688571
O  O38  1  0.52810000  0.83830000  0.92110000  1.0 -0.2947688571
O  O39  1  0.32890000  0.53750000  0.41170000  1.0 -0.2947688571
O  O40  1  0.92110000  0.52810000  0.83830000  1.0 -0.2947688571
O  O41  1  0.92110000  0.71250000  0.52810000  1.0 -0.2947688571
O  O42  1  0.71250000  0.83830000  0.52810000  1.0 -0.2947688571
O  O43  1  0.72190000  0.41170000  0.53750000  1.0 -0.2947688571
O  O44  1  0.32890000  0.72190000  0.53750000  1.0 -0.2947688571
O  O45  1  0.71250000  0.52810000  0.92110000  1.0 -0.2947688571
O  O46  1  0.72190000  0.53750000  0.32890000  1.0 -0.2947688571
O  O47  1  0.83830000  0.71250000  0.92110000  1.0 -0.2947688571
O  O48  1  0.71250000  0.92110000  0.83830000  1.0 -0.2947688571
