# DDEC6 charges by PACMAN v1.1 (https://github.com/mtap-research/PACMAN-charge/)
data_FALROB_FSR_pacman
_symmetry_space_group_name_H-M   'P 1'
_cell_length_a   13.68300000
_cell_length_b   13.68300000
_cell_length_c   8.78710000
_cell_angle_alpha   82.48860000
_cell_angle_beta   97.51140000
_cell_angle_gamma   86.67180000
_symmetry_Int_Tables_number   1
_chemical_formula_structural   ZnH24(C13N4)2
_chemical_formula_sum   'Zn2 H48 C52 N16'
_cell_volume   1612.31430776
_cell_formula_units_Z   2
loop_
 _symmetry_equiv_pos_site_id
 _symmetry_equiv_pos_as_xyz
  1  'x, y, z'
loop_
 _atom_site_type_symbol
 _atom_site_label
 _atom_site_symmetry_multiplicity
 _atom_site_fract_x
 _atom_site_fract_y
 _atom_site_fract_z
 _atom_site_occupancy
 _atom_site_charge
Zn  Zn1  1  0.82488000  0.82488000  0.25000000  1.0 0.664720557
Zn  Zn2  1  0.17512000  0.17512000  0.75000000  1.0 0.6656276801
H  H1  1  0.69450000  0.00350000  0.31970000  1.0 0.090838793
H  H2  1  0.00350000  0.69450000  0.18030000  1.0 0.090838793
H  H3  1  0.92670000  0.00950000  0.10770000  1.0 0.090838793
H  H4  1  0.00950000  0.92670000  0.39230000  1.0 0.090838793
H  H5  1  0.92080000  0.17700000  0.08410000  1.0 0.1179902659
H  H6  1  0.17700000  0.92080000  0.41590000  1.0 0.1179902659
H  H7  1  0.68060000  0.17280000  0.29280000  1.0 0.127560491
H  H8  1  0.17280000  0.68060000  0.20720000  1.0 0.127560491
H  H9  1  0.90210000  0.32150000  0.33410000  1.0 0.127560491
H  H10  1  0.32150000  0.90210000  0.16590000  1.0 0.127560491
H  H11  1  0.79910000  0.32370000  0.39270000  1.0 0.1179902659
H  H12  1  0.32370000  0.79910000  0.10730000  1.0 0.1179902659
H  H13  1  0.76050000  0.66310000  0.06730000  1.0 0.1001311981
H  H14  1  0.66310000  0.76050000  0.43270000  1.0 0.1001311981
H  H15  1  0.76230000  0.49550000  0.07090000  1.0 0.127560491
H  H16  1  0.49550000  0.76230000  0.42910000  1.0 0.127560491
H  H17  1  0.89390000  0.46670000  0.51150000  1.0 0.127560491
H  H18  1  0.46670000  0.89390000  0.98850000  1.0 0.127560491
H  H19  1  0.89020000  0.63320000  0.49080000  1.0 0.1001311981
H  H20  1  0.63320000  0.89020000  0.00920000  1.0 0.1001311981
H  H21  1  0.82410000  0.33210000  0.08320000  1.0 0.1092264012
H  H22  1  0.33210000  0.82410000  0.41680000  1.0 0.1092264012
H  H23  1  0.72200000  0.32980000  0.14550000  1.0 0.1092264012
H  H24  1  0.32980000  0.72200000  0.35450000  1.0 0.1092264012
H  H25  1  0.30550000  0.99650000  0.68030000  1.0 0.090838793
H  H26  1  0.99650000  0.30550000  0.81970000  1.0 0.090838793
H  H27  1  0.07330000  0.99050000  0.89230000  1.0 0.090838793
H  H28  1  0.99050000  0.07330000  0.60770000  1.0 0.090838793
H  H29  1  0.07920000  0.82300000  0.91590000  1.0 0.1179902659
H  H30  1  0.82300000  0.07920000  0.58410000  1.0 0.1179902659
H  H31  1  0.31940000  0.82720000  0.70720000  1.0 0.127560491
H  H32  1  0.82720000  0.31940000  0.79280000  1.0 0.127560491
H  H33  1  0.09790000  0.67850000  0.66590000  1.0 0.127560491
H  H34  1  0.67850000  0.09790000  0.83410000  1.0 0.127560491
H  H35  1  0.20090000  0.67630000  0.60730000  1.0 0.1179902659
H  H36  1  0.67630000  0.20090000  0.89270000  1.0 0.1179902659
H  H37  1  0.23950000  0.33690000  0.93270000  1.0 0.1001311981
H  H38  1  0.33690000  0.23950000  0.56730000  1.0 0.1001311981
H  H39  1  0.23770000  0.50450000  0.92910000  1.0 0.127560491
H  H40  1  0.50450000  0.23770000  0.57090000  1.0 0.127560491
H  H41  1  0.10610000  0.53330000  0.48850000  1.0 0.127560491
H  H42  1  0.53330000  0.10610000  0.01150000  1.0 0.127560491
H  H43  1  0.10980000  0.36680000  0.50920000  1.0 0.1001311981
H  H44  1  0.36680000  0.10980000  0.99080000  1.0 0.1001311981
H  H45  1  0.17590000  0.66790000  0.91680000  1.0 0.1092264012
H  H46  1  0.66790000  0.17590000  0.58320000  1.0 0.1092264012
H  H47  1  0.27800000  0.67020000  0.85450000  1.0 0.1092264012
H  H48  1  0.67020000  0.27800000  0.64550000  1.0 0.1092264012
C  C1  1  0.74060000  0.03860000  0.27100000  1.0 0.0520475869
C  C2  1  0.03860000  0.74060000  0.22900000  1.0 0.0520475869
C  C3  1  0.87670000  0.04250000  0.14800000  1.0 0.0558025532
C  C4  1  0.04250000  0.87670000  0.35200000  1.0 0.0520475869
C  C5  1  0.87350000  0.14350000  0.13260000  1.0 -0.2124143224
C  C6  1  0.14350000  0.87350000  0.36740000  1.0 -0.2124143224
C  C7  1  0.80050000  0.19550000  0.18890000  1.0 0.1444598057
C  C8  1  0.19550000  0.80050000  0.31110000  1.0 0.1444598057
C  C9  1  0.73270000  0.14070000  0.25630000  1.0 -0.2124143224
C  C10  1  0.14070000  0.73270000  0.24370000  1.0 -0.2124143224
C  C11  1  0.83370000  0.34750000  0.30730000  1.0 -0.2472672825
C  C12  1  0.34750000  0.83370000  0.19270000  1.0 -0.2472672825
C  C13  1  0.78900000  0.62240000  0.15720000  1.0 0.0812528946
C  C14  1  0.62240000  0.78900000  0.34280000  1.0 0.0812528946
C  C15  1  0.78910000  0.52150000  0.15830000  1.0 -0.2124143224
C  C16  1  0.52150000  0.78910000  0.34170000  1.0 -0.2124143224
C  C17  1  0.86730000  0.50470000  0.41810000  1.0 -0.2166760831
C  C18  1  0.50470000  0.86730000  0.08190000  1.0 -0.2166760831
C  C19  1  0.86460000  0.60480000  0.40510000  1.0 0.0520475869
C  C20  1  0.60480000  0.86460000  0.09490000  1.0 0.0520475869
C  C21  1  0.84620000  0.84960000  0.88100000  1.0 0.2952574411
C  C22  1  0.84960000  0.84620000  0.61900000  1.0 0.2952574411
C  C23  1  0.79140000  0.30680000  0.17010000  1.0 -0.243999832
C  C24  1  0.30680000  0.79140000  0.32990000  1.0 -0.243999832
C  C25  1  0.83070000  0.45850000  0.29390000  1.0 0.1644833603
C  C26  1  0.45850000  0.83070000  0.20610000  1.0 0.1644833603
C  C27  1  0.25940000  0.96140000  0.72900000  1.0 0.0520475869
C  C28  1  0.96140000  0.25940000  0.77100000  1.0 0.0520475869
C  C29  1  0.12330000  0.95750000  0.85200000  1.0 0.0520475869
C  C30  1  0.95750000  0.12330000  0.64800000  1.0 0.0520475869
C  C31  1  0.12650000  0.85650000  0.86740000  1.0 -0.2124143224
C  C32  1  0.85650000  0.12650000  0.63260000  1.0 -0.2124143224
C  C33  1  0.19950000  0.80450000  0.81110000  1.0 0.1444598057
C  C34  1  0.80450000  0.19950000  0.68890000  1.0 0.1444598057
C  C35  1  0.26730000  0.85930000  0.74370000  1.0 -0.2124143224
C  C36  1  0.85930000  0.26730000  0.75630000  1.0 -0.2124143224
C  C37  1  0.16630000  0.65250000  0.69270000  1.0 -0.2472672825
C  C38  1  0.65250000  0.16630000  0.80730000  1.0 -0.2472672825
C  C39  1  0.21100000  0.37760000  0.84280000  1.0 0.0812528946
C  C40  1  0.37760000  0.21100000  0.65720000  1.0 0.0812528946
C  C41  1  0.21090000  0.47850000  0.84170000  1.0 -0.2124143224
C  C42  1  0.47850000  0.21090000  0.65830000  1.0 -0.2124143224
C  C43  1  0.13270000  0.49530000  0.58190000  1.0 -0.2166760831
C  C44  1  0.49530000  0.13270000  0.91810000  1.0 -0.2166760831
C  C45  1  0.13540000  0.39520000  0.59490000  1.0 0.0520475869
C  C46  1  0.39520000  0.13540000  0.90510000  1.0 0.0520475869
C  C47  1  0.15380000  0.15040000  0.11900000  1.0 0.2952574411
C  C48  1  0.15040000  0.15380000  0.38100000  1.0 0.2952574411
C  C49  1  0.20860000  0.69320000  0.82990000  1.0 -0.2472672825
C  C50  1  0.69320000  0.20860000  0.67010000  1.0 -0.243999832
C  C51  1  0.16930000  0.54150000  0.70610000  1.0 0.1644833603
C  C52  1  0.54150000  0.16930000  0.79390000  1.0 0.1644833603
N  N1  1  0.82680000  0.66460000  0.27520000  1.0 -0.2166760831
N  N2  1  0.66460000  0.82680000  0.22480000  1.0 -0.2166760831
N  N3  1  0.81360000  0.98880000  0.21640000  1.0 -0.2472672825
N  N4  1  0.98880000  0.81360000  0.28360000  1.0 -0.2472672825
N  N5  1  0.83010000  0.83490000  0.00360000  1.0 -0.5764288685
N  N6  1  0.83490000  0.83010000  0.49640000  1.0 -0.573996105
N  N7  1  0.88890000  0.86090000  0.75500000  1.0 -0.1359702728
N  N8  1  0.86090000  0.88890000  0.74500000  1.0 -0.1359702728
N  N9  1  0.17320000  0.33540000  0.72480000  1.0 -0.2166760831
N  N10  1  0.33540000  0.17320000  0.77520000  1.0 -0.2166760831
N  N11  1  0.18640000  0.01120000  0.78360000  1.0 -0.2472672825
N  N12  1  0.01120000  0.18640000  0.71640000  1.0 -0.2472672825
N  N13  1  0.16990000  0.16510000  0.99640000  1.0 -0.5764288685
N  N14  1  0.16510000  0.16990000  0.50360000  1.0 -0.5764288685
N  N15  1  0.11110000  0.13910000  0.24500000  1.0 -0.1359702728
N  N16  1  0.13910000  0.11110000  0.25500000  1.0 -0.1359702728
