# DDEC6 charges by PACMAN v1.1 (https://github.com/mtap-research/PACMAN-charge/)
data_FALRIV_ASR_pacman
_symmetry_space_group_name_H-M   'P 1'
_cell_length_a   13.66870000
_cell_length_b   13.66870000
_cell_length_c   8.77340000
_cell_angle_alpha   82.49170000
_cell_angle_beta   97.50830000
_cell_angle_gamma   86.76380000
_symmetry_Int_Tables_number   1
_chemical_formula_structural   ZnH24(C13N4)2
_chemical_formula_sum   'Zn2 H48 C52 N16'
_cell_volume   1606.66160874
_cell_formula_units_Z   2
loop_
 _symmetry_equiv_pos_site_id
 _symmetry_equiv_pos_as_xyz
  1  'x, y, z'
loop_
 _atom_site_type_symbol
 _atom_site_label
 _atom_site_symmetry_multiplicity
 _atom_site_fract_x
 _atom_site_fract_y
 _atom_site_fract_z
 _atom_site_occupancy
 _atom_site_charge
Zn  Zn1  1  0.67525000  0.67525000  0.25000000  1.0 0.6645719338
Zn  Zn2  1  0.32475000  0.32475000  0.75000000  1.0 0.6645719338
H  H1  1  0.82020000  0.32620000  0.21000000  1.0 0.1225287743
H  H2  1  0.32620000  0.82020000  0.29000000  1.0 0.1225287743
H  H3  1  0.57760000  0.32280000  0.41040000  1.0 0.1107046632
H  H4  1  0.32280000  0.57760000  0.08960000  1.0 0.1107046632
H  H5  1  0.80360000  0.49680000  0.17730000  1.0 0.0904394504
H  H6  1  0.49680000  0.80360000  0.32270000  1.0 0.0904394504
H  H7  1  0.60930000  0.86590000  0.00980000  1.0 0.0987299349
H  H8  1  0.86590000  0.60930000  0.49020000  1.0 0.0987299349
H  H9  1  0.74530000  0.00430000  0.42250000  1.0 0.1291412938
H  H10  1  0.00430000  0.74530000  0.07750000  1.0 0.1291412938
H  H11  1  0.57400000  0.48960000  0.39470000  1.0 0.0904394504
H  H12  1  0.48960000  0.57400000  0.10530000  1.0 0.0904394504
H  H13  1  0.60560000  0.03460000  0.99090000  1.0 0.1291412938
H  H14  1  0.03460000  0.60560000  0.50910000  1.0 0.1291412938
H  H15  1  0.70310000  0.17470000  0.11200000  1.0 0.1225287743
H  H16  1  0.17470000  0.70310000  0.38800000  1.0 0.1225287743
H  H17  1  0.59890000  0.17610000  0.16700000  1.0 0.1225287743
H  H18  1  0.17610000  0.59890000  0.33300000  1.0 0.1225287743
H  H19  1  0.73930000  0.83750000  0.43390000  1.0 0.0987299349
H  H20  1  0.83750000  0.73930000  0.06610000  1.0 0.0987299349
H  H21  1  0.77570000  0.16750000  0.35890000  1.0 0.1107046632
H  H22  1  0.16750000  0.77570000  0.14110000  1.0 0.1107046632
H  H23  1  0.67210000  0.16630000  0.41630000  1.0 0.1107046632
H  H24  1  0.16630000  0.67210000  0.08370000  1.0 0.1107046632
H  H25  1  0.17980000  0.67380000  0.79000000  1.0 0.1225287743
H  H26  1  0.67380000  0.17980000  0.71000000  1.0 0.1225287743
H  H27  1  0.42240000  0.67720000  0.58960000  1.0 0.1107046632
H  H28  1  0.67720000  0.42240000  0.91040000  1.0 0.1107046632
H  H29  1  0.19640000  0.50320000  0.82270000  1.0 0.0904394504
H  H30  1  0.50320000  0.19640000  0.67730000  1.0 0.0904394504
H  H31  1  0.39070000  0.13410000  0.99020000  1.0 0.0987299349
H  H32  1  0.13410000  0.39070000  0.50980000  1.0 0.0987299349
H  H33  1  0.25470000  0.99570000  0.57750000  1.0 0.1291412938
H  H34  1  0.99570000  0.25470000  0.92250000  1.0 0.1291412938
H  H35  1  0.42600000  0.51040000  0.60530000  1.0 0.0904394504
H  H36  1  0.51040000  0.42600000  0.89470000  1.0 0.0904394504
H  H37  1  0.39440000  0.96540000  0.00910000  1.0 0.1291412938
H  H38  1  0.96540000  0.39440000  0.49090000  1.0 0.1291412938
H  H39  1  0.29690000  0.82530000  0.88800000  1.0 0.1225287743
H  H40  1  0.82530000  0.29690000  0.61200000  1.0 0.1225287743
H  H41  1  0.40110000  0.82390000  0.83300000  1.0 0.1225287743
H  H42  1  0.82390000  0.40110000  0.66700000  1.0 0.1225287743
H  H43  1  0.26070000  0.16250000  0.56610000  1.0 0.0987299349
H  H44  1  0.16250000  0.26070000  0.93390000  1.0 0.0987299349
H  H45  1  0.22430000  0.83250000  0.64110000  1.0 0.1107046632
H  H46  1  0.83250000  0.22430000  0.85890000  1.0 0.1107046632
H  H47  1  0.32790000  0.83370000  0.58370000  1.0 0.1107046632
H  H48  1  0.83370000  0.32790000  0.91630000  1.0 0.1107046632
C  C1  1  0.76780000  0.35880000  0.24540000  1.0 -0.2088525006
C  C2  1  0.35880000  0.76780000  0.25460000  1.0 -0.2088525006
C  C3  1  0.67060000  0.04040000  0.20800000  1.0 0.1567448753
C  C4  1  0.04040000  0.67060000  0.29200000  1.0 0.1567448753
C  C5  1  0.62640000  0.35640000  0.36580000  1.0 -0.2088525006
C  C6  1  0.35640000  0.62640000  0.13420000  1.0 -0.2088525006
C  C7  1  0.75830000  0.46150000  0.22840000  1.0 0.0501928221
C  C8  1  0.46150000  0.75830000  0.27160000  1.0 0.0501928221
C  C9  1  0.63510000  0.89430000  0.09560000  1.0 0.0613722413
C  C10  1  0.89430000  0.63510000  0.40440000  1.0 0.0613722413
C  C11  1  0.71410000  0.97810000  0.33780000  1.0 -0.2088525006
C  C12  1  0.97810000  0.71410000  0.16220000  1.0 -0.2088525006
C  C13  1  0.69950000  0.30550000  0.31480000  1.0 0.1437036138
C  C14  1  0.30550000  0.69950000  0.18520000  1.0 0.1437036138
C  C15  1  0.62330000  0.45710000  0.35240000  1.0 0.0333903193
C  C16  1  0.45710000  0.62330000  0.14760000  1.0 0.0333903193
C  C17  1  0.63270000  0.99590000  0.08350000  1.0 -0.2191205245
C  C18  1  0.99590000  0.63270000  0.41650000  1.0 -0.2191205245
C  C19  1  0.66740000  0.15040000  0.19610000  1.0 -0.2482017164
C  C20  1  0.15040000  0.66740000  0.30390000  1.0 -0.2482017164
C  C21  1  0.71190000  0.87770000  0.34290000  1.0 0.071881695
C  C22  1  0.87770000  0.71190000  0.15710000  1.0 0.071881695
C  C23  1  0.64970000  0.65470000  0.88210000  1.0 0.2902370844
C  C24  1  0.65470000  0.64970000  0.61790000  1.0 0.2902370844
C  C25  1  0.70670000  0.19130000  0.33120000  1.0 -0.2395556156
C  C26  1  0.19130000  0.70670000  0.16880000  1.0 -0.2395556156
C  C27  1  0.23220000  0.64120000  0.75460000  1.0 -0.2088525006
C  C28  1  0.64120000  0.23220000  0.74540000  1.0 -0.2088525006
C  C29  1  0.32940000  0.95960000  0.79200000  1.0 0.1567448753
C  C30  1  0.95960000  0.32940000  0.70800000  1.0 0.1567448753
C  C31  1  0.37360000  0.64360000  0.63420000  1.0 -0.2088525006
C  C32  1  0.64360000  0.37360000  0.86580000  1.0 -0.2088525006
C  C33  1  0.24170000  0.53850000  0.77160000  1.0 0.0501928221
C  C34  1  0.53850000  0.24170000  0.72840000  1.0 0.0501928221
C  C35  1  0.36490000  0.10570000  0.90440000  1.0 0.0613722413
C  C36  1  0.10570000  0.36490000  0.59560000  1.0 0.0613722413
C  C37  1  0.28590000  0.02190000  0.66220000  1.0 -0.2088525006
C  C38  1  0.02190000  0.28590000  0.83780000  1.0 -0.2088525006
C  C39  1  0.30050000  0.69450000  0.68520000  1.0 0.1437036138
C  C40  1  0.69450000  0.30050000  0.81480000  1.0 0.1437036138
C  C41  1  0.37670000  0.54290000  0.64760000  1.0 0.0333903193
C  C42  1  0.54290000  0.37670000  0.85240000  1.0 0.0333903193
C  C43  1  0.36730000  0.00410000  0.91650000  1.0 -0.2191205245
C  C44  1  0.00410000  0.36730000  0.58350000  1.0 -0.2191205245
C  C45  1  0.33260000  0.84960000  0.80390000  1.0 -0.2482017164
C  C46  1  0.84960000  0.33260000  0.69610000  1.0 -0.2482017164
C  C47  1  0.28810000  0.12230000  0.65710000  1.0 0.071881695
C  C48  1  0.12230000  0.28810000  0.84290000  1.0 0.071881695
C  C49  1  0.35030000  0.34530000  0.11790000  1.0 0.2902370844
C  C50  1  0.34530000  0.35030000  0.38210000  1.0 0.2902370844
C  C51  1  0.29330000  0.80870000  0.66880000  1.0 -0.2395556156
C  C52  1  0.80870000  0.29330000  0.83120000  1.0 -0.2395556156
N  N1  1  0.68640000  0.51160000  0.28280000  1.0 -0.2482017164
N  N2  1  0.51160000  0.68640000  0.21720000  1.0 -0.2482017164
N  N3  1  0.67270000  0.83530000  0.22480000  1.0 -0.2191205245
N  N4  1  0.83530000  0.67270000  0.27520000  1.0 -0.2191205245
N  N5  1  0.66450000  0.67090000  0.00380000  1.0 -0.5695480924
N  N6  1  0.67090000  0.66450000  0.49620000  1.0 -0.5695480924
N  N7  1  0.60980000  0.63980000  0.73900000  1.0 -0.1043005657
N  N8  1  0.63980000  0.60980000  0.76100000  1.0 -0.1043005657
N  N9  1  0.31360000  0.48840000  0.71720000  1.0 -0.2482017164
N  N10  1  0.48840000  0.31360000  0.78280000  1.0 -0.2482017164
N  N11  1  0.32730000  0.16470000  0.77520000  1.0 -0.2191205245
N  N12  1  0.16470000  0.32730000  0.72480000  1.0 -0.2191205245
N  N13  1  0.33550000  0.32910000  0.99620000  1.0 -0.5695480924
N  N14  1  0.32910000  0.33550000  0.50380000  1.0 -0.5695480924
N  N15  1  0.39020000  0.36020000  0.26100000  1.0 -0.107348628
N  N16  1  0.36020000  0.39020000  0.23900000  1.0 -0.107348628
