# DDEC6 charges by PACMAN v1.1 (https://github.com/mtap-research/PACMAN-charge/)
data_FALSAO_FSR_pacman
_symmetry_space_group_name_H-M   'P 1'
_cell_length_a   13.63020000
_cell_length_b   13.63020000
_cell_length_c   8.70930000
_cell_angle_alpha   82.85450000
_cell_angle_beta   97.14550000
_cell_angle_gamma   85.54000000
_symmetry_Int_Tables_number   1
_chemical_formula_structural   CoH24(C13N4)2
_chemical_formula_sum   'Co2 H48 C52 N16'
_cell_volume   1585.83947803
_cell_formula_units_Z   2
loop_
 _symmetry_equiv_pos_site_id
 _symmetry_equiv_pos_as_xyz
  1  'x, y, z'
loop_
 _atom_site_type_symbol
 _atom_site_label
 _atom_site_symmetry_multiplicity
 _atom_site_fract_x
 _atom_site_fract_y
 _atom_site_fract_z
 _atom_site_occupancy
 _atom_site_charge
Co  Co1  1  0.17504000  0.17504000  0.75000000  1.0 0.6743025441
Co  Co2  1  0.82496000  0.82496000  0.25000000  1.0 0.6743025441
H  H1  1  0.10650000  0.36690000  0.50950000  1.0 0.100981065
H  H2  1  0.36690000  0.10650000  0.99050000  1.0 0.100981065
H  H3  1  0.24540000  0.33640000  0.93210000  1.0 0.100981065
H  H4  1  0.33640000  0.24540000  0.56790000  1.0 0.100981065
H  H5  1  0.10520000  0.53540000  0.48930000  1.0 0.1207468618
H  H6  1  0.53540000  0.10520000  0.01070000  1.0 0.1207468618
H  H7  1  0.30660000  0.99500000  0.68290000  1.0 0.0901748833
H  H8  1  0.99500000  0.30660000  0.81710000  1.0 0.0901748833
H  H9  1  0.24680000  0.50440000  0.92300000  1.0 0.1271266301
H  H10  1  0.50440000  0.24680000  0.57700000  1.0 0.1271266301
H  H11  1  0.07510000  0.99430000  0.89990000  1.0 0.0901748833
H  H12  1  0.99430000  0.07510000  0.60010000  1.0 0.0901748833
H  H13  1  0.07960000  0.82500000  0.91780000  1.0 0.1114561182
H  H14  1  0.82500000  0.07960000  0.58220000  1.0 0.1114561182
H  H15  1  0.27410000  0.66570000  0.86910000  1.0 0.1114561182
H  H16  1  0.66570000  0.27410000  0.63090000  1.0 0.1114561182
H  H17  1  0.16740000  0.67060000  0.91890000  1.0 0.100981065
H  H18  1  0.67060000  0.16740000  0.58110000  1.0 0.100981065
H  H19  1  0.32420000  0.82460000  0.71320000  1.0 0.1271266301
H  H20  1  0.82460000  0.32420000  0.78680000  1.0 0.1271266301
H  H21  1  0.20490000  0.67630000  0.61080000  1.0 0.1207468618
H  H22  1  0.67630000  0.20490000  0.88920000  1.0 0.1207468618
H  H23  1  0.09890000  0.67910000  0.66220000  1.0 0.1207468618
H  H24  1  0.67910000  0.09890000  0.83780000  1.0 0.1207468618
H  H25  1  0.89350000  0.63310000  0.49050000  1.0 0.100981065
H  H26  1  0.63310000  0.89350000  0.00950000  1.0 0.100981065
H  H27  1  0.75460000  0.66360000  0.06790000  1.0 0.100981065
H  H28  1  0.66360000  0.75460000  0.43210000  1.0 0.100981065
H  H29  1  0.89480000  0.46460000  0.51070000  1.0 0.1207468618
H  H30  1  0.46460000  0.89480000  0.98930000  1.0 0.1207468618
H  H31  1  0.69340000  0.00500000  0.31710000  1.0 0.0901748833
H  H32  1  0.00500000  0.69340000  0.18290000  1.0 0.0901748833
H  H33  1  0.75320000  0.49560000  0.07700000  1.0 0.1271266301
H  H34  1  0.49560000  0.75320000  0.42300000  1.0 0.1271266301
H  H35  1  0.92490000  0.00570000  0.10010000  1.0 0.0901748833
H  H36  1  0.00570000  0.92490000  0.39990000  1.0 0.0901748833
H  H37  1  0.92040000  0.17500000  0.08220000  1.0 0.1114561182
H  H38  1  0.17500000  0.92040000  0.41780000  1.0 0.1114561182
H  H39  1  0.72590000  0.33430000  0.13090000  1.0 0.1114561182
H  H40  1  0.33430000  0.72590000  0.36910000  1.0 0.1114561182
H  H41  1  0.83260000  0.32940000  0.08110000  1.0 0.100981065
H  H42  1  0.32940000  0.83260000  0.41890000  1.0 0.100981065
H  H43  1  0.67580000  0.17540000  0.28680000  1.0 0.1271266301
H  H44  1  0.17540000  0.67580000  0.21320000  1.0 0.1271266301
H  H45  1  0.79510000  0.32370000  0.38920000  1.0 0.1207468618
H  H46  1  0.32370000  0.79510000  0.11080000  1.0 0.1207468618
H  H47  1  0.90110000  0.32090000  0.33780000  1.0 0.1207468618
H  H48  1  0.32090000  0.90110000  0.16220000  1.0 0.1207468618
C  C1  1  0.13423000  0.39477000  0.59500000  1.0 0.0619508379
C  C2  1  0.39477000  0.13423000  0.90500000  1.0 0.0619508379
C  C3  1  0.21531000  0.37695000  0.84210000  1.0 0.0798644308
C  C4  1  0.37695000  0.21531000  0.65790000  1.0 0.0798644308
C  C5  1  0.13295000  0.49655000  0.58230000  1.0 -0.2209882106
C  C6  1  0.49655000  0.13295000  0.91770000  1.0 -0.2209882106
C  C7  1  0.17229000  0.54109000  0.70600000  1.0 0.1589462754
C  C8  1  0.54109000  0.17229000  0.79400000  1.0 0.1589462754
C  C9  1  0.26045000  0.96059000  0.73250000  1.0 0.0661354024
C  C10  1  0.96059000  0.26045000  0.76750000  1.0 0.0661354024
C  C11  1  0.21646000  0.47826000  0.83760000  1.0 -0.2086648386
C  C12  1  0.47826000  0.21646000  0.66240000  1.0 -0.2086648386
C  C13  1  0.12431000  0.96017000  0.85690000  1.0 0.0335720588
C  C14  1  0.96017000  0.12431000  0.64310000  1.0 0.0335720588
C  C15  1  0.20087000  0.80427000  0.81650000  1.0 0.1461237703
C  C16  1  0.80427000  0.20087000  0.68350000  1.0 0.1461237703
C  C17  1  0.12780000  0.85760000  0.87080000  1.0 -0.2086648386
C  C18  1  0.85760000  0.12780000  0.62920000  1.0 -0.2086648386
C  C19  1  0.15286000  0.15206000  0.11640000  1.0 0.2909226675
C  C20  1  0.15206000  0.15286000  0.38360000  1.0 0.2909226675
C  C21  1  0.20560000  0.69260000  0.83640000  1.0 -0.2476040141
C  C22  1  0.69260000  0.20560000  0.66360000  1.0 -0.2476040141
C  C23  1  0.27080000  0.85760000  0.74820000  1.0 -0.2209882106
C  C24  1  0.85760000  0.27080000  0.75180000  1.0 -0.2209882106
C  C25  1  0.16760000  0.65240000  0.69340000  1.0 -0.2476040141
C  C26  1  0.65240000  0.16760000  0.80660000  1.0 -0.2476040141
C  C27  1  0.86577000  0.60523000  0.40500000  1.0 0.0619508379
C  C28  1  0.60523000  0.86577000  0.09500000  1.0 0.0619508379
C  C29  1  0.78469000  0.62305000  0.15790000  1.0 0.0798644308
C  C30  1  0.62305000  0.78469000  0.34210000  1.0 0.0798644308
C  C31  1  0.86705000  0.50345000  0.41770000  1.0 -0.2209882106
C  C32  1  0.50345000  0.86705000  0.08230000  1.0 -0.2209882106
C  C33  1  0.82771000  0.45891000  0.29400000  1.0 0.1589462754
C  C34  1  0.45891000  0.82771000  0.20600000  1.0 0.1589462754
C  C35  1  0.73955000  0.03941000  0.26750000  1.0 0.0661354024
C  C36  1  0.03941000  0.73955000  0.23250000  1.0 0.0661354024
C  C37  1  0.78354000  0.52174000  0.16240000  1.0 -0.2086648386
C  C38  1  0.52174000  0.78354000  0.33760000  1.0 -0.2086648386
C  C39  1  0.87569000  0.03983000  0.14310000  1.0 0.0355469805
C  C40  1  0.03983000  0.87569000  0.35690000  1.0 0.0335720588
C  C41  1  0.79913000  0.19573000  0.18350000  1.0 0.1461237703
C  C42  1  0.19573000  0.79913000  0.31650000  1.0 0.1461237703
C  C43  1  0.87220000  0.14240000  0.12920000  1.0 -0.2086648386
C  C44  1  0.14240000  0.87220000  0.37080000  1.0 -0.2086648386
C  C45  1  0.84714000  0.84794000  0.88360000  1.0 0.2909226675
C  C46  1  0.84794000  0.84714000  0.61640000  1.0 0.2909226675
C  C47  1  0.79440000  0.30740000  0.16360000  1.0 -0.2476040141
C  C48  1  0.30740000  0.79440000  0.33640000  1.0 -0.2476040141
C  C49  1  0.72920000  0.14240000  0.25180000  1.0 -0.2209882106
C  C50  1  0.14240000  0.72920000  0.24820000  1.0 -0.2209882106
C  C51  1  0.83240000  0.34760000  0.30660000  1.0 -0.2476040141
C  C52  1  0.34760000  0.83240000  0.19340000  1.0 -0.2476040141
N  N1  1  0.17340000  0.33406000  0.72440000  1.0 -0.2302237194
N  N2  1  0.33406000  0.17340000  0.77560000  1.0 -0.2302237194
N  N3  1  0.16924000  0.16694000  0.99250000  1.0 -0.5681602847
N  N4  1  0.16694000  0.16924000  0.50750000  1.0 -0.5681602847
N  N5  1  0.18834000  0.01244000  0.78450000  1.0 -0.2476040141
N  N6  1  0.01244000  0.18834000  0.71550000  1.0 -0.2476040141
N  N7  1  0.14010000  0.11050000  0.25450000  1.0 -0.0973573442
N  N8  1  0.11050000  0.14010000  0.24550000  1.0 -0.0973573442
N  N9  1  0.82660000  0.66594000  0.27560000  1.0 -0.2302237194
N  N10  1  0.66594000  0.82660000  0.22440000  1.0 -0.2302237194
N  N11  1  0.83076000  0.83306000  0.00750000  1.0 -0.5681602847
N  N12  1  0.83306000  0.83076000  0.49250000  1.0 -0.5681602847
N  N13  1  0.81166000  0.98756000  0.21550000  1.0 -0.2476040141
N  N14  1  0.98756000  0.81166000  0.28450000  1.0 -0.2476040141
N  N15  1  0.85990000  0.88950000  0.74550000  1.0 -0.0973573442
N  N16  1  0.88950000  0.85990000  0.75450000  1.0 -0.0973573442
