# DDEC6 charges by PACMAN v1.1 (https://github.com/mtap-research/PACMAN-charge/)
data_FALZOI_FSR_pacman
_symmetry_space_group_name_H-M   'P 1'
_cell_length_a   14.50110000
_cell_length_b   14.50110000
_cell_length_c   14.50110000
_cell_angle_alpha   109.47100000
_cell_angle_beta   109.47100000
_cell_angle_gamma   109.47100000
_symmetry_Int_Tables_number   1
_chemical_formula_structural   NaAl9(P3O16)4
_chemical_formula_sum   'Na1 Al9 P12 O64'
_cell_volume   2347.38594138
_cell_formula_units_Z   1
loop_
 _symmetry_equiv_pos_site_id
 _symmetry_equiv_pos_as_xyz
  1  'x, y, z'
loop_
 _atom_site_type_symbol
 _atom_site_label
 _atom_site_symmetry_multiplicity
 _atom_site_fract_x
 _atom_site_fract_y
 _atom_site_fract_z
 _atom_site_occupancy
 _atom_site_charge
Na  Na1  1  0.00000000  0.00000000  0.00000000  1.0 0.3381784333
Al  Al1  1  0.50000000  0.00000000  0.50000000  1.0 1.6177943422
Al  Al2  1  0.50000000  0.50000000  0.00000000  1.0 1.611856289
Al  Al3  1  0.00000000  0.50000000  0.50000000  1.0 1.6177943422
Al  Al4  1  0.25000000  0.75000000  0.50000000  1.0 1.7212613893
Al  Al5  1  0.75000000  0.25000000  0.50000000  1.0 1.7212613893
Al  Al6  1  0.50000000  0.25000000  0.75000000  1.0 1.7212613893
Al  Al7  1  0.50000000  0.75000000  0.25000000  1.0 1.7212613893
Al  Al8  1  0.75000000  0.50000000  0.25000000  1.0 1.7212613893
Al  Al9  1  0.25000000  0.50000000  0.75000000  1.0 1.7212613893
P  P1  1  0.44703000  0.00000000  0.69041000  1.0 1.3183495773
P  P2  1  0.30959000  0.75662000  0.30959000  1.0 1.3183495773
P  P3  1  0.69041000  0.00000000  0.44703000  1.0 1.3183495773
P  P4  1  0.55297000  0.24338000  0.55297000  1.0 1.3183495773
P  P5  1  0.69041000  0.44703000  0.00000000  1.0 1.3183495773
P  P6  1  0.30959000  0.30959000  0.75662000  1.0 1.3183495773
P  P7  1  0.44703000  0.69041000  0.00000000  1.0 1.3183495773
P  P8  1  0.55297000  0.55297000  0.24338000  1.0 1.3183495773
P  P9  1  0.00000000  0.69041000  0.44703000  1.0 1.3183495773
P  P10  1  0.75662000  0.30959000  0.30959000  1.0 1.3183495773
P  P11  1  0.00000000  0.44703000  0.69041000  1.0 1.3183495773
P  P12  1  0.24338000  0.55297000  0.55297000  1.0 1.3183495773
O  O1  1  0.81800000  0.00000000  0.00000000  1.0 -0.5765180217
O  O2  1  0.00000000  0.81800000  0.00000000  1.0 -0.5765180217
O  O3  1  0.00000000  0.00000000  0.81800000  1.0 -0.5736296104
O  O4  1  0.18200000  0.18200000  0.18200000  1.0 -0.5736296104
O  O5  1  0.88840000  0.17730000  0.17730000  1.0 0.7754913045
O  O6  1  0.00000000  0.71110000  0.82270000  1.0 0.8019912316
O  O7  1  0.00000000  0.82270000  0.71110000  1.0 0.8019912316
O  O8  1  0.11160000  0.28890000  0.28890000  1.0 0.8084884657
O  O9  1  0.17730000  0.88840000  0.17730000  1.0 0.8019912316
O  O10  1  0.82270000  0.00000000  0.71110000  1.0 0.8084884657
O  O11  1  0.71110000  0.00000000  0.82270000  1.0 0.7734744026
O  O12  1  0.28890000  0.11160000  0.28890000  1.0 0.8019912316
O  O13  1  0.17730000  0.17730000  0.88840000  1.0 0.8084884657
O  O14  1  0.71110000  0.82270000  0.00000000  1.0 0.7754913045
O  O15  1  0.82270000  0.71110000  0.00000000  1.0 0.8084884657
O  O16  1  0.28890000  0.28890000  0.11160000  1.0 0.8019912316
O  O17  1  0.51595000  0.00000000  0.79445000  1.0 -0.6394062267
O  O18  1  0.20555000  0.72150000  0.20555000  1.0 -0.6394062267
O  O19  1  0.79445000  0.00000000  0.51595000  1.0 -0.6394062267
O  O20  1  0.48405000  0.27850000  0.48405000  1.0 -0.6394062267
O  O21  1  0.79445000  0.51595000  0.00000000  1.0 -0.6394062267
O  O22  1  0.20555000  0.20555000  0.72150000  1.0 -0.6394062267
O  O23  1  0.51595000  0.79445000  0.00000000  1.0 -0.6394062267
O  O24  1  0.48405000  0.48405000  0.27850000  1.0 -0.6394062267
O  O25  1  0.00000000  0.79445000  0.51595000  1.0 -0.6394062267
O  O26  1  0.72150000  0.20555000  0.20555000  1.0 -0.6394062267
O  O27  1  0.00000000  0.51595000  0.79445000  1.0 -0.6394062267
O  O28  1  0.27850000  0.48405000  0.48405000  1.0 -0.6394062267
O  O29  1  0.32818000  0.89737000  0.61441000  1.0 -0.8589478573
O  O30  1  0.28296000  0.71377000  0.38559000  1.0 -0.8589478573
O  O31  1  0.71704000  0.10263000  0.43081000  1.0 -0.8589478573
O  O32  1  0.67182000  0.28623000  0.56919000  1.0 -0.8589478573
O  O33  1  0.61441000  0.32818000  0.89737000  1.0 -0.8589478573
O  O34  1  0.38559000  0.28296000  0.71377000  1.0 -0.8589478573
O  O35  1  0.43081000  0.71704000  0.10263000  1.0 -0.8589478573
O  O36  1  0.56919000  0.67182000  0.28623000  1.0 -0.8589478573
O  O37  1  0.89737000  0.61441000  0.32818000  1.0 -0.8589478573
O  O38  1  0.71377000  0.38559000  0.28296000  1.0 -0.8589478573
O  O39  1  0.10263000  0.43081000  0.71704000  1.0 -0.8589478573
O  O40  1  0.28623000  0.56919000  0.67182000  1.0 -0.8589478573
O  O41  1  0.89737000  0.32818000  0.61441000  1.0 -0.8589478573
O  O42  1  0.71377000  0.28296000  0.38559000  1.0 -0.8589478573
O  O43  1  0.10263000  0.71704000  0.43081000  1.0 -0.8589478573
O  O44  1  0.28623000  0.67182000  0.56919000  1.0 -0.8589478573
O  O45  1  0.32818000  0.61441000  0.89737000  1.0 -0.8589478573
O  O46  1  0.28296000  0.38559000  0.71377000  1.0 -0.8589478573
O  O47  1  0.71704000  0.43081000  0.10263000  1.0 -0.8589478573
O  O48  1  0.67182000  0.56919000  0.28623000  1.0 -0.8589478573
O  O49  1  0.61441000  0.89737000  0.32818000  1.0 -0.8589478573
O  O50  1  0.38559000  0.71377000  0.28296000  1.0 -0.8589478573
O  O51  1  0.43081000  0.10263000  0.71704000  1.0 -0.8589478573
O  O52  1  0.56919000  0.28623000  0.67182000  1.0 -0.8589478573
O  O53  1  0.50602000  0.00000000  0.62058000  1.0 -0.8589478573
O  O54  1  0.37942000  0.88544000  0.37942000  1.0 -0.8589478573
O  O55  1  0.62058000  0.00000000  0.50602000  1.0 -0.8589478573
O  O56  1  0.49398000  0.11456000  0.49398000  1.0 -0.8589478573
O  O57  1  0.62058000  0.50602000  0.00000000  1.0 -0.8589478573
O  O58  1  0.37942000  0.37942000  0.88544000  1.0 -0.8589478573
O  O59  1  0.50602000  0.62058000  0.00000000  1.0 -0.8654087113
O  O60  1  0.49398000  0.49398000  0.11456000  1.0 -0.8589478573
O  O61  1  0.00000000  0.62058000  0.50602000  1.0 -0.8589478573
O  O62  1  0.88544000  0.37942000  0.37942000  1.0 -0.8589478573
O  O63  1  0.00000000  0.50602000  0.62058000  1.0 -0.8589478573
O  O64  1  0.11456000  0.49398000  0.49398000  1.0 -0.8589478573
