# DDEC6 charges by PACMAN v1.1 (https://github.com/mtap-research/PACMAN-charge/)
data_FAMPUH_FSR_pacman
_symmetry_space_group_name_H-M   'P 1'
_cell_length_a   18.66800000
_cell_length_b   18.66800000
_cell_length_c   34.82500000
_cell_angle_alpha   90.00000000
_cell_angle_beta   90.00000000
_cell_angle_gamma   90.00000000
_symmetry_Int_Tables_number   1
_chemical_formula_structural   Cu2H15C28(NO5)2
_chemical_formula_sum   'Cu16 H120 C224 N16 O80'
_cell_volume   12136.31135080
_cell_formula_units_Z   8
loop_
 _symmetry_equiv_pos_site_id
 _symmetry_equiv_pos_as_xyz
  1  'x, y, z'
loop_
 _atom_site_type_symbol
 _atom_site_label
 _atom_site_symmetry_multiplicity
 _atom_site_fract_x
 _atom_site_fract_y
 _atom_site_fract_z
 _atom_site_occupancy
 _atom_site_charge
Cu  Cu1  1  0.73790000  0.29680000  0.22230000  1.0 0.8091963945
Cu  Cu2  1  0.26210000  0.70320000  0.22230000  1.0 0.8091963945
Cu  Cu3  1  0.76210000  0.79680000  0.27770000  1.0 0.8091963945
Cu  Cu4  1  0.70320000  0.73790000  0.22230000  1.0 0.8091963945
Cu  Cu5  1  0.20320000  0.76210000  0.27770000  1.0 0.8091963945
Cu  Cu6  1  0.29680000  0.26210000  0.22230000  1.0 0.8091963945
Cu  Cu7  1  0.79680000  0.23790000  0.27770000  1.0 0.8091963945
Cu  Cu8  1  0.23790000  0.20320000  0.27770000  1.0 0.8091963945
Cu  Cu9  1  0.26210000  0.70320000  0.77770000  1.0 0.8091963945
Cu  Cu10  1  0.73790000  0.29680000  0.77770000  1.0 0.8091963945
Cu  Cu11  1  0.23790000  0.20320000  0.72230000  1.0 0.8091963945
Cu  Cu12  1  0.29680000  0.26210000  0.77770000  1.0 0.8091963945
Cu  Cu13  1  0.79680000  0.23790000  0.72230000  1.0 0.8091963945
Cu  Cu14  1  0.70320000  0.73790000  0.77770000  1.0 0.8091963945
Cu  Cu15  1  0.20320000  0.76210000  0.72230000  1.0 0.8091963945
Cu  Cu16  1  0.76210000  0.79680000  0.72230000  1.0 0.8091963945
H  H1  1  0.01500000  0.45530000  0.05670000  1.0 0.1185618383
H  H2  1  0.98500000  0.54470000  0.05670000  1.0 0.1185618383
H  H3  1  0.48500000  0.95530000  0.44330000  1.0 0.1185618383
H  H4  1  0.54470000  0.01500000  0.05670000  1.0 0.1185618383
H  H5  1  0.04470000  0.48500000  0.44330000  1.0 0.1185618383
H  H6  1  0.45530000  0.98500000  0.05670000  1.0 0.1185618383
H  H7  1  0.95530000  0.51500000  0.44330000  1.0 0.1185618383
H  H8  1  0.51500000  0.04470000  0.44330000  1.0 0.1185618383
H  H9  1  0.98500000  0.54470000  0.94330000  1.0 0.1185618383
H  H10  1  0.01500000  0.45530000  0.94330000  1.0 0.1185618383
H  H11  1  0.51500000  0.04470000  0.55670000  1.0 0.1185618383
H  H12  1  0.45530000  0.98500000  0.94330000  1.0 0.1185618383
H  H13  1  0.95530000  0.51500000  0.55670000  1.0 0.1185618383
H  H14  1  0.54470000  0.01500000  0.94330000  1.0 0.1185618383
H  H15  1  0.04470000  0.48500000  0.55670000  1.0 0.1185618383
H  H16  1  0.48500000  0.95530000  0.55670000  1.0 0.1185618383
H  H17  1  0.07600000  0.28260000  0.00000000  1.0 0.1458594618
H  H18  1  0.92400000  0.71740000  0.00000000  1.0 0.1458594618
H  H19  1  0.42400000  0.78260000  0.50000000  1.0 0.1458594618
H  H20  1  0.71740000  0.07600000  0.00000000  1.0 0.1458594618
H  H21  1  0.21740000  0.42400000  0.50000000  1.0 0.1458594618
H  H22  1  0.28260000  0.92400000  0.00000000  1.0 0.1458594618
H  H23  1  0.78260000  0.57600000  0.50000000  1.0 0.1458594618
H  H24  1  0.57600000  0.21740000  0.50000000  1.0 0.1458594618
H  H25  1  0.97300000  0.35700000  0.09100000  1.0 0.2857793984
H  H26  1  0.02700000  0.64300000  0.09100000  1.0 0.2857793984
H  H27  1  0.52700000  0.85700000  0.40900000  1.0 0.2844833074
H  H28  1  0.64300000  0.97300000  0.09100000  1.0 0.2857793984
H  H29  1  0.14300000  0.52700000  0.40900000  1.0 0.2844833074
H  H30  1  0.35700000  0.02700000  0.09100000  1.0 0.2857793984
H  H31  1  0.85700000  0.47300000  0.40900000  1.0 0.2844833074
H  H32  1  0.47300000  0.14300000  0.40900000  1.0 0.2844833074
H  H33  1  0.02700000  0.64300000  0.90900000  1.0 0.2844833074
H  H34  1  0.97300000  0.35700000  0.90900000  1.0 0.2844833074
H  H35  1  0.47300000  0.14300000  0.59100000  1.0 0.2844833074
H  H36  1  0.35700000  0.02700000  0.90900000  1.0 0.2844833074
H  H37  1  0.85700000  0.47300000  0.59100000  1.0 0.2857793984
H  H38  1  0.64300000  0.97300000  0.90900000  1.0 0.2844833074
H  H39  1  0.14300000  0.52700000  0.59100000  1.0 0.2844833074
H  H40  1  0.52700000  0.85700000  0.59100000  1.0 0.2857793984
H  H41  1  0.90740000  0.32030000  0.14850000  1.0 0.1438277779
H  H42  1  0.09260000  0.67970000  0.14850000  1.0 0.1438277779
H  H43  1  0.59260000  0.82030000  0.35150000  1.0 0.1438277779
H  H44  1  0.67970000  0.90740000  0.14850000  1.0 0.1438277779
H  H45  1  0.17970000  0.59260000  0.35150000  1.0 0.1438277779
H  H46  1  0.32030000  0.09260000  0.14850000  1.0 0.1438277779
H  H47  1  0.82030000  0.40740000  0.35150000  1.0 0.1438277779
H  H48  1  0.40740000  0.17970000  0.35150000  1.0 0.1438277779
H  H49  1  0.09260000  0.67970000  0.85150000  1.0 0.1438277779
H  H50  1  0.90740000  0.32030000  0.85150000  1.0 0.1438277779
H  H51  1  0.40740000  0.17970000  0.64850000  1.0 0.1438277779
H  H52  1  0.32030000  0.09260000  0.85150000  1.0 0.1438277779
H  H53  1  0.82030000  0.40740000  0.64850000  1.0 0.1438277779
H  H54  1  0.67970000  0.90740000  0.85150000  1.0 0.1438277779
H  H55  1  0.17970000  0.59260000  0.64850000  1.0 0.1438277779
H  H56  1  0.59260000  0.82030000  0.64850000  1.0 0.1438277779
H  H57  1  0.01120000  0.24710000  0.24020000  1.0 0.1438277779
H  H58  1  0.98880000  0.75290000  0.24020000  1.0 0.1438277779
H  H59  1  0.48880000  0.74710000  0.25980000  1.0 0.1438277779
H  H60  1  0.75290000  0.01120000  0.24020000  1.0 0.1438277779
H  H61  1  0.25290000  0.48880000  0.25980000  1.0 0.1438277779
H  H62  1  0.24710000  0.98880000  0.24020000  1.0 0.1438277779
H  H63  1  0.74710000  0.51120000  0.25980000  1.0 0.1438277779
H  H64  1  0.51120000  0.25290000  0.25980000  1.0 0.1438277779
H  H65  1  0.98880000  0.75290000  0.75980000  1.0 0.1438277779
H  H66  1  0.01120000  0.24710000  0.75980000  1.0 0.1438277779
H  H67  1  0.51120000  0.25290000  0.74020000  1.0 0.1438277779
H  H68  1  0.24710000  0.98880000  0.75980000  1.0 0.1438277779
H  H69  1  0.74710000  0.51120000  0.74020000  1.0 0.1438277779
H  H70  1  0.75290000  0.01120000  0.75980000  1.0 0.1438277779
H  H71  1  0.25290000  0.48880000  0.74020000  1.0 0.1438277779
H  H72  1  0.48880000  0.74710000  0.74020000  1.0 0.1438277779
H  H73  1  0.11930000  0.29840000  0.14570000  1.0 0.1438277779
H  H74  1  0.88070000  0.70160000  0.14570000  1.0 0.1438277779
H  H75  1  0.38070000  0.79840000  0.35430000  1.0 0.1438277779
H  H76  1  0.70160000  0.11930000  0.14570000  1.0 0.1438277779
H  H77  1  0.20160000  0.38070000  0.35430000  1.0 0.1438277779
H  H78  1  0.29840000  0.88070000  0.14570000  1.0 0.1438277779
H  H79  1  0.79840000  0.61930000  0.35430000  1.0 0.1438277779
H  H80  1  0.61930000  0.20160000  0.35430000  1.0 0.1438277779
H  H81  1  0.88070000  0.70160000  0.85430000  1.0 0.1438277779
H  H82  1  0.11930000  0.29840000  0.85430000  1.0 0.1438277779
H  H83  1  0.61930000  0.20160000  0.64570000  1.0 0.1438277779
H  H84  1  0.29840000  0.88070000  0.85430000  1.0 0.1438277779
H  H85  1  0.79840000  0.61930000  0.64570000  1.0 0.1438277779
H  H86  1  0.70160000  0.11930000  0.85430000  1.0 0.1438277779
H  H87  1  0.20160000  0.38070000  0.64570000  1.0 0.1438277779
H  H88  1  0.38070000  0.79840000  0.64570000  1.0 0.1438277779
H  H89  1  0.65990000  0.44520000  0.20290000  1.0 0.1886641118
H  H90  1  0.34010000  0.55480000  0.20290000  1.0 0.1886641118
H  H91  1  0.84010000  0.94520000  0.29710000  1.0 0.1886641118
H  H92  1  0.55480000  0.65990000  0.20290000  1.0 0.1886641118
H  H93  1  0.05480000  0.84010000  0.29710000  1.0 0.1886641118
H  H94  1  0.44520000  0.34010000  0.20290000  1.0 0.1886641118
H  H95  1  0.94520000  0.15990000  0.29710000  1.0 0.1886641118
H  H96  1  0.15990000  0.05480000  0.29710000  1.0 0.1886641118
H  H97  1  0.34010000  0.55480000  0.79710000  1.0 0.1886641118
H  H98  1  0.65990000  0.44520000  0.79710000  1.0 0.1886641118
H  H99  1  0.15990000  0.05480000  0.70290000  1.0 0.1886641118
H  H100  1  0.44520000  0.34010000  0.79710000  1.0 0.1886641118
H  H101  1  0.94520000  0.15990000  0.70290000  1.0 0.1886641118
H  H102  1  0.55480000  0.65990000  0.79710000  1.0 0.1886641118
H  H103  1  0.05480000  0.84010000  0.70290000  1.0 0.1886641118
H  H104  1  0.84010000  0.94520000  0.70290000  1.0 0.1886641118
H  H105  1  0.67360000  0.28520000  0.15360000  1.0 0.1886641118
H  H106  1  0.32640000  0.71480000  0.15360000  1.0 0.1886641118
H  H107  1  0.82640000  0.78520000  0.34640000  1.0 0.1886641118
H  H108  1  0.71480000  0.67360000  0.15360000  1.0 0.1886641118
H  H109  1  0.21480000  0.82640000  0.34640000  1.0 0.1886641118
H  H110  1  0.28520000  0.32640000  0.15360000  1.0 0.1886641118
H  H111  1  0.78520000  0.17360000  0.34640000  1.0 0.1886641118
H  H112  1  0.17360000  0.21480000  0.34640000  1.0 0.1886641118
H  H113  1  0.32640000  0.71480000  0.84640000  1.0 0.1886641118
H  H114  1  0.67360000  0.28520000  0.84640000  1.0 0.1886641118
H  H115  1  0.17360000  0.21480000  0.65360000  1.0 0.1886641118
H  H116  1  0.28520000  0.32640000  0.84640000  1.0 0.1886641118
H  H117  1  0.78520000  0.17360000  0.65360000  1.0 0.1886641118
H  H118  1  0.71480000  0.67360000  0.84640000  1.0 0.1886641118
H  H119  1  0.21480000  0.82640000  0.65360000  1.0 0.1886641118
H  H120  1  0.82640000  0.78520000  0.65360000  1.0 0.1886641118
C  C1  1  0.01120000  0.46590000  0.00000000  1.0 0.0683922475
C  C2  1  0.98880000  0.53410000  0.00000000  1.0 0.0683922475
C  C3  1  0.48880000  0.96590000  0.50000000  1.0 0.0683922475
C  C4  1  0.53410000  0.01120000  0.00000000  1.0 0.0683922475
C  C5  1  0.03410000  0.48880000  0.50000000  1.0 0.0683922475
C  C6  1  0.46590000  0.98880000  0.00000000  1.0 0.0683922475
C  C7  1  0.96590000  0.51120000  0.50000000  1.0 0.0683922475
C  C8  1  0.51120000  0.03410000  0.50000000  1.0 0.0683922475
C  C9  1  0.02330000  0.43190000  0.03360000  1.0 -0.179295692
C  C10  1  0.97670000  0.56810000  0.03360000  1.0 -0.179295692
C  C11  1  0.47670000  0.93190000  0.46640000  1.0 -0.179295692
C  C12  1  0.56810000  0.02330000  0.03360000  1.0 -0.179295692
C  C13  1  0.06810000  0.47670000  0.46640000  1.0 -0.179295692
C  C14  1  0.43190000  0.97670000  0.03360000  1.0 -0.179295692
C  C15  1  0.93190000  0.52330000  0.46640000  1.0 -0.179295692
C  C16  1  0.52330000  0.06810000  0.46640000  1.0 -0.179295692
C  C17  1  0.97670000  0.56810000  0.96640000  1.0 -0.179295692
C  C18  1  0.02330000  0.43190000  0.96640000  1.0 -0.179295692
C  C19  1  0.52330000  0.06810000  0.53360000  1.0 -0.179295692
C  C20  1  0.43190000  0.97670000  0.96640000  1.0 -0.179295692
C  C21  1  0.93190000  0.52330000  0.53360000  1.0 -0.179295692
C  C22  1  0.56810000  0.02330000  0.96640000  1.0 -0.179295692
C  C23  1  0.06810000  0.47670000  0.53360000  1.0 -0.179295692
C  C24  1  0.47670000  0.93190000  0.53360000  1.0 -0.179295692
C  C25  1  0.04750000  0.36370000  0.03360000  1.0 -0.0221917107
C  C26  1  0.95250000  0.63630000  0.03360000  1.0 -0.0221917107
C  C27  1  0.45250000  0.86370000  0.46640000  1.0 -0.0221917107
C  C28  1  0.63630000  0.04750000  0.03360000  1.0 -0.0221917107
C  C29  1  0.13630000  0.45250000  0.46640000  1.0 -0.0221917107
C  C30  1  0.36370000  0.95250000  0.03360000  1.0 -0.0221917107
C  C31  1  0.86370000  0.54750000  0.46640000  1.0 -0.0221917107
C  C32  1  0.54750000  0.13630000  0.46640000  1.0 -0.0221917107
C  C33  1  0.95250000  0.63630000  0.96640000  1.0 -0.0221917107
C  C34  1  0.04750000  0.36370000  0.96640000  1.0 -0.0221917107
C  C35  1  0.54750000  0.13630000  0.53360000  1.0 -0.0221917107
C  C36  1  0.36370000  0.95250000  0.96640000  1.0 -0.0221917107
C  C37  1  0.86370000  0.54750000  0.53360000  1.0 -0.0221917107
C  C38  1  0.63630000  0.04750000  0.96640000  1.0 -0.0221917107
C  C39  1  0.13630000  0.45250000  0.53360000  1.0 -0.0221917107
C  C40  1  0.45250000  0.86370000  0.53360000  1.0 -0.0221917107
C  C41  1  0.05950000  0.32960000  0.00000000  1.0 -0.0941660853
C  C42  1  0.94050000  0.67040000  0.00000000  1.0 -0.0941660853
C  C43  1  0.44050000  0.82960000  0.50000000  1.0 -0.0951701807
C  C44  1  0.67040000  0.05950000  0.00000000  1.0 -0.0941660853
C  C45  1  0.17040000  0.44050000  0.50000000  1.0 -0.0951701807
C  C46  1  0.32960000  0.94050000  0.00000000  1.0 -0.0951701807
C  C47  1  0.82960000  0.55950000  0.50000000  1.0 -0.0941660853
C  C48  1  0.55950000  0.17040000  0.50000000  1.0 -0.0941660853
C  C49  1  0.06090000  0.32490000  0.07210000  1.0 0.4710377944
C  C50  1  0.93910000  0.67510000  0.07210000  1.0 0.4710377944
C  C51  1  0.43910000  0.82490000  0.42790000  1.0 0.4710377944
C  C52  1  0.67510000  0.06090000  0.07210000  1.0 0.4710377944
C  C53  1  0.17510000  0.43910000  0.42790000  1.0 0.4710377944
C  C54  1  0.32490000  0.93910000  0.07210000  1.0 0.4710377944
C  C55  1  0.82490000  0.56090000  0.42790000  1.0 0.4710377944
C  C56  1  0.56090000  0.17510000  0.42790000  1.0 0.4710377944
C  C57  1  0.93910000  0.67510000  0.92790000  1.0 0.4710377944
C  C58  1  0.06090000  0.32490000  0.92790000  1.0 0.4710377944
C  C59  1  0.56090000  0.17510000  0.57210000  1.0 0.4710377944
C  C60  1  0.32490000  0.93910000  0.92790000  1.0 0.4710377944
C  C61  1  0.82490000  0.56090000  0.57210000  1.0 0.4710377944
C  C62  1  0.67510000  0.06090000  0.92790000  1.0 0.4710377944
C  C63  1  0.17510000  0.43910000  0.57210000  1.0 0.4710377944
C  C64  1  0.43910000  0.82490000  0.57210000  1.0 0.4710377944
C  C65  1  0.01350000  0.31330000  0.14120000  1.0 0.1981178062
C  C66  1  0.98650000  0.68670000  0.14120000  1.0 0.1981178062
C  C67  1  0.48650000  0.81330000  0.35880000  1.0 0.1981178062
C  C68  1  0.68670000  0.01350000  0.14120000  1.0 0.1981178062
C  C69  1  0.18670000  0.48650000  0.35880000  1.0 0.1981178062
C  C70  1  0.31330000  0.98650000  0.14120000  1.0 0.1981178062
C  C71  1  0.81330000  0.51350000  0.35880000  1.0 0.1981178062
C  C72  1  0.51350000  0.18670000  0.35880000  1.0 0.1981178062
C  C73  1  0.98650000  0.68670000  0.85880000  1.0 0.1981178062
C  C74  1  0.01350000  0.31330000  0.85880000  1.0 0.1981178062
C  C75  1  0.51350000  0.18670000  0.64120000  1.0 0.1981178062
C  C76  1  0.31330000  0.98650000  0.85880000  1.0 0.1981178062
C  C77  1  0.81330000  0.51350000  0.64120000  1.0 0.1981178062
C  C78  1  0.68670000  0.01350000  0.85880000  1.0 0.1981178062
C  C79  1  0.18670000  0.48650000  0.64120000  1.0 0.1981178062
C  C80  1  0.48650000  0.81330000  0.64120000  1.0 0.1981178062
C  C81  1  0.95000000  0.30750000  0.16050000  1.0 -0.1674840855
C  C82  1  0.05000000  0.69250000  0.16050000  1.0 -0.1674840855
C  C83  1  0.55000000  0.80750000  0.33950000  1.0 -0.1674840855
C  C84  1  0.69250000  0.95000000  0.16050000  1.0 -0.1674840855
C  C85  1  0.19250000  0.55000000  0.33950000  1.0 -0.1674840855
C  C86  1  0.30750000  0.05000000  0.16050000  1.0 -0.1674840855
C  C87  1  0.80750000  0.45000000  0.33950000  1.0 -0.1674840855
C  C88  1  0.45000000  0.19250000  0.33950000  1.0 -0.1674840855
C  C89  1  0.05000000  0.69250000  0.83950000  1.0 -0.1674840855
C  C90  1  0.95000000  0.30750000  0.83950000  1.0 -0.1674840855
C  C91  1  0.45000000  0.19250000  0.66050000  1.0 -0.1674840855
C  C92  1  0.30750000  0.05000000  0.83950000  1.0 -0.1674840855
C  C93  1  0.80750000  0.45000000  0.66050000  1.0 -0.1674840855
C  C94  1  0.69250000  0.95000000  0.83950000  1.0 -0.1674840855
C  C95  1  0.19250000  0.55000000  0.66050000  1.0 -0.1674840855
C  C96  1  0.55000000  0.80750000  0.66050000  1.0 -0.1674840855
C  C97  1  0.94920000  0.28280000  0.19740000  1.0 -0.0355763418
C  C98  1  0.05080000  0.71720000  0.19740000  1.0 -0.0355763418
C  C99  1  0.55080000  0.78280000  0.30260000  1.0 -0.0355763418
C  C100  1  0.71720000  0.94920000  0.19740000  1.0 -0.0355763418
C  C101  1  0.21720000  0.55080000  0.30260000  1.0 -0.0355763418
C  C102  1  0.28280000  0.05080000  0.19740000  1.0 -0.0355763418
C  C103  1  0.78280000  0.44920000  0.30260000  1.0 -0.0355763418
C  C104  1  0.44920000  0.21720000  0.30260000  1.0 -0.0355763418
C  C105  1  0.05080000  0.71720000  0.80260000  1.0 -0.0355763418
C  C106  1  0.94920000  0.28280000  0.80260000  1.0 -0.0355763418
C  C107  1  0.44920000  0.21720000  0.69740000  1.0 -0.0355763418
C  C108  1  0.28280000  0.05080000  0.80260000  1.0 -0.0355763418
C  C109  1  0.78280000  0.44920000  0.69740000  1.0 -0.0355763418
C  C110  1  0.71720000  0.94920000  0.80260000  1.0 -0.0355763418
C  C111  1  0.21720000  0.55080000  0.69740000  1.0 -0.0355763418
C  C112  1  0.55080000  0.78280000  0.69740000  1.0 -0.0355763418
C  C113  1  0.01180000  0.26390000  0.21510000  1.0 -0.0941660853
C  C114  1  0.98820000  0.73610000  0.21510000  1.0 -0.0951701807
C  C115  1  0.48820000  0.76390000  0.28490000  1.0 -0.0941660853
C  C116  1  0.73610000  0.01180000  0.21510000  1.0 -0.0941660853
C  C117  1  0.23610000  0.48820000  0.28490000  1.0 -0.0941660853
C  C118  1  0.26390000  0.98820000  0.21510000  1.0 -0.0951701807
C  C119  1  0.76390000  0.51180000  0.28490000  1.0 -0.0941660853
C  C120  1  0.51180000  0.23610000  0.28490000  1.0 -0.0941660853
C  C121  1  0.98820000  0.73610000  0.78490000  1.0 -0.0951701807
C  C122  1  0.01180000  0.26390000  0.78490000  1.0 -0.0941660853
C  C123  1  0.51180000  0.23610000  0.71510000  1.0 -0.0941660853
C  C124  1  0.26390000  0.98820000  0.78490000  1.0 -0.0951701807
C  C125  1  0.76390000  0.51180000  0.71510000  1.0 -0.0941660853
C  C126  1  0.73610000  0.01180000  0.78490000  1.0 -0.0941660853
C  C127  1  0.23610000  0.48820000  0.71510000  1.0 -0.0941660853
C  C128  1  0.48820000  0.76390000  0.71510000  1.0 -0.0941660853
C  C129  1  0.07530000  0.26980000  0.19580000  1.0 -0.0541468104
C  C130  1  0.92470000  0.73020000  0.19580000  1.0 -0.0541468104
C  C131  1  0.42470000  0.76980000  0.30420000  1.0 -0.0541468104
C  C132  1  0.73020000  0.07530000  0.19580000  1.0 -0.0541468104
C  C133  1  0.23020000  0.42470000  0.30420000  1.0 -0.0541468104
C  C134  1  0.26980000  0.92470000  0.19580000  1.0 -0.0541468104
C  C135  1  0.76980000  0.57530000  0.30420000  1.0 -0.0541468104
C  C136  1  0.57530000  0.23020000  0.30420000  1.0 -0.0541468104
C  C137  1  0.92470000  0.73020000  0.80420000  1.0 -0.0541468104
C  C138  1  0.07530000  0.26980000  0.80420000  1.0 -0.0541468104
C  C139  1  0.57530000  0.23020000  0.69580000  1.0 -0.0541468104
C  C140  1  0.26980000  0.92470000  0.80420000  1.0 -0.0541468104
C  C141  1  0.76980000  0.57530000  0.69580000  1.0 -0.0541468104
C  C142  1  0.73020000  0.07530000  0.80420000  1.0 -0.0541468104
C  C143  1  0.23020000  0.42470000  0.69580000  1.0 -0.0541468104
C  C144  1  0.42470000  0.76980000  0.69580000  1.0 -0.0541468104
C  C145  1  0.07610000  0.29450000  0.15880000  1.0 -0.1506220889
C  C146  1  0.92390000  0.70550000  0.15880000  1.0 -0.1506220889
C  C147  1  0.42390000  0.79450000  0.34120000  1.0 -0.1506220889
C  C148  1  0.70550000  0.07610000  0.15880000  1.0 -0.1506220889
C  C149  1  0.20550000  0.42390000  0.34120000  1.0 -0.1506220889
C  C150  1  0.29450000  0.92390000  0.15880000  1.0 -0.1506220889
C  C151  1  0.79450000  0.57610000  0.34120000  1.0 -0.1506220889
C  C152  1  0.57610000  0.20550000  0.34120000  1.0 -0.1506220889
C  C153  1  0.92390000  0.70550000  0.84120000  1.0 -0.1506220889
C  C154  1  0.07610000  0.29450000  0.84120000  1.0 -0.1506220889
C  C155  1  0.57610000  0.20550000  0.65880000  1.0 -0.1506220889
C  C156  1  0.29450000  0.92390000  0.84120000  1.0 -0.1506220889
C  C157  1  0.79450000  0.57610000  0.65880000  1.0 -0.1506220889
C  C158  1  0.70550000  0.07610000  0.84120000  1.0 -0.1506220889
C  C159  1  0.20550000  0.42390000  0.65880000  1.0 -0.1506220889
C  C160  1  0.42390000  0.79450000  0.65880000  1.0 -0.1506220889
C  C161  1  0.88340000  0.27670000  0.21740000  1.0 0.5247528293
C  C162  1  0.11660000  0.72330000  0.21740000  1.0 0.5247528293
C  C163  1  0.61660000  0.77670000  0.28260000  1.0 0.5247528293
C  C164  1  0.72330000  0.88340000  0.21740000  1.0 0.5247528293
C  C165  1  0.22330000  0.61660000  0.28260000  1.0 0.5247528293
C  C166  1  0.27670000  0.11660000  0.21740000  1.0 0.5247528293
C  C167  1  0.77670000  0.38340000  0.28260000  1.0 0.5247528293
C  C168  1  0.38340000  0.22330000  0.28260000  1.0 0.5247528293
C  C169  1  0.11660000  0.72330000  0.78260000  1.0 0.5247528293
C  C170  1  0.88340000  0.27670000  0.78260000  1.0 0.5247528293
C  C171  1  0.38340000  0.22330000  0.71740000  1.0 0.5247528293
C  C172  1  0.27670000  0.11660000  0.78260000  1.0 0.5247528293
C  C173  1  0.77670000  0.38340000  0.71740000  1.0 0.5247528293
C  C174  1  0.72330000  0.88340000  0.78260000  1.0 0.5247528293
C  C175  1  0.22330000  0.61660000  0.71740000  1.0 0.5253035841
C  C176  1  0.61660000  0.77670000  0.71740000  1.0 0.5247528293
C  C177  1  0.14010000  0.25020000  0.21410000  1.0 0.5487924633
C  C178  1  0.85990000  0.74980000  0.21410000  1.0 0.5487924633
C  C179  1  0.35990000  0.75020000  0.28590000  1.0 0.5487924633
C  C180  1  0.74980000  0.14010000  0.21410000  1.0 0.5487924633
C  C181  1  0.24980000  0.35990000  0.28590000  1.0 0.5487924633
C  C182  1  0.25020000  0.85990000  0.21410000  1.0 0.5487924633
C  C183  1  0.75020000  0.64010000  0.28590000  1.0 0.5487924633
C  C184  1  0.64010000  0.24980000  0.28590000  1.0 0.5487924633
C  C185  1  0.85990000  0.74980000  0.78590000  1.0 0.5487924633
C  C186  1  0.14010000  0.25020000  0.78590000  1.0 0.5487924633
C  C187  1  0.64010000  0.24980000  0.71410000  1.0 0.5487924633
C  C188  1  0.25020000  0.85990000  0.78590000  1.0 0.5487924633
C  C189  1  0.75020000  0.64010000  0.71410000  1.0 0.5487924633
C  C190  1  0.74980000  0.14010000  0.78590000  1.0 0.5487924633
C  C191  1  0.24980000  0.35990000  0.71410000  1.0 0.5487924633
C  C192  1  0.35990000  0.75020000  0.71410000  1.0 0.5487924633
C  C193  1  0.66410000  0.39570000  0.18770000  1.0 -0.227028931
C  C194  1  0.33590000  0.60430000  0.18770000  1.0 -0.227028931
C  C195  1  0.83590000  0.89570000  0.31230000  1.0 -0.227028931
C  C196  1  0.60430000  0.66410000  0.18770000  1.0 -0.227028931
C  C197  1  0.10430000  0.83590000  0.31230000  1.0 -0.227028931
C  C198  1  0.39570000  0.33590000  0.18770000  1.0 -0.227028931
C  C199  1  0.89570000  0.16410000  0.31230000  1.0 -0.227028931
C  C200  1  0.16410000  0.10430000  0.31230000  1.0 -0.227028931
C  C201  1  0.33590000  0.60430000  0.81230000  1.0 -0.227028931
C  C202  1  0.66410000  0.39570000  0.81230000  1.0 -0.227028931
C  C203  1  0.16410000  0.10430000  0.68770000  1.0 -0.227028931
C  C204  1  0.39570000  0.33590000  0.81230000  1.0 -0.227028931
C  C205  1  0.89570000  0.16410000  0.68770000  1.0 -0.227028931
C  C206  1  0.60430000  0.66410000  0.81230000  1.0 -0.227028931
C  C207  1  0.10430000  0.83590000  0.68770000  1.0 -0.227028931
C  C208  1  0.83590000  0.89570000  0.68770000  1.0 -0.227028931
C  C209  1  0.66930000  0.33480000  0.16890000  1.0 -0.2911101463
C  C210  1  0.33070000  0.66520000  0.16890000  1.0 -0.2911101463
C  C211  1  0.83070000  0.83480000  0.33110000  1.0 -0.2911101463
C  C212  1  0.66520000  0.66930000  0.16890000  1.0 -0.2911101463
C  C213  1  0.16520000  0.83070000  0.33110000  1.0 -0.2911101463
C  C214  1  0.33480000  0.33070000  0.16890000  1.0 -0.2911101463
C  C215  1  0.83480000  0.16930000  0.33110000  1.0 -0.2911101463
C  C216  1  0.16930000  0.16520000  0.33110000  1.0 -0.2911101463
C  C217  1  0.33070000  0.66520000  0.83110000  1.0 -0.2971083703
C  C218  1  0.66930000  0.33480000  0.83110000  1.0 -0.2971083703
C  C219  1  0.16930000  0.16520000  0.66890000  1.0 -0.2911101463
C  C220  1  0.33480000  0.33070000  0.83110000  1.0 -0.2971083703
C  C221  1  0.83480000  0.16930000  0.66890000  1.0 -0.2911101463
C  C222  1  0.66520000  0.66930000  0.83110000  1.0 -0.2971083703
C  C223  1  0.16520000  0.83070000  0.66890000  1.0 -0.2911101463
C  C224  1  0.83070000  0.83480000  0.66890000  1.0 -0.2911101463
N  N1  1  0.00800000  0.32900000  0.09710000  1.0 -0.3600661042
N  N2  1  0.99200000  0.67100000  0.09710000  1.0 -0.3600661042
N  N3  1  0.49200000  0.82900000  0.40290000  1.0 -0.3600661042
N  N4  1  0.67100000  0.00800000  0.09710000  1.0 -0.3600661042
N  N5  1  0.17100000  0.49200000  0.40290000  1.0 -0.3600661042
N  N6  1  0.32900000  0.99200000  0.09710000  1.0 -0.3600661042
N  N7  1  0.82900000  0.50800000  0.40290000  1.0 -0.3600661042
N  N8  1  0.50800000  0.17100000  0.40290000  1.0 -0.3600661042
N  N9  1  0.99200000  0.67100000  0.90290000  1.0 -0.3600661042
N  N10  1  0.00800000  0.32900000  0.90290000  1.0 -0.3600661042
N  N11  1  0.50800000  0.17100000  0.59710000  1.0 -0.3600661042
N  N12  1  0.32900000  0.99200000  0.90290000  1.0 -0.3600661042
N  N13  1  0.82900000  0.50800000  0.59710000  1.0 -0.3600661042
N  N14  1  0.67100000  0.00800000  0.90290000  1.0 -0.3600661042
N  N15  1  0.17100000  0.49200000  0.59710000  1.0 -0.3600661042
N  N16  1  0.49200000  0.82900000  0.59710000  1.0 -0.3600661042
O  O1  1  0.10600000  0.27400000  0.07150000  1.0 -0.4772241893
O  O2  1  0.89400000  0.72600000  0.07150000  1.0 -0.4772241893
O  O3  1  0.39400000  0.77400000  0.42850000  1.0 -0.4772241893
O  O4  1  0.72600000  0.10600000  0.07150000  1.0 -0.4772241893
O  O5  1  0.22600000  0.39400000  0.42850000  1.0 -0.4772241893
O  O6  1  0.27400000  0.89400000  0.07150000  1.0 -0.4772241893
O  O7  1  0.77400000  0.60600000  0.42850000  1.0 -0.4772241893
O  O8  1  0.60600000  0.22600000  0.42850000  1.0 -0.4772241893
O  O9  1  0.89400000  0.72600000  0.92850000  1.0 -0.4730049963
O  O10  1  0.10600000  0.27400000  0.92850000  1.0 -0.4730049963
O  O11  1  0.60600000  0.22600000  0.57150000  1.0 -0.4730049963
O  O12  1  0.27400000  0.89400000  0.92850000  1.0 -0.4730049963
O  O13  1  0.77400000  0.60600000  0.57150000  1.0 -0.4730049963
O  O14  1  0.72600000  0.10600000  0.92850000  1.0 -0.4730049963
O  O15  1  0.22600000  0.39400000  0.57150000  1.0 -0.4730049963
O  O16  1  0.39400000  0.77400000  0.57150000  1.0 -0.4730049963
O  O17  1  0.82280000  0.29500000  0.20410000  1.0 -0.4209137843
O  O18  1  0.17720000  0.70500000  0.20410000  1.0 -0.4209137843
O  O19  1  0.67720000  0.79500000  0.29590000  1.0 -0.4209137843
O  O20  1  0.70500000  0.82280000  0.20410000  1.0 -0.4209137843
O  O21  1  0.20500000  0.67720000  0.29590000  1.0 -0.4209137843
O  O22  1  0.29500000  0.17720000  0.20410000  1.0 -0.4209137843
O  O23  1  0.79500000  0.32280000  0.29590000  1.0 -0.4209137843
O  O24  1  0.32280000  0.20500000  0.29590000  1.0 -0.4209137843
O  O25  1  0.17720000  0.70500000  0.79590000  1.0 -0.4209137843
O  O26  1  0.82280000  0.29500000  0.79590000  1.0 -0.4209137843
O  O27  1  0.32280000  0.20500000  0.70410000  1.0 -0.4209137843
O  O28  1  0.29500000  0.17720000  0.79590000  1.0 -0.4209137843
O  O29  1  0.79500000  0.32280000  0.70410000  1.0 -0.4209137843
O  O30  1  0.70500000  0.82280000  0.79590000  1.0 -0.4209137843
O  O31  1  0.20500000  0.67720000  0.70410000  1.0 -0.4209137843
O  O32  1  0.67720000  0.79500000  0.70410000  1.0 -0.4209137843
O  O33  1  0.87650000  0.25200000  0.25120000  1.0 -0.4209137843
O  O34  1  0.12350000  0.74800000  0.25120000  1.0 -0.4209137843
O  O35  1  0.62350000  0.75200000  0.24880000  1.0 -0.4209137843
O  O36  1  0.74800000  0.87650000  0.25120000  1.0 -0.4209137843
O  O37  1  0.24800000  0.62350000  0.24880000  1.0 -0.4209137843
O  O38  1  0.25200000  0.12350000  0.25120000  1.0 -0.4209137843
O  O39  1  0.75200000  0.37650000  0.24880000  1.0 -0.4209137843
O  O40  1  0.37650000  0.24800000  0.24880000  1.0 -0.4209137843
O  O41  1  0.12350000  0.74800000  0.74880000  1.0 -0.4209137843
O  O42  1  0.87650000  0.25200000  0.74880000  1.0 -0.4209137843
O  O43  1  0.37650000  0.24800000  0.75120000  1.0 -0.4209137843
O  O44  1  0.25200000  0.12350000  0.74880000  1.0 -0.4209137843
O  O45  1  0.75200000  0.37650000  0.75120000  1.0 -0.4209137843
O  O46  1  0.74800000  0.87650000  0.74880000  1.0 -0.4209137843
O  O47  1  0.24800000  0.62350000  0.75120000  1.0 -0.4209137843
O  O48  1  0.62350000  0.75200000  0.75120000  1.0 -0.4209137843
O  O49  1  0.20220000  0.26700000  0.20240000  1.0 -0.4618741269
O  O50  1  0.79780000  0.73300000  0.20240000  1.0 -0.4618741269
O  O51  1  0.29780000  0.76700000  0.29760000  1.0 -0.4618741269
O  O52  1  0.73300000  0.20220000  0.20240000  1.0 -0.4618741269
O  O53  1  0.23300000  0.29780000  0.29760000  1.0 -0.4618741269
O  O54  1  0.26700000  0.79780000  0.20240000  1.0 -0.4618741269
O  O55  1  0.76700000  0.70220000  0.29760000  1.0 -0.4618741269
O  O56  1  0.70220000  0.23300000  0.29760000  1.0 -0.4618741269
O  O57  1  0.79780000  0.73300000  0.79760000  1.0 -0.4618741269
O  O58  1  0.20220000  0.26700000  0.79760000  1.0 -0.4618741269
O  O59  1  0.70220000  0.23300000  0.70240000  1.0 -0.4618741269
O  O60  1  0.26700000  0.79780000  0.79760000  1.0 -0.4618741269
O  O61  1  0.76700000  0.70220000  0.70240000  1.0 -0.4618741269
O  O62  1  0.73300000  0.20220000  0.79760000  1.0 -0.4618741269
O  O63  1  0.23300000  0.29780000  0.70240000  1.0 -0.4618741269
O  O64  1  0.29780000  0.76700000  0.70240000  1.0 -0.4618741269
O  O65  1  0.14500000  0.21300000  0.24450000  1.0 -0.4618741269
O  O66  1  0.85500000  0.78700000  0.24450000  1.0 -0.4618741269
O  O67  1  0.35500000  0.71300000  0.25550000  1.0 -0.4618741269
O  O68  1  0.78700000  0.14500000  0.24450000  1.0 -0.4618741269
O  O69  1  0.28700000  0.35500000  0.25550000  1.0 -0.4618741269
O  O70  1  0.21300000  0.85500000  0.24450000  1.0 -0.4618741269
O  O71  1  0.71300000  0.64500000  0.25550000  1.0 -0.4618741269
O  O72  1  0.64500000  0.28700000  0.25550000  1.0 -0.4618741269
O  O73  1  0.85500000  0.78700000  0.75550000  1.0 -0.4618741269
O  O74  1  0.14500000  0.21300000  0.75550000  1.0 -0.4618741269
O  O75  1  0.64500000  0.28700000  0.74450000  1.0 -0.4618741269
O  O76  1  0.21300000  0.85500000  0.75550000  1.0 -0.4618741269
O  O77  1  0.71300000  0.64500000  0.74450000  1.0 -0.4618741269
O  O78  1  0.78700000  0.14500000  0.75550000  1.0 -0.4618741269
O  O79  1  0.28700000  0.35500000  0.74450000  1.0 -0.4618741269
O  O80  1  0.35500000  0.71300000  0.74450000  1.0 -0.4618741269
