# DDEC6 charges by PACMAN v1.1 (https://github.com/mtap-research/PACMAN-charge/)
data_FAMQAO_ASR_pacman
_symmetry_space_group_name_H-M   'P 1'
_cell_length_a   18.74710000
_cell_length_b   18.74710000
_cell_length_c   34.83390000
_cell_angle_alpha   90.00000000
_cell_angle_beta   90.00000000
_cell_angle_gamma   90.00000000
_symmetry_Int_Tables_number   1
_chemical_formula_structural   Cu2H11C26(NO7)2
_chemical_formula_sum   'Cu16 H88 C208 N16 O112'
_cell_volume   12242.50507508
_cell_formula_units_Z   8
loop_
 _symmetry_equiv_pos_site_id
 _symmetry_equiv_pos_as_xyz
  1  'x, y, z'
loop_
 _atom_site_type_symbol
 _atom_site_label
 _atom_site_symmetry_multiplicity
 _atom_site_fract_x
 _atom_site_fract_y
 _atom_site_fract_z
 _atom_site_occupancy
 _atom_site_charge
Cu  Cu1  1  0.79480000  0.24190000  0.27400000  1.0 0.7287476938
Cu  Cu2  1  0.20520000  0.75810000  0.27400000  1.0 0.7287476938
Cu  Cu3  1  0.70520000  0.74190000  0.22600000  1.0 0.7287476938
Cu  Cu4  1  0.75810000  0.79480000  0.27400000  1.0 0.7287476938
Cu  Cu5  1  0.25810000  0.70520000  0.22600000  1.0 0.7287476938
Cu  Cu6  1  0.24190000  0.20520000  0.27400000  1.0 0.7287476938
Cu  Cu7  1  0.74190000  0.29480000  0.22600000  1.0 0.7287476938
Cu  Cu8  1  0.29480000  0.25810000  0.22600000  1.0 0.7287476938
Cu  Cu9  1  0.20520000  0.75810000  0.72600000  1.0 0.7287476938
Cu  Cu10  1  0.79480000  0.24190000  0.72600000  1.0 0.7287476938
Cu  Cu11  1  0.29480000  0.25810000  0.77400000  1.0 0.7287476938
Cu  Cu12  1  0.24190000  0.20520000  0.72600000  1.0 0.7287476938
Cu  Cu13  1  0.74190000  0.29480000  0.77400000  1.0 0.7287476938
Cu  Cu14  1  0.75810000  0.79480000  0.72600000  1.0 0.7287476938
Cu  Cu15  1  0.25810000  0.70520000  0.77400000  1.0 0.7287476938
Cu  Cu16  1  0.70520000  0.74190000  0.77400000  1.0 0.7287476938
H  H1  1  0.01360000  0.45430000  0.05720000  1.0 0.1184450956
H  H2  1  0.98640000  0.54570000  0.05720000  1.0 0.1184450956
H  H3  1  0.48640000  0.95430000  0.44280000  1.0 0.1184450956
H  H4  1  0.54570000  0.01360000  0.05720000  1.0 0.1184450956
H  H5  1  0.04570000  0.48640000  0.44280000  1.0 0.1184450956
H  H6  1  0.45430000  0.98640000  0.05720000  1.0 0.1184450956
H  H7  1  0.95430000  0.51360000  0.44280000  1.0 0.1184450956
H  H8  1  0.51360000  0.04570000  0.44280000  1.0 0.1184450956
H  H9  1  0.98640000  0.54570000  0.94280000  1.0 0.1184450956
H  H10  1  0.01360000  0.45430000  0.94280000  1.0 0.1184450956
H  H11  1  0.51360000  0.04570000  0.55720000  1.0 0.1184450956
H  H12  1  0.45430000  0.98640000  0.94280000  1.0 0.1184450956
H  H13  1  0.95430000  0.51360000  0.55720000  1.0 0.1184450956
H  H14  1  0.54570000  0.01360000  0.94280000  1.0 0.1184450956
H  H15  1  0.04570000  0.48640000  0.55720000  1.0 0.1184450956
H  H16  1  0.48640000  0.95430000  0.55720000  1.0 0.1184450956
H  H17  1  0.08350000  0.28410000  0.00000000  1.0 0.1394050897
H  H18  1  0.91650000  0.71590000  0.00000000  1.0 0.1394050897
H  H19  1  0.41650000  0.78410000  0.50000000  1.0 0.1394050897
H  H20  1  0.71590000  0.08350000  0.00000000  1.0 0.1394050897
H  H21  1  0.21590000  0.41650000  0.50000000  1.0 0.1394050897
H  H22  1  0.28410000  0.91650000  0.00000000  1.0 0.1394050897
H  H23  1  0.78410000  0.58350000  0.50000000  1.0 0.1394050897
H  H24  1  0.58350000  0.21590000  0.50000000  1.0 0.1394050897
H  H25  1  0.98200000  0.36700000  0.09220000  1.0 0.282042155
H  H26  1  0.01800000  0.63300000  0.09220000  1.0 0.282042155
H  H27  1  0.51800000  0.86700000  0.40780000  1.0 0.282042155
H  H28  1  0.63300000  0.98200000  0.09220000  1.0 0.282042155
H  H29  1  0.13300000  0.51800000  0.40780000  1.0 0.282042155
H  H30  1  0.36700000  0.01800000  0.09220000  1.0 0.282042155
H  H31  1  0.86700000  0.48200000  0.40780000  1.0 0.282042155
H  H32  1  0.48200000  0.13300000  0.40780000  1.0 0.282042155
H  H33  1  0.01800000  0.63300000  0.90780000  1.0 0.282042155
H  H34  1  0.98200000  0.36700000  0.90780000  1.0 0.282042155
H  H35  1  0.48200000  0.13300000  0.59220000  1.0 0.282042155
H  H36  1  0.36700000  0.01800000  0.90780000  1.0 0.282042155
H  H37  1  0.86700000  0.48200000  0.59220000  1.0 0.282042155
H  H38  1  0.63300000  0.98200000  0.90780000  1.0 0.282042155
H  H39  1  0.13300000  0.51800000  0.59220000  1.0 0.282042155
H  H40  1  0.51800000  0.86700000  0.59220000  1.0 0.282042155
H  H41  1  0.90560000  0.30860000  0.14860000  1.0 0.1462544566
H  H42  1  0.09440000  0.69140000  0.14860000  1.0 0.1462544566
H  H43  1  0.59440000  0.80860000  0.35140000  1.0 0.1462544566
H  H44  1  0.69140000  0.90560000  0.14860000  1.0 0.1462544566
H  H45  1  0.19140000  0.59440000  0.35140000  1.0 0.1462544566
H  H46  1  0.30860000  0.09440000  0.14860000  1.0 0.1462544566
H  H47  1  0.80860000  0.40560000  0.35140000  1.0 0.1462544566
H  H48  1  0.40560000  0.19140000  0.35140000  1.0 0.1462544566
H  H49  1  0.09440000  0.69140000  0.85140000  1.0 0.1462544566
H  H50  1  0.90560000  0.30860000  0.85140000  1.0 0.1462544566
H  H51  1  0.40560000  0.19140000  0.64860000  1.0 0.1462544566
H  H52  1  0.30860000  0.09440000  0.85140000  1.0 0.1462544566
H  H53  1  0.80860000  0.40560000  0.64860000  1.0 0.1462544566
H  H54  1  0.69140000  0.90560000  0.85140000  1.0 0.1462544566
H  H55  1  0.19140000  0.59440000  0.64860000  1.0 0.1462544566
H  H56  1  0.59440000  0.80860000  0.64860000  1.0 0.1462544566
H  H57  1  0.01490000  0.25050000  0.24480000  1.0 0.1394050897
H  H58  1  0.98510000  0.74950000  0.24480000  1.0 0.1394050897
H  H59  1  0.48510000  0.75050000  0.25520000  1.0 0.1394050897
H  H60  1  0.74950000  0.01490000  0.24480000  1.0 0.1394050897
H  H61  1  0.24950000  0.48510000  0.25520000  1.0 0.1394050897
H  H62  1  0.25050000  0.98510000  0.24480000  1.0 0.1394050897
H  H63  1  0.75050000  0.51490000  0.25520000  1.0 0.1394050897
H  H64  1  0.51490000  0.24950000  0.25520000  1.0 0.1394050897
H  H65  1  0.98510000  0.74950000  0.75520000  1.0 0.1394050897
H  H66  1  0.01490000  0.25050000  0.75520000  1.0 0.1394050897
H  H67  1  0.51490000  0.24950000  0.74480000  1.0 0.1394050897
H  H68  1  0.25050000  0.98510000  0.75520000  1.0 0.1394050897
H  H69  1  0.75050000  0.51490000  0.74480000  1.0 0.1394050897
H  H70  1  0.74950000  0.01490000  0.75520000  1.0 0.1394050897
H  H71  1  0.24950000  0.48510000  0.74480000  1.0 0.1394050897
H  H72  1  0.48510000  0.75050000  0.74480000  1.0 0.1394050897
H  H73  1  0.12240000  0.29220000  0.14550000  1.0 0.1462544566
H  H74  1  0.87760000  0.70780000  0.14550000  1.0 0.1462544566
H  H75  1  0.37760000  0.79220000  0.35450000  1.0 0.1462544566
H  H76  1  0.70780000  0.12240000  0.14550000  1.0 0.1462544566
H  H77  1  0.20780000  0.37760000  0.35450000  1.0 0.1462544566
H  H78  1  0.29220000  0.87760000  0.14550000  1.0 0.1462544566
H  H79  1  0.79220000  0.62240000  0.35450000  1.0 0.1462544566
H  H80  1  0.62240000  0.20780000  0.35450000  1.0 0.1462544566
H  H81  1  0.87760000  0.70780000  0.85450000  1.0 0.1462544566
H  H82  1  0.12240000  0.29220000  0.85450000  1.0 0.1462544566
H  H83  1  0.62240000  0.20780000  0.64550000  1.0 0.1462544566
H  H84  1  0.29220000  0.87760000  0.85450000  1.0 0.1462544566
H  H85  1  0.79220000  0.62240000  0.64550000  1.0 0.1462544566
H  H86  1  0.70780000  0.12240000  0.85450000  1.0 0.1462544566
H  H87  1  0.20780000  0.37760000  0.64550000  1.0 0.1462544566
H  H88  1  0.37760000  0.79220000  0.64550000  1.0 0.1462544566
C  C1  1  0.00920000  0.46510000  0.00000000  1.0 0.0870649348
C  C2  1  0.99080000  0.53490000  0.00000000  1.0 0.0870649348
C  C3  1  0.49080000  0.96510000  0.50000000  1.0 0.0870649348
C  C4  1  0.53490000  0.00920000  0.00000000  1.0 0.0870649348
C  C5  1  0.03490000  0.49080000  0.50000000  1.0 0.0870649348
C  C6  1  0.46510000  0.99080000  0.00000000  1.0 0.0870649348
C  C7  1  0.96510000  0.50920000  0.50000000  1.0 0.0870649348
C  C8  1  0.50920000  0.03490000  0.50000000  1.0 0.0870649348
C  C9  1  0.02300000  0.43130000  0.03400000  1.0 -0.17873888
C  C10  1  0.97700000  0.56870000  0.03400000  1.0 -0.17873888
C  C11  1  0.47700000  0.93130000  0.46600000  1.0 -0.17873888
C  C12  1  0.56870000  0.02300000  0.03400000  1.0 -0.17873888
C  C13  1  0.06870000  0.47700000  0.46600000  1.0 -0.17873888
C  C14  1  0.43130000  0.97700000  0.03400000  1.0 -0.17873888
C  C15  1  0.93130000  0.52300000  0.46600000  1.0 -0.17873888
C  C16  1  0.52300000  0.06870000  0.46600000  1.0 -0.17873888
C  C17  1  0.97700000  0.56870000  0.96600000  1.0 -0.17873888
C  C18  1  0.02300000  0.43130000  0.96600000  1.0 -0.17873888
C  C19  1  0.52300000  0.06870000  0.53400000  1.0 -0.17873888
C  C20  1  0.43130000  0.97700000  0.96600000  1.0 -0.17873888
C  C21  1  0.93130000  0.52300000  0.53400000  1.0 -0.17873888
C  C22  1  0.56870000  0.02300000  0.96600000  1.0 -0.17873888
C  C23  1  0.06870000  0.47700000  0.53400000  1.0 -0.17873888
C  C24  1  0.47700000  0.93130000  0.53400000  1.0 -0.17873888
C  C25  1  0.05080000  0.36370000  0.03400000  1.0 -0.0077332327
C  C26  1  0.94920000  0.63630000  0.03400000  1.0 -0.0077332327
C  C27  1  0.44920000  0.86370000  0.46600000  1.0 -0.0077332327
C  C28  1  0.63630000  0.05080000  0.03400000  1.0 -0.0077332327
C  C29  1  0.13630000  0.44920000  0.46600000  1.0 -0.0077332327
C  C30  1  0.36370000  0.94920000  0.03400000  1.0 -0.0077332327
C  C31  1  0.86370000  0.55080000  0.46600000  1.0 -0.0077332327
C  C32  1  0.55080000  0.13630000  0.46600000  1.0 -0.0077332327
C  C33  1  0.94920000  0.63630000  0.96600000  1.0 -0.0077332327
C  C34  1  0.05080000  0.36370000  0.96600000  1.0 -0.0077332327
C  C35  1  0.55080000  0.13630000  0.53400000  1.0 -0.0077332327
C  C36  1  0.36370000  0.94920000  0.96600000  1.0 -0.0077332327
C  C37  1  0.86370000  0.55080000  0.53400000  1.0 -0.0077332327
C  C38  1  0.63630000  0.05080000  0.96600000  1.0 -0.0077332327
C  C39  1  0.13630000  0.44920000  0.53400000  1.0 -0.0077332327
C  C40  1  0.44920000  0.86370000  0.53400000  1.0 -0.0077332327
C  C41  1  0.06460000  0.33000000  0.00000000  1.0 -0.1102469936
C  C42  1  0.93540000  0.67000000  0.00000000  1.0 -0.1102469936
C  C43  1  0.43540000  0.83000000  0.50000000  1.0 -0.1102469936
C  C44  1  0.67000000  0.06460000  0.00000000  1.0 -0.1102469936
C  C45  1  0.17000000  0.43540000  0.50000000  1.0 -0.1102469936
C  C46  1  0.33000000  0.93540000  0.00000000  1.0 -0.1102469936
C  C47  1  0.83000000  0.56460000  0.50000000  1.0 -0.1102469936
C  C48  1  0.56460000  0.17000000  0.50000000  1.0 -0.1102469936
C  C49  1  0.05620000  0.31510000  0.07000000  1.0 0.4646008927
C  C50  1  0.94380000  0.68490000  0.07000000  1.0 0.4646008927
C  C51  1  0.44380000  0.81510000  0.43000000  1.0 0.4646008927
C  C52  1  0.68490000  0.05620000  0.07000000  1.0 0.4646008927
C  C53  1  0.18490000  0.44380000  0.43000000  1.0 0.4646008927
C  C54  1  0.31510000  0.94380000  0.07000000  1.0 0.4646008927
C  C55  1  0.81510000  0.55620000  0.43000000  1.0 0.4646008927
C  C56  1  0.55620000  0.18490000  0.43000000  1.0 0.4646008927
C  C57  1  0.94380000  0.68490000  0.93000000  1.0 0.4646008927
C  C58  1  0.05620000  0.31510000  0.93000000  1.0 0.4646008927
C  C59  1  0.55620000  0.18490000  0.57000000  1.0 0.4646008927
C  C60  1  0.31510000  0.94380000  0.93000000  1.0 0.4646008927
C  C61  1  0.81510000  0.55620000  0.57000000  1.0 0.4646008927
C  C62  1  0.68490000  0.05620000  0.93000000  1.0 0.4646008927
C  C63  1  0.18490000  0.44380000  0.57000000  1.0 0.4646008927
C  C64  1  0.44380000  0.81510000  0.57000000  1.0 0.4646008927
C  C65  1  0.01390000  0.30380000  0.14020000  1.0 0.2446207273
C  C66  1  0.98610000  0.69620000  0.14020000  1.0 0.2460172354
C  C67  1  0.48610000  0.80380000  0.35980000  1.0 0.2460172354
C  C68  1  0.69620000  0.01390000  0.14020000  1.0 0.2460172354
C  C69  1  0.19620000  0.48610000  0.35980000  1.0 0.2460172354
C  C70  1  0.30380000  0.98610000  0.14020000  1.0 0.2460172354
C  C71  1  0.80380000  0.51390000  0.35980000  1.0 0.2460172354
C  C72  1  0.51390000  0.19620000  0.35980000  1.0 0.2460172354
C  C73  1  0.98610000  0.69620000  0.85980000  1.0 0.2460172354
C  C74  1  0.01390000  0.30380000  0.85980000  1.0 0.2460172354
C  C75  1  0.51390000  0.19620000  0.64020000  1.0 0.2460172354
C  C76  1  0.30380000  0.98610000  0.85980000  1.0 0.2460172354
C  C77  1  0.80380000  0.51390000  0.64020000  1.0 0.2460172354
C  C78  1  0.69620000  0.01390000  0.85980000  1.0 0.2460172354
C  C79  1  0.19620000  0.48610000  0.64020000  1.0 0.2460172354
C  C80  1  0.48610000  0.80380000  0.64020000  1.0 0.2460172354
C  C81  1  0.94850000  0.29880000  0.16080000  1.0 -0.1853174819
C  C82  1  0.05150000  0.70120000  0.16080000  1.0 -0.1853174819
C  C83  1  0.55150000  0.79880000  0.33920000  1.0 -0.1853174819
C  C84  1  0.70120000  0.94850000  0.16080000  1.0 -0.1853174819
C  C85  1  0.20120000  0.55150000  0.33920000  1.0 -0.1853174819
C  C86  1  0.29880000  0.05150000  0.16080000  1.0 -0.1853174819
C  C87  1  0.79880000  0.44850000  0.33920000  1.0 -0.1853174819
C  C88  1  0.44850000  0.20120000  0.33920000  1.0 -0.1853174819
C  C89  1  0.05150000  0.70120000  0.83920000  1.0 -0.1853174819
C  C90  1  0.94850000  0.29880000  0.83920000  1.0 -0.1853174819
C  C91  1  0.44850000  0.20120000  0.66080000  1.0 -0.1853174819
C  C92  1  0.29880000  0.05150000  0.83920000  1.0 -0.1853174819
C  C93  1  0.79880000  0.44850000  0.66080000  1.0 -0.1853174819
C  C94  1  0.70120000  0.94850000  0.83920000  1.0 -0.1853174819
C  C95  1  0.20120000  0.55150000  0.66080000  1.0 -0.1853174819
C  C96  1  0.55150000  0.79880000  0.66080000  1.0 -0.1853174819
C  C97  1  0.94890000  0.27870000  0.20030000  1.0 -0.0779578425
C  C98  1  0.05110000  0.72130000  0.20030000  1.0 -0.0779578425
C  C99  1  0.55110000  0.77870000  0.29970000  1.0 -0.0779578425
C  C100  1  0.72130000  0.94890000  0.20030000  1.0 -0.0779578425
C  C101  1  0.22130000  0.55110000  0.29970000  1.0 -0.0779578425
C  C102  1  0.27870000  0.05110000  0.20030000  1.0 -0.0779578425
C  C103  1  0.77870000  0.44890000  0.29970000  1.0 -0.0779578425
C  C104  1  0.44890000  0.22130000  0.29970000  1.0 -0.0779578425
C  C105  1  0.05110000  0.72130000  0.79970000  1.0 -0.0779578425
C  C106  1  0.94890000  0.27870000  0.79970000  1.0 -0.0779578425
C  C107  1  0.44890000  0.22130000  0.70030000  1.0 -0.0779578425
C  C108  1  0.27870000  0.05110000  0.79970000  1.0 -0.0779578425
C  C109  1  0.77870000  0.44890000  0.70030000  1.0 -0.0779578425
C  C110  1  0.72130000  0.94890000  0.79970000  1.0 -0.0779578425
C  C111  1  0.22130000  0.55110000  0.70030000  1.0 -0.0779578425
C  C112  1  0.55110000  0.77870000  0.70030000  1.0 -0.0779578425
C  C113  1  0.01470000  0.26370000  0.21910000  1.0 -0.0563429396
C  C114  1  0.98530000  0.73630000  0.21910000  1.0 -0.0563429396
C  C115  1  0.48530000  0.76370000  0.28090000  1.0 -0.0563429396
C  C116  1  0.73630000  0.01470000  0.21910000  1.0 -0.0563429396
C  C117  1  0.23630000  0.48530000  0.28090000  1.0 -0.0563429396
C  C118  1  0.26370000  0.98530000  0.21910000  1.0 -0.0563429396
C  C119  1  0.76370000  0.51470000  0.28090000  1.0 -0.0563429396
C  C120  1  0.51470000  0.23630000  0.28090000  1.0 -0.0563429396
C  C121  1  0.98530000  0.73630000  0.78090000  1.0 -0.0563429396
C  C122  1  0.01470000  0.26370000  0.78090000  1.0 -0.0563429396
C  C123  1  0.51470000  0.23630000  0.71910000  1.0 -0.0563429396
C  C124  1  0.26370000  0.98530000  0.78090000  1.0 -0.0563429396
C  C125  1  0.76370000  0.51470000  0.71910000  1.0 -0.0563429396
C  C126  1  0.73630000  0.01470000  0.78090000  1.0 -0.0563429396
C  C127  1  0.23630000  0.48530000  0.71910000  1.0 -0.0563429396
C  C128  1  0.48530000  0.76370000  0.71910000  1.0 -0.0563429396
C  C129  1  0.08010000  0.26870000  0.19840000  1.0 -0.0869669775
C  C130  1  0.91990000  0.73130000  0.19840000  1.0 -0.0869669775
C  C131  1  0.41990000  0.76870000  0.30160000  1.0 -0.0869669775
C  C132  1  0.73130000  0.08010000  0.19840000  1.0 -0.0869669775
C  C133  1  0.23130000  0.41990000  0.30160000  1.0 -0.0869669775
C  C134  1  0.26870000  0.91990000  0.19840000  1.0 -0.0869669775
C  C135  1  0.76870000  0.58010000  0.30160000  1.0 -0.0869669775
C  C136  1  0.58010000  0.23130000  0.30160000  1.0 -0.0869669775
C  C137  1  0.91990000  0.73130000  0.80160000  1.0 -0.0869669775
C  C138  1  0.08010000  0.26870000  0.80160000  1.0 -0.0869669775
C  C139  1  0.58010000  0.23130000  0.69840000  1.0 -0.0869669775
C  C140  1  0.26870000  0.91990000  0.80160000  1.0 -0.0869669775
C  C141  1  0.76870000  0.58010000  0.69840000  1.0 -0.0869669775
C  C142  1  0.73130000  0.08010000  0.80160000  1.0 -0.0869669775
C  C143  1  0.23130000  0.41990000  0.69840000  1.0 -0.0869669775
C  C144  1  0.41990000  0.76870000  0.69840000  1.0 -0.0869669775
C  C145  1  0.07970000  0.28880000  0.15900000  1.0 -0.1488573086
C  C146  1  0.92030000  0.71120000  0.15900000  1.0 -0.1488573086
C  C147  1  0.42030000  0.78880000  0.34100000  1.0 -0.1488573086
C  C148  1  0.71120000  0.07970000  0.15900000  1.0 -0.1488573086
C  C149  1  0.21120000  0.42030000  0.34100000  1.0 -0.1488573086
C  C150  1  0.28880000  0.92030000  0.15900000  1.0 -0.1488573086
C  C151  1  0.78880000  0.57970000  0.34100000  1.0 -0.1488573086
C  C152  1  0.57970000  0.21120000  0.34100000  1.0 -0.1488573086
C  C153  1  0.92030000  0.71120000  0.84100000  1.0 -0.1488573086
C  C154  1  0.07970000  0.28880000  0.84100000  1.0 -0.1488573086
C  C155  1  0.57970000  0.21120000  0.65900000  1.0 -0.1488573086
C  C156  1  0.28880000  0.92030000  0.84100000  1.0 -0.1488573086
C  C157  1  0.78880000  0.57970000  0.65900000  1.0 -0.1488573086
C  C158  1  0.71120000  0.07970000  0.84100000  1.0 -0.1488573086
C  C159  1  0.21120000  0.42030000  0.65900000  1.0 -0.1488573086
C  C160  1  0.42030000  0.78880000  0.65900000  1.0 -0.1488573086
C  C161  1  0.88510000  0.27370000  0.22040000  1.0 0.5356911519
C  C162  1  0.11490000  0.72630000  0.22040000  1.0 0.5356911519
C  C163  1  0.61490000  0.77370000  0.27960000  1.0 0.5356911519
C  C164  1  0.72630000  0.88510000  0.22040000  1.0 0.5356911519
C  C165  1  0.22630000  0.61490000  0.27960000  1.0 0.5356911519
C  C166  1  0.27370000  0.11490000  0.22040000  1.0 0.5356911519
C  C167  1  0.77370000  0.38510000  0.27960000  1.0 0.5356911519
C  C168  1  0.38510000  0.22630000  0.27960000  1.0 0.5356911519
C  C169  1  0.11490000  0.72630000  0.77960000  1.0 0.5356911519
C  C170  1  0.88510000  0.27370000  0.77960000  1.0 0.534387784
C  C171  1  0.38510000  0.22630000  0.72040000  1.0 0.5356911519
C  C172  1  0.27370000  0.11490000  0.77960000  1.0 0.534387784
C  C173  1  0.77370000  0.38510000  0.72040000  1.0 0.5356911519
C  C174  1  0.72630000  0.88510000  0.77960000  1.0 0.5356911519
C  C175  1  0.22630000  0.61490000  0.72040000  1.0 0.5356911519
C  C176  1  0.61490000  0.77370000  0.72040000  1.0 0.5356911519
C  C177  1  0.14430000  0.25410000  0.21680000  1.0 0.5356911519
C  C178  1  0.85570000  0.74590000  0.21680000  1.0 0.5356911519
C  C179  1  0.35570000  0.75410000  0.28320000  1.0 0.534387784
C  C180  1  0.74590000  0.14430000  0.21680000  1.0 0.5356911519
C  C181  1  0.24590000  0.35570000  0.28320000  1.0 0.534387784
C  C182  1  0.25410000  0.85570000  0.21680000  1.0 0.5356911519
C  C183  1  0.75410000  0.64430000  0.28320000  1.0 0.534387784
C  C184  1  0.64430000  0.24590000  0.28320000  1.0 0.534387784
C  C185  1  0.85570000  0.74590000  0.78320000  1.0 0.5356911519
C  C186  1  0.14430000  0.25410000  0.78320000  1.0 0.5356911519
C  C187  1  0.64430000  0.24590000  0.71680000  1.0 0.5356911519
C  C188  1  0.25410000  0.85570000  0.78320000  1.0 0.5356911519
C  C189  1  0.75410000  0.64430000  0.71680000  1.0 0.5356911519
C  C190  1  0.74590000  0.14430000  0.78320000  1.0 0.5356911519
C  C191  1  0.24590000  0.35570000  0.71680000  1.0 0.5356911519
C  C192  1  0.35570000  0.75410000  0.71680000  1.0 0.5356911519
C  C193  1  0.87800000  0.19470000  0.31780000  1.0 0.6599579025
C  C194  1  0.12200000  0.80530000  0.31780000  1.0 0.6599579025
C  C195  1  0.62200000  0.69470000  0.18220000  1.0 0.6599579025
C  C196  1  0.80530000  0.87800000  0.31780000  1.0 0.6599579025
C  C197  1  0.30530000  0.62200000  0.18220000  1.0 0.6599579025
C  C198  1  0.19470000  0.12200000  0.31780000  1.0 0.6599579025
C  C199  1  0.69470000  0.37800000  0.18220000  1.0 0.6599579025
C  C200  1  0.37800000  0.30530000  0.18220000  1.0 0.6599579025
C  C201  1  0.12200000  0.80530000  0.68220000  1.0 0.6599579025
C  C202  1  0.87800000  0.19470000  0.68220000  1.0 0.6599579025
C  C203  1  0.37800000  0.30530000  0.81780000  1.0 0.6599579025
C  C204  1  0.19470000  0.12200000  0.68220000  1.0 0.6599579025
C  C205  1  0.69470000  0.37800000  0.81780000  1.0 0.6599579025
C  C206  1  0.80530000  0.87800000  0.68220000  1.0 0.6599579025
C  C207  1  0.30530000  0.62200000  0.81780000  1.0 0.6599579025
C  C208  1  0.62200000  0.69470000  0.81780000  1.0 0.6599579025
N  N1  1  0.00900000  0.33100000  0.09680000  1.0 -0.3647724938
N  N2  1  0.99100000  0.66900000  0.09680000  1.0 -0.3661744824
N  N3  1  0.49100000  0.83100000  0.40320000  1.0 -0.3647724938
N  N4  1  0.66900000  0.00900000  0.09680000  1.0 -0.3661744824
N  N5  1  0.16900000  0.49100000  0.40320000  1.0 -0.3647724938
N  N6  1  0.33100000  0.99100000  0.09680000  1.0 -0.3647724938
N  N7  1  0.83100000  0.50900000  0.40320000  1.0 -0.3647724938
N  N8  1  0.50900000  0.16900000  0.40320000  1.0 -0.3647724938
N  N9  1  0.99100000  0.66900000  0.90320000  1.0 -0.3647724938
N  N10  1  0.00900000  0.33100000  0.90320000  1.0 -0.3647724938
N  N11  1  0.50900000  0.16900000  0.59680000  1.0 -0.3661744824
N  N12  1  0.33100000  0.99100000  0.90320000  1.0 -0.3647724938
N  N13  1  0.83100000  0.50900000  0.59680000  1.0 -0.3661744824
N  N14  1  0.66900000  0.00900000  0.90320000  1.0 -0.3647724938
N  N15  1  0.16900000  0.49100000  0.59680000  1.0 -0.3661744824
N  N16  1  0.49100000  0.83100000  0.59680000  1.0 -0.3661744824
O  O1  1  0.11100000  0.27900000  0.07580000  1.0 -0.4576164177
O  O2  1  0.88900000  0.72100000  0.07580000  1.0 -0.4576164177
O  O3  1  0.38900000  0.77900000  0.42420000  1.0 -0.4576164177
O  O4  1  0.72100000  0.11100000  0.07580000  1.0 -0.4576164177
O  O5  1  0.22100000  0.38900000  0.42420000  1.0 -0.4576164177
O  O6  1  0.27900000  0.88900000  0.07580000  1.0 -0.4576164177
O  O7  1  0.77900000  0.61100000  0.42420000  1.0 -0.4576164177
O  O8  1  0.61100000  0.22100000  0.42420000  1.0 -0.4576164177
O  O9  1  0.88900000  0.72100000  0.92420000  1.0 -0.4576164177
O  O10  1  0.11100000  0.27900000  0.92420000  1.0 -0.4576164177
O  O11  1  0.61100000  0.22100000  0.57580000  1.0 -0.4576164177
O  O12  1  0.27900000  0.88900000  0.92420000  1.0 -0.4576164177
O  O13  1  0.77900000  0.61100000  0.57580000  1.0 -0.4576164177
O  O14  1  0.72100000  0.11100000  0.92420000  1.0 -0.4576164177
O  O15  1  0.22100000  0.38900000  0.57580000  1.0 -0.4576164177
O  O16  1  0.38900000  0.77900000  0.57580000  1.0 -0.4576164177
O  O17  1  0.82810000  0.29500000  0.20580000  1.0 -0.4497822356
O  O18  1  0.17190000  0.70500000  0.20580000  1.0 -0.4497822356
O  O19  1  0.67190000  0.79500000  0.29420000  1.0 -0.4497822356
O  O20  1  0.70500000  0.82810000  0.20580000  1.0 -0.4497822356
O  O21  1  0.20500000  0.67190000  0.29420000  1.0 -0.4497822356
O  O22  1  0.29500000  0.17190000  0.20580000  1.0 -0.4497822356
O  O23  1  0.79500000  0.32810000  0.29420000  1.0 -0.4497822356
O  O24  1  0.32810000  0.20500000  0.29420000  1.0 -0.4497822356
O  O25  1  0.17190000  0.70500000  0.79420000  1.0 -0.4497822356
O  O26  1  0.82810000  0.29500000  0.79420000  1.0 -0.4497822356
O  O27  1  0.32810000  0.20500000  0.70580000  1.0 -0.4497822356
O  O28  1  0.29500000  0.17190000  0.79420000  1.0 -0.4497822356
O  O29  1  0.79500000  0.32810000  0.70580000  1.0 -0.4497822356
O  O30  1  0.70500000  0.82810000  0.79420000  1.0 -0.4497822356
O  O31  1  0.20500000  0.67190000  0.70580000  1.0 -0.4497822356
O  O32  1  0.67190000  0.79500000  0.70580000  1.0 -0.4497822356
O  O33  1  0.88360000  0.24770000  0.25340000  1.0 -0.4576164177
O  O34  1  0.11640000  0.75230000  0.25340000  1.0 -0.4576164177
O  O35  1  0.61640000  0.74770000  0.24660000  1.0 -0.4576164177
O  O36  1  0.75230000  0.88360000  0.25340000  1.0 -0.4576164177
O  O37  1  0.25230000  0.61640000  0.24660000  1.0 -0.4576164177
O  O38  1  0.24770000  0.11640000  0.25340000  1.0 -0.4576164177
O  O39  1  0.74770000  0.38360000  0.24660000  1.0 -0.4576164177
O  O40  1  0.38360000  0.25230000  0.24660000  1.0 -0.4576164177
O  O41  1  0.11640000  0.75230000  0.74660000  1.0 -0.4576164177
O  O42  1  0.88360000  0.24770000  0.74660000  1.0 -0.4576164177
O  O43  1  0.38360000  0.25230000  0.75340000  1.0 -0.4576164177
O  O44  1  0.24770000  0.11640000  0.74660000  1.0 -0.4576164177
O  O45  1  0.74770000  0.38360000  0.75340000  1.0 -0.4576164177
O  O46  1  0.75230000  0.88360000  0.74660000  1.0 -0.4576164177
O  O47  1  0.25230000  0.61640000  0.75340000  1.0 -0.4576164177
O  O48  1  0.61640000  0.74770000  0.75340000  1.0 -0.4576164177
O  O49  1  0.20230000  0.26930000  0.20120000  1.0 -0.4730722923
O  O50  1  0.79770000  0.73070000  0.20120000  1.0 -0.4730722923
O  O51  1  0.29770000  0.76930000  0.29880000  1.0 -0.4730722923
O  O52  1  0.73070000  0.20230000  0.20120000  1.0 -0.4730722923
O  O53  1  0.23070000  0.29770000  0.29880000  1.0 -0.4730722923
O  O54  1  0.26930000  0.79770000  0.20120000  1.0 -0.4730722923
O  O55  1  0.76930000  0.70230000  0.29880000  1.0 -0.4730722923
O  O56  1  0.70230000  0.23070000  0.29880000  1.0 -0.4730722923
O  O57  1  0.79770000  0.73070000  0.79880000  1.0 -0.4730722923
O  O58  1  0.20230000  0.26930000  0.79880000  1.0 -0.4730722923
O  O59  1  0.70230000  0.23070000  0.70120000  1.0 -0.4730722923
O  O60  1  0.26930000  0.79770000  0.79880000  1.0 -0.4730722923
O  O61  1  0.76930000  0.70230000  0.70120000  1.0 -0.4730722923
O  O62  1  0.73070000  0.20230000  0.79880000  1.0 -0.4730722923
O  O63  1  0.23070000  0.29770000  0.70120000  1.0 -0.4730722923
O  O64  1  0.29770000  0.76930000  0.70120000  1.0 -0.4730722923
O  O65  1  0.14500000  0.22550000  0.24920000  1.0 -0.4823665563
O  O66  1  0.85500000  0.77450000  0.24920000  1.0 -0.4823665563
O  O67  1  0.35500000  0.72550000  0.25080000  1.0 -0.4823665563
O  O68  1  0.77450000  0.14500000  0.24920000  1.0 -0.4823665563
O  O69  1  0.27450000  0.35500000  0.25080000  1.0 -0.4823665563
O  O70  1  0.22550000  0.85500000  0.24920000  1.0 -0.4823665563
O  O71  1  0.72550000  0.64500000  0.25080000  1.0 -0.4823665563
O  O72  1  0.64500000  0.27450000  0.25080000  1.0 -0.4823665563
O  O73  1  0.85500000  0.77450000  0.75080000  1.0 -0.4823665563
O  O74  1  0.14500000  0.22550000  0.75080000  1.0 -0.4823665563
O  O75  1  0.64500000  0.27450000  0.74920000  1.0 -0.4823665563
O  O76  1  0.22550000  0.85500000  0.75080000  1.0 -0.4823665563
O  O77  1  0.72550000  0.64500000  0.74920000  1.0 -0.4823665563
O  O78  1  0.77450000  0.14500000  0.75080000  1.0 -0.4823665563
O  O79  1  0.27450000  0.35500000  0.74920000  1.0 -0.4823665563
O  O80  1  0.35500000  0.72550000  0.74920000  1.0 -0.4823665563
O  O81  1  0.91130000  0.15400000  0.30030000  1.0 -0.3055531215
O  O82  1  0.08870000  0.84600000  0.30030000  1.0 -0.3012315166
O  O83  1  0.58870000  0.65400000  0.19970000  1.0 -0.3012315166
O  O84  1  0.84600000  0.91130000  0.30030000  1.0 -0.3055531215
O  O85  1  0.34600000  0.58870000  0.19970000  1.0 -0.3012315166
O  O86  1  0.15400000  0.08870000  0.30030000  1.0 -0.3012315166
O  O87  1  0.65400000  0.41130000  0.19970000  1.0 -0.3012315166
O  O88  1  0.41130000  0.34600000  0.19970000  1.0 -0.3012315166
O  O89  1  0.08870000  0.84600000  0.69970000  1.0 -0.3012315166
O  O90  1  0.91130000  0.15400000  0.69970000  1.0 -0.3055531215
O  O91  1  0.41130000  0.34600000  0.80030000  1.0 -0.3012315166
O  O92  1  0.15400000  0.08870000  0.69970000  1.0 -0.3012315166
O  O93  1  0.65400000  0.41130000  0.80030000  1.0 -0.3012315166
O  O94  1  0.84600000  0.91130000  0.69970000  1.0 -0.3055531215
O  O95  1  0.34600000  0.58870000  0.80030000  1.0 -0.3012315166
O  O96  1  0.58870000  0.65400000  0.80030000  1.0 -0.3012315166
O  O97  1  0.84470000  0.23540000  0.33540000  1.0 -0.3306640126
O  O98  1  0.15530000  0.76460000  0.33540000  1.0 -0.3306640126
O  O99  1  0.65530000  0.73540000  0.16460000  1.0 -0.3306640126
O  O100  1  0.76460000  0.84470000  0.33540000  1.0 -0.3306640126
O  O101  1  0.26460000  0.65530000  0.16460000  1.0 -0.3306640126
O  O102  1  0.23540000  0.15530000  0.33540000  1.0 -0.3306640126
O  O103  1  0.73540000  0.34470000  0.16460000  1.0 -0.3306640126
O  O104  1  0.34470000  0.26460000  0.16460000  1.0 -0.3306640126
O  O105  1  0.15530000  0.76460000  0.66460000  1.0 -0.3306640126
O  O106  1  0.84470000  0.23540000  0.66460000  1.0 -0.3306640126
O  O107  1  0.34470000  0.26460000  0.83540000  1.0 -0.3306640126
O  O108  1  0.23540000  0.15530000  0.66460000  1.0 -0.3306640126
O  O109  1  0.73540000  0.34470000  0.83540000  1.0 -0.3306640126
O  O110  1  0.76460000  0.84470000  0.66460000  1.0 -0.3306640126
O  O111  1  0.26460000  0.65530000  0.83540000  1.0 -0.3306640126
O  O112  1  0.65530000  0.73540000  0.83540000  1.0 -0.3306640126
