# DDEC6 charges by PACMAN v1.1 (https://github.com/mtap-research/PACMAN-charge/)
data_FARFIO_FSR_pacman
_symmetry_space_group_name_H-M   'P 1'
_cell_length_a   19.19770000
_cell_length_b   19.19770000
_cell_length_c   31.23330000
_cell_angle_alpha   77.54750000
_cell_angle_beta   102.45300000
_cell_angle_gamma   134.26600000
_symmetry_Int_Tables_number   1
_chemical_formula_structural   ZnH20C26(IN2)2
_chemical_formula_sum   'Zn12 H240 C312 I24 N48'
_cell_volume   8014.25797016
_cell_formula_units_Z   12
loop_
 _symmetry_equiv_pos_site_id
 _symmetry_equiv_pos_as_xyz
  1  'x, y, z'
loop_
 _atom_site_type_symbol
 _atom_site_label
 _atom_site_symmetry_multiplicity
 _atom_site_fract_x
 _atom_site_fract_y
 _atom_site_fract_z
 _atom_site_occupancy
 _atom_site_charge
Zn  Zn1  1  0.19935000  0.03723000  0.59358000  1.0 0.4434215806
Zn  Zn2  1  0.96277000  0.80065000  0.09358000  1.0 0.4434215806
Zn  Zn3  1  0.53019000  0.17875000  0.78014000  1.0 0.4506440542
Zn  Zn4  1  0.82125000  0.46981000  0.28014000  1.0 0.4506440542
Zn  Zn5  1  0.47411000  0.72251000  0.94197000  1.0 0.4606077604
Zn  Zn6  1  0.27749000  0.52589000  0.44197000  1.0 0.4606077604
Zn  Zn7  1  0.03723000  0.19935000  0.90642000  1.0 0.4434215806
Zn  Zn8  1  0.80065000  0.96277000  0.40642000  1.0 0.4434215806
Zn  Zn9  1  0.17875000  0.53019000  0.71986000  1.0 0.4506440542
Zn  Zn10  1  0.46981000  0.82125000  0.21986000  1.0 0.4506440542
Zn  Zn11  1  0.72251000  0.47411000  0.55803000  1.0 0.4606077604
Zn  Zn12  1  0.52589000  0.27749000  0.05803000  1.0 0.4606077604
H  H1  1  0.15080000  0.93180000  0.51970000  1.0 0.1020841475
H  H2  1  0.06820000  0.84920000  0.01970000  1.0 0.1020841475
H  H3  1  0.01950000  0.81630000  0.47300000  1.0 0.1475359115
H  H4  1  0.18370000  0.98050000  0.97300000  1.0 0.1475359115
H  H5  1  0.85570000  0.83810000  0.52030000  1.0 0.139598009
H  H6  1  0.16190000  0.14430000  0.02030000  1.0 0.139598009
H  H7  1  0.99250000  0.95530000  0.56410000  1.0 0.1020841475
H  H8  1  0.04470000  0.00750000  0.06410000  1.0 0.1020841475
H  H9  1  0.02540000  0.84160000  0.63100000  1.0 0.1020841475
H  H10  1  0.15840000  0.97460000  0.13100000  1.0 0.1020841475
H  H11  1  0.98460000  0.72080000  0.68660000  1.0 0.1475359115
H  H12  1  0.27920000  0.01540000  0.18660000  1.0 0.1475359115
H  H13  1  0.27200000  0.87740000  0.72010000  1.0 0.139598009
H  H14  1  0.12260000  0.72800000  0.22010000  1.0 0.139598009
H  H15  1  0.30510000  0.99210000  0.66260000  1.0 0.1020841475
H  H16  1  0.00790000  0.69490000  0.16260000  1.0 0.1020841475
H  H17  1  0.13360000  0.53080000  0.87130000  1.0 0.139598009
H  H18  1  0.46920000  0.86640000  0.37130000  1.0 0.139598009
H  H19  1  0.26050000  0.56430000  0.92060000  1.0 0.1020841475
H  H20  1  0.43570000  0.73950000  0.42060000  1.0 0.1020841475
H  H21  1  0.45510000  0.81710000  0.85470000  1.0 0.1020841475
H  H22  1  0.18290000  0.54490000  0.35470000  1.0 0.1020841475
H  H23  1  0.33420000  0.79280000  0.80350000  1.0 0.1300093576
H  H24  1  0.20720000  0.66580000  0.30350000  1.0 0.1300093576
H  H25  1  0.82690000  0.52110000  0.73540000  1.0 0.139598009
H  H26  1  0.47890000  0.17310000  0.23540000  1.0 0.139598009
H  H27  1  0.66310000  0.37910000  0.73730000  1.0 0.1020841475
H  H28  1  0.62090000  0.33690000  0.23730000  1.0 0.1020841475
H  H29  1  0.72480000  0.24780000  0.82710000  1.0 0.108776649
H  H30  1  0.75220000  0.27520000  0.32710000  1.0 0.108776649
H  H31  1  0.89020000  0.38680000  0.82930000  1.0 0.139598009
H  H32  1  0.61320000  0.10980000  0.32930000  1.0 0.139598009
H  H33  1  0.91320000  0.55760000  0.36770000  1.0 0.1020841475
H  H34  1  0.44240000  0.08680000  0.86770000  1.0 0.1020841475
H  H35  1  0.90080000  0.62540000  0.41510000  1.0 0.139598009
H  H36  1  0.37460000  0.09920000  0.91510000  1.0 0.139598009
H  H37  1  0.65810000  0.54390000  0.33960000  1.0 0.139598009
H  H38  1  0.45610000  0.34190000  0.83960000  1.0 0.139598009
H  H39  1  0.68350000  0.48750000  0.29200000  1.0 0.1020841475
H  H40  1  0.51250000  0.31650000  0.79200000  1.0 0.1020841475
H  H41  1  0.62120000  0.68300000  0.49570000  1.0 0.139598009
H  H42  1  0.31700000  0.37880000  0.99570000  1.0 0.139598009
H  H43  1  0.49640000  0.50060000  0.40260000  1.0 0.139598009
H  H44  1  0.49940000  0.50360000  0.90260000  1.0 0.139598009
H  H45  1  0.47410000  0.63710000  0.49580000  1.0 0.1020841475
H  H46  1  0.36290000  0.52590000  0.99580000  1.0 0.1020841475
H  H47  1  0.35200000  0.45880000  0.40580000  1.0 0.1020841475
H  H48  1  0.54120000  0.64800000  0.90580000  1.0 0.1020841475
H  H49  1  0.93180000  0.15080000  0.98030000  1.0 0.1020841475
H  H50  1  0.84920000  0.06820000  0.48030000  1.0 0.1020841475
H  H51  1  0.81630000  0.01950000  0.02700000  1.0 0.1475359115
H  H52  1  0.98050000  0.18370000  0.52700000  1.0 0.1475359115
H  H53  1  0.83810000  0.85570000  0.97970000  1.0 0.139598009
H  H54  1  0.14430000  0.16190000  0.47970000  1.0 0.139598009
H  H55  1  0.95530000  0.99250000  0.93590000  1.0 0.1020841475
H  H56  1  0.00750000  0.04470000  0.43590000  1.0 0.1020841475
H  H57  1  0.84160000  0.02540000  0.86900000  1.0 0.1020841475
H  H58  1  0.97460000  0.15840000  0.36900000  1.0 0.1020841475
H  H59  1  0.72080000  0.98460000  0.81340000  1.0 0.1475359115
H  H60  1  0.01540000  0.27920000  0.31340000  1.0 0.1475359115
H  H61  1  0.87740000  0.27200000  0.77990000  1.0 0.139598009
H  H62  1  0.72800000  0.12260000  0.27990000  1.0 0.139598009
H  H63  1  0.99210000  0.30510000  0.83740000  1.0 0.1020841475
H  H64  1  0.69490000  0.00790000  0.33740000  1.0 0.1020841475
H  H65  1  0.53080000  0.13360000  0.62870000  1.0 0.139598009
H  H66  1  0.86640000  0.46920000  0.12870000  1.0 0.139598009
H  H67  1  0.56430000  0.26050000  0.57940000  1.0 0.1020841475
H  H68  1  0.73950000  0.43570000  0.07940000  1.0 0.1020841475
H  H69  1  0.81710000  0.45510000  0.64530000  1.0 0.1020841475
H  H70  1  0.54490000  0.18290000  0.14530000  1.0 0.1020841475
H  H71  1  0.79280000  0.33420000  0.69650000  1.0 0.1300093576
H  H72  1  0.66580000  0.20720000  0.19650000  1.0 0.1300093576
H  H73  1  0.52110000  0.82690000  0.76460000  1.0 0.139598009
H  H74  1  0.17310000  0.47890000  0.26460000  1.0 0.139598009
H  H75  1  0.37910000  0.66310000  0.76270000  1.0 0.1020841475
H  H76  1  0.33690000  0.62090000  0.26270000  1.0 0.1020841475
H  H77  1  0.24780000  0.72480000  0.67290000  1.0 0.108776649
H  H78  1  0.27520000  0.75220000  0.17290000  1.0 0.108776649
H  H79  1  0.38680000  0.89020000  0.67070000  1.0 0.139598009
H  H80  1  0.10980000  0.61320000  0.17070000  1.0 0.139598009
H  H81  1  0.55760000  0.91320000  0.13230000  1.0 0.1020841475
H  H82  1  0.08680000  0.44240000  0.63230000  1.0 0.1020841475
H  H83  1  0.62540000  0.90080000  0.08490000  1.0 0.139598009
H  H84  1  0.09920000  0.37460000  0.58490000  1.0 0.139598009
H  H85  1  0.54390000  0.65810000  0.16040000  1.0 0.139598009
H  H86  1  0.34190000  0.45610000  0.66040000  1.0 0.139598009
H  H87  1  0.48750000  0.68350000  0.20800000  1.0 0.1020841475
H  H88  1  0.31650000  0.51250000  0.70800000  1.0 0.1020841475
H  H89  1  0.68300000  0.62120000  0.00430000  1.0 0.139598009
H  H90  1  0.37880000  0.31700000  0.50430000  1.0 0.139598009
H  H91  1  0.50060000  0.49640000  0.09740000  1.0 0.139598009
H  H92  1  0.50360000  0.49940000  0.59740000  1.0 0.139598009
H  H93  1  0.63710000  0.47410000  0.00420000  1.0 0.1020841475
H  H94  1  0.52590000  0.36290000  0.50420000  1.0 0.1020841475
H  H95  1  0.45880000  0.35200000  0.09420000  1.0 0.1020841475
H  H96  1  0.64800000  0.54120000  0.59420000  1.0 0.1020841475
H  H97  1  0.61270000  0.20690000  0.41910000  1.0 0.108776649
H  H98  1  0.20690000  0.61270000  0.08090000  1.0 0.108776649
H  H99  1  0.60440000  0.31360000  0.37200000  1.0 0.0912019862
H  H100  1  0.31360000  0.60440000  0.12800000  1.0 0.0912019862
H  H101  1  0.46940000  0.24620000  0.31820000  1.0 0.0912019862
H  H102  1  0.24620000  0.46940000  0.18180000  1.0 0.0912019862
H  H103  1  0.33380000  0.07880000  0.32290000  1.0 0.1205346845
H  H104  1  0.07880000  0.33380000  0.17710000  1.0 0.1205346845
H  H105  1  0.22240000  0.93300000  0.32420000  1.0 0.108776649
H  H106  1  0.93300000  0.22240000  0.17580000  1.0 0.108776649
H  H107  1  0.08920000  0.76600000  0.32830000  1.0 0.0912019862
H  H108  1  0.76600000  0.08920000  0.17170000  1.0 0.0912019862
H  H109  1  0.09620000  0.65980000  0.37910000  1.0 0.0782004699
H  H110  1  0.65980000  0.09620000  0.12090000  1.0 0.0782004699
H  H111  1  0.23720000  0.73100000  0.43160000  1.0 0.0912019862
H  H112  1  0.73100000  0.23720000  0.06840000  1.0 0.0912019862
H  H113  1  0.35430000  0.78370000  0.47050000  1.0 0.1020841475
H  H114  1  0.78370000  0.35430000  0.02950000  1.0 0.1020841475
H  H115  1  0.49850000  0.84470000  0.51130000  1.0 0.1205346845
H  H116  1  0.84470000  0.49850000  0.98870000  1.0 0.1205346845
H  H117  1  0.63710000  0.01590000  0.50670000  1.0 0.1300093576
H  H118  1  0.01590000  0.63710000  0.99330000  1.0 0.1300093576
H  H119  1  0.62540000  0.11680000  0.45800000  1.0 0.1205346845
H  H120  1  0.11680000  0.62540000  0.04200000  1.0 0.1205346845
H  H121  1  0.15190000  0.03930000  0.28300000  1.0 0.062106584
H  H122  1  0.03930000  0.15190000  0.21700000  1.0 0.062106584
H  H123  1  0.95450000  0.94330000  0.29690000  1.0 0.0782004699
H  H124  1  0.94330000  0.95450000  0.20310000  1.0 0.0782004699
H  H125  1  0.04610000  0.99910000  0.33340000  1.0 0.1205346845
H  H126  1  0.99910000  0.04610000  0.16660000  1.0 0.1205346845
H  H127  1  0.05490000  0.87730000  0.33850000  1.0 0.1205346845
H  H128  1  0.87730000  0.05490000  0.16150000  1.0 0.1205346845
H  H129  1  0.94600000  0.82120000  0.34660000  1.0 0.108776649
H  H130  1  0.82120000  0.94600000  0.15340000  1.0 0.108776649
H  H131  1  0.89120000  0.77880000  0.27790000  1.0 0.1020841475
H  H132  1  0.77880000  0.89120000  0.22210000  1.0 0.1020841475
H  H133  1  0.94950000  0.74690000  0.30030000  1.0 0.0782004699
H  H134  1  0.74690000  0.94950000  0.19970000  1.0 0.0782004699
H  H135  1  0.98540000  0.81540000  0.22910000  1.0 0.0782004699
H  H136  1  0.81540000  0.98540000  0.27090000  1.0 0.0782004699
H  H137  1  0.08000000  0.87340000  0.26360000  1.0 0.0912019862
H  H138  1  0.87340000  0.08000000  0.23640000  1.0 0.0912019862
H  H139  1  0.08630000  0.98510000  0.21260000  1.0 0.0782004699
H  H140  1  0.98510000  0.08630000  0.28740000  1.0 0.0782004699
H  H141  1  0.98070000  0.93510000  0.22270000  1.0 0.0493937458
H  H142  1  0.93510000  0.98070000  0.27730000  1.0 0.0493937458
H  H143  1  0.48040000  0.08780000  0.40610000  1.0 0.1020841475
H  H144  1  0.08780000  0.48040000  0.09390000  1.0 0.1020841475
H  H145  1  0.56650000  0.25270000  0.38370000  1.0 0.0912019862
H  H146  1  0.25270000  0.56650000  0.11630000  1.0 0.0912019862
H  H147  1  0.48970000  0.29130000  0.32870000  1.0 0.0912019862
H  H148  1  0.29130000  0.48970000  0.17130000  1.0 0.0912019862
H  H149  1  0.34140000  0.16860000  0.29160000  1.0 0.108776649
H  H150  1  0.16860000  0.34140000  0.20840000  1.0 0.108776649
H  H151  1  0.21350000  0.06410000  0.26130000  1.0 0.0782004699
H  H152  1  0.06410000  0.21350000  0.23870000  1.0 0.0782004699
H  H153  1  0.06570000  0.94490000  0.22480000  1.0 0.062106584
H  H154  1  0.94490000  0.06570000  0.27520000  1.0 0.062106584
H  H155  1  0.97610000  0.77850000  0.24700000  1.0 0.0706006296
H  H156  1  0.77850000  0.97610000  0.25300000  1.0 0.0706006296
H  H157  1  0.04590000  0.73670000  0.30710000  1.0 0.0912019862
H  H158  1  0.73670000  0.04590000  0.19290000  1.0 0.0912019862
H  H159  1  0.09270000  0.70110000  0.36270000  1.0 0.0912019862
H  H160  1  0.70110000  0.09270000  0.13730000  1.0 0.0912019862
H  H161  1  0.16470000  0.66530000  0.41870000  1.0 0.1020841475
H  H162  1  0.66530000  0.16470000  0.08130000  1.0 0.1020841475
H  H163  1  0.31880000  0.78800000  0.45530000  1.0 0.0782004699
H  H164  1  0.78800000  0.31880000  0.04470000  1.0 0.0782004699
H  H165  1  0.40720000  0.94840000  0.42630000  1.0 0.1020841475
H  H166  1  0.94840000  0.40720000  0.07370000  1.0 0.1020841475
H  H167  1  0.09880000  0.07660000  0.25880000  1.0 0.0782004699
H  H168  1  0.07660000  0.09880000  0.24120000  1.0 0.0782004699
H  H169  1  0.38730000  0.79310000  0.58090000  1.0 0.108776649
H  H170  1  0.79310000  0.38730000  0.91910000  1.0 0.108776649
H  H171  1  0.39560000  0.68640000  0.62800000  1.0 0.0912019862
H  H172  1  0.68640000  0.39560000  0.87200000  1.0 0.0912019862
H  H173  1  0.53060000  0.75380000  0.68180000  1.0 0.0912019862
H  H174  1  0.75380000  0.53060000  0.81820000  1.0 0.0912019862
H  H175  1  0.66620000  0.92120000  0.67710000  1.0 0.1205346845
H  H176  1  0.92120000  0.66620000  0.82290000  1.0 0.1205346845
H  H177  1  0.77760000  0.06700000  0.67580000  1.0 0.108776649
H  H178  1  0.06700000  0.77760000  0.82420000  1.0 0.108776649
H  H179  1  0.91080000  0.23400000  0.67170000  1.0 0.0912019862
H  H180  1  0.23400000  0.91080000  0.82830000  1.0 0.0912019862
H  H181  1  0.90380000  0.34020000  0.62090000  1.0 0.0782004699
H  H182  1  0.34020000  0.90380000  0.87910000  1.0 0.0782004699
H  H183  1  0.76280000  0.26900000  0.56840000  1.0 0.0912019862
H  H184  1  0.26900000  0.76280000  0.93160000  1.0 0.0912019862
H  H185  1  0.64570000  0.21630000  0.52950000  1.0 0.1020841475
H  H186  1  0.21630000  0.64570000  0.97050000  1.0 0.1020841475
H  H187  1  0.50150000  0.15530000  0.48870000  1.0 0.1205346845
H  H188  1  0.15530000  0.50150000  0.01130000  1.0 0.1205346845
H  H189  1  0.36290000  0.98410000  0.49330000  1.0 0.1300093576
H  H190  1  0.98410000  0.36290000  0.00670000  1.0 0.1300093576
H  H191  1  0.37460000  0.88320000  0.54200000  1.0 0.1205346845
H  H192  1  0.88320000  0.37460000  0.95800000  1.0 0.1205346845
H  H193  1  0.84810000  0.96070000  0.71700000  1.0 0.062106584
H  H194  1  0.96070000  0.84810000  0.78300000  1.0 0.062106584
H  H195  1  0.04550000  0.05670000  0.70310000  1.0 0.0782004699
H  H196  1  0.05670000  0.04550000  0.79690000  1.0 0.0782004699
H  H197  1  0.95390000  0.00090000  0.66666667  1.0 0.1205346845
H  H198  1  0.00090000  0.95390000  0.83340000  1.0 0.1205346845
H  H199  1  0.94510000  0.12270000  0.66150000  1.0 0.1205346845
H  H200  1  0.12270000  0.94510000  0.83850000  1.0 0.1205346845
H  H201  1  0.05400000  0.17880000  0.65340000  1.0 0.108776649
H  H202  1  0.17880000  0.05400000  0.84660000  1.0 0.108776649
H  H203  1  0.10880000  0.22120000  0.72210000  1.0 0.1020841475
H  H204  1  0.22120000  0.10880000  0.77790000  1.0 0.1020841475
H  H205  1  0.05050000  0.25310000  0.69970000  1.0 0.0782004699
H  H206  1  0.25310000  0.05050000  0.80030000  1.0 0.0782004699
H  H207  1  0.01460000  0.18460000  0.77090000  1.0 0.0782004699
H  H208  1  0.18460000  0.01460000  0.72910000  1.0 0.0782004699
H  H209  1  0.92000000  0.12660000  0.73640000  1.0 0.0912019862
H  H210  1  0.12660000  0.92000000  0.76360000  1.0 0.0912019862
H  H211  1  0.91370000  0.01490000  0.78740000  1.0 0.0782004699
H  H212  1  0.01490000  0.91370000  0.71260000  1.0 0.0782004699
H  H213  1  0.01930000  0.06490000  0.77730000  1.0 0.0493937458
H  H214  1  0.06490000  0.01930000  0.72270000  1.0 0.0493937458
H  H215  1  0.51960000  0.91220000  0.59390000  1.0 0.1020841475
H  H216  1  0.91220000  0.51960000  0.90610000  1.0 0.1020841475
H  H217  1  0.43350000  0.74730000  0.61630000  1.0 0.0912019862
H  H218  1  0.74730000  0.43350000  0.88370000  1.0 0.0912019862
H  H219  1  0.51030000  0.70870000  0.67130000  1.0 0.0912019862
H  H220  1  0.70870000  0.51030000  0.82870000  1.0 0.0912019862
H  H221  1  0.65860000  0.83140000  0.70840000  1.0 0.108776649
H  H222  1  0.83140000  0.65860000  0.79160000  1.0 0.108776649
H  H223  1  0.78650000  0.93590000  0.73870000  1.0 0.0782004699
H  H224  1  0.93590000  0.78650000  0.76130000  1.0 0.0782004699
H  H225  1  0.93430000  0.05510000  0.77520000  1.0 0.062106584
H  H226  1  0.05510000  0.93430000  0.72480000  1.0 0.062106584
H  H227  1  0.02390000  0.22150000  0.75300000  1.0 0.0706006296
H  H228  1  0.22150000  0.02390000  0.74700000  1.0 0.0706006296
H  H229  1  0.95410000  0.26330000  0.69290000  1.0 0.0912019862
H  H230  1  0.26330000  0.95410000  0.80710000  1.0 0.0912019862
H  H231  1  0.90730000  0.29890000  0.63730000  1.0 0.0912019862
H  H232  1  0.29890000  0.90730000  0.86270000  1.0 0.0912019862
H  H233  1  0.83530000  0.33470000  0.58130000  1.0 0.1020841475
H  H234  1  0.33470000  0.83530000  0.91870000  1.0 0.1020841475
H  H235  1  0.68120000  0.21200000  0.54470000  1.0 0.0782004699
H  H236  1  0.21200000  0.68120000  0.95530000  1.0 0.0782004699
H  H237  1  0.59280000  0.05160000  0.57370000  1.0 0.1020841475
H  H238  1  0.05160000  0.59280000  0.92630000  1.0 0.1020841475
H  H239  1  0.90120000  0.92340000  0.74120000  1.0 0.0782004699
H  H240  1  0.92340000  0.90120000  0.75880000  1.0 0.0782004699
C  C1  1  0.08940000  0.91160000  0.52000000  1.0 0.0706006296
C  C2  1  0.08840000  0.91060000  0.02000000  1.0 0.0706006296
C  C3  1  0.01150000  0.84230000  0.49210000  1.0 -0.1411337862
C  C4  1  0.15770000  0.98850000  0.99210000  1.0 -0.1411337862
C  C5  1  0.92190000  0.81190000  0.49300000  1.0 0.0706006296
C  C6  1  0.18810000  0.07810000  0.99300000  1.0 0.0706006296
C  C7  1  0.91569000  0.85571000  0.51990000  1.0 -0.1505560687
C  C8  1  0.14429000  0.08431000  0.01990000  1.0 -0.1505560687
C  C9  1  0.99730000  0.92510000  0.54600000  1.0 0.062106584
C  C10  1  0.07490000  0.00270000  0.04600000  1.0 0.062106584
C  C11  1  0.07600000  0.84820000  0.64920000  1.0 0.0706006296
C  C12  1  0.15180000  0.92400000  0.14920000  1.0 0.0706006296
C  C13  1  0.05130000  0.77630000  0.68230000  1.0 -0.1707818948
C  C14  1  0.22370000  0.94870000  0.18230000  1.0 -0.1707818948
C  C15  1  0.12371000  0.78529000  0.70940000  1.0 0.0782004699
C  C16  1  0.21471000  0.87629000  0.20940000  1.0 0.0782004699
C  C17  1  0.22000000  0.86800000  0.70190000  1.0 -0.1908125917
C  C18  1  0.13200000  0.78000000  0.20190000  1.0 -0.1908125917
C  C19  1  0.23890000  0.93610000  0.66770000  1.0 0.0782004699
C  C20  1  0.06390000  0.76110000  0.16770000  1.0 0.0782004699
C  C21  1  0.09726000  0.70694000  0.74510000  1.0 0.3441699713
C  C22  1  0.29306000  0.90274000  0.24510000  1.0 0.3441699713
C  C23  1  0.98252000  0.56028000  0.78010000  1.0 0.3441699713
C  C24  1  0.43972000  0.01748000  0.28010000  1.0 0.3441699713
C  C25  1  0.14171000  0.64609000  0.80150000  1.0 0.351067201
C  C26  1  0.35391000  0.85829000  0.30150000  1.0 0.351067201
C  C27  1  0.21980000  0.65980000  0.83240000  1.0 0.0782004699
C  C28  1  0.34020000  0.78020000  0.33240000  1.0 0.0782004699
C  C29  1  0.19890000  0.59070000  0.86740000  1.0 -0.1908125917
C  C30  1  0.40930000  0.80110000  0.36740000  1.0 -0.1908125917
C  C31  1  0.27500000  0.61100000  0.89640000  1.0 0.0782004699
C  C32  1  0.38900000  0.72500000  0.39640000  1.0 0.0782004699
C  C33  1  0.38878000  0.75882000  0.85800000  1.0 0.0782004699
C  C34  1  0.24118000  0.61122000  0.35800000  1.0 0.0782004699
C  C35  1  0.31733000  0.74507000  0.82750000  1.0 -0.1908125917
C  C36  1  0.25493000  0.68267000  0.32750000  1.0 -0.1908125917
C  C37  1  0.87701000  0.46979000  0.78190000  1.0 0.0782004699
C  C38  1  0.53021000  0.12299000  0.28190000  1.0 0.0782004699
C  C39  1  0.80780000  0.46580000  0.75480000  1.0 -0.1908125917
C  C40  1  0.53420000  0.19220000  0.25480000  1.0 -0.1908125917
C  C41  1  0.71030000  0.38070000  0.75600000  1.0 0.0706006296
C  C42  1  0.61930000  0.28970000  0.25600000  1.0 0.0706006296
C  C43  1  0.74610000  0.30450000  0.80840000  1.0 0.0782004699
C  C44  1  0.69550000  0.25390000  0.30840000  1.0 0.0782004699
C  C45  1  0.84480000  0.38680000  0.80970000  1.0 -0.1989238864
C  C46  1  0.61320000  0.15520000  0.30970000  1.0 -0.1989238864
C  C47  1  0.86180000  0.55640000  0.36170000  1.0 0.009482799
C  C48  1  0.44360000  0.13820000  0.86170000  1.0 0.009482799
C  C49  1  0.85400000  0.59580000  0.39030000  1.0 -0.1562124771
C  C50  1  0.40420000  0.14600000  0.89030000  1.0 -0.1562124771
C  C51  1  0.77777000  0.59163000  0.38280000  1.0 0.0706006296
C  C52  1  0.40837000  0.22223000  0.88280000  1.0 0.0706006296
C  C53  1  0.71210000  0.54890000  0.34570000  1.0 -0.1505560687
C  C54  1  0.45110000  0.28790000  0.84570000  1.0 -0.1505560687
C  C55  1  0.72700000  0.51420000  0.31790000  1.0 0.0493937458
C  C56  1  0.48580000  0.27300000  0.81790000  1.0 0.0493937458
C  C57  1  0.76724000  0.63156000  0.41370000  1.0 0.3708313487
C  C58  1  0.36844000  0.23276000  0.91370000  1.0 0.3708313487
C  C59  1  0.83399000  0.73261000  0.46605000  1.0 0.3708313487
C  C60  1  0.26739000  0.16601000  0.96605000  1.0 0.3708313487
C  C61  1  0.67360000  0.63460000  0.44450000  1.0 0.3762799732
C  C62  1  0.36540000  0.32640000  0.94450000  1.0 0.3762799732
C  C63  1  0.57860000  0.60320000  0.44670000  1.0 0.0706006296
C  C64  1  0.39680000  0.42140000  0.94670000  1.0 0.0706006296
C  C65  1  0.56770000  0.63890000  0.47560000  1.0 -0.1505560687
C  C66  1  0.36110000  0.43230000  0.97560000  1.0 -0.1505560687
C  C67  1  0.49460000  0.53220000  0.42130000  1.0 -0.1505560687
C  C68  1  0.46780000  0.50540000  0.92130000  1.0 -0.1505560687
C  C69  1  0.47950000  0.61110000  0.47550000  1.0 0.0782004699
C  C70  1  0.38890000  0.52050000  0.97550000  1.0 0.0782004699
C  C71  1  0.40880000  0.50780000  0.42330000  1.0 0.0706006296
C  C72  1  0.49220000  0.59120000  0.92330000  1.0 0.0706006296
C  C73  1  0.91160000  0.08940000  0.98000000  1.0 0.0706006296
C  C74  1  0.91060000  0.08840000  0.48000000  1.0 0.0706006296
C  C75  1  0.84230000  0.01150000  0.00790000  1.0 -0.1411337862
C  C76  1  0.98850000  0.15770000  0.50790000  1.0 -0.1411337862
C  C77  1  0.81190000  0.92190000  0.00700000  1.0 0.0706006296
C  C78  1  0.07810000  0.18810000  0.50700000  1.0 0.0706006296
C  C79  1  0.85571000  0.91569000  0.98010000  1.0 -0.1505560687
C  C80  1  0.08431000  0.14429000  0.48010000  1.0 -0.1505560687
C  C81  1  0.92510000  0.99730000  0.95400000  1.0 0.062106584
C  C82  1  0.00270000  0.07490000  0.45400000  1.0 0.062106584
C  C83  1  0.84820000  0.07600000  0.85080000  1.0 0.0782004699
C  C84  1  0.92400000  0.15180000  0.35080000  1.0 0.0782004699
C  C85  1  0.77630000  0.05130000  0.81770000  1.0 -0.1707818948
C  C86  1  0.94870000  0.22370000  0.31770000  1.0 -0.1707818948
C  C87  1  0.78529000  0.12371000  0.79060000  1.0 0.0782004699
C  C88  1  0.87629000  0.21471000  0.29060000  1.0 0.0782004699
C  C89  1  0.86800000  0.22000000  0.79810000  1.0 -0.1908125917
C  C90  1  0.78000000  0.13200000  0.29810000  1.0 -0.1908125917
C  C91  1  0.93610000  0.23890000  0.83230000  1.0 0.0782004699
C  C92  1  0.76110000  0.06390000  0.33230000  1.0 0.0782004699
C  C93  1  0.70694000  0.09726000  0.75490000  1.0 0.3441699713
C  C94  1  0.90274000  0.29306000  0.25490000  1.0 0.3441699713
C  C95  1  0.56028000  0.98252000  0.71990000  1.0 0.3441699713
C  C96  1  0.01748000  0.43972000  0.21990000  1.0 0.3441699713
C  C97  1  0.64609000  0.14171000  0.69850000  1.0 0.351067201
C  C98  1  0.85829000  0.35391000  0.19850000  1.0 0.351067201
C  C99  1  0.65980000  0.21980000  0.66760000  1.0 0.0782004699
C  C100  1  0.78020000  0.34020000  0.16760000  1.0 0.0782004699
C  C101  1  0.59070000  0.19890000  0.63260000  1.0 -0.1908125917
C  C102  1  0.80110000  0.40930000  0.13260000  1.0 -0.1908125917
C  C103  1  0.61100000  0.27500000  0.60360000  1.0 0.0782004699
C  C104  1  0.72500000  0.38900000  0.10360000  1.0 0.0782004699
C  C105  1  0.75882000  0.38878000  0.64200000  1.0 0.0782004699
C  C106  1  0.61122000  0.24118000  0.14200000  1.0 0.0782004699
C  C107  1  0.74507000  0.31733000  0.67250000  1.0 -0.1908125917
C  C108  1  0.68267000  0.25493000  0.17250000  1.0 -0.1908125917
C  C109  1  0.46979000  0.87701000  0.71810000  1.0 0.0782004699
C  C110  1  0.12299000  0.53021000  0.21810000  1.0 0.0782004699
C  C111  1  0.46580000  0.80780000  0.74520000  1.0 -0.1908125917
C  C112  1  0.19220000  0.53420000  0.24520000  1.0 -0.1908125917
C  C113  1  0.38070000  0.71030000  0.74400000  1.0 0.0706006296
C  C114  1  0.28970000  0.61930000  0.24400000  1.0 0.0706006296
C  C115  1  0.30450000  0.74610000  0.69160000  1.0 0.0782004699
C  C116  1  0.25390000  0.69550000  0.19160000  1.0 0.0782004699
C  C117  1  0.38680000  0.84480000  0.69030000  1.0 -0.1989238864
C  C118  1  0.15520000  0.61320000  0.19030000  1.0 -0.1989238864
C  C119  1  0.55640000  0.86180000  0.13830000  1.0 0.009482799
C  C120  1  0.13820000  0.44360000  0.63830000  1.0 0.009482799
C  C121  1  0.59580000  0.85400000  0.10970000  1.0 -0.1562124771
C  C122  1  0.14600000  0.40420000  0.60970000  1.0 -0.1562124771
C  C123  1  0.59163000  0.77777000  0.11720000  1.0 0.0706006296
C  C124  1  0.22223000  0.40837000  0.61720000  1.0 0.0706006296
C  C125  1  0.54890000  0.71210000  0.15430000  1.0 -0.1505560687
C  C126  1  0.28790000  0.45110000  0.65430000  1.0 -0.1505560687
C  C127  1  0.51420000  0.72700000  0.18210000  1.0 0.0493937458
C  C128  1  0.27300000  0.48580000  0.68210000  1.0 0.0493937458
C  C129  1  0.63156000  0.76724000  0.08630000  1.0 0.3708313487
C  C130  1  0.23276000  0.36844000  0.58630000  1.0 0.3708313487
C  C131  1  0.73261000  0.83399000  0.03395000  1.0 0.3708313487
C  C132  1  0.16601000  0.26739000  0.53395000  1.0 0.3708313487
C  C133  1  0.63460000  0.67360000  0.05550000  1.0 0.3762799732
C  C134  1  0.32640000  0.36540000  0.55550000  1.0 0.3762799732
C  C135  1  0.60320000  0.57860000  0.05330000  1.0 0.0706006296
C  C136  1  0.42140000  0.39680000  0.55330000  1.0 0.0706006296
C  C137  1  0.63890000  0.56770000  0.02440000  1.0 -0.1505560687
C  C138  1  0.43230000  0.36110000  0.52440000  1.0 -0.1505560687
C  C139  1  0.53220000  0.49460000  0.07870000  1.0 -0.1505560687
C  C140  1  0.50540000  0.46780000  0.57870000  1.0 -0.1505560687
C  C141  1  0.61110000  0.47950000  0.02450000  1.0 0.0782004699
C  C142  1  0.52050000  0.38890000  0.52450000  1.0 0.0782004699
C  C143  1  0.50780000  0.40880000  0.07670000  1.0 0.0706006296
C  C144  1  0.59120000  0.49220000  0.57670000  1.0 0.0706006296
C  C145  1  0.47710000  0.07790000  0.40250000  1.0 0.009482799
C  C146  1  0.07790000  0.47710000  0.09750000  1.0 0.009482799
C  C147  1  0.55500000  0.18040000  0.39990000  1.0 -0.1505560687
C  C148  1  0.18040000  0.55500000  0.10010000  1.0 -0.1505560687
C  C149  1  0.55250000  0.24490000  0.37100000  1.0 -0.0514654096
C  C150  1  0.24490000  0.55250000  0.12900000  1.0 -0.0514654096
C  C151  1  0.47050000  0.20450000  0.34040000  1.0 -0.0398661599
C  C152  1  0.20450000  0.47050000  0.15960000  1.0 -0.0398661599
C  C153  1  0.39120000  0.10480000  0.34220000  1.0 -0.0223318345
C  C154  1  0.10480000  0.39120000  0.15780000  1.0 -0.0223318345
C  C155  1  0.39510000  0.04090000  0.37290000  1.0 0.0338880525
C  C156  1  0.04090000  0.39510000  0.12710000  1.0 0.0338880525
C  C157  1  0.30860000  0.93160000  0.37560000  1.0 -0.0514654096
C  C158  1  0.93160000  0.30860000  0.12440000  1.0 -0.0514654096
C  C159  1  0.22463000  0.89137000  0.34580000  1.0 -0.0119617715
C  C160  1  0.89137000  0.22463000  0.15420000  1.0 -0.0119617715
C  C161  1  0.14620000  0.79220000  0.34800000  1.0 -0.0398661599
C  C162  1  0.79220000  0.14620000  0.15200000  1.0 -0.0398661599
C  C163  1  0.14890000  0.72870000  0.37870000  1.0 -0.110672842
C  C164  1  0.72870000  0.14890000  0.12130000  1.0 -0.110672842
C  C165  1  0.23390000  0.77130000  0.40940000  1.0 -0.0119617715
C  C166  1  0.77130000  0.23390000  0.09060000  1.0 -0.0119617715
C  C167  1  0.31070000  0.87130000  0.40650000  1.0 0.0028782535
C  C168  1  0.87130000  0.31070000  0.09350000  1.0 0.0028782535
C  C169  1  0.40500000  0.91480000  0.43640000  1.0 0.0338880525
C  C170  1  0.91480000  0.40500000  0.06360000  1.0 0.0338880525
C  C171  1  0.41050000  0.85170000  0.46730000  1.0 -0.1411337862
C  C172  1  0.85170000  0.41050000  0.03270000  1.0 -0.1411337862
C  C173  1  0.49480000  0.88780000  0.49190000  1.0 -0.1411337862
C  C174  1  0.88780000  0.49480000  0.00810000  1.0 -0.1411337862
C  C175  1  0.57780000  0.98960000  0.48910000  1.0 -0.1411337862
C  C176  1  0.98960000  0.57780000  0.01090000  1.0 -0.1411337862
C  C177  1  0.56990000  0.04850000  0.46020000  1.0 -0.1411337862
C  C178  1  0.04850000  0.56990000  0.03980000  1.0 -0.1411337862
C  C179  1  0.48340000  0.01300000  0.43340000  1.0 -0.089499674
C  C180  1  0.01300000  0.48340000  0.06660000  1.0 -0.089499674
C  C181  1  0.08800000  0.01800000  0.27100000  1.0 -0.1562124771
C  C182  1  0.01800000  0.08800000  0.22900000  1.0 -0.1505560687
C  C183  1  0.01610000  0.95930000  0.30830000  1.0 -0.1411337862
C  C184  1  0.95930000  0.01610000  0.19170000  1.0 -0.1411337862
C  C185  1  0.99390000  0.86050000  0.32430000  1.0 -0.1989238864
C  C186  1  0.86050000  0.99390000  0.17570000  1.0 -0.1989238864
C  C187  1  0.95680000  0.80380000  0.28910000  1.0 -0.0744745165
C  C188  1  0.80380000  0.95680000  0.21090000  1.0 -0.0744745165
C  C189  1  0.01820000  0.85760000  0.25340000  1.0 -0.0849179544
C  C190  1  0.85760000  0.01820000  0.24660000  1.0 -0.0849179544
C  C191  1  0.04170000  0.95110000  0.23600000  1.0 -0.1241690621
C  C192  1  0.95110000  0.04170000  0.26400000  1.0 -0.1241690621
C  C193  1  0.35990000  0.02730000  0.36270000  1.0 0.0028782535
C  C194  1  0.02730000  0.35990000  0.13730000  1.0 0.0028782535
C  C195  1  0.45170000  0.10390000  0.38270000  1.0 0.009482799
C  C196  1  0.10390000  0.45170000  0.11730000  1.0 0.009482799
C  C197  1  0.50330000  0.20270000  0.37010000  1.0 -0.0398661599
C  C198  1  0.20270000  0.50330000  0.12990000  1.0 -0.0398661599
C  C199  1  0.45840000  0.22500000  0.33680000  1.0 -0.0514654096
C  C200  1  0.22500000  0.45840000  0.16320000  1.0 -0.0514654096
C  C201  1  0.36920000  0.15200000  0.31540000  1.0 -0.1411337862
C  C202  1  0.15200000  0.36920000  0.18460000  1.0 -0.1411337862
C  C203  1  0.31840000  0.05200000  0.32870000  1.0 -0.0119617715
C  C204  1  0.05200000  0.31840000  0.17130000  1.0 -0.0119617715
C  C205  1  0.22000000  0.97300000  0.30590000  1.0 -0.110672842
C  C206  1  0.97300000  0.22000000  0.19410000  1.0 -0.110672842
C  C207  1  0.17910000  0.99730000  0.27040000  1.0 -0.1989238864
C  C208  1  0.99730000  0.17910000  0.22960000  1.0 -0.1989238864
C  C209  1  0.09140000  0.92660000  0.24900000  1.0 -0.0398661599
C  C210  1  0.92660000  0.09140000  0.25100000  1.0 -0.0398661599
C  C211  1  0.03790000  0.82770000  0.26180000  1.0 -0.0744745165
C  C212  1  0.82770000  0.03790000  0.23820000  1.0 -0.0744745165
C  C213  1  0.07930000  0.80310000  0.29780000  1.0 -0.2067572244
C  C214  1  0.80310000  0.07930000  0.20220000  1.0 -0.2067572244
C  C215  1  0.16820000  0.87660000  0.31920000  1.0 -0.0119617715
C  C216  1  0.87660000  0.16820000  0.18080000  1.0 -0.0119617715
C  C217  1  0.21480000  0.85260000  0.35760000  1.0 0.0493937458
C  C218  1  0.85260000  0.21480000  0.14240000  1.0 0.0493937458
C  C219  1  0.15750000  0.75150000  0.37480000  1.0 -0.097422383
C  C220  1  0.75150000  0.15750000  0.12520000  1.0 -0.097422383
C  C221  1  0.19950000  0.73190000  0.40860000  1.0 -0.0744745165
C  C222  1  0.73190000  0.19950000  0.09140000  1.0 -0.0744745165
C  C223  1  0.29290000  0.80430000  0.43030000  1.0 -0.0514654096
C  C224  1  0.80430000  0.29290000  0.06970000  1.0 -0.0514654096
C  C225  1  0.34320000  0.89820000  0.41340000  1.0 -0.0119617715
C  C226  1  0.89820000  0.34320000  0.08660000  1.0 -0.0119617715
C  C227  1  0.30430000  0.92370000  0.37750000  1.0 -0.0514654096
C  C228  1  0.92370000  0.30430000  0.12250000  1.0 -0.0398661599
C  C229  1  0.52290000  0.92210000  0.59750000  1.0 0.009482799
C  C230  1  0.92210000  0.52290000  0.90250000  1.0 0.009482799
C  C231  1  0.44500000  0.81960000  0.60010000  1.0 -0.1505560687
C  C232  1  0.81960000  0.44500000  0.89990000  1.0 -0.1505560687
C  C233  1  0.44750000  0.75510000  0.62900000  1.0 -0.0514654096
C  C234  1  0.75510000  0.44750000  0.87100000  1.0 -0.0514654096
C  C235  1  0.52950000  0.79550000  0.65960000  1.0 -0.0398661599
C  C236  1  0.79550000  0.52950000  0.84040000  1.0 -0.0398661599
C  C237  1  0.60880000  0.89520000  0.65780000  1.0 -0.0223318345
C  C238  1  0.89520000  0.60880000  0.84220000  1.0 -0.0223318345
C  C239  1  0.60490000  0.95910000  0.62710000  1.0 0.0338880525
C  C240  1  0.95910000  0.60490000  0.87290000  1.0 0.0338880525
C  C241  1  0.69140000  0.06840000  0.62440000  1.0 -0.0514654096
C  C242  1  0.06840000  0.69140000  0.87560000  1.0 -0.0514654096
C  C243  1  0.77537000  0.10863000  0.65420000  1.0 -0.0119617715
C  C244  1  0.10863000  0.77537000  0.84580000  1.0 -0.0119617715
C  C245  1  0.85380000  0.20780000  0.65200000  1.0 -0.0398661599
C  C246  1  0.20780000  0.85380000  0.84800000  1.0 -0.0398661599
C  C247  1  0.85110000  0.27130000  0.62130000  1.0 -0.110672842
C  C248  1  0.27130000  0.85110000  0.87870000  1.0 -0.110672842
C  C249  1  0.76610000  0.22870000  0.59060000  1.0 -0.0119617715
C  C250  1  0.22870000  0.76610000  0.90940000  1.0 -0.0119617715
C  C251  1  0.68930000  0.12870000  0.59350000  1.0 0.0028782535
C  C252  1  0.12870000  0.68930000  0.90650000  1.0 0.0028782535
C  C253  1  0.59500000  0.08520000  0.56360000  1.0 0.0338880525
C  C254  1  0.08520000  0.59500000  0.93640000  1.0 0.0338880525
C  C255  1  0.58950000  0.14830000  0.53270000  1.0 -0.1411337862
C  C256  1  0.14830000  0.58950000  0.96730000  1.0 -0.1411337862
C  C257  1  0.50520000  0.11220000  0.50810000  1.0 -0.1411337862
C  C258  1  0.11220000  0.50520000  0.99190000  1.0 -0.1411337862
C  C259  1  0.42220000  0.01040000  0.51090000  1.0 -0.1411337862
C  C260  1  0.01040000  0.42220000  0.98910000  1.0 -0.1411337862
C  C261  1  0.43010000  0.95150000  0.53980000  1.0 -0.1411337862
C  C262  1  0.95150000  0.43010000  0.96020000  1.0 -0.1411337862
C  C263  1  0.51660000  0.98700000  0.56660000  1.0 -0.089499674
C  C264  1  0.98700000  0.51660000  0.93340000  1.0 -0.089499674
C  C265  1  0.91200000  0.98200000  0.72900000  1.0 -0.1562124771
C  C266  1  0.98200000  0.91200000  0.77100000  1.0 -0.1562124771
C  C267  1  0.98390000  0.04070000  0.69170000  1.0 -0.1411337862
C  C268  1  0.04070000  0.98390000  0.80830000  1.0 -0.1411337862
C  C269  1  0.00610000  0.13950000  0.67570000  1.0 -0.1989238864
C  C270  1  0.13950000  0.00610000  0.82430000  1.0 -0.1989238864
C  C271  1  0.04320000  0.19620000  0.71090000  1.0 -0.0744745165
C  C272  1  0.19620000  0.04320000  0.78910000  1.0 -0.0744745165
C  C273  1  0.98180000  0.14240000  0.74660000  1.0 -0.0849179544
C  C274  1  0.14240000  0.98180000  0.75340000  1.0 -0.0849179544
C  C275  1  0.95830000  0.04890000  0.76400000  1.0 -0.1241690621
C  C276  1  0.04890000  0.95830000  0.73600000  1.0 -0.1241690621
C  C277  1  0.64010000  0.97270000  0.63730000  1.0 0.0028782535
C  C278  1  0.97270000  0.64010000  0.86270000  1.0 0.0028782535
C  C279  1  0.54830000  0.89610000  0.61730000  1.0 0.009482799
C  C280  1  0.89610000  0.54830000  0.88270000  1.0 0.009482799
C  C281  1  0.49670000  0.79730000  0.62990000  1.0 -0.0398661599
C  C282  1  0.79730000  0.49670000  0.87010000  1.0 -0.0398661599
C  C283  1  0.54160000  0.77500000  0.66320000  1.0 -0.0514654096
C  C284  1  0.77500000  0.54160000  0.83680000  1.0 -0.0514654096
C  C285  1  0.63080000  0.84800000  0.68460000  1.0 -0.1411337862
C  C286  1  0.84800000  0.63080000  0.81540000  1.0 -0.1411337862
C  C287  1  0.68160000  0.94800000  0.67130000  1.0 -0.0119617715
C  C288  1  0.94800000  0.68160000  0.82870000  1.0 -0.0119617715
C  C289  1  0.78000000  0.02700000  0.69410000  1.0 -0.110672842
C  C290  1  0.02700000  0.78000000  0.80590000  1.0 -0.110672842
C  C291  1  0.82090000  0.00270000  0.72960000  1.0 -0.1989238864
C  C292  1  0.00270000  0.82090000  0.77040000  1.0 -0.1989238864
C  C293  1  0.90860000  0.07340000  0.75100000  1.0 -0.0398661599
C  C294  1  0.07340000  0.90860000  0.74900000  1.0 -0.0398661599
C  C295  1  0.96210000  0.17230000  0.73820000  1.0 -0.0744745165
C  C296  1  0.17230000  0.96210000  0.76180000  1.0 -0.0744745165
C  C297  1  0.92070000  0.19690000  0.70220000  1.0 -0.2067572244
C  C298  1  0.19690000  0.92070000  0.79780000  1.0 -0.2067572244
C  C299  1  0.83180000  0.12340000  0.68080000  1.0 -0.0119617715
C  C300  1  0.12340000  0.83180000  0.81920000  1.0 -0.0119617715
C  C301  1  0.78520000  0.14740000  0.64240000  1.0 0.0493937458
C  C302  1  0.14740000  0.78520000  0.85760000  1.0 0.0493937458
C  C303  1  0.84250000  0.24850000  0.62520000  1.0 -0.097422383
C  C304  1  0.24850000  0.84250000  0.87480000  1.0 -0.097422383
C  C305  1  0.80050000  0.26810000  0.59140000  1.0 -0.0744745165
C  C306  1  0.26810000  0.80050000  0.90860000  1.0 -0.0744745165
C  C307  1  0.70710000  0.19570000  0.56970000  1.0 -0.0514654096
C  C308  1  0.19570000  0.70710000  0.93030000  1.0 -0.0559277863
C  C309  1  0.65680000  0.10180000  0.58660000  1.0 -0.0119617715
C  C310  1  0.10180000  0.65680000  0.91340000  1.0 -0.0119617715
C  C311  1  0.69570000  0.07630000  0.62250000  1.0 -0.0398661599
C  C312  1  0.07630000  0.69570000  0.87750000  1.0 -0.0514654096
I  I1  1  0.17532000  0.12604000  0.62769000  1.0 -0.4579862945
I  I2  1  0.87396000  0.82468000  0.12769000  1.0 -0.4579862945
I  I3  1  0.34946000  0.11014000  0.56068000  1.0 -0.3893102692
I  I4  1  0.88986000  0.65054000  0.06068000  1.0 -0.3893102692
I  I5  1  0.45336000  0.19160000  0.70524000  1.0 -0.4437346973
I  I6  1  0.80840000  0.54664000  0.20524000  1.0 -0.4437346973
I  I7  1  0.50222000  0.02704000  0.80801000  1.0 -0.4117047854
I  I8  1  0.97296000  0.49778000  0.30801000  1.0 -0.4117047854
I  I9  1  0.63704000  0.86218000  0.90992000  1.0 -0.4117047854
I  I10  1  0.13782000  0.36296000  0.40992000  1.0 -0.4117047854
I  I11  1  0.42521000  0.72387000  0.01102000  1.0 -0.4803270169
I  I12  1  0.27613000  0.57479000  0.51102000  1.0 -0.4803270169
I  I13  1  0.12604000  0.17532000  0.87231000  1.0 -0.4579862945
I  I14  1  0.82468000  0.87396000  0.37231000  1.0 -0.4579862945
I  I15  1  0.11014000  0.34946000  0.93932000  1.0 -0.3893102692
I  I16  1  0.65054000  0.88986000  0.43932000  1.0 -0.3893102692
I  I17  1  0.19160000  0.45336000  0.79476000  1.0 -0.4437346973
I  I18  1  0.54664000  0.80840000  0.29476000  1.0 -0.4437346973
I  I19  1  0.02704000  0.50222000  0.69199000  1.0 -0.4117047854
I  I20  1  0.49778000  0.97296000  0.19199000  1.0 -0.4117047854
I  I21  1  0.86218000  0.63704000  0.59008000  1.0 -0.4117047854
I  I22  1  0.36296000  0.13782000  0.09008000  1.0 -0.4117047854
I  I23  1  0.72387000  0.42521000  0.48898000  1.0 -0.4803270169
I  I24  1  0.57479000  0.27613000  0.98898000  1.0 -0.4803270169
N  N1  1  0.08311000  0.95149000  0.54696000  1.0 -0.1817088113
N  N2  1  0.04851000  0.91689000  0.04696000  1.0 -0.1817088113
N  N3  1  0.16926000  0.92734000  0.64150000  1.0 -0.1817088113
N  N4  1  0.07266000  0.83074000  0.14150000  1.0 -0.1817088113
N  N5  1  0.00252000  0.63128000  0.74955000  1.0 -0.3820883759
N  N6  1  0.36872000  0.99748000  0.24955000  1.0 -0.3820883759
N  N7  1  0.04804000  0.56336000  0.80768000  1.0 -0.4117047854
N  N8  1  0.43664000  0.95196000  0.30768000  1.0 -0.4117047854
N  N9  1  0.16998000  0.71842000  0.76975000  1.0 -0.3893102692
N  N10  1  0.28158000  0.83002000  0.26975000  1.0 -0.3893102692
N  N11  1  0.67936000  0.30104000  0.78233000  1.0 -0.1817088113
N  N12  1  0.69896000  0.32064000  0.28233000  1.0 -0.1817088113
N  N13  1  0.36839000  0.69341000  0.89215000  1.0 -0.1817088113
N  N14  1  0.30659000  0.63161000  0.39215000  1.0 -0.1817088113
N  N15  1  0.79972000  0.51668000  0.32580000  1.0 -0.1707818948
N  N16  1  0.48332000  0.20028000  0.82580000  1.0 -0.1707818948
N  N17  1  0.84776000  0.69944000  0.43858000  1.0 -0.3893102692
N  N18  1  0.30056000  0.15224000  0.93858000  1.0 -0.3893102692
N  N19  1  0.74831000  0.70069000  0.47157000  1.0 -0.3997888931
N  N20  1  0.29931000  0.25169000  0.97157000  1.0 -0.3997888931
N  N21  1  0.67883000  0.59857000  0.41436000  1.0 -0.4117047854
N  N22  1  0.40143000  0.32117000  0.91436000  1.0 -0.4117047854
N  N23  1  0.40190000  0.54990000  0.44859000  1.0 -0.1817088113
N  N24  1  0.45010000  0.59810000  0.94859000  1.0 -0.1817088113
N  N25  1  0.95149000  0.08311000  0.95304000  1.0 -0.1817088113
N  N26  1  0.91689000  0.04851000  0.45304000  1.0 -0.1817088113
N  N27  1  0.92734000  0.16926000  0.85850000  1.0 -0.1817088113
N  N28  1  0.83074000  0.07266000  0.35850000  1.0 -0.1817088113
N  N29  1  0.63128000  0.00252000  0.75045000  1.0 -0.3820883759
N  N30  1  0.99748000  0.36872000  0.25045000  1.0 -0.3820883759
N  N31  1  0.56336000  0.04804000  0.69232000  1.0 -0.4117047854
N  N32  1  0.95196000  0.43664000  0.19232000  1.0 -0.4117047854
N  N33  1  0.71842000  0.16998000  0.73025000  1.0 -0.3893102692
N  N34  1  0.83002000  0.28158000  0.23025000  1.0 -0.3820883759
N  N35  1  0.30104000  0.67936000  0.71767000  1.0 -0.1817088113
N  N36  1  0.32064000  0.69896000  0.21767000  1.0 -0.1817088113
N  N37  1  0.69341000  0.36839000  0.60785000  1.0 -0.1817088113
N  N38  1  0.63161000  0.30659000  0.10785000  1.0 -0.1817088113
N  N39  1  0.51668000  0.79972000  0.17420000  1.0 -0.1707818948
N  N40  1  0.20028000  0.48332000  0.67420000  1.0 -0.1707818948
N  N41  1  0.69944000  0.84776000  0.06142000  1.0 -0.3893102692
N  N42  1  0.15224000  0.30056000  0.56142000  1.0 -0.3893102692
N  N43  1  0.70069000  0.74831000  0.02843000  1.0 -0.3997888931
N  N44  1  0.25169000  0.29931000  0.52843000  1.0 -0.3997888931
N  N45  1  0.59857000  0.67883000  0.08564000  1.0 -0.4117047854
N  N46  1  0.32117000  0.40143000  0.58564000  1.0 -0.4117047854
N  N47  1  0.54990000  0.40190000  0.05141000  1.0 -0.1817088113
N  N48  1  0.59810000  0.45010000  0.55141000  1.0 -0.1817088113
