# DDEC6 charges by PACMAN v1.1 (https://github.com/mtap-research/PACMAN-charge/)
data_FARHOX_FSR_pacman
_symmetry_space_group_name_H-M   'P 1'
_cell_length_a   11.34010000
_cell_length_b   25.09350000
_cell_length_c   24.28040000
_cell_angle_alpha   90.00000000
_cell_angle_beta   110.72900000
_cell_angle_gamma   90.00000000
_symmetry_Int_Tables_number   1
_chemical_formula_structural   Cs2H32Pb2C45S3NO19
_chemical_formula_sum   'Cs8 H128 Pb8 C180 S12 N4 O76'
_cell_volume   6462.02515801
_cell_formula_units_Z   4
loop_
 _symmetry_equiv_pos_site_id
 _symmetry_equiv_pos_as_xyz
  1  'x, y, z'
loop_
 _atom_site_type_symbol
 _atom_site_label
 _atom_site_symmetry_multiplicity
 _atom_site_fract_x
 _atom_site_fract_y
 _atom_site_fract_z
 _atom_site_occupancy
 _atom_site_charge
Cs  Cs1  1  0.15486000  0.03819000  0.88639000  1.0 0.889363954
Cs  Cs2  1  0.84514000  0.53819000  0.61361000  1.0 0.889363954
Cs  Cs3  1  0.84514000  0.96181000  0.11361000  1.0 0.889363954
Cs  Cs4  1  0.15486000  0.46181000  0.38639000  1.0 0.889363954
Cs  Cs5  1  0.49913000  0.12056000  0.65042000  1.0 0.8977652584
Cs  Cs6  1  0.50087000  0.62056000  0.84958000  1.0 0.8977652584
Cs  Cs7  1  0.50087000  0.87944000  0.34958000  1.0 0.8977652584
Cs  Cs8  1  0.49913000  0.37944000  0.15042000  1.0 0.8977652584
H  H1  1  0.42810000  0.23180000  0.83090000  1.0 0.1199431772
H  H2  1  0.57190000  0.73180000  0.66910000  1.0 0.1199431772
H  H3  1  0.57190000  0.76820000  0.16910000  1.0 0.1199431772
H  H4  1  0.42810000  0.26820000  0.33090000  1.0 0.1199431772
H  H5  1  0.47810000  0.30200000  0.90020000  1.0 0.1288545882
H  H6  1  0.52190000  0.80200000  0.59980000  1.0 0.1288545882
H  H7  1  0.52190000  0.69800000  0.09980000  1.0 0.1288545882
H  H8  1  0.47810000  0.19800000  0.40020000  1.0 0.1288545882
H  H9  1  0.18180000  0.26640000  0.94690000  1.0 0.1288545882
H  H10  1  0.81820000  0.76640000  0.55310000  1.0 0.1288545882
H  H11  1  0.81820000  0.73360000  0.05310000  1.0 0.1288545882
H  H12  1  0.18180000  0.23360000  0.44690000  1.0 0.1288545882
H  H13  1  0.13710000  0.19250000  0.88040000  1.0 0.1288545882
H  H14  1  0.86290000  0.69250000  0.61960000  1.0 0.1288545882
H  H15  1  0.86290000  0.80750000  0.11960000  1.0 0.1288545882
H  H16  1  0.13710000  0.30750000  0.38040000  1.0 0.1288545882
H  H17  1  0.46350000  0.41010000  0.91330000  1.0 0.1288545882
H  H18  1  0.53650000  0.91010000  0.58670000  1.0 0.1288545882
H  H19  1  0.53650000  0.58990000  0.08670000  1.0 0.1288545882
H  H20  1  0.46350000  0.08990000  0.41330000  1.0 0.1288545882
H  H21  1  0.38260000  0.48680000  0.85150000  1.0 0.1199431772
H  H22  1  0.61740000  0.98680000  0.64850000  1.0 0.1199431772
H  H23  1  0.61740000  0.51320000  0.14850000  1.0 0.1199431772
H  H24  1  0.38260000  0.01320000  0.35150000  1.0 0.1199431772
H  H25  1  0.07080000  0.47640000  0.89130000  1.0 0.1199431772
H  H26  1  0.92920000  0.97640000  0.60870000  1.0 0.1199431772
H  H27  1  0.92920000  0.52360000  0.10870000  1.0 0.1199431772
H  H28  1  0.07080000  0.02360000  0.39130000  1.0 0.1199431772
H  H29  1  0.15510000  0.40090000  0.95350000  1.0 0.1288545882
H  H30  1  0.84490000  0.90090000  0.54650000  1.0 0.1288545882
H  H31  1  0.84490000  0.59910000  0.04650000  1.0 0.1288545882
H  H32  1  0.15510000  0.09910000  0.45350000  1.0 0.1288545882
H  H33  1  0.02160000  0.27320000  0.66790000  1.0 0.1199431772
H  H34  1  0.97840000  0.77320000  0.83210000  1.0 0.1199431772
H  H35  1  0.97840000  0.72680000  0.33210000  1.0 0.1199431772
H  H36  1  0.02160000  0.22680000  0.16790000  1.0 0.1199431772
H  H37  1  0.01110000  0.36380000  0.63790000  1.0 0.1199431772
H  H38  1  0.98890000  0.86380000  0.86210000  1.0 0.1199431772
H  H39  1  0.98890000  0.63620000  0.36210000  1.0 0.1199431772
H  H40  1  0.01110000  0.13620000  0.13790000  1.0 0.1199431772
H  H41  1  0.22660000  0.32860000  0.54280000  1.0 0.1199431772
H  H42  1  0.77340000  0.82860000  0.95720000  1.0 0.1199431772
H  H43  1  0.77340000  0.67140000  0.45720000  1.0 0.1199431772
H  H44  1  0.22660000  0.17140000  0.04280000  1.0 0.1199431772
H  H45  1  0.24800000  0.24080000  0.57830000  1.0 0.1199431772
H  H46  1  0.75200000  0.74080000  0.92170000  1.0 0.1199431772
H  H47  1  0.75200000  0.75920000  0.42170000  1.0 0.1199431772
H  H48  1  0.24800000  0.25920000  0.07830000  1.0 0.1199431772
H  H49  1  0.36720000  0.51160000  0.73990000  1.0 0.107877263
H  H50  1  0.63280000  0.01160000  0.76010000  1.0 0.107877263
H  H51  1  0.63280000  0.48840000  0.26010000  1.0 0.107877263
H  H52  1  0.36720000  0.98840000  0.23990000  1.0 0.107877263
H  H53  1  0.53090000  0.47970000  0.62270000  1.0 0.1199431772
H  H54  1  0.46910000  0.97970000  0.87730000  1.0 0.1199431772
H  H55  1  0.46910000  0.52030000  0.37730000  1.0 0.1199431772
H  H56  1  0.53090000  0.02030000  0.12270000  1.0 0.1199431772
H  H57  1  0.35190000  0.43590000  0.56270000  1.0 0.1199431772
H  H58  1  0.64810000  0.93590000  0.93730000  1.0 0.1199431772
H  H59  1  0.64810000  0.56410000  0.43730000  1.0 0.1199431772
H  H60  1  0.35190000  0.06410000  0.06270000  1.0 0.1199431772
H  H61  1  0.81660000  0.33620000  0.68180000  1.0 0.107877263
H  H62  1  0.18340000  0.83620000  0.81820000  1.0 0.107877263
H  H63  1  0.18340000  0.66380000  0.31820000  1.0 0.107877263
H  H64  1  0.81660000  0.16380000  0.18180000  1.0 0.107877263
H  H65  1  0.73860000  0.40520000  0.61620000  1.0 0.1199431772
H  H66  1  0.26140000  0.90520000  0.88380000  1.0 0.1199431772
H  H67  1  0.26140000  0.59480000  0.38380000  1.0 0.1199431772
H  H68  1  0.73860000  0.09480000  0.11620000  1.0 0.1199431772
H  H69  1  0.48450000  0.30850000  0.50560000  1.0 0.1199431772
H  H70  1  0.51550000  0.80850000  0.99440000  1.0 0.1199431772
H  H71  1  0.51550000  0.69150000  0.49440000  1.0 0.1199431772
H  H72  1  0.48450000  0.19150000  0.00560000  1.0 0.1199431772
H  H73  1  0.56550000  0.23660000  0.57090000  1.0 0.1199431772
H  H74  1  0.43450000  0.73660000  0.92910000  1.0 0.1199431772
H  H75  1  0.43450000  0.76340000  0.42910000  1.0 0.1199431772
H  H76  1  0.56550000  0.26340000  0.07090000  1.0 0.1199431772
H  H77  1  0.79300000  0.43190000  0.50280000  1.0 0.1288545882
H  H78  1  0.20700000  0.93190000  0.99720000  1.0 0.1288545882
H  H79  1  0.20700000  0.56810000  0.49720000  1.0 0.1288545882
H  H80  1  0.79300000  0.06810000  0.00280000  1.0 0.1288545882
H  H81  1  0.89010000  0.41850000  0.43180000  1.0 0.1199431772
H  H82  1  0.10990000  0.91850000  0.06820000  1.0 0.1199431772
H  H83  1  0.10990000  0.58150000  0.56820000  1.0 0.1199431772
H  H84  1  0.89010000  0.08150000  0.93180000  1.0 0.1199431772
H  H85  1  0.56480000  0.35790000  0.32150000  1.0 0.1288545882
H  H86  1  0.43520000  0.85790000  0.17850000  1.0 0.1288545882
H  H87  1  0.43520000  0.64210000  0.67850000  1.0 0.1288545882
H  H88  1  0.56480000  0.14210000  0.82150000  1.0 0.1288545882
H  H89  1  0.46740000  0.37260000  0.39090000  1.0 0.1199431772
H  H90  1  0.53260000  0.87260000  0.10910000  1.0 0.1199431772
H  H91  1  0.53260000  0.62740000  0.60910000  1.0 0.1199431772
H  H92  1  0.46740000  0.12740000  0.89090000  1.0 0.1199431772
H  H93  1  0.13820000  0.95330000  0.75770000  1.0 0.0982099735
H  H94  1  0.86180000  0.45330000  0.74230000  1.0 0.0982099735
H  H95  1  0.86180000  0.04670000  0.24230000  1.0 0.0982099735
H  H96  1  0.13820000  0.54670000  0.25770000  1.0 0.0982099735
H  H97  1  0.17510000  0.90020000  0.69230000  1.0 0.1288545882
H  H98  1  0.82490000  0.40020000  0.80770000  1.0 0.1288545882
H  H99  1  0.82490000  0.09980000  0.30770000  1.0 0.1288545882
H  H100  1  0.17510000  0.59980000  0.19230000  1.0 0.1288545882
H  H101  1  0.14220000  0.84060000  0.69970000  1.0 0.1494010781
H  H102  1  0.85780000  0.34060000  0.80030000  1.0 0.1494010781
H  H103  1  0.85780000  0.15940000  0.30030000  1.0 0.1494010781
H  H104  1  0.14220000  0.65940000  0.19970000  1.0 0.1494010781
H  H105  1  0.05530000  0.87390000  0.64610000  1.0 0.1288545882
H  H106  1  0.94470000  0.37390000  0.85390000  1.0 0.1288545882
H  H107  1  0.94470000  0.12610000  0.35390000  1.0 0.1288545882
H  H108  1  0.05530000  0.62610000  0.14610000  1.0 0.1288545882
H  H109  1  0.88900000  0.87630000  0.74410000  1.0 0.137176661
H  H110  1  0.11100000  0.37630000  0.75590000  1.0 0.137176661
H  H111  1  0.11100000  0.12370000  0.25590000  1.0 0.137176661
H  H112  1  0.88900000  0.62370000  0.24410000  1.0 0.137176661
H  H113  1  0.87060000  0.85860000  0.67970000  1.0 0.1199431772
H  H114  1  0.12940000  0.35860000  0.82030000  1.0 0.1199431772
H  H115  1  0.12940000  0.14140000  0.32030000  1.0 0.1199431772
H  H116  1  0.87060000  0.64140000  0.17970000  1.0 0.1199431772
H  H117  1  0.95750000  0.82530000  0.73330000  1.0 0.137176661
H  H118  1  0.04250000  0.32530000  0.76670000  1.0 0.137176661
H  H119  1  0.04250000  0.17470000  0.26670000  1.0 0.137176661
H  H120  1  0.95750000  0.67470000  0.23330000  1.0 0.137176661
H  H121  1  0.82060000  0.99800000  0.84090000  1.0 0.137176661
H  H122  1  0.17940000  0.49800000  0.65910000  1.0 0.137176661
H  H123  1  0.17940000  0.00200000  0.15910000  1.0 0.137176661
H  H124  1  0.82060000  0.50200000  0.34090000  1.0 0.137176661
H  H125  1  0.77320000  0.94340000  0.80980000  1.0 0.1288545882
H  H126  1  0.22680000  0.44340000  0.69020000  1.0 0.1288545882
H  H127  1  0.22680000  0.05660000  0.19020000  1.0 0.1288545882
H  H128  1  0.77320000  0.55660000  0.30980000  1.0 0.1288545882
Pb  Pb1  1  0.19337000  0.08819000  0.70497000  1.0 1.0415404533
Pb  Pb2  1  0.80663000  0.58819000  0.79503000  1.0 1.0415404533
Pb  Pb3  1  0.80663000  0.91181000  0.29503000  1.0 1.0415404533
Pb  Pb4  1  0.19337000  0.41181000  0.20497000  1.0 1.0415404533
Pb  Pb5  1  0.89438000  0.14145000  0.73333000  1.0 1.055167595
Pb  Pb6  1  0.10562000  0.64145000  0.76667000  1.0 1.0530718361
Pb  Pb7  1  0.10562000  0.85855000  0.26667000  1.0 1.0530718361
Pb  Pb8  1  0.89438000  0.35855000  0.23333000  1.0 1.055167595
C  C1  1  0.24420000  0.16060000  0.80680000  1.0 0.5511153732
C  C2  1  0.75580000  0.66060000  0.69320000  1.0 0.5580516452
C  C3  1  0.75580000  0.83940000  0.19320000  1.0 0.5511153732
C  C4  1  0.24420000  0.33940000  0.30680000  1.0 0.5511153732
C  C5  1  0.27330000  0.20580000  0.84960000  1.0 -0.0202347531
C  C6  1  0.72670000  0.70580000  0.65040000  1.0 -0.0202347531
C  C7  1  0.72670000  0.79420000  0.15040000  1.0 -0.0202347531
C  C8  1  0.27330000  0.29420000  0.34960000  1.0 -0.0202347531
C  C9  1  0.37970000  0.23820000  0.85410000  1.0 -0.0899842028
C  C10  1  0.62030000  0.73820000  0.64590000  1.0 -0.0899842028
C  C11  1  0.62030000  0.76180000  0.14590000  1.0 -0.0899842028
C  C12  1  0.37970000  0.26180000  0.35410000  1.0 -0.0899842028
C  C13  1  0.40870000  0.28020000  0.89510000  1.0 -0.1237323227
C  C14  1  0.59130000  0.78020000  0.60490000  1.0 -0.1237323227
C  C15  1  0.59130000  0.71980000  0.10490000  1.0 -0.1237323227
C  C16  1  0.40870000  0.21980000  0.39510000  1.0 -0.1237323227
C  C17  1  0.33150000  0.28850000  0.92760000  1.0 -0.0787973466
C  C18  1  0.66850000  0.78850000  0.57240000  1.0 -0.0787973466
C  C19  1  0.66850000  0.71150000  0.07240000  1.0 -0.0787973466
C  C20  1  0.33150000  0.21150000  0.42760000  1.0 -0.0787973466
C  C21  1  0.23110000  0.25900000  0.92430000  1.0 -0.1114944271
C  C22  1  0.76890000  0.75900000  0.57570000  1.0 -0.1114944271
C  C23  1  0.76890000  0.74100000  0.07570000  1.0 -0.1114944271
C  C24  1  0.23110000  0.24100000  0.42430000  1.0 -0.1114944271
C  C25  1  0.20420000  0.21500000  0.88340000  1.0 -0.0899842028
C  C26  1  0.79580000  0.71500000  0.61660000  1.0 -0.0899842028
C  C27  1  0.79580000  0.78500000  0.11660000  1.0 -0.0899842028
C  C28  1  0.20420000  0.28500000  0.38340000  1.0 -0.0899842028
C  C29  1  0.30710000  0.39980000  0.93210000  1.0 -0.0787973466
C  C30  1  0.69290000  0.89980000  0.56790000  1.0 -0.0787973466
C  C31  1  0.69290000  0.60020000  0.06790000  1.0 -0.0787973466
C  C32  1  0.30710000  0.10020000  0.43210000  1.0 -0.0787973466
C  C33  1  0.38310000  0.42320000  0.90710000  1.0 -0.1114944271
C  C34  1  0.61690000  0.92320000  0.59290000  1.0 -0.1114944271
C  C35  1  0.61690000  0.57680000  0.09290000  1.0 -0.1114944271
C  C36  1  0.38310000  0.07680000  0.40710000  1.0 -0.1114944271
C  C37  1  0.33510000  0.46950000  0.87050000  1.0 -0.0899842028
C  C38  1  0.66490000  0.96950000  0.62950000  1.0 -0.0899842028
C  C39  1  0.66490000  0.53050000  0.12950000  1.0 -0.0899842028
C  C40  1  0.33510000  0.03050000  0.37050000  1.0 -0.0899842028
C  C41  1  0.21390000  0.48740000  0.86480000  1.0 -0.0130445112
C  C42  1  0.78610000  0.98740000  0.63520000  1.0 -0.0130445112
C  C43  1  0.78610000  0.51260000  0.13520000  1.0 -0.0130445112
C  C44  1  0.21390000  0.01260000  0.36480000  1.0 -0.0130445112
C  C45  1  0.14960000  0.46310000  0.89460000  1.0 -0.0978861683
C  C46  1  0.85040000  0.96310000  0.60540000  1.0 -0.0978861683
C  C47  1  0.85040000  0.53690000  0.10540000  1.0 -0.0978861683
C  C48  1  0.14960000  0.03690000  0.39460000  1.0 -0.0978861683
C  C49  1  0.19770000  0.41700000  0.93170000  1.0 -0.1114944271
C  C50  1  0.80230000  0.91700000  0.56830000  1.0 -0.1114944271
C  C51  1  0.80230000  0.58300000  0.06830000  1.0 -0.1114944271
C  C52  1  0.19770000  0.08300000  0.43170000  1.0 -0.1114944271
C  C53  1  0.15960000  0.53640000  0.82690000  1.0 0.5756723602
C  C54  1  0.84040000  0.03640000  0.67310000  1.0 0.5756723602
C  C55  1  0.84040000  0.46360000  0.17310000  1.0 0.5756723602
C  C56  1  0.15960000  0.96360000  0.32690000  1.0 0.5756723602
C  C57  1  0.15110000  0.19260000  0.64950000  1.0 0.5756723602
C  C58  1  0.84890000  0.69260000  0.85050000  1.0 0.5756723602
C  C59  1  0.84890000  0.80740000  0.35050000  1.0 0.5756723602
C  C60  1  0.15110000  0.30740000  0.14950000  1.0 0.5756723602
C  C61  1  0.13760000  0.24940000  0.62600000  1.0 0.0024836872
C  C62  1  0.86240000  0.74940000  0.87400000  1.0 0.0024836872
C  C63  1  0.86240000  0.75060000  0.37400000  1.0 0.0024836872
C  C64  1  0.13760000  0.25060000  0.12600000  1.0 0.0024836872
C  C65  1  0.06490000  0.28470000  0.64390000  1.0 -0.0978861683
C  C66  1  0.93510000  0.78470000  0.85610000  1.0 -0.0978861683
C  C67  1  0.93510000  0.71530000  0.35610000  1.0 -0.0978861683
C  C68  1  0.06490000  0.21530000  0.14390000  1.0 -0.0978861683
C  C69  1  0.05680000  0.33900000  0.62510000  1.0 -0.0978861683
C  C70  1  0.94320000  0.83900000  0.87490000  1.0 -0.0978861683
C  C71  1  0.94320000  0.66100000  0.37490000  1.0 -0.0978861683
C  C72  1  0.05680000  0.16100000  0.12510000  1.0 -0.0978861683
C  C73  1  0.11760000  0.35370000  0.58820000  1.0 -0.0787973466
C  C74  1  0.88240000  0.85370000  0.91180000  1.0 -0.0787973466
C  C75  1  0.88240000  0.64630000  0.41180000  1.0 -0.0787973466
C  C76  1  0.11760000  0.14630000  0.08820000  1.0 -0.0787973466
C  C77  1  0.18770000  0.31790000  0.56890000  1.0 -0.0978861683
C  C78  1  0.81230000  0.81790000  0.93110000  1.0 -0.0978861683
C  C79  1  0.81230000  0.68210000  0.43110000  1.0 -0.0978861683
C  C80  1  0.18770000  0.18210000  0.06890000  1.0 -0.0978861683
C  C81  1  0.19880000  0.26510000  0.58950000  1.0 -0.0899842028
C  C82  1  0.80120000  0.76510000  0.91050000  1.0 -0.0899842028
C  C83  1  0.80120000  0.73490000  0.41050000  1.0 -0.0899842028
C  C84  1  0.19880000  0.23490000  0.08950000  1.0 -0.0899842028
C  C85  1  0.24860000  0.45040000  0.61380000  1.0 -0.0679940785
C  C86  1  0.75140000  0.95040000  0.88620000  1.0 -0.0679940785
C  C87  1  0.75140000  0.54960000  0.38620000  1.0 -0.0679940785
C  C88  1  0.24860000  0.04960000  0.11380000  1.0 -0.0679940785
C  C89  1  0.24670000  0.47180000  0.66790000  1.0 -0.2261722143
C  C90  1  0.75330000  0.97180000  0.83210000  1.0 -0.2261722143
C  C91  1  0.75330000  0.52820000  0.33210000  1.0 -0.2261722143
C  C92  1  0.24670000  0.02820000  0.16790000  1.0 -0.2261722143
C  C93  1  0.36200000  0.49660000  0.70410000  1.0 -0.0787973466
C  C94  1  0.63800000  0.99660000  0.79590000  1.0 -0.0787973466
C  C95  1  0.63800000  0.50340000  0.29590000  1.0 -0.0787973466
C  C96  1  0.36200000  0.00340000  0.20410000  1.0 -0.0787973466
C  C97  1  0.46620000  0.49850000  0.68680000  1.0 -0.0202347531
C  C98  1  0.53380000  0.99850000  0.81320000  1.0 -0.0202347531
C  C99  1  0.53380000  0.50150000  0.31320000  1.0 -0.0202347531
C  C100  1  0.46620000  0.00150000  0.18680000  1.0 -0.0202347531
C  C101  1  0.46090000  0.47710000  0.63410000  1.0 -0.0787973466
C  C102  1  0.53910000  0.97710000  0.86590000  1.0 -0.0787973466
C  C103  1  0.53910000  0.52290000  0.36590000  1.0 -0.0787973466
C  C104  1  0.46090000  0.02290000  0.13410000  1.0 -0.0787973466
C  C105  1  0.35350000  0.45180000  0.59760000  1.0 -0.1114944271
C  C106  1  0.64650000  0.95180000  0.90240000  1.0 -0.1114944271
C  C107  1  0.64650000  0.54820000  0.40240000  1.0 -0.1114944271
C  C108  1  0.35350000  0.04820000  0.09760000  1.0 -0.1114944271
C  C109  1  0.58510000  0.52720000  0.72540000  1.0 0.5580516452
C  C110  1  0.41490000  0.02720000  0.77460000  1.0 0.5580516452
C  C111  1  0.41490000  0.47280000  0.27460000  1.0 0.5580516452
C  C112  1  0.58510000  0.97280000  0.22540000  1.0 0.5580516452
C  C113  1  0.75910000  0.23470000  0.67320000  1.0 0.5511153732
C  C114  1  0.24090000  0.73470000  0.82680000  1.0 0.5511153732
C  C115  1  0.24090000  0.76530000  0.32680000  1.0 0.5511153732
C  C116  1  0.75910000  0.26530000  0.17320000  1.0 0.5511153732
C  C117  1  0.70040000  0.27920000  0.63170000  1.0 -0.0130445112
C  C118  1  0.29960000  0.77920000  0.86830000  1.0 -0.0130445112
C  C119  1  0.29960000  0.72080000  0.36830000  1.0 -0.0130445112
C  C120  1  0.70040000  0.22080000  0.13170000  1.0 -0.0130445112
C  C121  1  0.75140000  0.33020000  0.64620000  1.0 -0.0978861683
C  C122  1  0.24860000  0.83020000  0.85380000  1.0 -0.0978861683
C  C123  1  0.24860000  0.66980000  0.35380000  1.0 -0.0978861683
C  C124  1  0.75140000  0.16980000  0.14620000  1.0 -0.0978861683
C  C125  1  0.70420000  0.37130000  0.60730000  1.0 -0.1114944271
C  C126  1  0.29580000  0.87130000  0.89270000  1.0 -0.1114944271
C  C127  1  0.29580000  0.62870000  0.39270000  1.0 -0.1114944271
C  C128  1  0.70420000  0.12870000  0.10730000  1.0 -0.1114944271
C  C129  1  0.60480000  0.36230000  0.55450000  1.0 -0.0787973466
C  C130  1  0.39520000  0.86230000  0.94550000  1.0 -0.0787973466
C  C131  1  0.39520000  0.63770000  0.44550000  1.0 -0.0787973466
C  C132  1  0.60480000  0.13770000  0.05450000  1.0 -0.0787973466
C  C133  1  0.55200000  0.31370000  0.54060000  1.0 -0.0978861683
C  C134  1  0.44800000  0.81370000  0.95940000  1.0 -0.0978861683
C  C135  1  0.44800000  0.68630000  0.45940000  1.0 -0.0978861683
C  C136  1  0.55200000  0.18630000  0.04060000  1.0 -0.0978861683
C  C137  1  0.60070000  0.27040000  0.58000000  1.0 -0.0899842028
C  C138  1  0.39930000  0.77040000  0.92000000  1.0 -0.0899842028
C  C139  1  0.39930000  0.72960000  0.42000000  1.0 -0.0899842028
C  C140  1  0.60070000  0.22960000  0.08000000  1.0 -0.0899842028
C  C141  1  0.62390000  0.40380000  0.45220000  1.0 -0.0787973466
C  C142  1  0.37610000  0.90380000  0.04780000  1.0 -0.0787973466
C  C143  1  0.37610000  0.59620000  0.54780000  1.0 -0.0787973466
C  C144  1  0.62390000  0.09620000  0.95220000  1.0 -0.0787973466
C  C145  1  0.74770000  0.41740000  0.46610000  1.0 -0.0978861683
C  C146  1  0.25230000  0.91740000  0.03390000  1.0 -0.0978861683
C  C147  1  0.25230000  0.58260000  0.53390000  1.0 -0.0978861683
C  C148  1  0.74770000  0.08260000  0.96610000  1.0 -0.0978861683
C  C149  1  0.80630000  0.40930000  0.42380000  1.0 -0.0899842028
C  C150  1  0.19370000  0.90930000  0.07620000  1.0 -0.0899842028
C  C151  1  0.19370000  0.59070000  0.57620000  1.0 -0.0899842028
C  C152  1  0.80630000  0.09070000  0.92380000  1.0 -0.0787973466
C  C153  1  0.73310000  0.38680000  0.36960000  1.0 -0.0202347531
C  C154  1  0.26690000  0.88680000  0.13040000  1.0 -0.0202347531
C  C155  1  0.26690000  0.61320000  0.63040000  1.0 -0.0202347531
C  C156  1  0.73310000  0.11320000  0.86960000  1.0 -0.0202347531
C  C157  1  0.61050000  0.37310000  0.35770000  1.0 -0.0899842028
C  C158  1  0.38950000  0.87310000  0.14230000  1.0 -0.0899842028
C  C159  1  0.38950000  0.62690000  0.64230000  1.0 -0.0899842028
C  C160  1  0.61050000  0.12690000  0.85770000  1.0 -0.0899842028
C  C161  1  0.55150000  0.38160000  0.39910000  1.0 -0.0978861683
C  C162  1  0.44850000  0.88160000  0.10090000  1.0 -0.0978861683
C  C163  1  0.44850000  0.61840000  0.60090000  1.0 -0.0978861683
C  C164  1  0.55150000  0.11840000  0.89910000  1.0 -0.0978861683
C  C165  1  0.79530000  0.37850000  0.32530000  1.0 0.5580516452
C  C166  1  0.20470000  0.87850000  0.17470000  1.0 0.5580516452
C  C167  1  0.20470000  0.62150000  0.67470000  1.0 0.5580516452
C  C168  1  0.79530000  0.12150000  0.82530000  1.0 0.5580516452
C  C169  1  0.07090000  0.93290000  0.75910000  1.0 0.2726689969
C  C170  1  0.92910000  0.43290000  0.74090000  1.0 0.2726689969
C  C171  1  0.92910000  0.06710000  0.24090000  1.0 0.2726689969
C  C172  1  0.07090000  0.56710000  0.25910000  1.0 0.2726689969
C  C173  1  0.10770000  0.87530000  0.68700000  1.0 -0.3237193132
C  C174  1  0.89230000  0.37530000  0.81300000  1.0 -0.3237193132
C  C175  1  0.89230000  0.12470000  0.31300000  1.0 -0.3237193132
C  C176  1  0.10770000  0.62470000  0.18700000  1.0 -0.3237193132
C  C177  1  0.92940000  0.86050000  0.71940000  1.0 -0.3085316624
C  C178  1  0.07060000  0.36050000  0.78060000  1.0 -0.3085316624
C  C179  1  0.07060000  0.13950000  0.28060000  1.0 -0.3085316624
C  C180  1  0.92940000  0.63950000  0.21940000  1.0 -0.3085316624
S  S1  1  0.37229000  0.34343000  0.97829000  1.0 0.947735617
S  S2  1  0.62771000  0.84343000  0.52171000  1.0 0.947735617
S  S3  1  0.62771000  0.65657000  0.02171000  1.0 0.947735617
S  S4  1  0.37229000  0.15657000  0.47829000  1.0 0.947735617
S  S5  1  0.10983000  0.42135000  0.56553000  1.0 0.9801279699
S  S6  1  0.89017000  0.92135000  0.93447000  1.0 0.9801279699
S  S7  1  0.89017000  0.57865000  0.43447000  1.0 0.9801279699
S  S8  1  0.10983000  0.07865000  0.06553000  1.0 0.9801279699
S  S9  1  0.55236000  0.41571000  0.50456000  1.0 0.9894506727
S  S10  1  0.44764000  0.91571000  0.99544000  1.0 0.9894506727
S  S11  1  0.44764000  0.58429000  0.49544000  1.0 0.9894506727
S  S12  1  0.55236000  0.08429000  0.00456000  1.0 0.9894506727
N  N1  1  0.03400000  0.89190000  0.72100000  1.0 0.0133969496
N  N2  1  0.96600000  0.39190000  0.77900000  1.0 0.0133969496
N  N3  1  0.96600000  0.10810000  0.27900000  1.0 0.0133969496
N  N4  1  0.03400000  0.60810000  0.22100000  1.0 0.0133969496
O  O1  1  0.31210000  0.15570000  0.77350000  1.0 -0.5299188301
O  O2  1  0.68790000  0.65570000  0.72650000  1.0 -0.5299188301
O  O3  1  0.68790000  0.84430000  0.22650000  1.0 -0.5299188301
O  O4  1  0.31210000  0.34430000  0.27350000  1.0 -0.5299188301
O  O5  1  0.15500000  0.12930000  0.80220000  1.0 -0.6244625057
O  O6  1  0.84500000  0.62930000  0.69780000  1.0 -0.6258923814
O  O7  1  0.84500000  0.87070000  0.19780000  1.0 -0.6258923814
O  O8  1  0.15500000  0.37070000  0.30220000  1.0 -0.6244625057
O  O9  1  0.23660000  0.56530000  0.81250000  1.0 -0.5770963784
O  O10  1  0.76340000  0.06530000  0.68750000  1.0 -0.5770963784
O  O11  1  0.76340000  0.43470000  0.18750000  1.0 -0.5770963784
O  O12  1  0.23660000  0.93470000  0.31250000  1.0 -0.5770963784
O  O13  1  0.04500000  0.54780000  0.81760000  1.0 -0.6258923814
O  O14  1  0.95500000  0.04780000  0.68240000  1.0 -0.6258923814
O  O15  1  0.95500000  0.45220000  0.18240000  1.0 -0.6258923814
O  O16  1  0.04500000  0.95220000  0.31760000  1.0 -0.6258923814
O  O17  1  0.51030000  0.34920000  0.99930000  1.0 -0.5299188301
O  O18  1  0.48970000  0.84920000  0.50070000  1.0 -0.5299188301
O  O19  1  0.48970000  0.65080000  0.00070000  1.0 -0.5299188301
O  O20  1  0.51030000  0.15080000  0.49930000  1.0 -0.5299188301
O  O21  1  0.30250000  0.33670000  0.01750000  1.0 -0.5299188301
O  O22  1  0.69750000  0.83670000  0.48250000  1.0 -0.5299188301
O  O23  1  0.69750000  0.66330000  0.98250000  1.0 -0.5299188301
O  O24  1  0.30250000  0.16330000  0.51750000  1.0 -0.5299188301
O  O25  1  0.06810000  0.17750000  0.67000000  1.0 -0.5879423375
O  O26  1  0.93190000  0.67750000  0.83000000  1.0 -0.5879423375
O  O27  1  0.93190000  0.82250000  0.33000000  1.0 -0.5879423375
O  O28  1  0.06810000  0.32250000  0.17000000  1.0 -0.5879423375
O  O29  1  0.23930000  0.16490000  0.64650000  1.0 -0.5770963784
O  O30  1  0.76070000  0.66490000  0.85350000  1.0 -0.5770963784
O  O31  1  0.76070000  0.83510000  0.35350000  1.0 -0.5770963784
O  O32  1  0.23930000  0.33510000  0.14650000  1.0 -0.5770963784
O  O33  1  0.58330000  0.55130000  0.77000000  1.0 -0.6032486017
O  O34  1  0.41670000  0.05130000  0.73000000  1.0 -0.6032486017
O  O35  1  0.41670000  0.44870000  0.23000000  1.0 -0.6032486017
O  O36  1  0.58330000  0.94870000  0.27000000  1.0 -0.6032486017
O  O37  1  0.67590000  0.52640000  0.70650000  1.0 -0.6107033993
O  O38  1  0.32410000  0.02640000  0.79350000  1.0 -0.6107033993
O  O39  1  0.32410000  0.47360000  0.29350000  1.0 -0.6107033993
O  O40  1  0.67590000  0.97360000  0.20650000  1.0 -0.6107033993
O  O41  1  0.00410000  0.44490000  0.57560000  1.0 -0.5494318023
O  O42  1  0.99590000  0.94490000  0.92440000  1.0 -0.5494318023
O  O43  1  0.99590000  0.55510000  0.42440000  1.0 -0.5494318023
O  O44  1  0.00410000  0.05510000  0.07560000  1.0 -0.5494318023
O  O45  1  0.11610000  0.42190000  0.50760000  1.0 -0.5494318023
O  O46  1  0.88390000  0.92190000  0.99240000  1.0 -0.5494318023
O  O47  1  0.88390000  0.57810000  0.49240000  1.0 -0.5494318023
O  O48  1  0.11610000  0.07810000  0.00760000  1.0 -0.5494318023
O  O49  1  0.72420000  0.18720000  0.65530000  1.0 -0.5879423375
O  O50  1  0.27580000  0.68720000  0.84470000  1.0 -0.5879423375
O  O51  1  0.27580000  0.81280000  0.34470000  1.0 -0.5879423375
O  O52  1  0.72420000  0.31280000  0.15530000  1.0 -0.5879423375
O  O53  1  0.84270000  0.24470000  0.72080000  1.0 -0.5494318023
O  O54  1  0.15730000  0.74470000  0.77920000  1.0 -0.5494318023
O  O55  1  0.15730000  0.75530000  0.27920000  1.0 -0.5445932354
O  O56  1  0.84270000  0.25530000  0.22080000  1.0 -0.5445932354
O  O57  1  0.73190000  0.35630000  0.27780000  1.0 -0.5494318023
O  O58  1  0.26810000  0.85630000  0.22220000  1.0 -0.5494318023
O  O59  1  0.26810000  0.64370000  0.72220000  1.0 -0.5494318023
O  O60  1  0.73190000  0.14370000  0.77780000  1.0 -0.5494318023
O  O61  1  0.90870000  0.39370000  0.33590000  1.0 -0.6107033993
O  O62  1  0.09130000  0.89370000  0.16410000  1.0 -0.6107033993
O  O63  1  0.09130000  0.60630000  0.66410000  1.0 -0.6107033993
O  O64  1  0.90870000  0.10630000  0.83590000  1.0 -0.6107033993
O  O65  1  0.41890000  0.41060000  0.47600000  1.0 -0.5494318023
O  O66  1  0.58110000  0.91060000  0.02400000  1.0 -0.5494318023
O  O67  1  0.58110000  0.58940000  0.52400000  1.0 -0.5494318023
O  O68  1  0.41890000  0.08940000  0.97600000  1.0 -0.5494318023
O  O69  1  0.60620000  0.46340000  0.53580000  1.0 -0.5494318023
O  O70  1  0.39380000  0.96340000  0.96420000  1.0 -0.5494318023
O  O71  1  0.39380000  0.53660000  0.46420000  1.0 -0.5494318023
O  O72  1  0.60620000  0.03660000  0.03580000  1.0 -0.5494318023
O  O73  1  0.02350000  0.94580000  0.79570000  1.0 -0.4767460356
O  O74  1  0.97650000  0.44580000  0.70430000  1.0 -0.4767460356
O  O75  1  0.97650000  0.05420000  0.20430000  1.0 -0.4767460356
O  O76  1  0.02350000  0.55420000  0.29570000  1.0 -0.4767460356
