# DDEC6 charges by PACMAN v1.1 (https://github.com/mtap-research/PACMAN-charge/)
data_FARHIR_ASR_pacman
_symmetry_space_group_name_H-M   'P 1'
_cell_length_a   5.87270000
_cell_length_b   13.51070000
_cell_length_c   23.38000000
_cell_angle_alpha   90.00000000
_cell_angle_beta   90.00000000
_cell_angle_gamma   90.00000000
_symmetry_Int_Tables_number   1
_chemical_formula_structural   K2H16Pb2C28S2O13
_chemical_formula_sum   'K4 H32 Pb4 C56 S4 O26'
_cell_volume   1855.06945087
_cell_formula_units_Z   2
loop_
 _symmetry_equiv_pos_site_id
 _symmetry_equiv_pos_as_xyz
  1  'x, y, z'
loop_
 _atom_site_type_symbol
 _atom_site_label
 _atom_site_symmetry_multiplicity
 _atom_site_fract_x
 _atom_site_fract_y
 _atom_site_fract_z
 _atom_site_occupancy
 _atom_site_charge
K  K1  1  0.90820000  0.00000000  0.12312000  1.0 0.8795181125
K  K2  1  0.90820000  0.00000000  0.87688000  1.0 0.8795181125
K  K3  1  0.09180000  0.50000000  0.37688000  1.0 0.8795181125
K  K4  1  0.09180000  0.50000000  0.62312000  1.0 0.8795181125
H  H1  1  0.83230000  0.25960000  0.32210000  1.0 0.1132826213
H  H2  1  0.83230000  0.74040000  0.67790000  1.0 0.1132826213
H  H3  1  0.16770000  0.75960000  0.17790000  1.0 0.1132826213
H  H4  1  0.16770000  0.24040000  0.82210000  1.0 0.1132826213
H  H5  1  0.16770000  0.24040000  0.17790000  1.0 0.1132826213
H  H6  1  0.16770000  0.75960000  0.82210000  1.0 0.1132826213
H  H7  1  0.83230000  0.74040000  0.32210000  1.0 0.1132826213
H  H8  1  0.83230000  0.25960000  0.67790000  1.0 0.1132826213
H  H9  1  0.76100000  0.12650000  0.26230000  1.0 0.1230698483
H  H10  1  0.76100000  0.87350000  0.73770000  1.0 0.1230698483
H  H11  1  0.23900000  0.62650000  0.23770000  1.0 0.1230698483
H  H12  1  0.23900000  0.37350000  0.76230000  1.0 0.1230698483
H  H13  1  0.23900000  0.37350000  0.23770000  1.0 0.1230698483
H  H14  1  0.23900000  0.62650000  0.76230000  1.0 0.1230698483
H  H15  1  0.76100000  0.87350000  0.26230000  1.0 0.1230698483
H  H16  1  0.76100000  0.12650000  0.73770000  1.0 0.1230698483
H  H17  1  0.12880000  0.10300000  0.32650000  1.0 0.1132826213
H  H18  1  0.12880000  0.89700000  0.67350000  1.0 0.1132826213
H  H19  1  0.87120000  0.60300000  0.17350000  1.0 0.1132826213
H  H20  1  0.87120000  0.39700000  0.82650000  1.0 0.1132826213
H  H21  1  0.87120000  0.39700000  0.17350000  1.0 0.1132826213
H  H22  1  0.87120000  0.60300000  0.82650000  1.0 0.1132826213
H  H23  1  0.12880000  0.89700000  0.32650000  1.0 0.1132826213
H  H24  1  0.12880000  0.10300000  0.67350000  1.0 0.1132826213
H  H25  1  0.19980000  0.23890000  0.38470000  1.0 0.1230698483
H  H26  1  0.19980000  0.76110000  0.61530000  1.0 0.1230698483
H  H27  1  0.80020000  0.73890000  0.11530000  1.0 0.1230698483
H  H28  1  0.80020000  0.26110000  0.88470000  1.0 0.1230698483
H  H29  1  0.80020000  0.26110000  0.11530000  1.0 0.1230698483
H  H30  1  0.80020000  0.73890000  0.88470000  1.0 0.1230698483
H  H31  1  0.19980000  0.76110000  0.38470000  1.0 0.1230698483
H  H32  1  0.19980000  0.23890000  0.61530000  1.0 0.1230698483
Pb  Pb1  1  0.66987000  0.50000000  0.50000000  1.0 0.6732078701
Pb  Pb2  1  0.33013000  0.00000000  0.00000000  1.0 0.6732078701
Pb  Pb3  1  0.50250000  0.50000000  0.50000000  1.0 0.7390724927
Pb  Pb4  1  0.49750000  0.00000000  0.00000000  1.0 0.7269459873
C  C1  1  0.57660000  0.34350000  0.40260000  1.0 0.544074966
C  C2  1  0.57660000  0.65650000  0.59740000  1.0 0.544074966
C  C3  1  0.42340000  0.84350000  0.09740000  1.0 0.544074966
C  C4  1  0.42340000  0.15650000  0.90260000  1.0 0.544074966
C  C5  1  0.42340000  0.15650000  0.09740000  1.0 0.544074966
C  C6  1  0.42340000  0.84350000  0.90260000  1.0 0.544074966
C  C7  1  0.57660000  0.65650000  0.40260000  1.0 0.544074966
C  C8  1  0.57660000  0.34350000  0.59740000  1.0 0.544074966
C  C9  1  0.52780000  0.26060000  0.36110000  1.0 -0.008496427
C  C10  1  0.52780000  0.73940000  0.63890000  1.0 -0.008496427
C  C11  1  0.47220000  0.76060000  0.13890000  1.0 -0.008496427
C  C12  1  0.47220000  0.23940000  0.86110000  1.0 -0.008496427
C  C13  1  0.47220000  0.23940000  0.13890000  1.0 -0.008496427
C  C14  1  0.47220000  0.76060000  0.86110000  1.0 -0.008496427
C  C15  1  0.52780000  0.73940000  0.36110000  1.0 -0.008496427
C  C16  1  0.52780000  0.26060000  0.63890000  1.0 -0.008496427
C  C17  1  0.69160000  0.22810000  0.32340000  1.0 -0.0989215165
C  C18  1  0.69160000  0.77190000  0.67660000  1.0 -0.0989215165
C  C19  1  0.30840000  0.72810000  0.17660000  1.0 -0.0989215165
C  C20  1  0.30840000  0.27190000  0.82340000  1.0 -0.0989215165
C  C21  1  0.30840000  0.27190000  0.17660000  1.0 -0.0989215165
C  C22  1  0.30840000  0.72810000  0.82340000  1.0 -0.0989215165
C  C23  1  0.69160000  0.77190000  0.32340000  1.0 -0.0989215165
C  C24  1  0.69160000  0.22810000  0.67660000  1.0 -0.0989215165
C  C25  1  0.64880000  0.14860000  0.28720000  1.0 -0.1086889436
C  C26  1  0.64880000  0.85140000  0.71280000  1.0 -0.1086889436
C  C27  1  0.35120000  0.64860000  0.21280000  1.0 -0.1086889436
C  C28  1  0.35120000  0.35140000  0.78720000  1.0 -0.1086889436
C  C29  1  0.35120000  0.35140000  0.21280000  1.0 -0.1086889436
C  C30  1  0.35120000  0.64860000  0.78720000  1.0 -0.1086889436
C  C31  1  0.64880000  0.85140000  0.28720000  1.0 -0.1086889436
C  C32  1  0.64880000  0.14860000  0.71280000  1.0 -0.1086889436
C  C33  1  0.44200000  0.10350000  0.28850000  1.0 -0.085134627
C  C34  1  0.44200000  0.89650000  0.71150000  1.0 -0.085134627
C  C35  1  0.55800000  0.60350000  0.21150000  1.0 -0.085134627
C  C36  1  0.55800000  0.39650000  0.78850000  1.0 -0.085134627
C  C37  1  0.55800000  0.39650000  0.21150000  1.0 -0.085134627
C  C38  1  0.55800000  0.60350000  0.78850000  1.0 -0.085134627
C  C39  1  0.44200000  0.89650000  0.28850000  1.0 -0.085134627
C  C40  1  0.44200000  0.10350000  0.71150000  1.0 -0.085134627
C  C41  1  0.26910000  0.13490000  0.32560000  1.0 -0.1183923796
C  C42  1  0.26910000  0.86510000  0.67440000  1.0 -0.1183923796
C  C43  1  0.73090000  0.63490000  0.17440000  1.0 -0.1183923796
C  C44  1  0.73090000  0.36510000  0.82560000  1.0 -0.1183923796
C  C45  1  0.73090000  0.36510000  0.17440000  1.0 -0.1183923796
C  C46  1  0.73090000  0.63490000  0.82560000  1.0 -0.1183923796
C  C47  1  0.26910000  0.86510000  0.32560000  1.0 -0.1183923796
C  C48  1  0.26910000  0.13490000  0.67440000  1.0 -0.1183923796
C  C49  1  0.31380000  0.21500000  0.36080000  1.0 -0.0989215165
C  C50  1  0.31380000  0.78500000  0.63920000  1.0 -0.0989215165
C  C51  1  0.68620000  0.71500000  0.13920000  1.0 -0.0989215165
C  C52  1  0.68620000  0.28500000  0.86080000  1.0 -0.0989215165
C  C53  1  0.68620000  0.28500000  0.13920000  1.0 -0.0989215165
C  C54  1  0.68620000  0.71500000  0.86080000  1.0 -0.0989215165
C  C55  1  0.31380000  0.78500000  0.36080000  1.0 -0.0989215165
C  C56  1  0.31380000  0.21500000  0.63920000  1.0 -0.0989215165
S  S1  1  0.38730000  0.00000000  0.24411000  1.0 0.9804349154
S  S2  1  0.38730000  0.00000000  0.75589000  1.0 0.9804349154
S  S3  1  0.61270000  0.50000000  0.25589000  1.0 0.9804349154
S  S4  1  0.61270000  0.50000000  0.74411000  1.0 0.9804349154
O  O1  1  0.40900000  0.37800000  0.42910000  1.0 -0.5117882133
O  O2  1  0.40900000  0.62200000  0.57090000  1.0 -0.5117882133
O  O3  1  0.59100000  0.87800000  0.07090000  1.0 -0.5117882133
O  O4  1  0.59100000  0.12200000  0.92910000  1.0 -0.5117882133
O  O5  1  0.59100000  0.12200000  0.07090000  1.0 -0.5117882133
O  O6  1  0.59100000  0.87800000  0.92910000  1.0 -0.5117882133
O  O7  1  0.40900000  0.62200000  0.42910000  1.0 -0.5117882133
O  O8  1  0.40900000  0.37800000  0.57090000  1.0 -0.5117882133
O  O9  1  0.77480000  0.36890000  0.40920000  1.0 -0.556064108
O  O10  1  0.77480000  0.63110000  0.59080000  1.0 -0.556064108
O  O11  1  0.22520000  0.86890000  0.09080000  1.0 -0.556064108
O  O12  1  0.22520000  0.13110000  0.90920000  1.0 -0.556064108
O  O13  1  0.22520000  0.13110000  0.09080000  1.0 -0.556064108
O  O14  1  0.22520000  0.86890000  0.90920000  1.0 -0.556064108
O  O15  1  0.77480000  0.63110000  0.40920000  1.0 -0.556064108
O  O16  1  0.77480000  0.36890000  0.59080000  1.0 -0.556064108
O  O17  1  0.14640000  0.00000000  0.23070000  1.0 -0.5688973424
O  O18  1  0.14640000  0.00000000  0.76930000  1.0 -0.5688973424
O  O19  1  0.85360000  0.50000000  0.26930000  1.0 -0.5688973424
O  O20  1  0.85360000  0.50000000  0.73070000  1.0 -0.5688973424
O  O21  1  0.55370000  0.00000000  0.19910000  1.0 -0.5688973424
O  O22  1  0.55370000  0.00000000  0.80090000  1.0 -0.5688973424
O  O23  1  0.44630000  0.50000000  0.30090000  1.0 -0.5688973424
O  O24  1  0.44630000  0.50000000  0.69910000  1.0 -0.5688973424
O  O25  1  0.09070000  0.50000000  0.50000000  1.0 -0.5688973424
O  O26  1  0.90930000  0.00000000  0.00000000  1.0 -0.5751476378
