# DDEC6 charges by PACMAN v1.1 (https://github.com/mtap-research/PACMAN-charge/)
data_FASDIP_FSR_pacman
_symmetry_space_group_name_H-M   'P 1'
_cell_length_a   10.44300000
_cell_length_b   24.21000000
_cell_length_c   14.43000000
_cell_angle_alpha   90.00000000
_cell_angle_beta   131.60700000
_cell_angle_gamma   90.00000000
_symmetry_Int_Tables_number   1
_chemical_formula_structural   ZnH18C26(N3O2)2
_chemical_formula_sum   'Zn4 H72 C104 N24 O16'
_cell_volume   2727.86979207
_cell_formula_units_Z   4
loop_
 _symmetry_equiv_pos_site_id
 _symmetry_equiv_pos_as_xyz
  1  'x, y, z'
loop_
 _atom_site_type_symbol
 _atom_site_label
 _atom_site_symmetry_multiplicity
 _atom_site_fract_x
 _atom_site_fract_y
 _atom_site_fract_z
 _atom_site_occupancy
 _atom_site_charge
Zn  Zn1  1  0.96679000  0.35797000  0.09540000  1.0 0.7718723258
Zn  Zn2  1  0.96679000  0.14203000  0.59540000  1.0 0.7718723258
Zn  Zn3  1  0.03321000  0.85797000  0.40460000  1.0 0.7718723258
Zn  Zn4  1  0.03321000  0.64203000  0.90460000  1.0 0.7718723258
H  H1  1  0.80590000  0.47570000  0.99610000  1.0 0.1231014764
H  H2  1  0.58530000  0.34320000  0.00140000  1.0 0.1399918537
H  H3  1  0.36370000  0.41660000  0.88360000  1.0 0.1311694062
H  H4  1  0.23220000  0.48840000  0.75040000  1.0 0.1231014764
H  H5  1  0.27150000  0.64850000  0.68570000  1.0 0.1399918537
H  H6  1  0.57010000  0.64080000  0.83430000  1.0 0.1231014764
H  H7  1  0.69900000  0.55850000  0.93920000  1.0 0.1231014764
H  H8  1  0.73230000  0.46530000  0.51500000  1.0 0.1311694062
H  H9  1  0.30230000  0.54940000  0.24610000  1.0 0.1231014764
H  H10  1  0.46760000  0.62680000  0.28730000  1.0 0.1231014764
H  H11  1  0.76500000  0.62400000  0.44640000  1.0 0.1311694062
H  H12  1  0.16780000  0.47020000  0.18000000  1.0 0.1231014764
H  H13  1  0.32670000  0.33060000  0.37060000  1.0 0.1399918537
H  H14  1  0.56960000  0.39420000  0.48920000  1.0 0.1311694062
H  H15  1  0.96730000  0.20500000  0.33580000  1.0 0.1311694062
H  H16  1  0.00830000  0.04840000  0.26010000  1.0 0.1072916379
H  H17  1  0.00990000  0.08140000  0.10760000  1.0 0.0989685174
H  H18  1  0.98810000  0.17660000  0.06970000  1.0 0.1231014764
H  H19  1  0.80590000  0.02430000  0.49610000  1.0 0.1231014764
H  H20  1  0.58530000  0.15680000  0.50140000  1.0 0.1399918537
H  H21  1  0.36370000  0.08340000  0.38360000  1.0 0.1311694062
H  H22  1  0.23220000  0.01160000  0.25040000  1.0 0.1231014764
H  H23  1  0.27150000  0.85150000  0.18570000  1.0 0.1399918537
H  H24  1  0.57010000  0.85920000  0.33430000  1.0 0.1231014764
H  H25  1  0.69900000  0.94150000  0.43920000  1.0 0.1231014764
H  H26  1  0.73230000  0.03470000  0.01500000  1.0 0.1311694062
H  H27  1  0.30230000  0.95060000  0.74610000  1.0 0.1231014764
H  H28  1  0.46760000  0.87320000  0.78730000  1.0 0.1231014764
H  H29  1  0.76500000  0.87600000  0.94640000  1.0 0.1311694062
H  H30  1  0.16780000  0.02980000  0.68000000  1.0 0.1231014764
H  H31  1  0.32670000  0.16940000  0.87060000  1.0 0.1399918537
H  H32  1  0.56960000  0.10580000  0.98920000  1.0 0.1311694062
H  H33  1  0.96730000  0.29500000  0.83580000  1.0 0.1311694062
H  H34  1  0.00830000  0.45160000  0.76010000  1.0 0.1072916379
H  H35  1  0.00990000  0.41860000  0.60760000  1.0 0.0989685174
H  H36  1  0.98810000  0.32340000  0.56970000  1.0 0.1231014764
H  H37  1  0.19410000  0.97570000  0.50390000  1.0 0.1231014764
H  H38  1  0.41470000  0.84320000  0.49860000  1.0 0.1399918537
H  H39  1  0.63630000  0.91660000  0.61640000  1.0 0.1311694062
H  H40  1  0.76780000  0.98840000  0.74960000  1.0 0.1231014764
H  H41  1  0.72850000  0.14850000  0.81430000  1.0 0.1399918537
H  H42  1  0.42990000  0.14080000  0.66570000  1.0 0.1231014764
H  H43  1  0.30100000  0.05850000  0.56080000  1.0 0.1231014764
H  H44  1  0.26770000  0.96530000  0.98500000  1.0 0.1311694062
H  H45  1  0.69770000  0.04940000  0.25390000  1.0 0.1231014764
H  H46  1  0.53240000  0.12680000  0.21270000  1.0 0.1231014764
H  H47  1  0.23500000  0.12400000  0.05360000  1.0 0.1311694062
H  H48  1  0.83220000  0.97020000  0.32000000  1.0 0.1231014764
H  H49  1  0.67330000  0.83060000  0.12940000  1.0 0.1399918537
H  H50  1  0.43040000  0.89420000  0.01080000  1.0 0.1311694062
H  H51  1  0.03270000  0.70500000  0.16420000  1.0 0.1311694062
H  H52  1  0.99170000  0.54840000  0.23990000  1.0 0.1072916379
H  H53  1  0.99010000  0.58140000  0.39240000  1.0 0.0989685174
H  H54  1  0.01190000  0.67660000  0.43030000  1.0 0.1231014764
H  H55  1  0.19410000  0.52430000  0.00390000  1.0 0.1231014764
H  H56  1  0.41470000  0.65680000  0.99860000  1.0 0.1399918537
H  H57  1  0.63630000  0.58340000  0.11640000  1.0 0.1311694062
H  H58  1  0.76780000  0.51160000  0.24960000  1.0 0.1231014764
H  H59  1  0.72850000  0.35150000  0.31430000  1.0 0.1399918537
H  H60  1  0.42990000  0.35920000  0.16570000  1.0 0.1231014764
H  H61  1  0.30100000  0.44150000  0.06080000  1.0 0.1231014764
H  H62  1  0.26770000  0.53470000  0.48500000  1.0 0.1311694062
H  H63  1  0.69770000  0.45060000  0.75390000  1.0 0.1231014764
H  H64  1  0.53240000  0.37320000  0.71270000  1.0 0.1231014764
H  H65  1  0.23500000  0.37600000  0.55360000  1.0 0.1311694062
H  H66  1  0.83220000  0.52980000  0.82000000  1.0 0.1231014764
H  H67  1  0.67330000  0.66940000  0.62940000  1.0 0.1399918537
H  H68  1  0.43040000  0.60580000  0.51080000  1.0 0.1311694062
H  H69  1  0.03270000  0.79500000  0.66420000  1.0 0.1311694062
H  H70  1  0.99170000  0.95160000  0.73990000  1.0 0.1072916379
H  H71  1  0.99010000  0.91860000  0.89240000  1.0 0.0989685174
H  H72  1  0.01190000  0.82340000  0.93030000  1.0 0.1231014764
C  C1  1  0.72340000  0.45160000  0.98290000  1.0 0.0989685174
C  C2  1  0.60210000  0.37940000  0.98560000  1.0 -0.0200380624
C  C3  1  0.48000000  0.41940000  0.92060000  1.0 -0.0994072653
C  C4  1  0.47640000  0.51530000  0.85500000  1.0 0.1804606309
C  C5  1  0.30110000  0.51930000  0.76760000  1.0 -0.251977534
C  C6  1  0.22450000  0.56900000  0.70400000  1.0 0.1709009102
C  C7  1  0.32390000  0.61470000  0.72860000  1.0 -0.1583165033
C  C8  1  0.50100000  0.60990000  0.81690000  1.0 -0.0564315775
C  C9  1  0.57760000  0.56120000  0.87940000  1.0 -0.2001063535
C  C10  1  0.77640000  0.54400000  0.49670000  1.0 0.1709009102
C  C11  1  0.67840000  0.49840000  0.46910000  1.0 -0.2333323667
C  C12  1  0.50300000  0.50000000  0.37580000  1.0 0.1709009102
C  C13  1  0.42360000  0.54790000  0.30920000  1.0 -0.2001063535
C  C14  1  0.52170000  0.59400000  0.33460000  1.0 -0.0564315775
C  C15  1  0.69790000  0.59240000  0.42850000  1.0 -0.1583165033
C  C16  1  0.23790000  0.44330000  0.24290000  1.0 0.0989685174
C  C17  1  0.32530000  0.36740000  0.34690000  1.0 -0.0200380624
C  C18  1  0.45830000  0.40180000  0.41240000  1.0 -0.0994072653
C  C19  1  0.97610000  0.19980000  0.19930000  1.0 -0.0115555106
C  C20  1  0.97570000  0.18000000  0.28930000  1.0 -0.119896763
C  C21  1  0.98750000  0.12360000  0.31170000  1.0 -0.0325313145
C  C22  1  0.00010000  0.08690000  0.24450000  1.0 -0.1358042219
C  C23  1  0.00090000  0.10650000  0.15370000  1.0 -0.119896763
C  C24  1  0.98830000  0.16300000  0.13160000  1.0 -0.0994072653
C  C25  1  0.96280000  0.26160000  0.17810000  1.0 0.5468994072
C  C26  1  0.98670000  0.10290000  0.40960000  1.0 0.5468994072
C  C27  1  0.72340000  0.04840000  0.48290000  1.0 0.0989685174
C  C28  1  0.60210000  0.12060000  0.48560000  1.0 -0.0200380624
C  C29  1  0.48000000  0.08060000  0.42060000  1.0 -0.0994072653
C  C30  1  0.47640000  0.98470000  0.35500000  1.0 0.1804606309
C  C31  1  0.30110000  0.98070000  0.26760000  1.0 -0.251977534
C  C32  1  0.22450000  0.93100000  0.20400000  1.0 0.1709009102
C  C33  1  0.32390000  0.88530000  0.22860000  1.0 -0.1583165033
C  C34  1  0.50100000  0.89010000  0.31690000  1.0 -0.0564315775
C  C35  1  0.57760000  0.93880000  0.37940000  1.0 -0.2001063535
C  C36  1  0.77640000  0.95600000  0.99670000  1.0 0.1709009102
C  C37  1  0.67840000  0.00160000  0.96910000  1.0 -0.2333323667
C  C38  1  0.50300000  0.00000000  0.87580000  1.0 0.1709009102
C  C39  1  0.42360000  0.95210000  0.80920000  1.0 -0.2001063535
C  C40  1  0.52170000  0.90600000  0.83460000  1.0 -0.0564315775
C  C41  1  0.69790000  0.90760000  0.92850000  1.0 -0.1583165033
C  C42  1  0.23790000  0.05670000  0.74290000  1.0 0.0989685174
C  C43  1  0.32530000  0.13260000  0.84690000  1.0 -0.0200380624
C  C44  1  0.45830000  0.09820000  0.91240000  1.0 -0.0994072653
C  C45  1  0.97610000  0.30020000  0.69930000  1.0 -0.0115555106
C  C46  1  0.97570000  0.32000000  0.78930000  1.0 -0.119896763
C  C47  1  0.98750000  0.37640000  0.81170000  1.0 -0.0325313145
C  C48  1  0.00010000  0.41310000  0.74450000  1.0 -0.1358042219
C  C49  1  0.00090000  0.39350000  0.65370000  1.0 -0.119896763
C  C50  1  0.98830000  0.33700000  0.63160000  1.0 -0.0994072653
C  C51  1  0.96280000  0.23840000  0.67810000  1.0 0.5468994072
C  C52  1  0.98670000  0.39710000  0.90960000  1.0 0.5468994072
C  C53  1  0.27660000  0.95160000  0.51710000  1.0 0.0989685174
C  C54  1  0.39790000  0.87940000  0.51440000  1.0 -0.0200380624
C  C55  1  0.52000000  0.91940000  0.57940000  1.0 -0.0994072653
C  C56  1  0.52360000  0.01530000  0.64500000  1.0 0.1804606309
C  C57  1  0.69890000  0.01930000  0.73240000  1.0 -0.251977534
C  C58  1  0.77550000  0.06900000  0.79600000  1.0 0.1709009102
C  C59  1  0.67610000  0.11470000  0.77140000  1.0 -0.1583165033
C  C60  1  0.49900000  0.10990000  0.68310000  1.0 -0.0564315775
C  C61  1  0.42240000  0.06120000  0.62060000  1.0 -0.2001063535
C  C62  1  0.22360000  0.04400000  0.00330000  1.0 0.1709009102
C  C63  1  0.32160000  0.99840000  0.03090000  1.0 -0.2333323667
C  C64  1  0.49700000  0.00000000  0.12420000  1.0 0.1709009102
C  C65  1  0.57640000  0.04790000  0.19080000  1.0 -0.2001063535
C  C66  1  0.47830000  0.09400000  0.16540000  1.0 -0.0564315775
C  C67  1  0.30210000  0.09240000  0.07150000  1.0 -0.1583165033
C  C68  1  0.76210000  0.94330000  0.25710000  1.0 0.0989685174
C  C69  1  0.67470000  0.86740000  0.15310000  1.0 -0.0200380624
C  C70  1  0.54170000  0.90180000  0.08760000  1.0 -0.0994072653
C  C71  1  0.02390000  0.69980000  0.30070000  1.0 -0.0115555106
C  C72  1  0.02430000  0.68000000  0.21070000  1.0 -0.119896763
C  C73  1  0.01250000  0.62360000  0.18830000  1.0 -0.0325313145
C  C74  1  0.99990000  0.58690000  0.25550000  1.0 -0.1358042219
C  C75  1  0.99910000  0.60650000  0.34630000  1.0 -0.119896763
C  C76  1  0.01170000  0.66300000  0.36840000  1.0 -0.0994072653
C  C77  1  0.03720000  0.76160000  0.32190000  1.0 0.5468994072
C  C78  1  0.01330000  0.60290000  0.09040000  1.0 0.5468994072
C  C79  1  0.27660000  0.54840000  0.01710000  1.0 0.0989685174
C  C80  1  0.39790000  0.62060000  0.01440000  1.0 -0.0200380624
C  C81  1  0.52000000  0.58060000  0.07940000  1.0 -0.0994072653
C  C82  1  0.52360000  0.48470000  0.14500000  1.0 0.1804606309
C  C83  1  0.69890000  0.48070000  0.23240000  1.0 -0.251977534
C  C84  1  0.77550000  0.43100000  0.29600000  1.0 0.1709009102
C  C85  1  0.67610000  0.38530000  0.27140000  1.0 -0.1583165033
C  C86  1  0.49900000  0.39010000  0.18310000  1.0 -0.0564315775
C  C87  1  0.42240000  0.43880000  0.12060000  1.0 -0.2001063535
C  C88  1  0.22360000  0.45600000  0.50330000  1.0 0.1709009102
C  C89  1  0.32160000  0.50160000  0.53090000  1.0 -0.2333323667
C  C90  1  0.49700000  0.50000000  0.62420000  1.0 0.1709009102
C  C91  1  0.57640000  0.45210000  0.69080000  1.0 -0.2001063535
C  C92  1  0.47830000  0.40600000  0.66540000  1.0 -0.0564315775
C  C93  1  0.30210000  0.40760000  0.57150000  1.0 -0.1583165033
C  C94  1  0.76210000  0.55670000  0.75710000  1.0 0.0989685174
C  C95  1  0.67470000  0.63260000  0.65310000  1.0 -0.0200380624
C  C96  1  0.54170000  0.59820000  0.58760000  1.0 -0.0994072653
C  C97  1  0.02390000  0.80020000  0.80070000  1.0 -0.0115555106
C  C98  1  0.02430000  0.82000000  0.71070000  1.0 -0.119896763
C  C99  1  0.01250000  0.87640000  0.68830000  1.0 -0.0325313145
C  C100  1  0.99990000  0.91310000  0.75550000  1.0 -0.1358042219
C  C101  1  0.99910000  0.89350000  0.84630000  1.0 -0.119896763
C  C102  1  0.01170000  0.83700000  0.86840000  1.0 -0.0994072653
C  C103  1  0.03720000  0.73840000  0.82190000  1.0 0.5468994072
C  C104  1  0.01330000  0.89710000  0.59040000  1.0 0.5468994072
N  N1  1  0.55850000  0.46500000  0.91910000  1.0 0.0056591472
N  N2  1  0.75550000  0.40020000  0.02490000  1.0 -0.2815800617
N  N3  1  0.04320000  0.57700000  0.60710000  1.0 -0.1127531538
N  N4  1  0.95800000  0.53710000  0.59520000  1.0 -0.119896763
N  N5  1  0.40200000  0.45130000  0.34580000  1.0 0.0027281218
N  N6  1  0.18630000  0.39260000  0.24070000  1.0 -0.2815800617
N  N7  1  0.55850000  0.03500000  0.41910000  1.0 0.0056591472
N  N8  1  0.75550000  0.09980000  0.52490000  1.0 -0.2815800617
N  N9  1  0.04320000  0.92300000  0.10710000  1.0 -0.1127531538
N  N10  1  0.95800000  0.96290000  0.09520000  1.0 -0.119896763
N  N11  1  0.40200000  0.04870000  0.84580000  1.0 0.0027281218
N  N12  1  0.18630000  0.10740000  0.74070000  1.0 -0.2815800617
N  N13  1  0.44150000  0.96500000  0.58090000  1.0 0.0056591472
N  N14  1  0.24450000  0.90020000  0.47510000  1.0 -0.2815800617
N  N15  1  0.95680000  0.07700000  0.89290000  1.0 -0.1127531538
N  N16  1  0.04200000  0.03710000  0.90480000  1.0 -0.119896763
N  N17  1  0.59800000  0.95130000  0.15420000  1.0 0.0027281218
N  N18  1  0.81370000  0.89260000  0.25930000  1.0 -0.2815800617
N  N19  1  0.44150000  0.53500000  0.08090000  1.0 0.0056591472
N  N20  1  0.24450000  0.59980000  0.97510000  1.0 -0.2815800617
N  N21  1  0.95680000  0.42300000  0.39290000  1.0 -0.1127531538
N  N22  1  0.04200000  0.46290000  0.40480000  1.0 -0.119896763
N  N23  1  0.59800000  0.54870000  0.65420000  1.0 0.0027281218
N  N24  1  0.81370000  0.60740000  0.75930000  1.0 -0.2815800617
O  O1  1  0.95210000  0.29390000  0.23920000  1.0 -0.5561353797
O  O2  1  0.96740000  0.27720000  0.09750000  1.0 -0.5207293639
O  O3  1  0.96950000  0.14134000  0.46100000  1.0 -0.5302419374
O  O4  1  0.99870000  0.05376000  0.43380000  1.0 -0.5561353797
O  O5  1  0.95210000  0.20610000  0.73920000  1.0 -0.5561353797
O  O6  1  0.96740000  0.22280000  0.59750000  1.0 -0.5207293639
O  O7  1  0.96950000  0.35866000  0.96100000  1.0 -0.5302419374
O  O8  1  0.99870000  0.44624000  0.93380000  1.0 -0.5561353797
O  O9  1  0.04790000  0.79390000  0.26080000  1.0 -0.5561353797
O  O10  1  0.03260000  0.77720000  0.40250000  1.0 -0.5207293639
O  O11  1  0.03050000  0.64134000  0.03900000  1.0 -0.5302419374
O  O12  1  0.00130000  0.55376000  0.06620000  1.0 -0.5561353797
O  O13  1  0.04790000  0.70610000  0.76080000  1.0 -0.5561353797
O  O14  1  0.03260000  0.72280000  0.90250000  1.0 -0.5207293639
O  O15  1  0.03050000  0.85866000  0.53900000  1.0 -0.5302419374
O  O16  1  0.00130000  0.94624000  0.56620000  1.0 -0.5561353797
