# DDEC6 charges by PACMAN v1.1 (https://github.com/mtap-research/PACMAN-charge/)
data_FASFUD_ASR_pacman
_symmetry_space_group_name_H-M   'P 1'
_cell_length_a   15.37700000
_cell_length_b   15.37700000
_cell_length_c   9.91500000
_cell_angle_alpha   90.00000000
_cell_angle_beta   90.00000000
_cell_angle_gamma   90.00000000
_symmetry_Int_Tables_number   1
_chemical_formula_structural   SmH24C44S4(NO3)4
_chemical_formula_sum   'Sm2 H48 C88 S8 N8 O24'
_cell_volume   2344.42285903
_cell_formula_units_Z   2
loop_
 _symmetry_equiv_pos_site_id
 _symmetry_equiv_pos_as_xyz
  1  'x, y, z'
loop_
 _atom_site_type_symbol
 _atom_site_label
 _atom_site_symmetry_multiplicity
 _atom_site_fract_x
 _atom_site_fract_y
 _atom_site_fract_z
 _atom_site_occupancy
 _atom_site_charge
Sm  Sm1  1  0.00000000  0.00000000  0.25000000  1.0 2.3080625839
Sm  Sm2  1  0.00000000  0.00000000  0.75000000  1.0 2.3080625839
H  H1  1  0.76240000  0.91090000  0.79850000  1.0 0.1395910309
H  H2  1  0.23760000  0.08910000  0.79850000  1.0 0.1395910309
H  H3  1  0.91090000  0.23760000  0.79850000  1.0 0.1395910309
H  H4  1  0.08910000  0.76240000  0.79850000  1.0 0.1395910309
H  H5  1  0.76240000  0.08910000  0.70150000  1.0 0.1395910309
H  H6  1  0.23760000  0.91090000  0.70150000  1.0 0.1395910309
H  H7  1  0.91090000  0.76240000  0.70150000  1.0 0.1395910309
H  H8  1  0.08910000  0.23760000  0.70150000  1.0 0.1395910309
H  H9  1  0.23760000  0.08910000  0.20150000  1.0 0.1395910309
H  H10  1  0.76240000  0.91090000  0.20150000  1.0 0.1395910309
H  H11  1  0.08910000  0.76240000  0.20150000  1.0 0.1395910309
H  H12  1  0.91090000  0.23760000  0.20150000  1.0 0.1395910309
H  H13  1  0.23760000  0.91090000  0.29850000  1.0 0.1395910309
H  H14  1  0.76240000  0.08910000  0.29850000  1.0 0.1395910309
H  H15  1  0.08910000  0.23760000  0.29850000  1.0 0.1395910309
H  H16  1  0.91090000  0.76240000  0.29850000  1.0 0.1395910309
H  H17  1  0.67630000  0.78740000  0.79800000  1.0 0.1331702478
H  H18  1  0.32370000  0.21260000  0.79800000  1.0 0.1331702478
H  H19  1  0.78740000  0.32370000  0.79800000  1.0 0.1331702478
H  H20  1  0.21260000  0.67630000  0.79800000  1.0 0.1331702478
H  H21  1  0.67630000  0.21260000  0.70200000  1.0 0.1331702478
H  H22  1  0.32370000  0.78740000  0.70200000  1.0 0.1331702478
H  H23  1  0.78740000  0.67630000  0.70200000  1.0 0.1331702478
H  H24  1  0.21260000  0.32370000  0.70200000  1.0 0.1331702478
H  H25  1  0.32370000  0.21260000  0.20200000  1.0 0.1331702478
H  H26  1  0.67630000  0.78740000  0.20200000  1.0 0.1331702478
H  H27  1  0.21260000  0.67630000  0.20200000  1.0 0.1331702478
H  H28  1  0.78740000  0.32370000  0.20200000  1.0 0.1331702478
H  H29  1  0.32370000  0.78740000  0.29800000  1.0 0.1331702478
H  H30  1  0.67630000  0.21260000  0.29800000  1.0 0.1331702478
H  H31  1  0.21260000  0.32370000  0.29800000  1.0 0.1331702478
H  H32  1  0.78740000  0.67630000  0.29800000  1.0 0.1331702478
H  H33  1  0.79640000  0.65110000  0.00000000  1.0 0.1483129568
H  H34  1  0.20360000  0.34890000  0.00000000  1.0 0.1483129568
H  H35  1  0.65110000  0.20360000  0.00000000  1.0 0.1483129568
H  H36  1  0.34890000  0.79640000  0.00000000  1.0 0.1483129568
H  H37  1  0.79640000  0.34890000  0.50000000  1.0 0.1483129568
H  H38  1  0.20360000  0.65110000  0.50000000  1.0 0.1483129568
H  H39  1  0.65110000  0.79640000  0.50000000  1.0 0.1483129568
H  H40  1  0.34890000  0.20360000  0.50000000  1.0 0.1483129568
H  H41  1  0.83360000  0.49900000  0.00000000  1.0 0.1395910309
H  H42  1  0.16640000  0.50100000  0.00000000  1.0 0.1395910309
H  H43  1  0.49900000  0.16640000  0.00000000  1.0 0.1395910309
H  H44  1  0.50100000  0.83360000  0.00000000  1.0 0.1395910309
H  H45  1  0.83360000  0.50100000  0.50000000  1.0 0.1395910309
H  H46  1  0.16640000  0.49900000  0.50000000  1.0 0.1395910309
H  H47  1  0.49900000  0.83360000  0.50000000  1.0 0.1395910309
H  H48  1  0.50100000  0.16640000  0.50000000  1.0 0.1395910309
C  C1  1  0.76685000  0.92388000  0.00000000  1.0 -0.0910850858
C  C2  1  0.23315000  0.07612000  0.00000000  1.0 -0.0910850858
C  C3  1  0.92388000  0.23315000  0.00000000  1.0 -0.0910850858
C  C4  1  0.07612000  0.76685000  0.00000000  1.0 -0.0910850858
C  C5  1  0.76685000  0.07612000  0.50000000  1.0 -0.0910850858
C  C6  1  0.23315000  0.92388000  0.50000000  1.0 -0.0910850858
C  C7  1  0.92388000  0.76685000  0.50000000  1.0 -0.0910850858
C  C8  1  0.07612000  0.23315000  0.50000000  1.0 -0.0910850858
C  C9  1  0.74406000  0.88646000  0.87942000  1.0 -0.0690541463
C  C10  1  0.25594000  0.11354000  0.87942000  1.0 -0.0690541463
C  C11  1  0.88646000  0.25594000  0.87942000  1.0 -0.0690541463
C  C12  1  0.11354000  0.74406000  0.87942000  1.0 -0.0690541463
C  C13  1  0.74406000  0.11354000  0.62058000  1.0 -0.0690541463
C  C14  1  0.25594000  0.88646000  0.62058000  1.0 -0.0690541463
C  C15  1  0.88646000  0.74406000  0.62058000  1.0 -0.0690541463
C  C16  1  0.11354000  0.25594000  0.62058000  1.0 -0.0690541463
C  C17  1  0.25594000  0.11354000  0.12058000  1.0 -0.0690541463
C  C18  1  0.74406000  0.88646000  0.12058000  1.0 -0.0690541463
C  C19  1  0.11354000  0.74406000  0.12058000  1.0 -0.0690541463
C  C20  1  0.88646000  0.25594000  0.12058000  1.0 -0.0690541463
C  C21  1  0.25594000  0.88646000  0.37942000  1.0 -0.0690541463
C  C22  1  0.74406000  0.11354000  0.37942000  1.0 -0.0690541463
C  C23  1  0.11354000  0.25594000  0.37942000  1.0 -0.0690541463
C  C24  1  0.88646000  0.74406000  0.37942000  1.0 -0.0690541463
C  C25  1  0.69346000  0.81200000  0.87950000  1.0 -0.1216219358
C  C26  1  0.30654000  0.18800000  0.87950000  1.0 -0.1216219358
C  C27  1  0.81200000  0.30654000  0.87950000  1.0 -0.1216219358
C  C28  1  0.18800000  0.69346000  0.87950000  1.0 -0.1216219358
C  C29  1  0.69346000  0.18800000  0.62050000  1.0 -0.1216219358
C  C30  1  0.30654000  0.81200000  0.62050000  1.0 -0.1216219358
C  C31  1  0.81200000  0.69346000  0.62050000  1.0 -0.1216219358
C  C32  1  0.18800000  0.30654000  0.62050000  1.0 -0.1216219358
C  C33  1  0.30654000  0.18800000  0.12050000  1.0 -0.1216219358
C  C34  1  0.69346000  0.81200000  0.12050000  1.0 -0.1216219358
C  C35  1  0.18800000  0.69346000  0.12050000  1.0 -0.1216219358
C  C36  1  0.81200000  0.30654000  0.12050000  1.0 -0.1216219358
C  C37  1  0.30654000  0.81200000  0.37950000  1.0 -0.1216219358
C  C38  1  0.69346000  0.18800000  0.37950000  1.0 -0.1216219358
C  C39  1  0.18800000  0.30654000  0.37950000  1.0 -0.1216219358
C  C40  1  0.81200000  0.69346000  0.37950000  1.0 -0.1216219358
C  C41  1  0.66802000  0.77357000  0.00000000  1.0 0.0959402954
C  C42  1  0.33198000  0.22643000  0.00000000  1.0 0.0959402954
C  C43  1  0.77357000  0.33198000  0.00000000  1.0 0.0959402954
C  C44  1  0.22643000  0.66802000  0.00000000  1.0 0.0959402954
C  C45  1  0.66802000  0.22643000  0.50000000  1.0 0.0959402954
C  C46  1  0.33198000  0.77357000  0.50000000  1.0 0.0959402954
C  C47  1  0.77357000  0.66802000  0.50000000  1.0 0.0959402954
C  C48  1  0.22643000  0.33198000  0.50000000  1.0 0.0959402954
C  C49  1  0.61760000  0.68939000  0.00000000  1.0 -0.075175225
C  C50  1  0.38240000  0.31061000  0.00000000  1.0 -0.0690541463
C  C51  1  0.68939000  0.38240000  0.00000000  1.0 -0.0690541463
C  C52  1  0.31061000  0.61760000  0.00000000  1.0 -0.0690541463
C  C53  1  0.61760000  0.31061000  0.50000000  1.0 -0.0690541463
C  C54  1  0.38240000  0.68939000  0.50000000  1.0 -0.0690541463
C  C55  1  0.68939000  0.61760000  0.50000000  1.0 -0.075175225
C  C56  1  0.31061000  0.38240000  0.50000000  1.0 -0.0690541463
C  C57  1  0.66597000  0.61372000  0.00000000  1.0 0.1772673138
C  C58  1  0.33403000  0.38628000  0.00000000  1.0 0.1772673138
C  C59  1  0.61372000  0.33403000  0.00000000  1.0 0.1772673138
C  C60  1  0.38628000  0.66597000  0.00000000  1.0 0.1772673138
C  C61  1  0.66597000  0.38628000  0.50000000  1.0 0.1772673138
C  C62  1  0.33403000  0.61372000  0.50000000  1.0 0.1772673138
C  C63  1  0.61372000  0.66597000  0.50000000  1.0 0.1772673138
C  C64  1  0.38628000  0.33403000  0.50000000  1.0 0.1772673138
C  C65  1  0.75694000  0.60528000  0.00000000  1.0 -0.1732741065
C  C66  1  0.24306000  0.39472000  0.00000000  1.0 -0.1732741065
C  C67  1  0.60528000  0.24306000  0.00000000  1.0 -0.1732741065
C  C68  1  0.39472000  0.75694000  0.00000000  1.0 -0.1732741065
C  C69  1  0.75694000  0.39472000  0.50000000  1.0 -0.1732741065
C  C70  1  0.24306000  0.60528000  0.50000000  1.0 -0.1732741065
C  C71  1  0.60528000  0.75694000  0.50000000  1.0 -0.1732741065
C  C72  1  0.39472000  0.24306000  0.50000000  1.0 -0.1732741065
C  C73  1  0.77765000  0.52193000  0.00000000  1.0 -0.1732741065
C  C74  1  0.22235000  0.47807000  0.00000000  1.0 -0.1732741065
C  C75  1  0.52193000  0.22235000  0.00000000  1.0 -0.1732741065
C  C76  1  0.47807000  0.77765000  0.00000000  1.0 -0.1732741065
C  C77  1  0.77765000  0.47807000  0.50000000  1.0 -0.1732741065
C  C78  1  0.22235000  0.52193000  0.50000000  1.0 -0.1732741065
C  C79  1  0.52193000  0.77765000  0.50000000  1.0 -0.1732741065
C  C80  1  0.47807000  0.22235000  0.50000000  1.0 -0.1732741065
C  C81  1  0.69739000  0.47265000  0.00000000  1.0 0.2071746893
C  C82  1  0.30261000  0.52735000  0.00000000  1.0 0.2071746893
C  C83  1  0.47265000  0.30261000  0.00000000  1.0 0.2071746893
C  C84  1  0.52735000  0.69739000  0.00000000  1.0 0.2071746893
C  C85  1  0.69739000  0.52735000  0.50000000  1.0 0.2071746893
C  C86  1  0.30261000  0.47265000  0.50000000  1.0 0.2071746893
C  C87  1  0.47265000  0.69739000  0.50000000  1.0 0.2071746893
C  C88  1  0.52735000  0.30261000  0.50000000  1.0 0.2071746893
S  S1  1  0.81898000  0.02635000  0.00000000  1.0 1.2764485337
S  S2  1  0.18102000  0.97365000  0.00000000  1.0 1.2764485337
S  S3  1  0.02635000  0.18102000  0.00000000  1.0 1.2764485337
S  S4  1  0.97365000  0.81898000  0.00000000  1.0 1.2764485337
S  S5  1  0.81898000  0.97365000  0.50000000  1.0 1.2764485337
S  S6  1  0.18102000  0.02635000  0.50000000  1.0 1.2764485337
S  S7  1  0.02635000  0.81898000  0.50000000  1.0 1.2764485337
S  S8  1  0.97365000  0.18102000  0.50000000  1.0 1.2764485337
N  N1  1  0.62897000  0.53032000  0.00000000  1.0 -0.2981314913
N  N2  1  0.37103000  0.46968000  0.00000000  1.0 -0.2981314913
N  N3  1  0.53032000  0.37103000  0.00000000  1.0 -0.2981314913
N  N4  1  0.46968000  0.62897000  0.00000000  1.0 -0.2981314913
N  N5  1  0.62897000  0.46968000  0.50000000  1.0 -0.2981314913
N  N6  1  0.37103000  0.53032000  0.50000000  1.0 -0.2981314913
N  N7  1  0.53032000  0.62897000  0.50000000  1.0 -0.2981314913
N  N8  1  0.46968000  0.37103000  0.50000000  1.0 -0.2981314913
O  O1  1  0.87113000  0.03106000  0.12089000  1.0 -0.7174984432
O  O2  1  0.12887000  0.96894000  0.12089000  1.0 -0.7174984432
O  O3  1  0.03106000  0.12887000  0.12089000  1.0 -0.7174984432
O  O4  1  0.96894000  0.87113000  0.12089000  1.0 -0.7174984432
O  O5  1  0.87113000  0.96894000  0.37911000  1.0 -0.7174984432
O  O6  1  0.12887000  0.03106000  0.37911000  1.0 -0.7174984432
O  O7  1  0.03106000  0.87113000  0.37911000  1.0 -0.7174984432
O  O8  1  0.96894000  0.12887000  0.37911000  1.0 -0.7174984432
O  O9  1  0.12887000  0.96894000  0.87911000  1.0 -0.7174984432
O  O10  1  0.87113000  0.03106000  0.87911000  1.0 -0.7174984432
O  O11  1  0.96894000  0.87113000  0.87911000  1.0 -0.7174984432
O  O12  1  0.03106000  0.12887000  0.87911000  1.0 -0.7174984432
O  O13  1  0.12887000  0.03106000  0.62089000  1.0 -0.7174984432
O  O14  1  0.87113000  0.96894000  0.62089000  1.0 -0.7174984432
O  O15  1  0.96894000  0.12887000  0.62089000  1.0 -0.7174984432
O  O16  1  0.03106000  0.87113000  0.62089000  1.0 -0.7174984432
O  O17  1  0.75032000  0.08936000  0.00000000  1.0 -0.5445747666
O  O18  1  0.24968000  0.91064000  0.00000000  1.0 -0.5445747666
O  O19  1  0.08936000  0.24968000  0.00000000  1.0 -0.5445747666
O  O20  1  0.91064000  0.75032000  0.00000000  1.0 -0.5445747666
O  O21  1  0.75032000  0.91064000  0.50000000  1.0 -0.5445747666
O  O22  1  0.24968000  0.08936000  0.50000000  1.0 -0.5445747666
O  O23  1  0.08936000  0.75032000  0.50000000  1.0 -0.5445747666
O  O24  1  0.91064000  0.24968000  0.50000000  1.0 -0.5445747666
