# DDEC6 charges by PACMAN v1.1 (https://github.com/mtap-research/PACMAN-charge/)
data_FASJAL_FSR_pacman
_symmetry_space_group_name_H-M   'P 1'
_cell_length_a   8.41810000
_cell_length_b   15.88850000
_cell_length_c   15.88850000
_cell_angle_alpha   90.00000000
_cell_angle_beta   90.00000000
_cell_angle_gamma   90.00000000
_symmetry_Int_Tables_number   1
_chemical_formula_structural   Ca2Zr(C2O5)4
_chemical_formula_sum   'Ca8 Zr4 C32 O80'
_cell_volume   2125.10247512
_cell_formula_units_Z   4
loop_
 _symmetry_equiv_pos_site_id
 _symmetry_equiv_pos_as_xyz
  1  'x, y, z'
loop_
 _atom_site_type_symbol
 _atom_site_label
 _atom_site_symmetry_multiplicity
 _atom_site_fract_x
 _atom_site_fract_y
 _atom_site_fract_z
 _atom_site_occupancy
 _atom_site_charge
Ca  Ca1  1  0.99780000  0.24069000  0.61940000  1.0 1.2419945723
Ca  Ca2  1  0.00220000  0.75931000  0.11940000  1.0 1.2419945723
Ca  Ca3  1  0.50220000  0.74069000  0.11940000  1.0 1.2419945723
Ca  Ca4  1  0.49780000  0.25931000  0.61940000  1.0 1.2419945723
Ca  Ca5  1  0.99740000  0.73964000  0.61840000  1.0 1.2457915968
Ca  Ca6  1  0.00260000  0.26036000  0.11840000  1.0 1.2457915968
Ca  Ca7  1  0.50260000  0.23964000  0.11840000  1.0 1.2457915968
Ca  Ca8  1  0.49740000  0.76036000  0.61840000  1.0 1.2457915968
Zr  Zr1  1  0.74870000  0.49976000  0.36900000  1.0 1.7115757889
Zr  Zr2  1  0.25130000  0.50024000  0.86900000  1.0 1.6896524852
Zr  Zr3  1  0.75130000  0.99976000  0.86900000  1.0 1.7115757889
Zr  Zr4  1  0.24870000  0.00024000  0.36900000  1.0 1.7115757889
C  C1  1  0.94750000  0.38550000  0.47950000  1.0 0.4704624018
C  C2  1  0.05250000  0.61450000  0.97950000  1.0 0.4704624018
C  C3  1  0.55250000  0.88550000  0.97950000  1.0 0.4704624018
C  C4  1  0.44750000  0.11450000  0.47950000  1.0 0.4643114334
C  C5  1  0.95480000  0.61620000  0.26230000  1.0 0.4704624018
C  C6  1  0.04520000  0.38380000  0.76230000  1.0 0.4704624018
C  C7  1  0.54520000  0.11620000  0.76230000  1.0 0.4704624018
C  C8  1  0.45480000  0.88380000  0.26230000  1.0 0.4704624018
C  C9  1  0.54280000  0.61350000  0.48190000  1.0 0.4704624018
C  C10  1  0.45720000  0.38650000  0.98190000  1.0 0.4704624018
C  C11  1  0.95720000  0.11350000  0.98190000  1.0 0.4704624018
C  C12  1  0.04280000  0.88650000  0.48190000  1.0 0.4704624018
C  C13  1  0.55020000  0.39100000  0.25480000  1.0 0.4704624018
C  C14  1  0.44980000  0.60900000  0.75480000  1.0 0.4704624018
C  C15  1  0.94980000  0.89100000  0.75480000  1.0 0.4704624018
C  C16  1  0.05020000  0.10900000  0.25480000  1.0 0.4704624018
C  C17  1  0.78660000  0.63260000  0.23400000  1.0 0.450078947
C  C18  1  0.21340000  0.36740000  0.73400000  1.0 0.450078947
C  C19  1  0.71340000  0.13260000  0.73400000  1.0 0.450078947
C  C20  1  0.28660000  0.86740000  0.23400000  1.0 0.450078947
C  C21  1  0.77140000  0.35760000  0.49980000  1.0 0.4784789508
C  C22  1  0.22860000  0.64240000  0.99980000  1.0 0.4784789508
C  C23  1  0.72860000  0.85760000  0.99980000  1.0 0.4784789508
C  C24  1  0.27140000  0.14240000  0.49980000  1.0 0.4784789508
C  C25  1  0.72230000  0.63720000  0.49820000  1.0 0.4704624018
C  C26  1  0.27770000  0.36280000  0.99820000  1.0 0.4704624018
C  C27  1  0.77770000  0.13720000  0.99820000  1.0 0.4704624018
C  C28  1  0.22230000  0.86280000  0.49820000  1.0 0.4704624018
C  C29  1  0.72330000  0.36950000  0.23250000  1.0 0.4704624018
C  C30  1  0.27670000  0.63050000  0.73250000  1.0 0.4643114334
C  C31  1  0.77670000  0.86950000  0.73250000  1.0 0.4643114334
C  C32  1  0.22330000  0.13050000  0.23250000  1.0 0.4643114334
O  O1  1  0.74460000  0.69180000  0.55050000  1.0 -0.5492230628
O  O2  1  0.25540000  0.30820000  0.05050000  1.0 -0.5492230628
O  O3  1  0.75540000  0.19180000  0.05050000  1.0 -0.5492230628
O  O4  1  0.24460000  0.80820000  0.55050000  1.0 -0.5492230628
O  O5  1  0.74760000  0.30550000  0.55180000  1.0 -0.5406016359
O  O6  1  0.25240000  0.69450000  0.05180000  1.0 -0.5406016359
O  O7  1  0.75240000  0.80550000  0.05180000  1.0 -0.5406016359
O  O8  1  0.24760000  0.19450000  0.55180000  1.0 -0.5406016359
O  O9  1  0.75030000  0.31660000  0.17310000  1.0 -0.5406016359
O  O10  1  0.24970000  0.68340000  0.67310000  1.0 -0.5406016359
O  O11  1  0.74970000  0.81660000  0.67310000  1.0 -0.5406016359
O  O12  1  0.25030000  0.18340000  0.17310000  1.0 -0.5406016359
O  O13  1  0.75320000  0.68330000  0.17460000  1.0 -0.5223643692
O  O14  1  0.24680000  0.31670000  0.67460000  1.0 -0.5276184305
O  O15  1  0.74680000  0.18330000  0.67460000  1.0 -0.5276184305
O  O16  1  0.25320000  0.81670000  0.17460000  1.0 -0.5276184305
O  O17  1  0.82060000  0.39800000  0.28510000  1.0 -0.5492230628
O  O18  1  0.17940000  0.60200000  0.78510000  1.0 -0.5492230628
O  O19  1  0.67940000  0.89800000  0.78510000  1.0 -0.5492230628
O  O20  1  0.32060000  0.10200000  0.28510000  1.0 -0.5492230628
O  O21  1  0.53120000  0.56040000  0.42190000  1.0 -0.5406016359
O  O22  1  0.46880000  0.43960000  0.92190000  1.0 -0.5406016359
O  O23  1  0.96880000  0.06040000  0.92190000  1.0 -0.5406016359
O  O24  1  0.03120000  0.93960000  0.42190000  1.0 -0.5406016359
O  O25  1  0.82240000  0.59180000  0.46220000  1.0 -0.5406016359
O  O26  1  0.17760000  0.40820000  0.96220000  1.0 -0.5406016359
O  O27  1  0.67760000  0.09180000  0.96220000  1.0 -0.5406016359
O  O28  1  0.32240000  0.90820000  0.46220000  1.0 -0.5406016359
O  O29  1  0.06320000  0.36010000  0.52710000  1.0 -0.5276184305
O  O30  1  0.93680000  0.63990000  0.02710000  1.0 -0.5276184305
O  O31  1  0.43680000  0.86010000  0.02710000  1.0 -0.5276184305
O  O32  1  0.56320000  0.13990000  0.52710000  1.0 -0.5276184305
O  O33  1  0.44090000  0.34190000  0.22510000  1.0 -0.5223643692
O  O34  1  0.55910000  0.65810000  0.72510000  1.0 -0.5223643692
O  O35  1  0.05910000  0.84190000  0.72510000  1.0 -0.5223643692
O  O36  1  0.94090000  0.15810000  0.22510000  1.0 -0.5223643692
O  O37  1  0.43610000  0.64340000  0.52510000  1.0 -0.4886342087
O  O38  1  0.56390000  0.35660000  0.02510000  1.0 -0.4886342087
O  O39  1  0.06390000  0.14340000  0.02510000  1.0 -0.4886342087
O  O40  1  0.93610000  0.85660000  0.52510000  1.0 -0.4886342087
O  O41  1  0.67790000  0.41180000  0.46690000  1.0 -0.5572901392
O  O42  1  0.32210000  0.58820000  0.96690000  1.0 -0.5572901392
O  O43  1  0.82210000  0.91180000  0.96690000  1.0 -0.5572901392
O  O44  1  0.17790000  0.08820000  0.46690000  1.0 -0.5572901392
O  O45  1  0.96370000  0.43700000  0.42020000  1.0 -0.5276184305
O  O46  1  0.03630000  0.56300000  0.92020000  1.0 -0.5276184305
O  O47  1  0.53630000  0.93700000  0.92020000  1.0 -0.5276184305
O  O48  1  0.46370000  0.06300000  0.42020000  1.0 -0.5276184305
O  O49  1  0.06280000  0.65620000  0.22440000  1.0 -0.5223643692
O  O50  1  0.93720000  0.34380000  0.72440000  1.0 -0.5223643692
O  O51  1  0.43720000  0.15620000  0.72440000  1.0 -0.5223643692
O  O52  1  0.56280000  0.84380000  0.22440000  1.0 -0.5223643692
O  O53  1  0.67940000  0.60050000  0.28180000  1.0 -0.5492230628
O  O54  1  0.32060000  0.39950000  0.78180000  1.0 -0.5492230628
O  O55  1  0.82060000  0.10050000  0.78180000  1.0 -0.5492230628
O  O56  1  0.17940000  0.89950000  0.28180000  1.0 -0.5492230628
O  O57  1  0.96590000  0.55190000  0.30590000  1.0 -0.5223643692
O  O58  1  0.03410000  0.44810000  0.80590000  1.0 -0.5223643692
O  O59  1  0.53410000  0.05190000  0.80590000  1.0 -0.5223643692
O  O60  1  0.46590000  0.94810000  0.30590000  1.0 -0.5276184305
O  O61  1  0.53780000  0.45040000  0.30360000  1.0 -0.5223643692
O  O62  1  0.46220000  0.54960000  0.80360000  1.0 -0.5223643692
O  O63  1  0.96220000  0.95040000  0.80360000  1.0 -0.5223643692
O  O64  1  0.03780000  0.04960000  0.30360000  1.0 -0.5223643692
O  O65  1  0.89000000  0.64830000  0.72400000  1.0 0.1310446834
O  O66  1  0.11000000  0.35170000  0.22400000  1.0 0.1310446834
O  O67  1  0.61000000  0.14830000  0.22400000  1.0 0.1396967447
O  O68  1  0.39000000  0.85170000  0.72400000  1.0 0.1310446834
O  O69  1  0.10460000  0.15220000  0.72650000  1.0 0.1310446834
O  O70  1  0.89540000  0.84780000  0.22650000  1.0 0.1310446834
O  O71  1  0.39540000  0.65220000  0.22650000  1.0 0.1310446834
O  O72  1  0.60460000  0.34780000  0.72650000  1.0 0.1396967447
O  O73  1  0.89620000  0.13120000  0.53270000  1.0 0.1681951112
O  O74  1  0.10380000  0.86880000  0.03270000  1.0 0.1591582821
O  O75  1  0.60380000  0.63120000  0.03270000  1.0 0.1681951112
O  O76  1  0.39620000  0.36880000  0.53270000  1.0 0.1591582821
O  O77  1  0.10290000  0.63140000  0.53210000  1.0 0.1591582821
O  O78  1  0.89710000  0.36860000  0.03210000  1.0 0.1591582821
O  O79  1  0.39710000  0.13140000  0.03210000  1.0 0.1591582821
O  O80  1  0.60290000  0.86860000  0.53210000  1.0 0.1591582821
