# DDEC6 charges by PACMAN v1.1 (https://github.com/mtap-research/PACMAN-charge/)
data_FASYUU_ASR_pacman
_symmetry_space_group_name_H-M   'P 1'
_cell_length_a   22.47790000
_cell_length_b   22.47790000
_cell_length_c   22.47790000
_cell_angle_alpha   113.10000000
_cell_angle_beta   113.10000000
_cell_angle_gamma   102.43400000
_symmetry_Int_Tables_number   1
_chemical_formula_structural   Cu4H28WC34S4(IN3)2
_chemical_formula_sum   'Cu32 H224 W8 C272 S32 I16 N48'
_cell_volume   8645.54999956
_cell_formula_units_Z   8
loop_
 _symmetry_equiv_pos_site_id
 _symmetry_equiv_pos_as_xyz
  1  'x, y, z'
loop_
 _atom_site_type_symbol
 _atom_site_label
 _atom_site_symmetry_multiplicity
 _atom_site_fract_x
 _atom_site_fract_y
 _atom_site_fract_z
 _atom_site_occupancy
 _atom_site_charge
Cu  Cu1  1  0.57621000  0.07621000  0.65242000  1.0 0.2867232878
Cu  Cu2  1  0.82621000  0.67379000  0.00000000  1.0 0.2867232878
Cu  Cu3  1  0.67379000  0.82621000  0.00000000  1.0 0.2867232878
Cu  Cu4  1  0.42379000  0.92379000  0.34758000  1.0 0.2867232878
Cu  Cu5  1  0.57595000  0.92405000  0.50000000  1.0 0.2691352833
Cu  Cu6  1  0.67405000  0.67405000  0.84810000  1.0 0.2691352833
Cu  Cu7  1  0.82595000  0.82595000  0.15190000  1.0 0.2691352833
Cu  Cu8  1  0.42405000  0.07595000  0.50000000  1.0 0.2691352833
Cu  Cu9  1  0.17379000  0.17379000  0.84758000  1.0 0.2867232878
Cu  Cu10  1  0.92379000  0.57621000  0.50000000  1.0 0.2867232878
Cu  Cu11  1  0.07621000  0.42379000  0.50000000  1.0 0.2867232878
Cu  Cu12  1  0.32621000  0.32621000  0.15242000  1.0 0.2867232878
Cu  Cu13  1  0.17405000  0.32595000  0.00000000  1.0 0.2691352833
Cu  Cu14  1  0.07595000  0.57595000  0.65190000  1.0 0.2691352833
Cu  Cu15  1  0.92405000  0.42405000  0.34810000  1.0 0.2691352833
Cu  Cu16  1  0.32595000  0.17405000  0.00000000  1.0 0.2691352833
Cu  Cu17  1  0.82589000  0.17294000  0.50989000  1.0 0.213640878
Cu  Cu18  1  0.66305000  0.31600000  0.49011000  1.0 0.213640878
Cu  Cu19  1  0.92294000  0.91305000  0.84705000  1.0 0.213640878
Cu  Cu20  1  0.06600000  0.07589000  0.15295000  1.0 0.213640878
Cu  Cu21  1  0.92411000  0.07706000  0.99011000  1.0 0.213640878
Cu  Cu22  1  0.08695000  0.93400000  0.00989000  1.0 0.213640878
Cu  Cu23  1  0.82706000  0.33695000  0.65295000  1.0 0.213640878
Cu  Cu24  1  0.68400000  0.17411000  0.34705000  1.0 0.213640878
Cu  Cu25  1  0.18400000  0.83695000  0.50989000  1.0 0.213640878
Cu  Cu26  1  0.58695000  0.57706000  0.15295000  1.0 0.213640878
Cu  Cu27  1  0.42411000  0.43400000  0.84705000  1.0 0.213640878
Cu  Cu28  1  0.32706000  0.67411000  0.49011000  1.0 0.213640878
Cu  Cu29  1  0.56600000  0.41305000  0.99011000  1.0 0.213640878
Cu  Cu30  1  0.16305000  0.67294000  0.34705000  1.0 0.213640878
Cu  Cu31  1  0.32589000  0.81600000  0.65295000  1.0 0.213640878
Cu  Cu32  1  0.42294000  0.57589000  0.00989000  1.0 0.213640878
H  H1  1  0.68980000  0.11240000  0.80360000  1.0 0.0883318791
H  H2  1  0.86240000  0.55880000  0.92260000  1.0 0.0883318791
H  H3  1  0.63620000  0.93980000  0.07740000  1.0 0.0883318791
H  H4  1  0.61380000  0.19120000  0.80360000  1.0 0.0883318791
H  H5  1  0.38760000  0.81020000  0.19640000  1.0 0.0883318791
H  H6  1  0.30880000  0.88620000  0.19640000  1.0 0.0883318791
H  H7  1  0.94120000  0.63760000  0.07740000  1.0 0.0883318791
H  H8  1  0.56020000  0.86380000  0.92260000  1.0 0.0883318791
H  H9  1  0.71400000  0.06530000  0.87890000  1.0 0.1201008577
H  H10  1  0.81530000  0.43640000  0.85130000  1.0 0.1201008577
H  H11  1  0.58510000  0.96400000  0.14870000  1.0 0.1201008577
H  H12  1  0.66490000  0.31360000  0.87890000  1.0 0.1201008577
H  H13  1  0.43470000  0.78600000  0.12110000  1.0 0.1201008577
H  H14  1  0.18640000  0.83510000  0.12110000  1.0 0.1201008577
H  H15  1  0.06360000  0.68470000  0.14870000  1.0 0.1201008577
H  H16  1  0.53600000  0.91490000  0.85130000  1.0 0.1201008577
H  H17  1  0.51760000  0.89960000  0.72460000  1.0 0.1297896451
H  H18  1  0.64960000  0.42500000  0.88200000  1.0 0.1297896451
H  H19  1  0.54300000  0.76760000  0.11800000  1.0 0.1297896451
H  H20  1  0.70700000  0.32500000  0.72460000  1.0 0.1297896451
H  H21  1  0.60040000  0.98240000  0.27540000  1.0 0.1297896451
H  H22  1  0.17500000  0.79300000  0.27540000  1.0 0.1297896451
H  H23  1  0.07500000  0.85040000  0.11800000  1.0 0.1297896451
H  H24  1  0.73240000  0.95700000  0.88200000  1.0 0.1297896451
H  H25  1  0.49850000  0.95470000  0.65660000  1.0 0.1086843313
H  H26  1  0.70470000  0.54810000  0.95620000  1.0 0.1086843313
H  H27  1  0.59190000  0.74850000  0.04380000  1.0 0.1086843313
H  H28  1  0.65810000  0.20190000  0.65660000  1.0 0.1086843313
H  H29  1  0.54530000  0.00150000  0.34340000  1.0 0.1086843313
H  H30  1  0.29810000  0.84190000  0.34340000  1.0 0.1086843313
H  H31  1  0.95190000  0.79530000  0.04380000  1.0 0.1086843313
H  H32  1  0.75150000  0.90810000  0.95620000  1.0 0.1086843313
H  H33  1  0.49490000  0.80810000  0.50780000  1.0 0.1003837226
H  H34  1  0.55810000  0.55030000  0.81320000  1.0 0.1003837226
H  H35  1  0.73710000  0.74490000  0.18680000  1.0 0.1003837226
H  H36  1  0.51290000  0.19970000  0.50780000  1.0 0.1003837226
H  H37  1  0.69190000  0.00510000  0.49220000  1.0 0.1003837226
H  H38  1  0.30030000  0.98710000  0.49220000  1.0 0.1003837226
H  H39  1  0.94970000  0.94190000  0.18680000  1.0 0.1003837226
H  H40  1  0.75510000  0.76290000  0.81320000  1.0 0.1003837226
H  H41  1  0.51390000  0.75450000  0.57960000  1.0 0.1297896451
H  H42  1  0.50450000  0.42490000  0.74060000  1.0 0.1297896451
H  H43  1  0.68430000  0.76390000  0.25940000  1.0 0.1297896451
H  H44  1  0.56570000  0.32510000  0.57960000  1.0 0.1297896451
H  H45  1  0.74550000  0.98610000  0.42040000  1.0 0.1297896451
H  H46  1  0.17490000  0.93430000  0.42040000  1.0 0.1297896451
H  H47  1  0.07510000  0.99550000  0.25940000  1.0 0.1297896451
H  H48  1  0.73610000  0.81570000  0.74060000  1.0 0.1297896451
H  H49  1  0.71880000  0.89750000  0.71230000  1.0 0.1297896451
H  H50  1  0.64750000  0.43520000  0.67870000  1.0 0.1297896451
H  H51  1  0.75650000  0.96880000  0.32130000  1.0 0.1297896451
H  H52  1  0.49350000  0.31480000  0.71230000  1.0 0.1297896451
H  H53  1  0.60250000  0.78120000  0.28770000  1.0 0.1297896451
H  H54  1  0.18520000  0.00650000  0.28770000  1.0 0.1297896451
H  H55  1  0.06480000  0.85250000  0.32130000  1.0 0.1297896451
H  H56  1  0.53120000  0.74350000  0.67870000  1.0 0.1297896451
H  H57  1  0.69590000  0.94740000  0.63850000  1.0 0.1003837226
H  H58  1  0.69740000  0.55890000  0.75150000  1.0 0.1003837226
H  H59  1  0.80740000  0.94590000  0.24850000  1.0 0.1003837226
H  H60  1  0.44260000  0.19110000  0.63850000  1.0 0.1003837226
H  H61  1  0.55260000  0.80410000  0.36150000  1.0 0.1003837226
H  H62  1  0.30890000  0.05740000  0.36150000  1.0 0.1003837226
H  H63  1  0.94110000  0.80260000  0.24850000  1.0 0.1003837226
H  H64  1  0.55410000  0.69260000  0.75150000  1.0 0.1003837226
H  H65  1  0.06020000  0.13760000  0.69640000  1.0 0.0883318791
H  H66  1  0.88760000  0.69120000  0.57740000  1.0 0.0883318791
H  H67  1  0.11380000  0.31020000  0.42260000  1.0 0.0883318791
H  H68  1  0.13620000  0.05880000  0.69640000  1.0 0.0883318791
H  H69  1  0.36240000  0.43980000  0.30360000  1.0 0.0883318791
H  H70  1  0.44120000  0.36380000  0.30360000  1.0 0.0883318791
H  H71  1  0.80880000  0.61240000  0.42260000  1.0 0.0883318791
H  H72  1  0.18980000  0.38620000  0.57740000  1.0 0.0883318791
H  H73  1  0.03600000  0.18470000  0.62110000  1.0 0.1201008577
H  H74  1  0.93470000  0.81360000  0.64870000  1.0 0.1201008577
H  H75  1  0.16490000  0.28600000  0.35130000  1.0 0.1201008577
H  H76  1  0.08510000  0.93640000  0.62110000  1.0 0.1201008577
H  H77  1  0.31530000  0.46400000  0.37890000  1.0 0.1201008577
H  H78  1  0.56360000  0.41490000  0.37890000  1.0 0.1201008577
H  H79  1  0.68640000  0.56530000  0.35130000  1.0 0.1201008577
H  H80  1  0.21400000  0.33510000  0.64870000  1.0 0.1201008577
H  H81  1  0.23240000  0.35040000  0.77540000  1.0 0.1297896451
H  H82  1  0.10040000  0.82500000  0.61800000  1.0 0.1297896451
H  H83  1  0.20700000  0.48240000  0.38200000  1.0 0.1297896451
H  H84  1  0.04300000  0.92500000  0.77540000  1.0 0.1297896451
H  H85  1  0.14960000  0.26760000  0.22460000  1.0 0.1297896451
H  H86  1  0.57500000  0.45700000  0.22460000  1.0 0.1297896451
H  H87  1  0.67500000  0.39960000  0.38200000  1.0 0.1297896451
H  H88  1  0.01760000  0.29300000  0.61800000  1.0 0.1297896451
H  H89  1  0.25150000  0.29530000  0.84340000  1.0 0.1086843313
H  H90  1  0.04530000  0.70190000  0.54380000  1.0 0.1086843313
H  H91  1  0.15810000  0.50150000  0.45620000  1.0 0.1086843313
H  H92  1  0.09190000  0.04810000  0.84340000  1.0 0.1086843313
H  H93  1  0.20470000  0.24850000  0.15660000  1.0 0.1086843313
H  H94  1  0.45190000  0.40810000  0.15660000  1.0 0.1086843313
H  H95  1  0.79810000  0.45470000  0.45620000  1.0 0.1086843313
H  H96  1  0.99850000  0.34190000  0.54380000  1.0 0.1086843313
H  H97  1  0.25510000  0.44190000  0.99220000  1.0 0.1003837226
H  H98  1  0.19190000  0.69970000  0.68680000  1.0 0.1003837226
H  H99  1  0.01290000  0.50510000  0.31320000  1.0 0.1003837226
H  H100  1  0.23710000  0.05030000  0.99220000  1.0 0.1003837226
H  H101  1  0.05810000  0.24490000  0.00780000  1.0 0.1003837226
H  H102  1  0.44970000  0.26290000  0.00780000  1.0 0.1003837226
H  H103  1  0.80030000  0.30810000  0.31320000  1.0 0.1003837226
H  H104  1  0.99490000  0.48710000  0.68680000  1.0 0.1003837226
H  H105  1  0.23610000  0.49550000  0.92040000  1.0 0.1297896451
H  H106  1  0.24550000  0.82510000  0.75940000  1.0 0.1297896451
H  H107  1  0.06570000  0.48610000  0.24060000  1.0 0.1297896451
H  H108  1  0.18430000  0.92490000  0.92040000  1.0 0.1297896451
H  H109  1  0.00450000  0.26390000  0.07960000  1.0 0.1297896451
H  H110  1  0.57510000  0.31570000  0.07960000  1.0 0.1297896451
H  H111  1  0.67490000  0.25450000  0.24060000  1.0 0.1297896451
H  H112  1  0.01390000  0.43430000  0.75940000  1.0 0.1297896451
H  H113  1  0.03120000  0.35250000  0.78770000  1.0 0.1297896451
H  H114  1  0.10250000  0.81480000  0.82130000  1.0 0.1297896451
H  H115  1  0.99350000  0.28120000  0.17870000  1.0 0.1297896451
H  H116  1  0.25650000  0.93520000  0.78770000  1.0 0.1297896451
H  H117  1  0.14750000  0.46880000  0.21230000  1.0 0.1297896451
H  H118  1  0.56480000  0.24350000  0.21230000  1.0 0.1297896451
H  H119  1  0.68520000  0.39750000  0.17870000  1.0 0.1297896451
H  H120  1  0.21880000  0.50650000  0.82130000  1.0 0.1297896451
H  H121  1  0.05410000  0.30260000  0.86150000  1.0 0.1003837226
H  H122  1  0.05260000  0.69110000  0.74850000  1.0 0.1003837226
H  H123  1  0.94260000  0.30410000  0.25150000  1.0 0.1003837226
H  H124  1  0.30740000  0.05890000  0.86150000  1.0 0.1003837226
H  H125  1  0.19740000  0.44590000  0.13850000  1.0 0.1003837226
H  H126  1  0.44110000  0.19260000  0.13850000  1.0 0.1003837226
H  H127  1  0.80890000  0.44740000  0.25150000  1.0 0.1003837226
H  H128  1  0.19590000  0.55740000  0.74850000  1.0 0.1003837226
H  H129  1  0.88980000  0.09610000  0.57310000  1.0 0.0883318791
H  H130  1  0.52300000  0.31670000  0.42690000  1.0 0.0883318791
H  H131  1  0.84610000  0.77300000  0.70630000  1.0 0.0883318791
H  H132  1  0.06670000  0.13980000  0.29370000  1.0 0.0883318791
H  H133  1  0.86020000  0.15390000  0.92690000  1.0 0.0883318791
H  H134  1  0.22700000  0.93330000  0.07310000  1.0 0.0883318791
H  H135  1  0.90390000  0.47700000  0.79370000  1.0 0.0883318791
H  H136  1  0.68330000  0.11020000  0.20630000  1.0 0.0883318791
H  H137  1  0.93270000  0.08990000  0.68340000  1.0 0.1003837226
H  H138  1  0.40650000  0.24930000  0.31660000  1.0 0.1003837226
H  H139  1  0.83990000  0.65650000  0.65720000  1.0 0.1003837226
H  H140  1  0.99930000  0.18270000  0.34280000  1.0 0.1003837226
H  H141  1  0.81730000  0.16010000  0.81660000  1.0 0.1003837226
H  H142  1  0.34350000  0.00070000  0.18340000  1.0 0.1003837226
H  H143  1  0.91010000  0.59350000  0.84280000  1.0 0.1003837226
H  H144  1  0.75070000  0.06730000  0.15720000  1.0 0.1003837226
H  H145  1  0.77770000  0.14370000  0.70000000  1.0 0.1201008577
H  H146  1  0.44370000  0.07770000  0.30000000  1.0 0.1201008577
H  H147  1  0.89370000  0.69370000  0.86600000  1.0 0.1201008577
H  H148  1  0.82770000  0.02770000  0.13400000  1.0 0.1201008577
H  H149  1  0.97230000  0.10630000  0.80000000  1.0 0.1201008577
H  H150  1  0.30630000  0.17230000  0.20000000  1.0 0.1201008577
H  H151  1  0.85630000  0.55630000  0.63400000  1.0 0.1201008577
H  H152  1  0.92230000  0.22230000  0.36600000  1.0 0.1201008577
H  H153  1  0.75830000  0.16060000  0.59950000  1.0 0.1086843313
H  H154  1  0.56110000  0.15880000  0.40050000  1.0 0.1086843313
H  H155  1  0.91060000  0.81110000  0.90230000  1.0 0.1086843313
H  H156  1  0.90880000  0.00830000  0.09770000  1.0 0.1086843313
H  H157  1  0.99170000  0.08940000  0.90050000  1.0 0.1086843313
H  H158  1  0.18890000  0.09120000  0.09950000  1.0 0.1086843313
H  H159  1  0.83940000  0.43890000  0.59770000  1.0 0.1086843313
H  H160  1  0.84120000  0.24170000  0.40230000  1.0 0.1086843313
H  H161  1  0.69270000  0.05370000  0.23500000  1.0 0.1003837226
H  H162  1  0.81870000  0.45770000  0.76500000  1.0 0.1003837226
H  H163  1  0.80370000  0.06870000  0.86100000  1.0 0.1003837226
H  H164  1  0.20770000  0.94270000  0.13900000  1.0 0.1003837226
H  H165  1  0.05730000  0.19630000  0.26500000  1.0 0.1003837226
H  H166  1  0.93130000  0.79230000  0.73500000  1.0 0.1003837226
H  H167  1  0.94630000  0.18130000  0.63900000  1.0 0.1003837226
H  H168  1  0.54230000  0.30730000  0.36100000  1.0 0.1003837226
H  H169  1  0.76620000  0.02760000  0.19160000  1.0 0.1003837226
H  H170  1  0.83600000  0.57460000  0.80840000  1.0 0.1003837226
H  H171  1  0.77760000  0.08600000  0.76140000  1.0 0.1003837226
H  H172  1  0.32460000  0.01620000  0.23860000  1.0 0.1003837226
H  H173  1  0.98380000  0.22240000  0.30840000  1.0 0.1003837226
H  H174  1  0.91400000  0.67540000  0.69160000  1.0 0.1003837226
H  H175  1  0.97240000  0.16400000  0.73860000  1.0 0.1003837226
H  H176  1  0.42540000  0.23380000  0.26140000  1.0 0.1003837226
H  H177  1  0.18330000  0.97700000  0.57310000  1.0 0.0883318791
H  H178  1  0.72700000  0.65390000  0.29370000  1.0 0.0883318791
H  H179  1  0.36020000  0.43330000  0.70630000  1.0 0.0883318791
H  H180  1  0.40390000  0.61020000  0.42690000  1.0 0.0883318791
H  H181  1  0.56670000  0.27300000  0.92690000  1.0 0.0883318791
H  H182  1  0.02300000  0.59610000  0.20630000  1.0 0.0883318791
H  H183  1  0.38980000  0.81670000  0.79370000  1.0 0.0883318791
H  H184  1  0.34610000  0.63980000  0.07310000  1.0 0.0883318791
H  H185  1  0.25070000  0.09350000  0.68340000  1.0 0.1003837226
H  H186  1  0.84350000  0.66010000  0.34280000  1.0 0.1003837226
H  H187  1  0.31730000  0.50070000  0.65720000  1.0 0.1003837226
H  H188  1  0.41010000  0.56730000  0.31660000  1.0 0.1003837226
H  H189  1  0.49930000  0.15650000  0.81660000  1.0 0.1003837226
H  H190  1  0.90650000  0.58990000  0.15720000  1.0 0.1003837226
H  H191  1  0.43270000  0.74930000  0.84280000  1.0 0.1003837226
H  H192  1  0.33990000  0.68270000  0.18340000  1.0 0.1003837226
H  H193  1  0.42230000  0.05630000  0.70000000  1.0 0.1201008577
H  H194  1  0.80630000  0.60630000  0.13400000  1.0 0.1201008577
H  H195  1  0.47230000  0.67230000  0.86600000  1.0 0.1201008577
H  H196  1  0.35630000  0.72230000  0.30000000  1.0 0.1201008577
H  H197  1  0.32770000  0.19370000  0.80000000  1.0 0.1201008577
H  H198  1  0.94370000  0.64370000  0.36600000  1.0 0.1201008577
H  H199  1  0.27770000  0.57770000  0.63400000  1.0 0.1201008577
H  H200  1  0.39370000  0.52770000  0.20000000  1.0 0.1201008577
H  H201  1  0.34120000  0.93890000  0.59950000  1.0 0.1086843313
H  H202  1  0.68890000  0.58940000  0.09770000  1.0 0.1086843313
H  H203  1  0.49170000  0.59120000  0.90230000  1.0 0.1086843313
H  H204  1  0.33940000  0.74170000  0.40050000  1.0 0.1086843313
H  H205  1  0.40880000  0.31110000  0.90050000  1.0 0.1086843313
H  H206  1  0.06110000  0.66060000  0.40230000  1.0 0.1086843313
H  H207  1  0.25830000  0.65880000  0.59770000  1.0 0.1086843313
H  H208  1  0.41060000  0.50830000  0.09950000  1.0 0.1086843313
H  H209  1  0.04230000  0.68130000  0.23500000  1.0 0.1003837226
H  H210  1  0.43130000  0.69630000  0.13900000  1.0 0.1003837226
H  H211  1  0.55730000  0.29230000  0.86100000  1.0 0.1003837226
H  H212  1  0.44630000  0.80730000  0.76500000  1.0 0.1003837226
H  H213  1  0.70770000  0.56870000  0.26500000  1.0 0.1003837226
H  H214  1  0.31870000  0.55370000  0.36100000  1.0 0.1003837226
H  H215  1  0.19270000  0.95770000  0.63900000  1.0 0.1003837226
H  H216  1  0.30370000  0.44270000  0.73500000  1.0 0.1003837226
H  H217  1  0.92540000  0.66400000  0.19160000  1.0 0.1003837226
H  H218  1  0.41400000  0.72240000  0.23860000  1.0 0.1003837226
H  H219  1  0.48380000  0.17540000  0.76140000  1.0 0.1003837226
H  H220  1  0.47240000  0.73380000  0.80840000  1.0 0.1003837226
H  H221  1  0.82460000  0.58600000  0.30840000  1.0 0.1003837226
H  H222  1  0.33600000  0.52760000  0.26140000  1.0 0.1003837226
H  H223  1  0.26620000  0.07460000  0.73860000  1.0 0.1003837226
H  H224  1  0.27760000  0.51620000  0.69160000  1.0 0.1003837226
W  W1  1  0.50000000  0.00000000  0.50000000  1.0 0.7313916218
W  W2  1  0.75000000  0.75000000  0.00000000  1.0 0.7313916218
W  W3  1  0.25000000  0.25000000  0.00000000  1.0 0.7313916218
W  W4  1  0.00000000  0.50000000  0.50000000  1.0 0.7313916218
W  W5  1  0.75000000  0.25000000  0.50000000  1.0 0.7633017134
W  W6  1  0.00000000  0.00000000  0.00000000  1.0 0.766335113
W  W7  1  0.25000000  0.75000000  0.50000000  1.0 0.7633017134
W  W8  1  0.50000000  0.50000000  0.00000000  1.0 0.766335113
C  C1  1  0.65480000  0.06940000  0.78780000  1.0 0.050843311
C  C2  1  0.81940000  0.53160000  0.91460000  1.0 0.050843311
C  C3  1  0.61700000  0.90480000  0.08540000  1.0 0.050843311
C  C4  1  0.63300000  0.21840000  0.78780000  1.0 0.050843311
C  C5  1  0.43060000  0.84520000  0.21220000  1.0 0.050843311
C  C6  1  0.28160000  0.86700000  0.21220000  1.0 0.050843311
C  C7  1  0.96840000  0.68060000  0.08540000  1.0 0.050843311
C  C8  1  0.59520000  0.88300000  0.91460000  1.0 0.050843311
C  C9  1  0.66910000  0.04160000  0.83430000  1.0 -0.1873494205
C  C10  1  0.79160000  0.45730000  0.87250000  1.0 -0.1873494205
C  C11  1  0.58480000  0.91910000  0.12750000  1.0 -0.1873494205
C  C12  1  0.66520000  0.29270000  0.83430000  1.0 -0.1873494205
C  C13  1  0.45840000  0.83090000  0.16570000  1.0 -0.1873494205
C  C14  1  0.20730000  0.83480000  0.16570000  1.0 -0.1873494205
C  C15  1  0.04270000  0.70840000  0.12750000  1.0 -0.1873494205
C  C16  1  0.58090000  0.91520000  0.87250000  1.0 -0.1873494205
C  C17  1  0.61960000  0.98090000  0.81670000  1.0 0.1086843313
C  C18  1  0.73090000  0.41420000  0.86130000  1.0 0.1086843313
C  C19  1  0.55290000  0.86960000  0.13870000  1.0 0.1086843313
C  C20  1  0.69710000  0.33580000  0.81670000  1.0 0.1086843313
C  C21  1  0.51910000  0.88040000  0.18330000  1.0 0.1086843313
C  C22  1  0.16420000  0.80290000  0.18330000  1.0 0.1086843313
C  C23  1  0.08580000  0.76910000  0.13870000  1.0 0.1086843313
C  C24  1  0.63040000  0.94710000  0.86130000  1.0 0.1086843313
C  C25  1  0.55260000  0.94380000  0.74300000  1.0 -0.1787498128
C  C26  1  0.69380000  0.45080000  0.89120000  1.0 -0.1787498128
C  C27  1  0.55960000  0.80260000  0.10880000  1.0 -0.1787498128
C  C28  1  0.69040000  0.29920000  0.74300000  1.0 -0.1787498128
C  C29  1  0.55620000  0.94740000  0.25700000  1.0 -0.1787498128
C  C30  1  0.20080000  0.80960000  0.25700000  1.0 -0.1787498128
C  C31  1  0.04920000  0.80620000  0.10880000  1.0 -0.1787498128
C  C32  1  0.69740000  0.94040000  0.89120000  1.0 -0.1787498128
C  C33  1  0.54280000  0.97630000  0.70150000  1.0 0.081132215
C  C34  1  0.72630000  0.52480000  0.93350000  1.0 0.081132215
C  C35  1  0.59130000  0.79280000  0.06650000  1.0 0.081132215
C  C36  1  0.65870000  0.22520000  0.70150000  1.0 0.081132215
C  C37  1  0.52370000  0.95720000  0.29850000  1.0 0.081132215
C  C38  1  0.27480000  0.84130000  0.29850000  1.0 0.081132215
C  C39  1  0.97520000  0.77370000  0.06650000  1.0 0.081132215
C  C40  1  0.70720000  0.90870000  0.93350000  1.0 0.081132215
C  C41  1  0.54100000  0.82500000  0.54820000  1.0 0.1003837226
C  C42  1  0.57500000  0.52680000  0.78400000  1.0 0.1086843313
C  C43  1  0.74280000  0.79100000  0.21600000  1.0 0.1086843313
C  C44  1  0.50720000  0.22320000  0.54820000  1.0 0.1086843313
C  C45  1  0.67500000  0.95900000  0.45180000  1.0 0.1086843313
C  C46  1  0.27680000  0.99280000  0.45180000  1.0 0.1086843313
C  C47  1  0.97320000  0.92500000  0.21600000  1.0 0.1086843313
C  C48  1  0.70900000  0.75720000  0.78400000  1.0 0.1086843313
C  C49  1  0.55190000  0.79330000  0.59240000  1.0 -0.1986262891
C  C50  1  0.54330000  0.45090000  0.74140000  1.0 -0.1986262891
C  C51  1  0.70950000  0.80190000  0.25860000  1.0 -0.1986262891
C  C52  1  0.54050000  0.29910000  0.59240000  1.0 -0.1986262891
C  C53  1  0.70670000  0.94810000  0.40760000  1.0 -0.1986262891
C  C54  1  0.20090000  0.95950000  0.40760000  1.0 -0.1986262891
C  C55  1  0.04910000  0.95670000  0.25860000  1.0 -0.1986262891
C  C56  1  0.69810000  0.79050000  0.74140000  1.0 -0.1986262891
C  C57  1  0.62240000  0.82190000  0.65750000  1.0 0.1086843313
C  C58  1  0.57190000  0.41440000  0.69950000  1.0 0.1086843313
C  C59  1  0.71490000  0.87240000  0.30050000  1.0 0.1086843313
C  C60  1  0.53510000  0.33560000  0.65750000  1.0 0.1086843313
C  C61  1  0.67810000  0.87760000  0.34250000  1.0 0.1086843313
C  C62  1  0.16440000  0.96490000  0.34250000  1.0 0.1086843313
C  C63  1  0.08560000  0.92810000  0.30050000  1.0 0.1086843313
C  C64  1  0.62760000  0.78510000  0.69950000  1.0 0.1086843313
C  C65  1  0.67260000  0.87730000  0.67070000  1.0 -0.1654799152
C  C66  1  0.62730000  0.45660000  0.70470000  1.0 -0.1654799152
C  C67  1  0.75190000  0.92260000  0.29530000  1.0 -0.1654799152
C  C68  1  0.49810000  0.29340000  0.67070000  1.0 -0.1654799152
C  C69  1  0.62270000  0.82740000  0.32930000  1.0 -0.1654799152
C  C70  1  0.20660000  0.00190000  0.32930000  1.0 -0.1654799152
C  C71  1  0.04340000  0.87270000  0.29530000  1.0 -0.1654799152
C  C72  1  0.57740000  0.74810000  0.70470000  1.0 -0.1654799152
C  C73  1  0.65940000  0.90700000  0.62540000  1.0 0.0601353717
C  C74  1  0.65700000  0.53160000  0.74760000  1.0 0.0601353717
C  C75  1  0.78400000  0.90940000  0.25240000  1.0 0.0601353717
C  C76  1  0.46600000  0.21840000  0.62540000  1.0 0.0601353717
C  C77  1  0.59300000  0.84060000  0.37460000  1.0 0.0601353717
C  C78  1  0.28160000  0.03400000  0.37460000  1.0 0.0601353717
C  C79  1  0.96840000  0.84300000  0.25240000  1.0 0.0601353717
C  C80  1  0.59060000  0.71600000  0.74760000  1.0 0.0601353717
C  C81  1  0.09520000  0.18060000  0.71220000  1.0 0.050843311
C  C82  1  0.93060000  0.71840000  0.58540000  1.0 0.050843311
C  C83  1  0.13300000  0.34520000  0.41460000  1.0 0.050843311
C  C84  1  0.11700000  0.03160000  0.71220000  1.0 0.050843311
C  C85  1  0.31940000  0.40480000  0.28780000  1.0 0.050843311
C  C86  1  0.46840000  0.38300000  0.28780000  1.0 0.050843311
C  C87  1  0.78160000  0.56940000  0.41460000  1.0 0.050843311
C  C88  1  0.15480000  0.36700000  0.58540000  1.0 0.050843311
C  C89  1  0.08090000  0.20840000  0.66570000  1.0 -0.1873494205
C  C90  1  0.95840000  0.79270000  0.62750000  1.0 -0.1873494205
C  C91  1  0.16520000  0.33090000  0.37250000  1.0 -0.1873494205
C  C92  1  0.08480000  0.95730000  0.66570000  1.0 -0.1873494205
C  C93  1  0.29160000  0.41910000  0.33430000  1.0 -0.1873494205
C  C94  1  0.54270000  0.41520000  0.33430000  1.0 -0.1873494205
C  C95  1  0.70730000  0.54160000  0.37250000  1.0 -0.1873494205
C  C96  1  0.16910000  0.33480000  0.62750000  1.0 -0.1873494205
C  C97  1  0.13040000  0.26910000  0.68330000  1.0 0.1086843313
C  C98  1  0.01910000  0.83580000  0.63870000  1.0 0.1086843313
C  C99  1  0.19710000  0.38040000  0.36130000  1.0 0.1086843313
C  C100  1  0.05290000  0.91420000  0.68330000  1.0 0.1086843313
C  C101  1  0.23090000  0.36960000  0.31670000  1.0 0.1086843313
C  C102  1  0.58580000  0.44710000  0.31670000  1.0 0.1086843313
C  C103  1  0.66420000  0.48090000  0.36130000  1.0 0.1086843313
C  C104  1  0.11960000  0.30290000  0.63870000  1.0 0.1086843313
C  C105  1  0.19740000  0.30620000  0.75700000  1.0 -0.1787498128
C  C106  1  0.05620000  0.79920000  0.60880000  1.0 -0.1787498128
C  C107  1  0.19040000  0.44740000  0.39120000  1.0 -0.1787498128
C  C108  1  0.05960000  0.95080000  0.75700000  1.0 -0.1787498128
C  C109  1  0.19380000  0.30260000  0.24300000  1.0 -0.1787498128
C  C110  1  0.54920000  0.44040000  0.24300000  1.0 -0.1787498128
C  C111  1  0.70080000  0.44380000  0.39120000  1.0 -0.1787498128
C  C112  1  0.05260000  0.30960000  0.60880000  1.0 -0.1787498128
C  C113  1  0.20720000  0.27370000  0.79850000  1.0 0.081132215
C  C114  1  0.02370000  0.72520000  0.56650000  1.0 0.081132215
C  C115  1  0.15870000  0.45720000  0.43350000  1.0 0.081132215
C  C116  1  0.09130000  0.02480000  0.79850000  1.0 0.081132215
C  C117  1  0.22630000  0.29280000  0.20150000  1.0 0.081132215
C  C118  1  0.47520000  0.40870000  0.20150000  1.0 0.081132215
C  C119  1  0.77480000  0.47630000  0.43350000  1.0 0.081132215
C  C120  1  0.04280000  0.34130000  0.56650000  1.0 0.081132215
C  C121  1  0.20900000  0.42500000  0.95180000  1.0 0.1086843313
C  C122  1  0.17500000  0.72320000  0.71600000  1.0 0.1086843313
C  C123  1  0.00720000  0.45900000  0.28400000  1.0 0.1086843313
C  C124  1  0.24280000  0.02680000  0.95180000  1.0 0.1086843313
C  C125  1  0.07500000  0.29100000  0.04820000  1.0 0.1086843313
C  C126  1  0.47320000  0.25720000  0.04820000  1.0 0.1086843313
C  C127  1  0.77680000  0.32500000  0.28400000  1.0 0.1086843313
C  C128  1  0.04100000  0.49280000  0.71600000  1.0 0.1086843313
C  C129  1  0.19810000  0.45670000  0.90760000  1.0 -0.1986262891
C  C130  1  0.20670000  0.79910000  0.75860000  1.0 -0.1986262891
C  C131  1  0.04050000  0.44810000  0.24140000  1.0 -0.1986262891
C  C132  1  0.20950000  0.95090000  0.90760000  1.0 -0.1986262891
C  C133  1  0.04330000  0.30190000  0.09240000  1.0 -0.1986262891
C  C134  1  0.54910000  0.29050000  0.09240000  1.0 -0.1986262891
C  C135  1  0.70090000  0.29330000  0.24140000  1.0 -0.1986262891
C  C136  1  0.05190000  0.45950000  0.75860000  1.0 -0.1986262891
C  C137  1  0.12760000  0.42810000  0.84250000  1.0 0.1086843313
C  C138  1  0.17810000  0.83560000  0.80050000  1.0 0.1086843313
C  C139  1  0.03510000  0.37760000  0.19950000  1.0 0.1086843313
C  C140  1  0.21490000  0.91440000  0.84250000  1.0 0.1086843313
C  C141  1  0.07190000  0.37240000  0.15750000  1.0 0.1086843313
C  C142  1  0.58560000  0.28510000  0.15750000  1.0 0.1086843313
C  C143  1  0.66440000  0.32190000  0.19950000  1.0 0.1086843313
C  C144  1  0.12240000  0.46490000  0.80050000  1.0 0.1086843313
C  C145  1  0.07740000  0.37270000  0.82930000  1.0 -0.1654799152
C  C146  1  0.12270000  0.79340000  0.79530000  1.0 -0.1654799152
C  C147  1  0.99810000  0.32740000  0.20470000  1.0 -0.1654799152
C  C148  1  0.25190000  0.95660000  0.82930000  1.0 -0.1654799152
C  C149  1  0.12730000  0.42260000  0.17070000  1.0 -0.1654799152
C  C150  1  0.54340000  0.24810000  0.17070000  1.0 -0.1654799152
C  C151  1  0.70660000  0.37730000  0.20470000  1.0 -0.1654799152
C  C152  1  0.17260000  0.50190000  0.79530000  1.0 -0.1654799152
C  C153  1  0.09060000  0.34300000  0.87460000  1.0 0.0601353717
C  C154  1  0.09300000  0.71840000  0.75240000  1.0 0.0601353717
C  C155  1  0.96600000  0.34060000  0.24760000  1.0 0.0601353717
C  C156  1  0.28400000  0.03160000  0.87460000  1.0 0.0601353717
C  C157  1  0.15700000  0.40940000  0.12540000  1.0 0.0601353717
C  C158  1  0.46840000  0.21600000  0.12540000  1.0 0.0601353717
C  C159  1  0.78160000  0.40700000  0.24760000  1.0 0.0601353717
C  C160  1  0.15940000  0.53400000  0.75240000  1.0 0.0601353717
C  C161  1  0.87540000  0.11580000  0.60680000  1.0 0.0426361554
C  C162  1  0.50900000  0.26860000  0.39320000  1.0 0.0426361554
C  C163  1  0.86580000  0.75900000  0.74040000  1.0 0.0426361554
C  C164  1  0.01860000  0.12540000  0.25960000  1.0 0.0426361554
C  C165  1  0.87460000  0.13420000  0.89320000  1.0 0.0426361554
C  C166  1  0.24100000  0.98140000  0.10680000  1.0 0.0426361554
C  C167  1  0.88420000  0.49100000  0.75960000  1.0 0.0426361554
C  C168  1  0.73140000  0.12460000  0.24040000  1.0 0.0426361554
C  C169  1  0.89870000  0.10760000  0.67150000  1.0 -0.0207837872
C  C170  1  0.43610000  0.22720000  0.32850000  1.0 -0.0207837872
C  C171  1  0.85760000  0.68610000  0.70890000  1.0 -0.0207837872
C  C172  1  0.97720000  0.14870000  0.29110000  1.0 -0.0207837872
C  C173  1  0.85130000  0.14240000  0.82850000  1.0 -0.0207837872
C  C174  1  0.31390000  0.02280000  0.17150000  1.0 -0.0207837872
C  C175  1  0.89240000  0.56390000  0.79110000  1.0 -0.0207837872
C  C176  1  0.77280000  0.10130000  0.20890000  1.0 -0.0207837872
C  C177  1  0.86680000  0.12850000  0.71870000  1.0 0.0601353717
C  C178  1  0.40980000  0.14810000  0.28130000  1.0 0.0601353717
C  C179  1  0.87850000  0.65980000  0.76170000  1.0 0.0601353717
C  C180  1  0.89810000  0.11680000  0.23830000  1.0 0.0601353717
C  C181  1  0.88320000  0.12150000  0.78130000  1.0 0.0601353717
C  C182  1  0.34020000  0.10190000  0.21870000  1.0 0.0601353717
C  C183  1  0.87150000  0.59020000  0.73830000  1.0 0.0601353717
C  C184  1  0.85190000  0.13320000  0.26170000  1.0 0.0601353717
C  C185  1  0.80920000  0.14130000  0.68290000  1.0 -0.2633566409
C  C186  1  0.45840000  0.12630000  0.31710000  1.0 -0.2633566409
C  C187  1  0.89130000  0.70840000  0.83210000  1.0 -0.2633566409
C  C188  1  0.87630000  0.05920000  0.16790000  1.0 -0.2633566409
C  C189  1  0.94080000  0.10870000  0.81710000  1.0 -0.2633566409
C  C190  1  0.29160000  0.12370000  0.18290000  1.0 -0.2633566409
C  C191  1  0.85870000  0.54160000  0.66790000  1.0 -0.2633566409
C  C192  1  0.87370000  0.19080000  0.33210000  1.0 -0.2633566409
C  C193  1  0.79700000  0.15110000  0.62050000  1.0 0.0177723827
C  C194  1  0.53060000  0.17650000  0.37950000  1.0 0.0177723827
C  C195  1  0.90110000  0.78060000  0.85410000  1.0 0.0177723827
C  C196  1  0.92650000  0.04700000  0.14590000  1.0 0.0177723827
C  C197  1  0.95300000  0.09890000  0.87950000  1.0 0.0177723827
C  C198  1  0.21940000  0.07350000  0.12050000  1.0 0.0177723827
C  C199  1  0.84890000  0.46940000  0.64590000  1.0 0.0177723827
C  C200  1  0.82350000  0.20300000  0.35410000  1.0 0.0177723827
C  C201  1  0.73630000  0.09050000  0.25440000  1.0 0.012053575
C  C202  1  0.83610000  0.48190000  0.74560000  1.0 0.012053575
C  C203  1  0.84050000  0.08610000  0.85420000  1.0 0.012053575
C  C204  1  0.23190000  0.98630000  0.14580000  1.0 0.012053575
C  C205  1  0.01370000  0.15950000  0.24560000  1.0 0.012053575
C  C206  1  0.91390000  0.76810000  0.75440000  1.0 0.012053575
C  C207  1  0.90950000  0.16390000  0.64580000  1.0 0.012053575
C  C208  1  0.51810000  0.26370000  0.35420000  1.0 0.012053575
C  C209  1  0.78040000  0.07450000  0.22890000  1.0 -0.0722144498
C  C210  1  0.84560000  0.55150000  0.77110000  1.0 -0.0722144498
C  C211  1  0.82450000  0.09560000  0.79410000  1.0 -0.0722144498
C  C212  1  0.30150000  0.03040000  0.20590000  1.0 -0.0722144498
C  C213  1  0.96960000  0.17550000  0.27110000  1.0 -0.0722144498
C  C214  1  0.90440000  0.69850000  0.72890000  1.0 -0.0722144498
C  C215  1  0.92550000  0.15440000  0.70590000  1.0 -0.0722144498
C  C216  1  0.44850000  0.21960000  0.29410000  1.0 -0.0722144498
C  C217  1  0.23140000  0.99100000  0.60680000  1.0 0.0426361554
C  C218  1  0.74100000  0.63420000  0.25960000  1.0 0.0426361554
C  C219  1  0.37460000  0.48140000  0.74040000  1.0 0.0426361554
C  C220  1  0.38420000  0.62460000  0.39320000  1.0 0.0426361554
C  C221  1  0.51860000  0.25900000  0.89320000  1.0 0.0426361554
C  C222  1  0.00900000  0.61580000  0.24040000  1.0 0.0426361554
C  C223  1  0.37540000  0.76860000  0.75960000  1.0 0.0426361554
C  C224  1  0.36580000  0.62540000  0.10680000  1.0 0.0426361554
C  C225  1  0.27280000  0.06390000  0.67150000  1.0 -0.0207837872
C  C226  1  0.81390000  0.64240000  0.29110000  1.0 -0.0207837872
C  C227  1  0.35130000  0.52280000  0.70890000  1.0 -0.0207837872
C  C228  1  0.39240000  0.60130000  0.32850000  1.0 -0.0207837872
C  C229  1  0.47720000  0.18610000  0.82850000  1.0 -0.0207837872
C  C230  1  0.93610000  0.60760000  0.20890000  1.0 -0.0207837872
C  C231  1  0.39870000  0.72720000  0.79110000  1.0 -0.0207837872
C  C232  1  0.35760000  0.64870000  0.17150000  1.0 -0.0207837872
C  C233  1  0.35190000  0.09020000  0.71870000  1.0 0.0601353717
C  C234  1  0.84020000  0.62150000  0.23830000  1.0 0.0601353717
C  C235  1  0.38320000  0.60190000  0.76170000  1.0 0.0601353717
C  C236  1  0.37150000  0.63320000  0.28130000  1.0 0.0601353717
C  C237  1  0.39810000  0.15980000  0.78130000  1.0 0.0601353717
C  C238  1  0.90980000  0.62850000  0.26170000  1.0 0.0601353717
C  C239  1  0.36680000  0.64810000  0.73830000  1.0 0.0601353717
C  C240  1  0.37850000  0.61680000  0.21870000  1.0 0.0601353717
C  C241  1  0.37370000  0.04160000  0.68290000  1.0 -0.2633566409
C  C242  1  0.79160000  0.60870000  0.16790000  1.0 -0.2633566409
C  C243  1  0.44080000  0.62370000  0.83210000  1.0 -0.2633566409
C  C244  1  0.35870000  0.69080000  0.31710000  1.0 -0.2633566409
C  C245  1  0.37630000  0.20840000  0.81710000  1.0 -0.2633566409
C  C246  1  0.95840000  0.64130000  0.33210000  1.0 -0.2633566409
C  C247  1  0.30920000  0.62630000  0.66790000  1.0 -0.2633566409
C  C248  1  0.39130000  0.55920000  0.18290000  1.0 -0.2633566409
C  C249  1  0.32350000  0.96940000  0.62050000  1.0 0.0177723827
C  C250  1  0.71940000  0.59890000  0.14590000  1.0 0.0177723827
C  C251  1  0.45300000  0.57350000  0.85410000  1.0 0.0177723827
C  C252  1  0.34890000  0.70300000  0.37950000  1.0 0.0177723827
C  C253  1  0.42650000  0.28060000  0.87950000  1.0 0.0177723827
C  C254  1  0.03060000  0.65110000  0.35410000  1.0 0.0177723827
C  C255  1  0.29700000  0.67650000  0.64590000  1.0 0.0177723827
C  C256  1  0.40110000  0.54700000  0.12050000  1.0 0.0177723827
C  C257  1  0.01810000  0.66390000  0.25440000  1.0 0.012053575
C  C258  1  0.41390000  0.65950000  0.14580000  1.0 0.012053575
C  C259  1  0.51370000  0.26810000  0.85420000  1.0 0.012053575
C  C260  1  0.40950000  0.76370000  0.74560000  1.0 0.012053575
C  C261  1  0.73190000  0.58610000  0.24560000  1.0 0.012053575
C  C262  1  0.33610000  0.59050000  0.35420000  1.0 0.012053575
C  C263  1  0.23630000  0.98190000  0.64580000  1.0 0.012053575
C  C264  1  0.34050000  0.48630000  0.75440000  1.0 0.012053575
C  C265  1  0.94850000  0.65440000  0.22890000  1.0 -0.0722144498
C  C266  1  0.40440000  0.67550000  0.20590000  1.0 -0.0722144498
C  C267  1  0.46960000  0.19850000  0.79410000  1.0 -0.0722144498
C  C268  1  0.42550000  0.71960000  0.77110000  1.0 -0.0722144498
C  C269  1  0.80150000  0.59560000  0.27110000  1.0 -0.0722144498
C  C270  1  0.34560000  0.57450000  0.29410000  1.0 -0.0722144498
C  C271  1  0.28040000  0.05150000  0.70590000  1.0 -0.0722144498
C  C272  1  0.32450000  0.53040000  0.72890000  1.0 -0.0722144498
S  S1  1  0.61937000  0.04558000  0.57445000  1.0 -0.4974444168
S  S2  1  0.79558000  0.72113000  0.92621000  1.0 -0.4974444168
S  S3  1  0.79492000  0.86937000  0.07379000  1.0 -0.4974444168
S  S4  1  0.45508000  0.02887000  0.57445000  1.0 -0.4974444168
S  S5  1  0.45442000  0.88063000  0.42555000  1.0 -0.4974444168
S  S6  1  0.47113000  0.04492000  0.42555000  1.0 -0.4974444168
S  S7  1  0.77887000  0.70442000  0.07379000  1.0 -0.4974444168
S  S8  1  0.63063000  0.70508000  0.92621000  1.0 -0.4974444168
S  S9  1  0.13063000  0.20442000  0.92555000  1.0 -0.4974444168
S  S10  1  0.95442000  0.52887000  0.57379000  1.0 -0.4974444168
S  S11  1  0.95508000  0.38063000  0.42621000  1.0 -0.4974444168
S  S12  1  0.29492000  0.22113000  0.92555000  1.0 -0.4974444168
S  S13  1  0.29558000  0.36937000  0.07445000  1.0 -0.4974444168
S  S14  1  0.27887000  0.20508000  0.07445000  1.0 -0.4974444168
S  S15  1  0.97113000  0.54558000  0.42621000  1.0 -0.4974444168
S  S16  1  0.11937000  0.54492000  0.57379000  1.0 -0.4974444168
S  S17  1  0.86991000  0.29699000  0.57466000  1.0 -0.4424795676
S  S18  1  0.72233000  0.29525000  0.42534000  1.0 -0.4424795676
S  S19  1  0.04699000  0.97233000  0.92708000  1.0 -0.4424795676
S  S20  1  0.04525000  0.11991000  0.07292000  1.0 -0.4424795676
S  S21  1  0.88009000  0.95301000  0.92534000  1.0 -0.4424795676
S  S22  1  0.02767000  0.95475000  0.07466000  1.0 -0.4424795676
S  S23  1  0.70301000  0.27767000  0.57292000  1.0 -0.4424795676
S  S24  1  0.70475000  0.13009000  0.42708000  1.0 -0.4424795676
S  S25  1  0.20475000  0.77767000  0.57466000  1.0 -0.4424795676
S  S26  1  0.52767000  0.45301000  0.07292000  1.0 -0.4424795676
S  S27  1  0.38009000  0.45475000  0.92708000  1.0 -0.4424795676
S  S28  1  0.20301000  0.63009000  0.42534000  1.0 -0.4424795676
S  S29  1  0.54525000  0.47233000  0.92534000  1.0 -0.4424795676
S  S30  1  0.22233000  0.79699000  0.42708000  1.0 -0.4424795676
S  S31  1  0.36991000  0.79525000  0.57292000  1.0 -0.4424795676
S  S32  1  0.54699000  0.61991000  0.07466000  1.0 -0.4424795676
I  I1  1  0.89457000  0.11686000  0.45661000  1.0 -0.4932896325
I  I2  1  0.66025000  0.43796000  0.54339000  1.0 -0.4932896325
I  I3  1  0.86686000  0.91025000  0.72229000  1.0 -0.4932896325
I  I4  1  0.18796000  0.14457000  0.27771000  1.0 -0.4932896325
I  I5  1  0.85543000  0.13314000  0.04339000  1.0 -0.4932896325
I  I6  1  0.08975000  0.81204000  0.95661000  1.0 -0.4932896325
I  I7  1  0.88314000  0.33975000  0.77771000  1.0 -0.4932896325
I  I8  1  0.56204000  0.10543000  0.22229000  1.0 -0.4932896325
I  I9  1  0.06204000  0.83975000  0.45661000  1.0 -0.4932896325
I  I10  1  0.58975000  0.63314000  0.27771000  1.0 -0.4974444168
I  I11  1  0.35543000  0.31204000  0.72229000  1.0 -0.4932896325
I  I12  1  0.38314000  0.60543000  0.54339000  1.0 -0.4932896325
I  I13  1  0.68796000  0.41025000  0.04339000  1.0 -0.4932896325
I  I14  1  0.16025000  0.61686000  0.22229000  1.0 -0.4932896325
I  I15  1  0.39457000  0.93796000  0.77771000  1.0 -0.4932896325
I  I16  1  0.36686000  0.64457000  0.95661000  1.0 -0.4932896325
N  N1  1  0.59310000  0.03730000  0.72180000  1.0 -0.1986262891
N  N2  1  0.78730000  0.56550000  0.94420000  1.0 -0.1986262891
N  N3  1  0.62130000  0.84310000  0.05580000  1.0 -0.1986262891
N  N4  1  0.62870000  0.18450000  0.72180000  1.0 -0.1986262891
N  N5  1  0.46270000  0.90690000  0.27820000  1.0 -0.1986262891
N  N6  1  0.31550000  0.87130000  0.27820000  1.0 -0.1986262891
N  N7  1  0.93450000  0.71270000  0.05580000  1.0 -0.1986262891
N  N8  1  0.65690000  0.87870000  0.94420000  1.0 -0.1986262891
N  N9  1  0.59370000  0.87690000  0.56260000  1.0 -0.1873494205
N  N10  1  0.62690000  0.56430000  0.78320000  1.0 -0.1873494205
N  N11  1  0.78110000  0.84370000  0.21680000  1.0 -0.1873494205
N  N12  1  0.46890000  0.18570000  0.56260000  1.0 -0.1873494205
N  N13  1  0.62310000  0.90630000  0.43740000  1.0 -0.1873494205
N  N14  1  0.31430000  0.03110000  0.43740000  1.0 -0.1873494205
N  N15  1  0.93570000  0.87310000  0.21680000  1.0 -0.1873494205
N  N16  1  0.65630000  0.71890000  0.78320000  1.0 -0.1873494205
N  N17  1  0.15690000  0.21270000  0.77820000  1.0 -0.1986262891
N  N18  1  0.96270000  0.68450000  0.55580000  1.0 -0.1986262891
N  N19  1  0.12870000  0.40690000  0.44420000  1.0 -0.1986262891
N  N20  1  0.12130000  0.06550000  0.77820000  1.0 -0.1986262891
N  N21  1  0.28730000  0.34310000  0.22180000  1.0 -0.1986262891
N  N22  1  0.43450000  0.37870000  0.22180000  1.0 -0.1986262891
N  N23  1  0.81550000  0.53730000  0.44420000  1.0 -0.1986262891
N  N24  1  0.09310000  0.37130000  0.55580000  1.0 -0.1986262891
N  N25  1  0.15630000  0.37310000  0.93740000  1.0 -0.1873494205
N  N26  1  0.12310000  0.68570000  0.71680000  1.0 -0.1873494205
N  N27  1  0.96890000  0.40630000  0.28320000  1.0 -0.1873494205
N  N28  1  0.28110000  0.06430000  0.93740000  1.0 -0.1873494205
N  N29  1  0.12690000  0.34370000  0.06260000  1.0 -0.1873494205
N  N30  1  0.43570000  0.21890000  0.06260000  1.0 -0.1873494205
N  N31  1  0.81430000  0.37690000  0.28320000  1.0 -0.1873494205
N  N32  1  0.09370000  0.53110000  0.71680000  1.0 -0.1873494205
N  N33  1  0.83690000  0.14750000  0.59240000  1.0 -0.1359163909
N  N34  1  0.55510000  0.24450000  0.40760000  1.0 -0.1359163909
N  N35  1  0.89750000  0.80510000  0.81060000  1.0 -0.133042993
N  N36  1  0.99450000  0.08690000  0.18940000  1.0 -0.1359163909
N  N37  1  0.91310000  0.10250000  0.90760000  1.0 -0.1359163909
N  N38  1  0.19490000  0.00550000  0.09240000  1.0 -0.1359163909
N  N39  1  0.85250000  0.44490000  0.68940000  1.0 -0.1359163909
N  N40  1  0.75550000  0.16310000  0.31060000  1.0 -0.1359163909
N  N41  1  0.25550000  0.94490000  0.59240000  1.0 -0.1359163909
N  N42  1  0.69490000  0.60250000  0.18940000  1.0 -0.133042993
N  N43  1  0.41310000  0.50550000  0.81060000  1.0 -0.1359163909
N  N44  1  0.35250000  0.66310000  0.40760000  1.0 -0.1359163909
N  N45  1  0.49450000  0.30510000  0.90760000  1.0 -0.1359163909
N  N46  1  0.05510000  0.64750000  0.31060000  1.0 -0.1359163909
N  N47  1  0.33690000  0.74450000  0.68940000  1.0 -0.1359163909
N  N48  1  0.39750000  0.58690000  0.09240000  1.0 -0.133042993
