# DDEC6 charges by PACMAN v1.1 (https://github.com/mtap-research/PACMAN-charge/)
data_FAVDAK_FSR_pacman
_symmetry_space_group_name_H-M   'P 1'
_cell_length_a   30.68000000
_cell_length_b   15.03900000
_cell_length_c   35.14300000
_cell_angle_alpha   90.00000000
_cell_angle_beta   101.54900000
_cell_angle_gamma   90.00000000
_symmetry_Int_Tables_number   1
_chemical_formula_structural   Zn10H73C102I30N29O10
_chemical_formula_sum   'Zn40 H292 C408 I120 N116 O40'
_cell_volume   15886.56936904
_cell_formula_units_Z   4
loop_
 _symmetry_equiv_pos_site_id
 _symmetry_equiv_pos_as_xyz
  1  'x, y, z'
loop_
 _atom_site_type_symbol
 _atom_site_label
 _atom_site_symmetry_multiplicity
 _atom_site_fract_x
 _atom_site_fract_y
 _atom_site_fract_z
 _atom_site_occupancy
 _atom_site_charge
Zn  Zn1  1  0.56403000  0.33953000  0.86870000  1.0 0.4567472114
Zn  Zn2  1  0.06403000  0.16047000  0.86870000  1.0 0.4567472114
Zn  Zn3  1  0.72390000  0.11230000  0.55860000  1.0 0.017954913
Zn  Zn4  1  0.22390000  0.38770000  0.55860000  1.0 0.0088461031
Zn  Zn5  1  0.40814000  0.63482000  0.66335000  1.0 0.2044698024
Zn  Zn6  1  0.90814000  0.86518000  0.66335000  1.0 0.2083576306
Zn  Zn7  1  0.04490000  0.65970000  0.38309000  1.0 0.0689589264
Zn  Zn8  1  0.54490000  0.84030000  0.38309000  1.0 0.0689589264
Zn  Zn9  1  0.91782000  0.37343000  0.16037000  1.0 0.4433286189
Zn  Zn10  1  0.41782000  0.12657000  0.16037000  1.0 0.4433286189
Zn  Zn11  1  0.73244000  0.62922000  0.08618000  1.0 0.4681695177
Zn  Zn12  1  0.23244000  0.87078000  0.08618000  1.0 0.4681695177
Zn  Zn13  1  0.73570000  0.11500000  0.57030000  1.0 0.1105852373
Zn  Zn14  1  0.23570000  0.38500000  0.57030000  1.0 0.1105852373
Zn  Zn15  1  0.72090000  0.11750000  0.59000000  1.0 0.1756419427
Zn  Zn16  1  0.22090000  0.38250000  0.59000000  1.0 0.1756419427
Zn  Zn17  1  0.42870000  0.61900000  0.65330000  1.0 0.1864045075
Zn  Zn18  1  0.92870000  0.88100000  0.65330000  1.0 0.1864045075
Zn  Zn19  1  0.07370000  0.65370000  0.36480000  1.0 0.1756419427
Zn  Zn20  1  0.57370000  0.84630000  0.36480000  1.0 0.1756419427
Zn  Zn21  1  0.93597000  0.83953000  0.13130000  1.0 0.4567472114
Zn  Zn22  1  0.43597000  0.66047000  0.13130000  1.0 0.4567472114
Zn  Zn23  1  0.77610000  0.61230000  0.44140000  1.0 0.017954913
Zn  Zn24  1  0.27610000  0.88770000  0.44140000  1.0 0.017954913
Zn  Zn25  1  0.09186000  0.13482000  0.33665000  1.0 0.2044698024
Zn  Zn26  1  0.59186000  0.36518000  0.33665000  1.0 0.2044698024
Zn  Zn27  1  0.45510000  0.15970000  0.61691000  1.0 0.0689589264
Zn  Zn28  1  0.95510000  0.34030000  0.61691000  1.0 0.0689589264
Zn  Zn29  1  0.58218000  0.87343000  0.83963000  1.0 0.4433286189
Zn  Zn30  1  0.08218000  0.62657000  0.83963000  1.0 0.4433286189
Zn  Zn31  1  0.76756000  0.12922000  0.91382000  1.0 0.4681695177
Zn  Zn32  1  0.26756000  0.37078000  0.91382000  1.0 0.4681695177
Zn  Zn33  1  0.76430000  0.61500000  0.42970000  1.0 0.1105852373
Zn  Zn34  1  0.26430000  0.88500000  0.42970000  1.0 0.1105852373
Zn  Zn35  1  0.77910000  0.61750000  0.41000000  1.0 0.1756419427
Zn  Zn36  1  0.27910000  0.88250000  0.41000000  1.0 0.1756419427
Zn  Zn37  1  0.07130000  0.11900000  0.34670000  1.0 0.1864045075
Zn  Zn38  1  0.57130000  0.38100000  0.34670000  1.0 0.1864045075
Zn  Zn39  1  0.42630000  0.15370000  0.63520000  1.0 0.1756419427
Zn  Zn40  1  0.92630000  0.34630000  0.63520000  1.0 0.1756419427
H  H1  1  0.67170000  0.96650000  0.58440000  1.0 0.1105852373
H  H2  1  0.17170000  0.53350000  0.58440000  1.0 0.1105852373
H  H3  1  0.62120000  0.94040000  0.62180000  1.0 0.1105852373
H  H4  1  0.12120000  0.55960000  0.62180000  1.0 0.1105852373
H  H5  1  0.65380000  0.17160000  0.67480000  1.0 0.1202573559
H  H6  1  0.15380000  0.32840000  0.67480000  1.0 0.1202573559
H  H7  1  0.69740000  0.20150000  0.63020000  1.0 0.1105852373
H  H8  1  0.19740000  0.29850000  0.63020000  1.0 0.1105852373
H  H9  1  0.50790000  0.10300000  0.76930000  1.0 0.1376323032
H  H10  1  0.00790000  0.39700000  0.76930000  1.0 0.1376323032
H  H11  1  0.50670000  0.19580000  0.82360000  1.0 0.100968801
H  H12  1  0.00670000  0.30420000  0.82360000  1.0 0.100968801
H  H13  1  0.62410000  0.29180000  0.81370000  1.0 0.100968801
H  H14  1  0.12410000  0.20820000  0.81370000  1.0 0.100968801
H  H15  1  0.62320000  0.20390000  0.75980000  1.0 0.1202573559
H  H16  1  0.12320000  0.29610000  0.75980000  1.0 0.1202573559
H  H17  1  0.52590000  0.84150000  0.63590000  1.0 0.1303977571
H  H18  1  0.02590000  0.65850000  0.63590000  1.0 0.1303977571
H  H19  1  0.47690000  0.72650000  0.62730000  1.0 0.0907500693
H  H20  1  0.97690000  0.77350000  0.62730000  1.0 0.0907500693
H  H21  1  0.44080000  0.76940000  0.72590000  1.0 0.0689589264
H  H22  1  0.94080000  0.73060000  0.72590000  1.0 0.0689589264
H  H23  1  0.49400000  0.88500000  0.73970000  1.0 0.1376323032
H  H24  1  0.99400000  0.61500000  0.73970000  1.0 0.1376323032
H  H25  1  0.33333333  0.59480000  0.59950000  1.0 0.0792037777
H  H26  1  0.83330000  0.90520000  0.59950000  1.0 0.0792037777
H  H27  1  0.26830000  0.66630000  0.56230000  1.0 0.1303977571
H  H28  1  0.76830000  0.83370000  0.56230000  1.0 0.1303977571
H  H29  1  0.32140000  0.89400000  0.60450000  1.0 0.1105852373
H  H30  1  0.82140000  0.60600000  0.60450000  1.0 0.1105852373
H  H31  1  0.38300000  0.81990000  0.63870000  1.0 0.0689589264
H  H32  1  0.88300000  0.68010000  0.63870000  1.0 0.0689589264
H  H33  1  0.17890000  0.68180000  0.49030000  1.0 0.1202573559
H  H34  1  0.67890000  0.81820000  0.49030000  1.0 0.1202573559
H  H35  1  0.12920000  0.61010000  0.44210000  1.0 0.0792037777
H  H36  1  0.62920000  0.88990000  0.44210000  1.0 0.0792037777
H  H37  1  0.05890000  0.83180000  0.42410000  1.0 0.0907500693
H  H38  1  0.55890000  0.66820000  0.42410000  1.0 0.0907500693
H  H39  1  0.10110000  0.90030000  0.47680000  1.0 0.1303977571
H  H40  1  0.60110000  0.59970000  0.47680000  1.0 0.1303977571
H  H41  1  0.15930000  0.10010000  0.50960000  1.0 0.1376323032
H  H42  1  0.65930000  0.39990000  0.50960000  1.0 0.1376323032
H  H43  1  0.16620000  0.25110000  0.51380000  1.0 0.1105852373
H  H44  1  0.66620000  0.24890000  0.51380000  1.0 0.1105852373
H  H45  1  0.27430000  0.22700000  0.59640000  1.0 0.0907500693
H  H46  1  0.77430000  0.27300000  0.59640000  1.0 0.0907500693
H  H47  1  0.27100000  0.07150000  0.59240000  1.0 0.1376323032
H  H48  1  0.77100000  0.42850000  0.59240000  1.0 0.1376323032
H  H49  1  0.11000000  0.72070000  0.34230000  1.0 0.0792037777
H  H50  1  0.61000000  0.77930000  0.34230000  1.0 0.0792037777
H  H51  1  0.11800000  0.80560000  0.28360000  1.0 0.1202573559
H  H52  1  0.61800000  0.69440000  0.28360000  1.0 0.1202573559
H  H53  1  0.98890000  0.87700000  0.27330000  1.0 0.1376323032
H  H54  1  0.48890000  0.62300000  0.27330000  1.0 0.1376323032
H  H55  1  0.98260000  0.77390000  0.32230000  1.0 0.0792037777
H  H56  1  0.48260000  0.72610000  0.32230000  1.0 0.0792037777
H  H57  1  0.16580000  0.83680000  0.20250000  1.0 0.1105852373
H  H58  1  0.66580000  0.66320000  0.20250000  1.0 0.1105852373
H  H59  1  0.21450000  0.81330000  0.16490000  1.0 0.0907500693
H  H60  1  0.71450000  0.68670000  0.16490000  1.0 0.0907500693
H  H61  1  0.14550000  0.97350000  0.08460000  1.0 0.1105852373
H  H62  1  0.64550000  0.52650000  0.08460000  1.0 0.1105852373
H  H63  1  0.09720000  0.00190000  0.12270000  1.0 0.1202573559
H  H64  1  0.59720000  0.49810000  0.12270000  1.0 0.1202573559
H  H65  1  0.04160000  0.16490000  0.15580000  1.0 0.1376323032
H  H66  1  0.54160000  0.33510000  0.15580000  1.0 0.1376323032
H  H67  1  0.99800000  0.28710000  0.14090000  1.0 0.1105852373
H  H68  1  0.49800000  0.21290000  0.14090000  1.0 0.1105852373
H  H69  1  0.92990000  0.22870000  0.22020000  1.0 0.0907500693
H  H70  1  0.42990000  0.27130000  0.22020000  1.0 0.0907500693
H  H71  1  0.97170000  0.09360000  0.23660000  1.0 0.1376323032
H  H72  1  0.47170000  0.40640000  0.23660000  1.0 0.1376323032
H  H73  1  0.83910000  0.41790000  0.09440000  1.0 0.1105852373
H  H74  1  0.33910000  0.08210000  0.09440000  1.0 0.1105852373
H  H75  1  0.77820000  0.34730000  0.05920000  1.0 0.1376323032
H  H76  1  0.27820000  0.15270000  0.05920000  1.0 0.1376323032
H  H77  1  0.83840000  0.11500000  0.09100000  1.0 0.1303977571
H  H78  1  0.33840000  0.38500000  0.09100000  1.0 0.1303977571
H  H79  1  0.89490000  0.19010000  0.13160000  1.0 0.0907500693
H  H80  1  0.39490000  0.30990000  0.13160000  1.0 0.0907500693
H  H81  1  0.67330000  0.90700000  0.01090000  1.0 0.1376323032
H  H82  1  0.17330000  0.59300000  0.01090000  1.0 0.1376323032
H  H83  1  0.67970000  0.75240000  0.02250000  1.0 0.100968801
H  H84  1  0.17970000  0.74760000  0.02250000  1.0 0.100968801
H  H85  1  0.77490000  0.79740000  0.11250000  1.0 0.100968801
H  H86  1  0.27490000  0.70260000  0.11250000  1.0 0.100968801
H  H87  1  0.76840000  0.95180000  0.10570000  1.0 0.1202573559
H  H88  1  0.26840000  0.54820000  0.10570000  1.0 0.1202573559
H  H89  1  0.68630000  0.32620000  0.98870000  1.0 0.1303977571
H  H90  1  0.18630000  0.17380000  0.98870000  1.0 0.1303977571
H  H91  1  0.64270000  0.39240000  0.93250000  1.0 0.1105852373
H  H92  1  0.14270000  0.10760000  0.93250000  1.0 0.1105852373
H  H93  1  0.58280000  0.16370000  0.90420000  1.0 0.1105852373
H  H94  1  0.08280000  0.33630000  0.90420000  1.0 0.1105852373
H  H95  1  0.62980000  0.09270000  0.95820000  1.0 0.1376323032
H  H96  1  0.12980000  0.40730000  0.95820000  1.0 0.1376323032
H  H97  1  0.69170000  0.00520000  0.21560000  1.0 0.1303977571
H  H98  1  0.19170000  0.49480000  0.21560000  1.0 0.1303977571
H  H99  1  0.69860000  0.15810000  0.20590000  1.0 0.1105852373
H  H100  1  0.19860000  0.34190000  0.20590000  1.0 0.1105852373
H  H101  1  0.75920000  0.21290000  0.18190000  1.0 0.100968801
H  H102  1  0.25920000  0.28710000  0.18190000  1.0 0.100968801
H  H103  1  0.81290000  0.11490000  0.16770000  1.0 0.100968801
H  H104  1  0.31290000  0.38510000  0.16770000  1.0 0.100968801
H  H105  1  0.80610000  0.96200000  0.17730000  1.0 0.1303977571
H  H106  1  0.30610000  0.53800000  0.17730000  1.0 0.1303977571
H  H107  1  0.70160000  0.95010000  0.74670000  1.0 0.1202573559
H  H108  1  0.20160000  0.54990000  0.74670000  1.0 0.1202573559
H  H109  1  0.70570000  0.09610000  0.77020000  1.0 0.1202573559
H  H110  1  0.20570000  0.40390000  0.77020000  1.0 0.1202573559
H  H111  1  0.74850000  0.20180000  0.74540000  1.0 0.1376323032
H  H112  1  0.24850000  0.29820000  0.74540000  1.0 0.1376323032
H  H113  1  0.78720000  0.16170000  0.69700000  1.0 0.0907500693
H  H114  1  0.28720000  0.33830000  0.69700000  1.0 0.0907500693
H  H115  1  0.78310000  0.01570000  0.67350000  1.0 0.1202573559
H  H116  1  0.28310000  0.48430000  0.67350000  1.0 0.1202573559
H  H117  1  0.23010000  0.00680000  0.67840000  1.0 0.100968801
H  H118  1  0.73010000  0.49320000  0.67840000  1.0 0.100968801
H  H119  1  0.23340000  0.85250000  0.68700000  1.0 0.1105852373
H  H120  1  0.73340000  0.64750000  0.68700000  1.0 0.1105852373
H  H121  1  0.30230000  0.78230000  0.70720000  1.0 0.1105852373
H  H122  1  0.80230000  0.71770000  0.70720000  1.0 0.1105852373
H  H123  1  0.36780000  0.86640000  0.71860000  1.0 0.1105852373
H  H124  1  0.86780000  0.63360000  0.71860000  1.0 0.1105852373
H  H125  1  0.36440000  0.02070000  0.71000000  1.0 0.1202573559
H  H126  1  0.86440000  0.47930000  0.71000000  1.0 0.1202573559
H  H127  1  0.93940000  0.15670000  0.44030000  1.0 0.1105852373
H  H128  1  0.43940000  0.34330000  0.44030000  1.0 0.1105852373
H  H129  1  0.95540000  0.00480000  0.44770000  1.0 0.1105852373
H  H130  1  0.45540000  0.49520000  0.44770000  1.0 0.1105852373
H  H131  1  0.90500000  0.90000000  0.41510000  1.0 0.0907500693
H  H132  1  0.40500000  0.60000000  0.41510000  1.0 0.0907500693
H  H133  1  0.83870000  0.94700000  0.37510000  1.0 0.100968801
H  H134  1  0.33870000  0.55300000  0.37510000  1.0 0.100968801
H  H135  1  0.82270000  0.09890000  0.36770000  1.0 0.0907500693
H  H136  1  0.32270000  0.40110000  0.36770000  1.0 0.0907500693
H  H137  1  0.93680000  0.06690000  0.40910000  1.0 0.0907500693
H  H138  1  0.43680000  0.43310000  0.40910000  1.0 0.0907500693
H  H139  1  0.93510000  0.91220000  0.40210000  1.0 0.0792037777
H  H140  1  0.43510000  0.58780000  0.40210000  1.0 0.0792037777
H  H141  1  0.86900000  0.84110000  0.37290000  1.0 0.0907500693
H  H142  1  0.36900000  0.65890000  0.37290000  1.0 0.0907500693
H  H143  1  0.80460000  0.92480000  0.35070000  1.0 0.0907500693
H  H144  1  0.30460000  0.57520000  0.35070000  1.0 0.0907500693
H  H145  1  0.80640000  0.07960000  0.35770000  1.0 0.0689589264
H  H146  1  0.30640000  0.42040000  0.35770000  1.0 0.0689589264
H  H147  1  0.82830000  0.46650000  0.41560000  1.0 0.1105852373
H  H148  1  0.32830000  0.03350000  0.41560000  1.0 0.1105852373
H  H149  1  0.87880000  0.44040000  0.37820000  1.0 0.1105852373
H  H150  1  0.37880000  0.05960000  0.37820000  1.0 0.1105852373
H  H151  1  0.84620000  0.67160000  0.32520000  1.0 0.1202573559
H  H152  1  0.34620000  0.82840000  0.32520000  1.0 0.1202573559
H  H153  1  0.80260000  0.70150000  0.36980000  1.0 0.1105852373
H  H154  1  0.30260000  0.79850000  0.36980000  1.0 0.1105852373
H  H155  1  0.99210000  0.60300000  0.23070000  1.0 0.1376323032
H  H156  1  0.49210000  0.89700000  0.23070000  1.0 0.1376323032
H  H157  1  0.99330000  0.69580000  0.17640000  1.0 0.100968801
H  H158  1  0.49330000  0.80420000  0.17640000  1.0 0.100968801
H  H159  1  0.87590000  0.79180000  0.18630000  1.0 0.100968801
H  H160  1  0.37590000  0.70820000  0.18630000  1.0 0.100968801
H  H161  1  0.87680000  0.70390000  0.24020000  1.0 0.1202573559
H  H162  1  0.37680000  0.79610000  0.24020000  1.0 0.1202573559
H  H163  1  0.97410000  0.34150000  0.36410000  1.0 0.1303977571
H  H164  1  0.47410000  0.15850000  0.36410000  1.0 0.1303977571
H  H165  1  0.02310000  0.22650000  0.37270000  1.0 0.0907500693
H  H166  1  0.52310000  0.27350000  0.37270000  1.0 0.0907500693
H  H167  1  0.05920000  0.26940000  0.27410000  1.0 0.0689589264
H  H168  1  0.55920000  0.23060000  0.27410000  1.0 0.0689589264
H  H169  1  0.00600000  0.38500000  0.26030000  1.0 0.1376323032
H  H170  1  0.50600000  0.11500000  0.26030000  1.0 0.1376323032
H  H171  1  0.16670000  0.09480000  0.40050000  1.0 0.0792037777
H  H172  1  0.66666667  0.40520000  0.40050000  1.0 0.0792037777
H  H173  1  0.23170000  0.16630000  0.43770000  1.0 0.1303977571
H  H174  1  0.73170000  0.33370000  0.43770000  1.0 0.1303977571
H  H175  1  0.17860000  0.39400000  0.39550000  1.0 0.1105852373
H  H176  1  0.67860000  0.10600000  0.39550000  1.0 0.1105852373
H  H177  1  0.11700000  0.31990000  0.36130000  1.0 0.0689589264
H  H178  1  0.61700000  0.18010000  0.36130000  1.0 0.0689589264
H  H179  1  0.32110000  0.18180000  0.50970000  1.0 0.1202573559
H  H180  1  0.82110000  0.31820000  0.50970000  1.0 0.1202573559
H  H181  1  0.37080000  0.11010000  0.55790000  1.0 0.0792037777
H  H182  1  0.87080000  0.38990000  0.55790000  1.0 0.0792037777
H  H183  1  0.44110000  0.33180000  0.57590000  1.0 0.0907500693
H  H184  1  0.94110000  0.16820000  0.57590000  1.0 0.0907500693
H  H185  1  0.39890000  0.40030000  0.52320000  1.0 0.1303977571
H  H186  1  0.89890000  0.09970000  0.52320000  1.0 0.1303977571
H  H187  1  0.34070000  0.60010000  0.49040000  1.0 0.1376323032
H  H188  1  0.84070000  0.89990000  0.49040000  1.0 0.1376323032
H  H189  1  0.33380000  0.75110000  0.48620000  1.0 0.1105852373
H  H190  1  0.83380000  0.74890000  0.48620000  1.0 0.1105852373
H  H191  1  0.22570000  0.72700000  0.40360000  1.0 0.0907500693
H  H192  1  0.72570000  0.77300000  0.40360000  1.0 0.0907500693
H  H193  1  0.22900000  0.57150000  0.40760000  1.0 0.1376323032
H  H194  1  0.72900000  0.92850000  0.40760000  1.0 0.1376323032
H  H195  1  0.39000000  0.22070000  0.65770000  1.0 0.0792037777
H  H196  1  0.89000000  0.27930000  0.65770000  1.0 0.0792037777
H  H197  1  0.38200000  0.30560000  0.71640000  1.0 0.1202573559
H  H198  1  0.88200000  0.19440000  0.71640000  1.0 0.1202573559
H  H199  1  0.51110000  0.37700000  0.72670000  1.0 0.1376323032
H  H200  1  0.01110000  0.12300000  0.72670000  1.0 0.1376323032
H  H201  1  0.51740000  0.27390000  0.67770000  1.0 0.0792037777
H  H202  1  0.01740000  0.22610000  0.67770000  1.0 0.0792037777
H  H203  1  0.33420000  0.33680000  0.79750000  1.0 0.1105852373
H  H204  1  0.83420000  0.16320000  0.79750000  1.0 0.1105852373
H  H205  1  0.28550000  0.31330000  0.83510000  1.0 0.0907500693
H  H206  1  0.78550000  0.18670000  0.83510000  1.0 0.0907500693
H  H207  1  0.35450000  0.47350000  0.91540000  1.0 0.1105852373
H  H208  1  0.85450000  0.02650000  0.91540000  1.0 0.1105852373
H  H209  1  0.40280000  0.50190000  0.87730000  1.0 0.1202573559
H  H210  1  0.90280000  0.99810000  0.87730000  1.0 0.1202573559
H  H211  1  0.45840000  0.66490000  0.84420000  1.0 0.1376323032
H  H212  1  0.95840000  0.83510000  0.84420000  1.0 0.1376323032
H  H213  1  0.50200000  0.78710000  0.85910000  1.0 0.1105852373
H  H214  1  0.00200000  0.71290000  0.85910000  1.0 0.1105852373
H  H215  1  0.57010000  0.72870000  0.77980000  1.0 0.0907500693
H  H216  1  0.07010000  0.77130000  0.77980000  1.0 0.0907500693
H  H217  1  0.52830000  0.59360000  0.76340000  1.0 0.1376323032
H  H218  1  0.02830000  0.90640000  0.76340000  1.0 0.1376323032
H  H219  1  0.66090000  0.91790000  0.90560000  1.0 0.1105852373
H  H220  1  0.16090000  0.58210000  0.90560000  1.0 0.1105852373
H  H221  1  0.72180000  0.84730000  0.94080000  1.0 0.1376323032
H  H222  1  0.22180000  0.65270000  0.94080000  1.0 0.1376323032
H  H223  1  0.66160000  0.61500000  0.90900000  1.0 0.1303977571
H  H224  1  0.16160000  0.88500000  0.90900000  1.0 0.1303977571
H  H225  1  0.60510000  0.69010000  0.86840000  1.0 0.0907500693
H  H226  1  0.10510000  0.80990000  0.86840000  1.0 0.0907500693
H  H227  1  0.82670000  0.40700000  0.98910000  1.0 0.1376323032
H  H228  1  0.32670000  0.09300000  0.98910000  1.0 0.1376323032
H  H229  1  0.82030000  0.25240000  0.97750000  1.0 0.100968801
H  H230  1  0.32030000  0.24760000  0.97750000  1.0 0.100968801
H  H231  1  0.72510000  0.29740000  0.88750000  1.0 0.100968801
H  H232  1  0.22510000  0.20260000  0.88750000  1.0 0.100968801
H  H233  1  0.73160000  0.45180000  0.89430000  1.0 0.1202573559
H  H234  1  0.23160000  0.04820000  0.89430000  1.0 0.1202573559
H  H235  1  0.81370000  0.82620000  0.01130000  1.0 0.1303977571
H  H236  1  0.31370000  0.67380000  0.01130000  1.0 0.1303977571
H  H237  1  0.85730000  0.89240000  0.06750000  1.0 0.1105852373
H  H238  1  0.35730000  0.60760000  0.06750000  1.0 0.1105852373
H  H239  1  0.91720000  0.66370000  0.09580000  1.0 0.1105852373
H  H240  1  0.41720000  0.83630000  0.09580000  1.0 0.1105852373
H  H241  1  0.87020000  0.59270000  0.04180000  1.0 0.1376323032
H  H242  1  0.37020000  0.90730000  0.04180000  1.0 0.1376323032
H  H243  1  0.80830000  0.50520000  0.78440000  1.0 0.1303977571
H  H244  1  0.30830000  0.99480000  0.78440000  1.0 0.1303977571
H  H245  1  0.80140000  0.65810000  0.79410000  1.0 0.1105852373
H  H246  1  0.30140000  0.84190000  0.79410000  1.0 0.1105852373
H  H247  1  0.74080000  0.71290000  0.81810000  1.0 0.100968801
H  H248  1  0.24080000  0.78710000  0.81810000  1.0 0.100968801
H  H249  1  0.68710000  0.61490000  0.83230000  1.0 0.100968801
H  H250  1  0.18710000  0.88510000  0.83230000  1.0 0.100968801
H  H251  1  0.69390000  0.46200000  0.82270000  1.0 0.1303977571
H  H252  1  0.19390000  0.03800000  0.82270000  1.0 0.1303977571
H  H253  1  0.79840000  0.45010000  0.25330000  1.0 0.1202573559
H  H254  1  0.29840000  0.04990000  0.25330000  1.0 0.1202573559
H  H255  1  0.79430000  0.59610000  0.22980000  1.0 0.1202573559
H  H256  1  0.29430000  0.90390000  0.22980000  1.0 0.1202573559
H  H257  1  0.75150000  0.70180000  0.25460000  1.0 0.1376323032
H  H258  1  0.25150000  0.79820000  0.25460000  1.0 0.1376323032
H  H259  1  0.71280000  0.66170000  0.30300000  1.0 0.0907500693
H  H260  1  0.21280000  0.83830000  0.30300000  1.0 0.0907500693
H  H261  1  0.71690000  0.51570000  0.32650000  1.0 0.1202573559
H  H262  1  0.21690000  0.98430000  0.32650000  1.0 0.1202573559
H  H263  1  0.26990000  0.50680000  0.32160000  1.0 0.100968801
H  H264  1  0.76990000  0.99320000  0.32160000  1.0 0.100968801
H  H265  1  0.26660000  0.35250000  0.31300000  1.0 0.1105852373
H  H266  1  0.76660000  0.14750000  0.31300000  1.0 0.1105852373
H  H267  1  0.19770000  0.28230000  0.29280000  1.0 0.1105852373
H  H268  1  0.69770000  0.21770000  0.29280000  1.0 0.1105852373
H  H269  1  0.13220000  0.36640000  0.28140000  1.0 0.1105852373
H  H270  1  0.63220000  0.13360000  0.28140000  1.0 0.1105852373
H  H271  1  0.13560000  0.52070000  0.29000000  1.0 0.1202573559
H  H272  1  0.63560000  0.97930000  0.29000000  1.0 0.1202573559
H  H273  1  0.56060000  0.65670000  0.55970000  1.0 0.1105852373
H  H274  1  0.06060000  0.84330000  0.55970000  1.0 0.1105852373
H  H275  1  0.54460000  0.50480000  0.55230000  1.0 0.1105852373
H  H276  1  0.04460000  0.99520000  0.55230000  1.0 0.1105852373
H  H277  1  0.59500000  0.40000000  0.58490000  1.0 0.0907500693
H  H278  1  0.09500000  0.10000000  0.58490000  1.0 0.0907500693
H  H279  1  0.66130000  0.44700000  0.62490000  1.0 0.100968801
H  H280  1  0.16130000  0.05300000  0.62490000  1.0 0.100968801
H  H281  1  0.67730000  0.59890000  0.63230000  1.0 0.0907500693
H  H282  1  0.17730000  0.90110000  0.63230000  1.0 0.0907500693
H  H283  1  0.56320000  0.56690000  0.59090000  1.0 0.0907500693
H  H284  1  0.06320000  0.93310000  0.59090000  1.0 0.0907500693
H  H285  1  0.56490000  0.41220000  0.59790000  1.0 0.0792037777
H  H286  1  0.06490000  0.08780000  0.59790000  1.0 0.0792037777
H  H287  1  0.63100000  0.34110000  0.62710000  1.0 0.0907500693
H  H288  1  0.13100000  0.15890000  0.62710000  1.0 0.0907500693
H  H289  1  0.69540000  0.42480000  0.64930000  1.0 0.0907500693
H  H290  1  0.19540000  0.07520000  0.64930000  1.0 0.0907500693
H  H291  1  0.69360000  0.57960000  0.64230000  1.0 0.0689589264
H  H292  1  0.19360000  0.92040000  0.64230000  1.0 0.0689589264
C  C1  1  0.66650000  0.01200000  0.60180000  1.0 -0.0512207024
C  C2  1  0.16650000  0.48800000  0.60180000  1.0 -0.0512207024
C  C3  1  0.63760000  0.99400000  0.62520000  1.0 -0.1299165667
C  C4  1  0.13760000  0.50600000  0.62520000  1.0 -0.1299165667
C  C5  1  0.63130000  0.05240000  0.65380000  1.0 0.0382307344
C  C6  1  0.13130000  0.44760000  0.65380000  1.0 0.0382307344
C  C7  1  0.65550000  0.12890000  0.65520000  1.0 -0.1996757486
C  C8  1  0.15550000  0.37110000  0.65520000  1.0 -0.1996757486
C  C9  1  0.68230000  0.14610000  0.62890000  1.0 -0.1091342049
C  C10  1  0.18230000  0.35390000  0.62890000  1.0 -0.1091342049
C  C11  1  0.60090000  0.03390000  0.67810000  1.0 0.3097820772
C  C12  1  0.10090000  0.46610000  0.67810000  1.0 0.3097820772
C  C13  1  0.54540000  0.95970000  0.69290000  1.0 0.3610206121
C  C14  1  0.04540000  0.54030000  0.69290000  1.0 0.3610206121
C  C15  1  0.56980000  0.08320000  0.72750000  1.0 0.3768685533
C  C16  1  0.06980000  0.41680000  0.72750000  1.0 0.3768685533
C  C17  1  0.56510000  0.14350000  0.76110000  1.0 0.0608817994
C  C18  1  0.06510000  0.35650000  0.76110000  1.0 0.0608817994
C  C19  1  0.53210000  0.14200000  0.77830000  1.0 -0.1299165667
C  C20  1  0.03210000  0.35800000  0.77830000  1.0 -0.1299165667
C  C21  1  0.53130000  0.19820000  0.81090000  1.0 0.100968801
C  C22  1  0.03130000  0.30180000  0.81090000  1.0 0.100968801
C  C23  1  0.59940000  0.25400000  0.80480000  1.0 0.0608817994
C  C24  1  0.09940000  0.24600000  0.80480000  1.0 0.0608817994
C  C25  1  0.59930000  0.20080000  0.77330000  1.0 -0.1602319115
C  C26  1  0.09930000  0.29920000  0.77330000  1.0 -0.1602319115
C  C27  1  0.51310000  0.87950000  0.68900000  1.0 0.0792037777
C  C28  1  0.01310000  0.62050000  0.68900000  1.0 0.0792037777
C  C29  1  0.50880000  0.82860000  0.65500000  1.0 -0.169048657
C  C30  1  0.00880000  0.67140000  0.65500000  1.0 -0.169048657
C  C31  1  0.47960000  0.76070000  0.65040000  1.0 0.0490038872
C  C32  1  0.97960000  0.73930000  0.65040000  1.0 0.0490038872
C  C33  1  0.45870000  0.78390000  0.70760000  1.0 0.0296624772
C  C34  1  0.95870000  0.71610000  0.70760000  1.0 0.0296624772
C  C35  1  0.48980000  0.85490000  0.71540000  1.0 -0.1407036437
C  C36  1  0.98980000  0.64510000  0.71540000  1.0 -0.1407036437
C  C37  1  0.32970000  0.65700000  0.60160000  1.0 0.0490038872
C  C38  1  0.82970000  0.84300000  0.60160000  1.0 0.0490038872
C  C39  1  0.29030000  0.70010000  0.57910000  1.0 -0.1602319115
C  C40  1  0.79030000  0.79990000  0.57910000  1.0 -0.1602319115
C  C41  1  0.28560000  0.78960000  0.58260000  1.0 0.0689589264
C  C42  1  0.78560000  0.71040000  0.58260000  1.0 0.0689589264
C  C43  1  0.32150000  0.83090000  0.60380000  1.0 -0.2468953916
C  C44  1  0.82150000  0.66910000  0.60380000  1.0 -0.2468953916
C  C45  1  0.35870000  0.78690000  0.62460000  1.0 0.0382307344
C  C46  1  0.85870000  0.71310000  0.62460000  1.0 0.0382307344
C  C47  1  0.24650000  0.84000000  0.56180000  1.0 0.3191068581
C  C48  1  0.74650000  0.66000000  0.56180000  1.0 0.3191068581
C  C49  1  0.18250000  0.84630000  0.51650000  1.0 0.2688071205
C  C50  1  0.68250000  0.65370000  0.51650000  1.0 0.2688071205
C  C51  1  0.21140000  0.96760000  0.54730000  1.0 0.2688071205
C  C52  1  0.71140000  0.53240000  0.54730000  1.0 0.2688071205
C  C53  1  0.14990000  0.80110000  0.48890000  1.0 0.0490038872
C  C54  1  0.64990000  0.69890000  0.48890000  1.0 0.0490038872
C  C55  1  0.15380000  0.71400000  0.47720000  1.0 -0.1407036437
C  C56  1  0.65380000  0.78600000  0.47720000  1.0 -0.1407036437
C  C57  1  0.12470000  0.67050000  0.44830000  1.0 -0.0094159519
C  C58  1  0.62470000  0.82950000  0.44830000  1.0 -0.0094159519
C  C59  1  0.08320000  0.79950000  0.43880000  1.0 0.0689589264
C  C60  1  0.58320000  0.70050000  0.43880000  1.0 0.0689589264
C  C61  1  0.10940000  0.84300000  0.46900000  1.0 -0.1996757486
C  C62  1  0.60940000  0.65700000  0.46900000  1.0 -0.1996757486
C  C63  1  0.21110000  0.06500000  0.55210000  1.0 0.0088461031
C  C64  1  0.71110000  0.43500000  0.55210000  1.0 0.0088461031
C  C65  1  0.18290000  0.12400000  0.52850000  1.0 -0.1798537314
C  C66  1  0.68290000  0.37600000  0.52850000  1.0 -0.1798537314
C  C67  1  0.18670000  0.21500000  0.53070000  1.0 0.0024778062
C  C68  1  0.68670000  0.28500000  0.53070000  1.0 0.0024778062
C  C69  1  0.25040000  0.20000000  0.57900000  1.0 -0.032290503
C  C70  1  0.75040000  0.30000000  0.57900000  1.0 -0.032290503
C  C71  1  0.24830000  0.10700000  0.57720000  1.0 -0.1996757486
C  C72  1  0.74830000  0.39300000  0.57720000  1.0 -0.1996757486
C  C73  1  0.08520000  0.75000000  0.32690000  1.0 -0.0094159519
C  C74  1  0.58520000  0.75000000  0.32690000  1.0 -0.0094159519
C  C75  1  0.09060000  0.80300000  0.29220000  1.0 -0.1299165667
C  C76  1  0.59060000  0.69700000  0.29220000  1.0 -0.1299165667
C  C77  1  0.05250000  0.84780000  0.27320000  1.0 0.0608817994
C  C78  1  0.55250000  0.65220000  0.27320000  1.0 0.0608817994
C  C79  1  0.01380000  0.84240000  0.28530000  1.0 -0.1299165667
C  C80  1  0.51380000  0.65760000  0.28530000  1.0 -0.1299165667
C  C81  1  0.01090000  0.78440000  0.31600000  1.0 0.017954913
C  C82  1  0.51090000  0.71560000  0.31600000  1.0 0.017954913
C  C83  1  0.05690000  0.90790000  0.23940000  1.0 0.3610206121
C  C84  1  0.55690000  0.59210000  0.23940000  1.0 0.3610206121
C  C85  1  0.09320000  0.94360000  0.19260000  1.0 0.3496208562
C  C86  1  0.59320000  0.55640000  0.19260000  1.0 0.3496208562
C  C87  1  0.03710000  0.03080000  0.20440000  1.0 0.3670055791
C  C88  1  0.53710000  0.46920000  0.20440000  1.0 0.3670055791
C  C89  1  0.12430000  0.92460000  0.16820000  1.0 0.0490038872
C  C90  1  0.62430000  0.57540000  0.16820000  1.0 0.0490038872
C  C91  1  0.16150000  0.86650000  0.17820000  1.0 -0.1602319115
C  C92  1  0.66150000  0.63350000  0.17820000  1.0 -0.1602319115
C  C93  1  0.19000000  0.85150000  0.15580000  1.0 0.0088461031
C  C94  1  0.69000000  0.64850000  0.15580000  1.0 0.0088461031
C  C95  1  0.15010000  0.94510000  0.10920000  1.0 0.0689589264
C  C96  1  0.65010000  0.55490000  0.10920000  1.0 0.0689589264
C  C97  1  0.12110000  0.96220000  0.13180000  1.0 -0.1204497425
C  C98  1  0.62110000  0.53780000  0.13180000  1.0 -0.1204497425
C  C99  1  0.00900000  0.11300000  0.19630000  1.0 0.0689589264
C  C100  1  0.50900000  0.38700000  0.19630000  1.0 0.0689589264
C  C101  1  0.01770000  0.17500000  0.16870000  1.0 -0.169048657
C  C102  1  0.51770000  0.32500000  0.16870000  1.0 -0.169048657
C  C103  1  0.99250000  0.24780000  0.16060000  1.0 0.0792037777
C  C104  1  0.49250000  0.25220000  0.16060000  1.0 0.0792037777
C  C105  1  0.95270000  0.21310000  0.20660000  1.0 0.0792037777
C  C106  1  0.45270000  0.28690000  0.20660000  1.0 0.0792037777
C  C107  1  0.97740000  0.13180000  0.21670000  1.0 -0.1407036437
C  C108  1  0.47740000  0.36820000  0.21670000  1.0 -0.1407036437
C  C109  1  0.83810000  0.35470000  0.09510000  1.0 0.0907500693
C  C110  1  0.33810000  0.14530000  0.09510000  1.0 0.0907500693
C  C111  1  0.80190000  0.31320000  0.07380000  1.0 -0.169048657
C  C112  1  0.30190000  0.18680000  0.07380000  1.0 -0.169048657
C  C113  1  0.79950000  0.22130000  0.07340000  1.0 0.0689589264
C  C114  1  0.29950000  0.27870000  0.07340000  1.0 0.0689589264
C  C115  1  0.83670000  0.17780000  0.09320000  1.0 -0.1602319115
C  C116  1  0.33670000  0.32220000  0.09320000  1.0 -0.1602319115
C  C117  1  0.87120000  0.22230000  0.11600000  1.0 0.0490038872
C  C118  1  0.37120000  0.27770000  0.11600000  1.0 0.0490038872
C  C119  1  0.75910000  0.17200000  0.05230000  1.0 0.3610206121
C  C120  1  0.25910000  0.32800000  0.05230000  1.0 0.3610206121
C  C121  1  0.69600000  0.16210000  0.00990000  1.0 0.3670055791
C  C122  1  0.19600000  0.33790000  0.00990000  1.0 0.3670055791
C  C123  1  0.72170000  0.04270000  0.04540000  1.0 0.3867898955
C  C124  1  0.22170000  0.45730000  0.04540000  1.0 0.3867898955
C  C125  1  0.72230000  0.94180000  0.05480000  1.0 0.0689589264
C  C126  1  0.22230000  0.55820000  0.05480000  1.0 0.0689589264
C  C127  1  0.69480000  0.88490000  0.03200000  1.0 -0.1602319115
C  C128  1  0.19480000  0.61510000  0.03200000  1.0 -0.1602319115
C  C129  1  0.69790000  0.79280000  0.03940000  1.0 0.100968801
C  C130  1  0.19790000  0.70720000  0.03940000  1.0 0.100968801
C  C131  1  0.75300000  0.82100000  0.09210000  1.0 0.0608817994
C  C132  1  0.25300000  0.67900000  0.09210000  1.0 0.0608817994
C  C133  1  0.75120000  0.91240000  0.08760000  1.0 -0.169048657
C  C134  1  0.25120000  0.58760000  0.08760000  1.0 -0.169048657
C  C135  1  0.66440000  0.20510000  0.97580000  1.0 0.0608817994
C  C136  1  0.16440000  0.29490000  0.97580000  1.0 0.0608817994
C  C137  1  0.66630000  0.29100000  0.97070000  1.0 -0.1299165667
C  C138  1  0.16630000  0.20900000  0.97070000  1.0 -0.1299165667
C  C139  1  0.63880000  0.33160000  0.93830000  1.0 0.0689589264
C  C140  1  0.13880000  0.16840000  0.93830000  1.0 0.0689589264
C  C141  1  0.60430000  0.19780000  0.92150000  1.0 0.1105852373
C  C142  1  0.10430000  0.30220000  0.92150000  1.0 0.1105852373
C  C143  1  0.63280000  0.15430000  0.95320000  1.0 -0.1407036437
C  C144  1  0.13280000  0.34570000  0.95320000  1.0 -0.1407036437
C  C145  1  0.71630000  0.02740000  0.20590000  1.0 -0.169048657
C  C146  1  0.21630000  0.47260000  0.20590000  1.0 -0.169048657
C  C147  1  0.72040000  0.11830000  0.20010000  1.0 -0.1204497425
C  C148  1  0.22040000  0.38170000  0.20010000  1.0 -0.1204497425
C  C149  1  0.75640000  0.15090000  0.18590000  1.0 -0.0908927413
C  C150  1  0.25640000  0.34910000  0.18590000  1.0 -0.0908927413
C  C151  1  0.78830000  0.09260000  0.17740000  1.0 -0.0794477468
C  C152  1  0.28830000  0.40740000  0.17740000  1.0 -0.0794477468
C  C153  1  0.78430000  0.00180000  0.18310000  1.0 -0.0908927413
C  C154  1  0.28430000  0.49820000  0.18310000  1.0 -0.0908927413
C  C155  1  0.74830000  0.96920000  0.19740000  1.0 0.0296624772
C  C156  1  0.24830000  0.53080000  0.19740000  1.0 0.0296624772
C  C157  1  0.71900000  0.99310000  0.73660000  1.0 -0.1516950187
C  C158  1  0.21900000  0.50690000  0.73660000  1.0 -0.1516950187
C  C159  1  0.72140000  0.07980000  0.75060000  1.0 -0.0358883336
C  C160  1  0.22140000  0.42020000  0.75060000  1.0 -0.0358883336
C  C161  1  0.74680000  0.14260000  0.73580000  1.0 -0.0704400094
C  C162  1  0.24680000  0.35740000  0.73580000  1.0 -0.0704400094
C  C163  1  0.76980000  0.11870000  0.70710000  1.0 -0.0512207024
C  C164  1  0.26980000  0.38130000  0.70710000  1.0 -0.0512207024
C  C165  1  0.76740000  0.03200000  0.69310000  1.0 -0.0794477468
C  C166  1  0.26740000  0.46800000  0.69310000  1.0 -0.0794477468
C  C167  1  0.74200000  0.96920000  0.70790000  1.0 -0.0199131219
C  C168  1  0.24200000  0.53080000  0.70790000  1.0 -0.0199131219
C  C169  1  0.25800000  0.97830000  0.68650000  1.0 -0.0794477468
C  C170  1  0.75800000  0.52170000  0.68650000  1.0 -0.0794477468
C  C171  1  0.26000000  0.88670000  0.69170000  1.0 -0.1407036437
C  C172  1  0.76000000  0.61330000  0.69170000  1.0 -0.1407036437
C  C173  1  0.30090000  0.84500000  0.70360000  1.0 -0.0627680012
C  C174  1  0.80090000  0.65500000  0.70360000  1.0 -0.0627680012
C  C175  1  0.33980000  0.89500000  0.71050000  1.0 -0.0794477468
C  C176  1  0.83980000  0.60500000  0.71050000  1.0 -0.0794477468
C  C177  1  0.33780000  0.98700000  0.70530000  1.0 -0.169048657
C  C178  1  0.83780000  0.51300000  0.70530000  1.0 -0.169048657
C  C179  1  0.29690000  0.02830000  0.69340000  1.0 0.0382307344
C  C180  1  0.79690000  0.47170000  0.69340000  1.0 0.0382307344
C  C181  1  0.91900000  0.11400000  0.42700000  1.0 -0.1091342049
C  C182  1  0.41900000  0.38600000  0.42700000  1.0 -0.1091342049
C  C183  1  0.92800000  0.02400000  0.43100000  1.0 -0.1516950187
C  C184  1  0.42800000  0.47600000  0.43100000  1.0 -0.1516950187
C  C185  1  0.89900000  0.96200000  0.41200000  1.0 -0.0512207024
C  C186  1  0.39900000  0.53800000  0.41200000  1.0 -0.0512207024
C  C187  1  0.85900000  0.99000000  0.38800000  1.0 0.0024778062
C  C188  1  0.35900000  0.51000000  0.38800000  1.0 0.0024778062
C  C189  1  0.85000000  0.08000000  0.38400000  1.0 -0.0794477468
C  C190  1  0.35000000  0.42000000  0.38400000  1.0 -0.0794477468
C  C191  1  0.87950000  0.14200000  0.40300000  1.0 0.100968801
C  C192  1  0.37950000  0.35800000  0.40300000  1.0 0.100968801
C  C193  1  0.91000000  0.03800000  0.39700000  1.0 -0.0512207024
C  C194  1  0.41000000  0.46200000  0.39700000  1.0 -0.0512207024
C  C195  1  0.90900000  0.94600000  0.39300000  1.0 -0.0512207024
C  C196  1  0.40900000  0.55400000  0.39300000  1.0 -0.0512207024
C  C197  1  0.87000000  0.90400000  0.37600000  1.0 -0.0512207024
C  C198  1  0.37000000  0.59600000  0.37600000  1.0 -0.0512207024
C  C199  1  0.83100000  0.95400000  0.36300000  1.0 -0.1004357811
C  C200  1  0.33100000  0.54600000  0.36300000  1.0 -0.1004357811
C  C201  1  0.83200000  0.04600000  0.36700000  1.0 -0.0908927413
C  C202  1  0.33200000  0.45400000  0.36700000  1.0 -0.0908927413
C  C203  1  0.87200000  0.08800000  0.38400000  1.0 -0.032290503
C  C204  1  0.37200000  0.41200000  0.38400000  1.0 -0.032290503
C  C205  1  0.83350000  0.51200000  0.39820000  1.0 -0.0512207024
C  C206  1  0.33350000  0.98800000  0.39820000  1.0 -0.0512207024
C  C207  1  0.86240000  0.49400000  0.37480000  1.0 -0.1299165667
C  C208  1  0.36240000  0.00600000  0.37480000  1.0 -0.1299165667
C  C209  1  0.86870000  0.55240000  0.34620000  1.0 0.0382307344
C  C210  1  0.36870000  0.94760000  0.34620000  1.0 0.0382307344
C  C211  1  0.84450000  0.62890000  0.34480000  1.0 -0.1996757486
C  C212  1  0.34450000  0.87110000  0.34480000  1.0 -0.1996757486
C  C213  1  0.81770000  0.64610000  0.37110000  1.0 -0.1091342049
C  C214  1  0.31770000  0.85390000  0.37110000  1.0 -0.1091342049
C  C215  1  0.89910000  0.53390000  0.32190000  1.0 0.3097820772
C  C216  1  0.39910000  0.96610000  0.32190000  1.0 0.3097820772
C  C217  1  0.95460000  0.45970000  0.30710000  1.0 0.3610206121
C  C218  1  0.45460000  0.04030000  0.30710000  1.0 0.3610206121
C  C219  1  0.93020000  0.58320000  0.27250000  1.0 0.3768685533
C  C220  1  0.43020000  0.91680000  0.27250000  1.0 0.3768685533
C  C221  1  0.93490000  0.64350000  0.23890000  1.0 0.0608817994
C  C222  1  0.43490000  0.85650000  0.23890000  1.0 0.0608817994
C  C223  1  0.96790000  0.64200000  0.22170000  1.0 -0.1299165667
C  C224  1  0.46790000  0.85800000  0.22170000  1.0 -0.1299165667
C  C225  1  0.96870000  0.69820000  0.18910000  1.0 0.100968801
C  C226  1  0.46870000  0.80180000  0.18910000  1.0 0.100968801
C  C227  1  0.90060000  0.75400000  0.19520000  1.0 0.0608817994
C  C228  1  0.40060000  0.74600000  0.19520000  1.0 0.0608817994
C  C229  1  0.90070000  0.70080000  0.22670000  1.0 -0.1602319115
C  C230  1  0.40070000  0.79920000  0.22670000  1.0 -0.1602319115
C  C231  1  0.98690000  0.37950000  0.31100000  1.0 0.0792037777
C  C232  1  0.48690000  0.12050000  0.31100000  1.0 0.0792037777
C  C233  1  0.99120000  0.32860000  0.34500000  1.0 -0.169048657
C  C234  1  0.49120000  0.17140000  0.34500000  1.0 -0.169048657
C  C235  1  0.02040000  0.26070000  0.34960000  1.0 0.0490038872
C  C236  1  0.52040000  0.23930000  0.34960000  1.0 0.0490038872
C  C237  1  0.04130000  0.28390000  0.29240000  1.0 0.0296624772
C  C238  1  0.54130000  0.21610000  0.29240000  1.0 0.0296624772
C  C239  1  0.01020000  0.35490000  0.28460000  1.0 -0.1407036437
C  C240  1  0.51020000  0.14510000  0.28460000  1.0 -0.1407036437
C  C241  1  0.17030000  0.15700000  0.39840000  1.0 0.0490038872
C  C242  1  0.67030000  0.34300000  0.39840000  1.0 0.0490038872
C  C243  1  0.20970000  0.20010000  0.42090000  1.0 -0.1602319115
C  C244  1  0.70970000  0.29990000  0.42090000  1.0 -0.1602319115
C  C245  1  0.21440000  0.28960000  0.41740000  1.0 0.0689589264
C  C246  1  0.71440000  0.21040000  0.41740000  1.0 0.0689589264
C  C247  1  0.17850000  0.33090000  0.39620000  1.0 -0.2468953916
C  C248  1  0.67850000  0.16910000  0.39620000  1.0 -0.2468953916
C  C249  1  0.14130000  0.28690000  0.37540000  1.0 0.0382307344
C  C250  1  0.64130000  0.21310000  0.37540000  1.0 0.0382307344
C  C251  1  0.25350000  0.34000000  0.43820000  1.0 0.3191068581
C  C252  1  0.75350000  0.16000000  0.43820000  1.0 0.3191068581
C  C253  1  0.31750000  0.34630000  0.48350000  1.0 0.2688071205
C  C254  1  0.81750000  0.15370000  0.48350000  1.0 0.2688071205
C  C255  1  0.28860000  0.46760000  0.45270000  1.0 0.2688071205
C  C256  1  0.78860000  0.03240000  0.45270000  1.0 0.2688071205
C  C257  1  0.35010000  0.30110000  0.51110000  1.0 0.0490038872
C  C258  1  0.85010000  0.19890000  0.51110000  1.0 0.0490038872
C  C259  1  0.34620000  0.21400000  0.52280000  1.0 -0.1407036437
C  C260  1  0.84620000  0.28600000  0.52280000  1.0 -0.1407036437
C  C261  1  0.37530000  0.17050000  0.55170000  1.0 -0.0094159519
C  C262  1  0.87530000  0.32950000  0.55170000  1.0 -0.0094159519
C  C263  1  0.41680000  0.29950000  0.56120000  1.0 0.0689589264
C  C264  1  0.91680000  0.20050000  0.56120000  1.0 0.0689589264
C  C265  1  0.39060000  0.34300000  0.53100000  1.0 -0.1996757486
C  C266  1  0.89060000  0.15700000  0.53100000  1.0 -0.1996757486
C  C267  1  0.28890000  0.56500000  0.44790000  1.0 0.0088461031
C  C268  1  0.78890000  0.93500000  0.44790000  1.0 0.0088461031
C  C269  1  0.31710000  0.62400000  0.47150000  1.0 -0.1798537314
C  C270  1  0.81710000  0.87600000  0.47150000  1.0 -0.1798537314
C  C271  1  0.31330000  0.71500000  0.46930000  1.0 0.0024778062
C  C272  1  0.81330000  0.78500000  0.46930000  1.0 0.0024778062
C  C273  1  0.24960000  0.70000000  0.42100000  1.0 -0.032290503
C  C274  1  0.74960000  0.80000000  0.42100000  1.0 -0.032290503
C  C275  1  0.25170000  0.60700000  0.42280000  1.0 -0.1996757486
C  C276  1  0.75170000  0.89300000  0.42280000  1.0 -0.1996757486
C  C277  1  0.41480000  0.25000000  0.67310000  1.0 -0.0094159519
C  C278  1  0.91480000  0.25000000  0.67310000  1.0 -0.0094159519
C  C279  1  0.40940000  0.30300000  0.70780000  1.0 -0.1299165667
C  C280  1  0.90940000  0.19700000  0.70780000  1.0 -0.1299165667
C  C281  1  0.44750000  0.34780000  0.72680000  1.0 0.0608817994
C  C282  1  0.94750000  0.15220000  0.72680000  1.0 0.0608817994
C  C283  1  0.48620000  0.34240000  0.71470000  1.0 -0.1299165667
C  C284  1  0.98620000  0.15760000  0.71470000  1.0 -0.1299165667
C  C285  1  0.48910000  0.28440000  0.68400000  1.0 0.017954913
C  C286  1  0.98910000  0.21560000  0.68400000  1.0 0.017954913
C  C287  1  0.44310000  0.40790000  0.76060000  1.0 0.3610206121
C  C288  1  0.94310000  0.09210000  0.76060000  1.0 0.3610206121
C  C289  1  0.40680000  0.44360000  0.80740000  1.0 0.3496208562
C  C290  1  0.90680000  0.05640000  0.80740000  1.0 0.3496208562
C  C291  1  0.46290000  0.53080000  0.79560000  1.0 0.3670055791
C  C292  1  0.96290000  0.96920000  0.79560000  1.0 0.3670055791
C  C293  1  0.37570000  0.42460000  0.83180000  1.0 0.0490038872
C  C294  1  0.87570000  0.07540000  0.83180000  1.0 0.0490038872
C  C295  1  0.33850000  0.36650000  0.82180000  1.0 -0.1602319115
C  C296  1  0.83850000  0.13350000  0.82180000  1.0 -0.1602319115
C  C297  1  0.31000000  0.35150000  0.84420000  1.0 0.0088461031
C  C298  1  0.81000000  0.14850000  0.84420000  1.0 0.0088461031
C  C299  1  0.34990000  0.44510000  0.89080000  1.0 0.0689589264
C  C300  1  0.84990000  0.05490000  0.89080000  1.0 0.0689589264
C  C301  1  0.37890000  0.46220000  0.86820000  1.0 -0.1204497425
C  C302  1  0.87890000  0.03780000  0.86820000  1.0 -0.1204497425
C  C303  1  0.49100000  0.61300000  0.80370000  1.0 0.0689589264
C  C304  1  0.99100000  0.88700000  0.80370000  1.0 0.0689589264
C  C305  1  0.48230000  0.67500000  0.83130000  1.0 -0.169048657
C  C306  1  0.98230000  0.82500000  0.83130000  1.0 -0.169048657
C  C307  1  0.50750000  0.74780000  0.83940000  1.0 0.0792037777
C  C308  1  0.00750000  0.75220000  0.83940000  1.0 0.0792037777
C  C309  1  0.54730000  0.71310000  0.79340000  1.0 0.0792037777
C  C310  1  0.04730000  0.78690000  0.79340000  1.0 0.0792037777
C  C311  1  0.52260000  0.63180000  0.78330000  1.0 -0.1407036437
C  C312  1  0.02260000  0.86820000  0.78330000  1.0 -0.1407036437
C  C313  1  0.66190000  0.85470000  0.90490000  1.0 0.0907500693
C  C314  1  0.16190000  0.64530000  0.90490000  1.0 0.0907500693
C  C315  1  0.69810000  0.81320000  0.92620000  1.0 -0.169048657
C  C316  1  0.19810000  0.68680000  0.92620000  1.0 -0.169048657
C  C317  1  0.70050000  0.72130000  0.92660000  1.0 0.0689589264
C  C318  1  0.20050000  0.77870000  0.92660000  1.0 0.0689589264
C  C319  1  0.66330000  0.67780000  0.90680000  1.0 -0.1602319115
C  C320  1  0.16330000  0.82220000  0.90680000  1.0 -0.1602319115
C  C321  1  0.62880000  0.72230000  0.88400000  1.0 0.0490038872
C  C322  1  0.12880000  0.77770000  0.88400000  1.0 0.0490038872
C  C323  1  0.74090000  0.67200000  0.94770000  1.0 0.3610206121
C  C324  1  0.24090000  0.82800000  0.94770000  1.0 0.3610206121
C  C325  1  0.80400000  0.66210000  0.99010000  1.0 0.3670055791
C  C326  1  0.30400000  0.83790000  0.99010000  1.0 0.3670055791
C  C327  1  0.77830000  0.54270000  0.95460000  1.0 0.3867898955
C  C328  1  0.27830000  0.95730000  0.95460000  1.0 0.3867898955
C  C329  1  0.77770000  0.44180000  0.94520000  1.0 0.0689589264
C  C330  1  0.27770000  0.05820000  0.94520000  1.0 0.0689589264
C  C331  1  0.80520000  0.38490000  0.96800000  1.0 -0.1602319115
C  C332  1  0.30520000  0.11510000  0.96800000  1.0 -0.1602319115
C  C333  1  0.80210000  0.29280000  0.96060000  1.0 0.100968801
C  C334  1  0.30210000  0.20720000  0.96060000  1.0 0.100968801
C  C335  1  0.74700000  0.32100000  0.90790000  1.0 0.0608817994
C  C336  1  0.24700000  0.17900000  0.90790000  1.0 0.0608817994
C  C337  1  0.74880000  0.41240000  0.91240000  1.0 -0.169048657
C  C338  1  0.24880000  0.08760000  0.91240000  1.0 -0.169048657
C  C339  1  0.83560000  0.70510000  0.02420000  1.0 0.0608817994
C  C340  1  0.33560000  0.79490000  0.02420000  1.0 0.0608817994
C  C341  1  0.83370000  0.79100000  0.02930000  1.0 -0.1299165667
C  C342  1  0.33370000  0.70900000  0.02930000  1.0 -0.1299165667
C  C343  1  0.86120000  0.83160000  0.06170000  1.0 0.0689589264
C  C344  1  0.36120000  0.66840000  0.06170000  1.0 0.0689589264
C  C345  1  0.89570000  0.69780000  0.07850000  1.0 0.1105852373
C  C346  1  0.39570000  0.80220000  0.07850000  1.0 0.1105852373
C  C347  1  0.86720000  0.65430000  0.04680000  1.0 -0.1407036437
C  C348  1  0.36720000  0.84570000  0.04680000  1.0 -0.1407036437
C  C349  1  0.78370000  0.52740000  0.79410000  1.0 -0.169048657
C  C350  1  0.28370000  0.97260000  0.79410000  1.0 -0.169048657
C  C351  1  0.77960000  0.61830000  0.79990000  1.0 -0.1204497425
C  C352  1  0.27960000  0.88170000  0.79990000  1.0 -0.1204497425
C  C353  1  0.74360000  0.65090000  0.81410000  1.0 -0.0908927413
C  C354  1  0.24360000  0.84910000  0.81410000  1.0 -0.0908927413
C  C355  1  0.71170000  0.59260000  0.82260000  1.0 -0.0794477468
C  C356  1  0.21170000  0.90740000  0.82260000  1.0 -0.0794477468
C  C357  1  0.71570000  0.50180000  0.81690000  1.0 -0.0908927413
C  C358  1  0.21570000  0.99820000  0.81690000  1.0 -0.0908927413
C  C359  1  0.75170000  0.46920000  0.80260000  1.0 0.0296624772
C  C360  1  0.25170000  0.03080000  0.80260000  1.0 0.0296624772
C  C361  1  0.78100000  0.49310000  0.26340000  1.0 -0.1516950187
C  C362  1  0.28100000  0.00690000  0.26340000  1.0 -0.1516950187
C  C363  1  0.77860000  0.57980000  0.24940000  1.0 -0.0358883336
C  C364  1  0.27860000  0.92020000  0.24940000  1.0 -0.0358883336
C  C365  1  0.75320000  0.64260000  0.26420000  1.0 -0.0704400094
C  C366  1  0.25320000  0.85740000  0.26420000  1.0 -0.0704400094
C  C367  1  0.73020000  0.61870000  0.29290000  1.0 -0.0512207024
C  C368  1  0.23020000  0.88130000  0.29290000  1.0 -0.0627680012
C  C369  1  0.73260000  0.53200000  0.30690000  1.0 -0.0794477468
C  C370  1  0.23260000  0.96800000  0.30690000  1.0 -0.0794477468
C  C371  1  0.75800000  0.46920000  0.29210000  1.0 -0.0199131219
C  C372  1  0.25800000  0.03080000  0.29210000  1.0 -0.0199131219
C  C373  1  0.24200000  0.47830000  0.31350000  1.0 -0.0794477468
C  C374  1  0.74200000  0.02170000  0.31350000  1.0 -0.0794477468
C  C375  1  0.24000000  0.38670000  0.30830000  1.0 -0.1407036437
C  C376  1  0.74000000  0.11330000  0.30830000  1.0 -0.1407036437
C  C377  1  0.19910000  0.34500000  0.29640000  1.0 -0.0627680012
C  C378  1  0.69910000  0.15500000  0.29640000  1.0 -0.0627680012
C  C379  1  0.16020000  0.39500000  0.28950000  1.0 -0.0794477468
C  C380  1  0.66020000  0.10500000  0.28950000  1.0 -0.0794477468
C  C381  1  0.16220000  0.48700000  0.29470000  1.0 -0.169048657
C  C382  1  0.66220000  0.01300000  0.29470000  1.0 -0.169048657
C  C383  1  0.20310000  0.52830000  0.30660000  1.0 0.0382307344
C  C384  1  0.70310000  0.97170000  0.30660000  1.0 0.0382307344
C  C385  1  0.58100000  0.61400000  0.57300000  1.0 -0.1091342049
C  C386  1  0.08100000  0.88600000  0.57300000  1.0 -0.1091342049
C  C387  1  0.57200000  0.52400000  0.56900000  1.0 -0.1516950187
C  C388  1  0.07200000  0.97600000  0.56900000  1.0 -0.1516950187
C  C389  1  0.60100000  0.46200000  0.58800000  1.0 -0.0512207024
C  C390  1  0.10100000  0.03800000  0.58800000  1.0 -0.0512207024
C  C391  1  0.64100000  0.49000000  0.61200000  1.0 0.0024778062
C  C392  1  0.14100000  0.01000000  0.61200000  1.0 0.0024778062
C  C393  1  0.65000000  0.58000000  0.61600000  1.0 -0.0794477468
C  C394  1  0.15000000  0.92000000  0.61600000  1.0 -0.0794477468
C  C395  1  0.62050000  0.64200000  0.59700000  1.0 0.100968801
C  C396  1  0.12050000  0.85800000  0.59700000  1.0 0.100968801
C  C397  1  0.59000000  0.53800000  0.60300000  1.0 -0.0512207024
C  C398  1  0.09000000  0.96200000  0.60300000  1.0 -0.0512207024
C  C399  1  0.59100000  0.44600000  0.60700000  1.0 -0.0512207024
C  C400  1  0.09100000  0.05400000  0.60700000  1.0 -0.0512207024
C  C401  1  0.63000000  0.40400000  0.62400000  1.0 -0.0512207024
C  C402  1  0.13000000  0.09600000  0.62400000  1.0 -0.0512207024
C  C403  1  0.66900000  0.45400000  0.63700000  1.0 -0.1004357811
C  C404  1  0.16900000  0.04600000  0.63700000  1.0 -0.1004357811
C  C405  1  0.66800000  0.54600000  0.63300000  1.0 -0.0908927413
C  C406  1  0.16800000  0.95400000  0.63300000  1.0 -0.0908927413
C  C407  1  0.62800000  0.58800000  0.61600000  1.0 -0.032290503
C  C408  1  0.12800000  0.91200000  0.61600000  1.0 -0.032290503
I  I1  1  0.48658000  0.33316000  0.88296000  1.0 -0.4173370024
I  I2  1  0.98658000  0.16684000  0.88296000  1.0 -0.4173370024
I  I3  1  0.60034000  0.48258000  0.85130000  1.0 -0.4703252689
I  I4  1  0.10034000  0.01742000  0.85130000  1.0 -0.4703252689
I  I5  1  0.68240000  0.03980000  0.49640000  1.0 -0.032290503
I  I6  1  0.18240000  0.46020000  0.49640000  1.0 -0.032290503
I  I7  1  0.44378000  0.50877000  0.63253000  1.0 -0.0094159519
I  I8  1  0.94378000  0.99123000  0.63253000  1.0 -0.0094159519
I  I9  1  0.08114000  0.51535000  0.36700000  1.0 0.0088461031
I  I10  1  0.58114000  0.98465000  0.36700000  1.0 0.0088461031
I  I11  1  0.96016000  0.48890000  0.12957000  1.0 -0.4341832773
I  I12  1  0.46016000  0.01110000  0.12957000  1.0 -0.4341832773
I  I13  1  0.87222000  0.39912000  0.21269000  1.0 -0.3201333248
I  I14  1  0.37222000  0.10088000  0.21269000  1.0 -0.3201333248
I  I15  1  0.80757000  0.60679000  0.13165000  1.0 -0.4567559661
I  I16  1  0.30757000  0.89321000  0.13165000  1.0 -0.4567559661
I  I17  1  0.70957000  0.53084000  0.02622000  1.0 -0.4491294798
I  I18  1  0.20957000  0.96916000  0.02622000  1.0 -0.4491294798
I  I19  1  0.96670000  0.66800000  0.39787000  1.0 -0.0199131219
I  I20  1  0.46670000  0.83200000  0.39787000  1.0 -0.0199131219
I  I21  1  0.37236000  0.61107000  0.72176000  1.0 0.0608817994
I  I22  1  0.87236000  0.88893000  0.72176000  1.0 0.0608817994
I  I23  1  0.80480000  0.08500000  0.58770000  1.0 -0.032290503
I  I24  1  0.30480000  0.41500000  0.58770000  1.0 -0.032290503
I  I25  1  0.95719000  0.78650000  0.48048000  1.0 -0.0704400094
I  I26  1  0.45719000  0.71350000  0.48048000  1.0 -0.0704400094
I  I27  1  0.94571000  0.88130000  0.54498000  1.0 -0.1798537314
I  I28  1  0.44571000  0.61870000  0.54498000  1.0 -0.1798537314
I  I29  1  0.70770000  0.02070000  0.50990000  1.0 -0.0358883336
I  I30  1  0.20770000  0.47930000  0.50990000  1.0 -0.0358883336
I  I31  1  0.69590000  0.01920000  0.53010000  1.0 -0.1004357811
I  I32  1  0.19590000  0.48080000  0.53010000  1.0 -0.1004357811
I  I33  1  0.47090000  0.49800000  0.62610000  1.0 0.0088461031
I  I34  1  0.97090000  0.00200000  0.62610000  1.0 0.0088461031
I  I35  1  0.10890000  0.50930000  0.34880000  1.0 0.0608817994
I  I36  1  0.60890000  0.99070000  0.34880000  1.0 0.0608817994
I  I37  1  0.81660000  0.22610000  0.19990000  1.0 0.0024778062
I  I38  1  0.31660000  0.27390000  0.19990000  1.0 0.0024778062
I  I39  1  0.77100000  0.07000000  0.17890000  1.0 0.1485876738
I  I40  1  0.27100000  0.43000000  0.17890000  1.0 0.1485876738
I  I41  1  0.99610000  0.65870000  0.38010000  1.0 -0.0048296574
I  I42  1  0.49610000  0.84130000  0.38010000  1.0 -0.0048296574
I  I43  1  0.92480000  0.79900000  0.39150000  1.0 0.0088461031
I  I44  1  0.42480000  0.70100000  0.39150000  1.0 0.0088461031
I  I45  1  0.86250000  0.93300000  0.38250000  1.0 0.0490038872
I  I46  1  0.36250000  0.56700000  0.38250000  1.0 0.0490038872
I  I47  1  0.79810000  0.09450000  0.63110000  1.0 0.0024778062
I  I48  1  0.29810000  0.40550000  0.63110000  1.0 0.0024778062
I  I49  1  0.72840000  0.10530000  0.77870000  1.0 0.0792037777
I  I50  1  0.22840000  0.39470000  0.77870000  1.0 0.0792037777
I  I51  1  0.77530000  0.10070000  0.71960000  1.0 0.0792037777
I  I52  1  0.27530000  0.39930000  0.71960000  1.0 0.0792037777
I  I53  1  0.32790000  0.77800000  0.69390000  1.0 0.0792037777
I  I54  1  0.82790000  0.72200000  0.69390000  1.0 0.0689589264
I  I55  1  0.28300000  0.93500000  0.67290000  1.0 0.1735034621
I  I56  1  0.78300000  0.56500000  0.67290000  1.0 0.1735034621
I  I57  1  0.81530000  0.09880000  0.60670000  1.0 -0.0094159519
I  I58  1  0.31530000  0.40120000  0.60670000  1.0 -0.0094159519
I  I59  1  0.38170000  0.58600000  0.70310000  1.0 0.0088461031
I  I60  1  0.88170000  0.91400000  0.70310000  1.0 0.0088461031
I  I61  1  0.01342000  0.83316000  0.11704000  1.0 -0.4173370024
I  I62  1  0.51342000  0.66684000  0.11704000  1.0 -0.4173370024
I  I63  1  0.89966000  0.98258000  0.14870000  1.0 -0.4703252689
I  I64  1  0.39966000  0.51742000  0.14870000  1.0 -0.4703252689
I  I65  1  0.81760000  0.53980000  0.50360000  1.0 -0.032290503
I  I66  1  0.31760000  0.96020000  0.50360000  1.0 -0.032290503
I  I67  1  0.05622000  0.00877000  0.36747000  1.0 -0.0094159519
I  I68  1  0.55622000  0.49123000  0.36747000  1.0 -0.0094159519
I  I69  1  0.41886000  0.01535000  0.63300000  1.0 0.0088461031
I  I70  1  0.91886000  0.48465000  0.63300000  1.0 0.0088461031
I  I71  1  0.53984000  0.98890000  0.87043000  1.0 -0.4341832773
I  I72  1  0.03984000  0.51110000  0.87043000  1.0 -0.4341832773
I  I73  1  0.62778000  0.89912000  0.78731000  1.0 -0.3201333248
I  I74  1  0.12778000  0.60088000  0.78731000  1.0 -0.3201333248
I  I75  1  0.69243000  0.10679000  0.86835000  1.0 -0.4567559661
I  I76  1  0.19243000  0.39321000  0.86835000  1.0 -0.4567559661
I  I77  1  0.79043000  0.03084000  0.97378000  1.0 -0.4491294798
I  I78  1  0.29043000  0.46916000  0.97378000  1.0 -0.4491294798
I  I79  1  0.53330000  0.16800000  0.60213000  1.0 -0.0199131219
I  I80  1  0.03330000  0.33200000  0.60213000  1.0 -0.0199131219
I  I81  1  0.12764000  0.11107000  0.27824000  1.0 0.0608817994
I  I82  1  0.62764000  0.38893000  0.27824000  1.0 0.0608817994
I  I83  1  0.69520000  0.58500000  0.41230000  1.0 -0.032290503
I  I84  1  0.19520000  0.91500000  0.41230000  1.0 -0.032290503
I  I85  1  0.54281000  0.28650000  0.51952000  1.0 -0.0704400094
I  I86  1  0.04281000  0.21350000  0.51952000  1.0 -0.0704400094
I  I87  1  0.55429000  0.38130000  0.45502000  1.0 -0.1798537314
I  I88  1  0.05429000  0.11870000  0.45502000  1.0 -0.1798537314
I  I89  1  0.79230000  0.52070000  0.49010000  1.0 -0.0358883336
I  I90  1  0.29230000  0.97930000  0.49010000  1.0 -0.0358883336
I  I91  1  0.80410000  0.51920000  0.46990000  1.0 -0.0908927413
I  I92  1  0.30410000  0.98080000  0.46990000  1.0 -0.0908927413
I  I93  1  0.02910000  0.99800000  0.37390000  1.0 0.0088461031
I  I94  1  0.52910000  0.50200000  0.37390000  1.0 0.0088461031
I  I95  1  0.39110000  0.00930000  0.65120000  1.0 0.0608817994
I  I96  1  0.89110000  0.49070000  0.65120000  1.0 0.0608817994
I  I97  1  0.68340000  0.72610000  0.80010000  1.0 0.0024778062
I  I98  1  0.18340000  0.77390000  0.80010000  1.0 0.0024778062
I  I99  1  0.72900000  0.57000000  0.82110000  1.0 0.1485876738
I  I100  1  0.22900000  0.93000000  0.82110000  1.0 0.1485876738
I  I101  1  0.50390000  0.15870000  0.61990000  1.0 -0.0094159519
I  I102  1  0.00390000  0.34130000  0.61990000  1.0 -0.0094159519
I  I103  1  0.57520000  0.29900000  0.60850000  1.0 0.0088461031
I  I104  1  0.07520000  0.20100000  0.60850000  1.0 0.0088461031
I  I105  1  0.63750000  0.43300000  0.61750000  1.0 0.0490038872
I  I106  1  0.13750000  0.06700000  0.61750000  1.0 0.0490038872
I  I107  1  0.70190000  0.59450000  0.36890000  1.0 0.0088461031
I  I108  1  0.20190000  0.90550000  0.36890000  1.0 0.0024778062
I  I109  1  0.77160000  0.60530000  0.22130000  1.0 0.0792037777
I  I110  1  0.27160000  0.89470000  0.22130000  1.0 0.0792037777
I  I111  1  0.72470000  0.60070000  0.28040000  1.0 0.0792037777
I  I112  1  0.22470000  0.89930000  0.28040000  1.0 0.0792037777
I  I113  1  0.17210000  0.27800000  0.30610000  1.0 0.0792037777
I  I114  1  0.67210000  0.22200000  0.30610000  1.0 0.0792037777
I  I115  1  0.21700000  0.43500000  0.32710000  1.0 0.1735034621
I  I116  1  0.71700000  0.06500000  0.32710000  1.0 0.1735034621
I  I117  1  0.68470000  0.59880000  0.39330000  1.0 -0.0094159519
I  I118  1  0.18470000  0.90120000  0.39330000  1.0 -0.0094159519
I  I119  1  0.11830000  0.08600000  0.29690000  1.0 0.0024778062
I  I120  1  0.61830000  0.41400000  0.29690000  1.0 0.0088461031
N  N1  1  0.68770000  0.08700000  0.60140000  1.0 -0.1516950187
N  N2  1  0.18770000  0.41300000  0.60140000  1.0 -0.1516950187
N  N3  1  0.57430000  0.96400000  0.67180000  1.0 -0.3906906957
N  N4  1  0.07430000  0.53600000  0.67180000  1.0 -0.3906906957
N  N5  1  0.53870000  0.01610000  0.72190000  1.0 -0.4491294798
N  N6  1  0.03870000  0.48390000  0.72190000  1.0 -0.4491294798
N  N7  1  0.59900000  0.09670000  0.70670000  1.0 -0.3906906957
N  N8  1  0.09900000  0.40330000  0.70670000  1.0 -0.3906906957
N  N9  1  0.56470000  0.25370000  0.82370000  1.0 -0.1879197405
N  N10  1  0.06470000  0.24630000  0.82370000  1.0 -0.1879197405
N  N11  1  0.45460000  0.73780000  0.67500000  1.0 -0.169048657
N  N12  1  0.95460000  0.76220000  0.67500000  1.0 -0.169048657
N  N13  1  0.36000000  0.70260000  0.62450000  1.0 -0.1996757486
N  N14  1  0.86000000  0.79740000  0.62450000  1.0 -0.1996757486
N  N15  1  0.21640000  0.79310000  0.53620000  1.0 -0.4814303742
N  N16  1  0.71640000  0.70690000  0.53620000  1.0 -0.4814303742
N  N17  1  0.17840000  0.93190000  0.52140000  1.0 -0.4173370024
N  N18  1  0.67840000  0.56810000  0.52140000  1.0 -0.4173370024
N  N19  1  0.24460000  0.92400000  0.56910000  1.0 -0.4173370024
N  N20  1  0.74460000  0.57600000  0.56910000  1.0 -0.4173370024
N  N21  1  0.08810000  0.71980000  0.42830000  1.0 -0.1879197405
N  N22  1  0.58810000  0.78020000  0.42830000  1.0 -0.1879197405
N  N23  1  0.21980000  0.25170000  0.55700000  1.0 -0.1516950187
N  N24  1  0.71980000  0.24830000  0.55700000  1.0 -0.1516950187
N  N25  1  0.04530000  0.74480000  0.33620000  1.0 -0.1407036437
N  N26  1  0.54530000  0.75520000  0.33620000  1.0 -0.1407036437
N  N27  1  0.08990000  0.89120000  0.22060000  1.0 -0.4008807168
N  N28  1  0.58990000  0.60880000  0.22060000  1.0 -0.4008807168
N  N29  1  0.06800000  0.01640000  0.18290000  1.0 -0.4089650737
N  N30  1  0.56800000  0.48360000  0.18290000  1.0 -0.4089650737
N  N31  1  0.02770000  0.97630000  0.23180000  1.0 -0.4173370024
N  N32  1  0.52770000  0.52370000  0.23180000  1.0 -0.4173370024
N  N33  1  0.18580000  0.88970000  0.11870000  1.0 -0.1798537314
N  N34  1  0.68580000  0.61030000  0.11870000  1.0 -0.1798537314
N  N35  1  0.96090000  0.26640000  0.17890000  1.0 -0.1996757486
N  N36  1  0.46090000  0.23360000  0.17890000  1.0 -0.1996757486
N  N37  1  0.87160000  0.31280000  0.11640000  1.0 -0.1798537314
N  N38  1  0.37160000  0.18720000  0.11640000  1.0 -0.1798537314
N  N39  1  0.73060000  0.21110000  0.02710000  1.0 -0.3782819883
N  N40  1  0.23060000  0.28890000  0.02710000  1.0 -0.3782819883
N  N41  1  0.69060000  0.07550000  0.01720000  1.0 -0.4008807168
N  N42  1  0.19060000  0.42450000  0.01720000  1.0 -0.4008807168
N  N43  1  0.75690000  0.08550000  0.06500000  1.0 -0.4491294798
N  N44  1  0.25690000  0.41450000  0.06500000  1.0 -0.4491294798
N  N45  1  0.72580000  0.76340000  0.06950000  1.0 -0.1879197405
N  N46  1  0.22580000  0.73660000  0.06950000  1.0 -0.1879197405
N  N47  1  0.60680000  0.28210000  0.91560000  1.0 -0.1798537314
N  N48  1  0.10680000  0.21790000  0.91560000  1.0 -0.1798537314
N  N49  1  0.74370000  0.87510000  0.20310000  1.0 0.3016090566
N  N50  1  0.24370000  0.62490000  0.20310000  1.0 0.3016090566
N  N51  1  0.73750000  0.88030000  0.69220000  1.0 0.3191068581
N  N52  1  0.23750000  0.61970000  0.69220000  1.0 0.3191068581
N  N53  1  0.29420000  0.12330000  0.68840000  1.0 0.2083576306
N  N54  1  0.79420000  0.37670000  0.68840000  1.0 0.2083576306
N  N55  1  0.86820000  0.23500000  0.40190000  1.0 0.2688071205
N  N56  1  0.36820000  0.26500000  0.40190000  1.0 0.2688071205
N  N57  1  0.87100000  0.18100000  0.39300000  1.0 0.2228755949
N  N58  1  0.37100000  0.31900000  0.39300000  1.0 0.2228755949
N  N59  1  0.81230000  0.58700000  0.39860000  1.0 -0.1516950187
N  N60  1  0.31230000  0.91300000  0.39860000  1.0 -0.1516950187
N  N61  1  0.92570000  0.46400000  0.32820000  1.0 -0.3906906957
N  N62  1  0.42570000  0.03600000  0.32820000  1.0 -0.3906906957
N  N63  1  0.96130000  0.51610000  0.27810000  1.0 -0.4491294798
N  N64  1  0.46130000  0.98390000  0.27810000  1.0 -0.4491294798
N  N65  1  0.90100000  0.59670000  0.29330000  1.0 -0.3906906957
N  N66  1  0.40100000  0.90330000  0.29330000  1.0 -0.3906906957
N  N67  1  0.93530000  0.75370000  0.17630000  1.0 -0.1879197405
N  N68  1  0.43530000  0.74630000  0.17630000  1.0 -0.1879197405
N  N69  1  0.04540000  0.23780000  0.32500000  1.0 -0.169048657
N  N70  1  0.54540000  0.26220000  0.32500000  1.0 -0.169048657
N  N71  1  0.14000000  0.20260000  0.37550000  1.0 -0.1996757486
N  N72  1  0.64000000  0.29740000  0.37550000  1.0 -0.1996757486
N  N73  1  0.28360000  0.29310000  0.46380000  1.0 -0.4814303742
N  N74  1  0.78360000  0.20690000  0.46380000  1.0 -0.4814303742
N  N75  1  0.32160000  0.43190000  0.47860000  1.0 -0.4173370024
N  N76  1  0.82160000  0.06810000  0.47860000  1.0 -0.4173370024
N  N77  1  0.25540000  0.42400000  0.43090000  1.0 -0.4173370024
N  N78  1  0.75540000  0.07600000  0.43090000  1.0 -0.4173370024
N  N79  1  0.41190000  0.21980000  0.57170000  1.0 -0.1798537314
N  N80  1  0.91190000  0.28020000  0.57170000  1.0 -0.1798537314
N  N81  1  0.28020000  0.75170000  0.44300000  1.0 -0.1516950187
N  N82  1  0.78020000  0.74830000  0.44300000  1.0 -0.1516950187
N  N83  1  0.45470000  0.24480000  0.66380000  1.0 -0.1407036437
N  N84  1  0.95470000  0.25520000  0.66380000  1.0 -0.1407036437
N  N85  1  0.41010000  0.39120000  0.77940000  1.0 -0.4008807168
N  N86  1  0.91010000  0.10880000  0.77940000  1.0 -0.4008807168
N  N87  1  0.43200000  0.51640000  0.81710000  1.0 -0.4089650737
N  N88  1  0.93200000  0.98360000  0.81710000  1.0 -0.4089650737
N  N89  1  0.47230000  0.47630000  0.76820000  1.0 -0.4173370024
N  N90  1  0.97230000  0.02370000  0.76820000  1.0 -0.4173370024
N  N91  1  0.31420000  0.38970000  0.88130000  1.0 -0.1798537314
N  N92  1  0.81420000  0.11030000  0.88130000  1.0 -0.1798537314
N  N93  1  0.53910000  0.76640000  0.82110000  1.0 -0.1996757486
N  N94  1  0.03910000  0.73360000  0.82110000  1.0 -0.1996757486
N  N95  1  0.62840000  0.81280000  0.88360000  1.0 -0.1798537314
N  N96  1  0.12840000  0.68720000  0.88360000  1.0 -0.1798537314
N  N97  1  0.76940000  0.71110000  0.97290000  1.0 -0.3782819883
N  N98  1  0.26940000  0.78890000  0.97290000  1.0 -0.3782819883
N  N99  1  0.80940000  0.57550000  0.98280000  1.0 -0.4008807168
N  N100  1  0.30940000  0.92450000  0.98280000  1.0 -0.4008807168
N  N101  1  0.74310000  0.58550000  0.93500000  1.0 -0.4491294798
N  N102  1  0.24310000  0.91450000  0.93500000  1.0 -0.4491294798
N  N103  1  0.77420000  0.26340000  0.93050000  1.0 -0.1879197405
N  N104  1  0.27420000  0.23660000  0.93050000  1.0 -0.1879197405
N  N105  1  0.89320000  0.78210000  0.08440000  1.0 -0.1798537314
N  N106  1  0.39320000  0.71790000  0.08440000  1.0 -0.1798537314
N  N107  1  0.75630000  0.37510000  0.79690000  1.0 0.3097820772
N  N108  1  0.25630000  0.12490000  0.79690000  1.0 0.3016090566
N  N109  1  0.76250000  0.38030000  0.30780000  1.0 0.3191068581
N  N110  1  0.26250000  0.11970000  0.30780000  1.0 0.3191068581
N  N111  1  0.20580000  0.62330000  0.31160000  1.0 0.2083576306
N  N112  1  0.70580000  0.87670000  0.31160000  1.0 0.2083576306
N  N113  1  0.63180000  0.73500000  0.59810000  1.0 0.2688071205
N  N114  1  0.13180000  0.76500000  0.59810000  1.0 0.2688071205
N  N115  1  0.62900000  0.68100000  0.60700000  1.0 0.2228755949
N  N116  1  0.12900000  0.81900000  0.60700000  1.0 0.2228755949
O  O1  1  0.76970000  0.82780000  0.19070000  1.0 -0.3088281119
O  O2  1  0.26970000  0.67220000  0.19070000  1.0 -0.3088281119
O  O3  1  0.71740000  0.85100000  0.22240000  1.0 -0.2853209005
O  O4  1  0.21740000  0.64900000  0.22240000  1.0 -0.2827159192
O  O5  1  0.71390000  0.83070000  0.70650000  1.0 -0.3201333248
O  O6  1  0.21390000  0.66930000  0.70650000  1.0 -0.3201333248
O  O7  1  0.74610000  0.87000000  0.66020000  1.0 -0.3088281119
O  O8  1  0.24610000  0.63000000  0.66020000  1.0 -0.3088281119
O  O9  1  0.32870000  0.16400000  0.69750000  1.0 -0.2827159192
O  O10  1  0.82870000  0.33600000  0.69750000  1.0 -0.2827159192
O  O11  1  0.25720000  0.15600000  0.68100000  1.0 -0.2987518833
O  O12  1  0.75720000  0.34400000  0.68100000  1.0 -0.2987518833
O  O13  1  0.83480000  0.25500000  0.37800000  1.0 -0.1407036437
O  O14  1  0.33480000  0.24500000  0.37800000  1.0 -0.1407036437
O  O15  1  0.89800000  0.28700000  0.41400000  1.0 -0.1091342049
O  O16  1  0.39800000  0.21300000  0.41400000  1.0 -0.1091342049
O  O17  1  0.83500000  0.21200000  0.39600000  1.0 -0.0358883336
O  O18  1  0.33500000  0.28800000  0.39600000  1.0 -0.0358883336
O  O19  1  0.90700000  0.21600000  0.40700000  1.0 0.0608817994
O  O20  1  0.40700000  0.28400000  0.40700000  1.0 0.0608817994
O  O21  1  0.73030000  0.32780000  0.80930000  1.0 -0.3088281119
O  O22  1  0.23030000  0.17220000  0.80930000  1.0 -0.3088281119
O  O23  1  0.78260000  0.35100000  0.77760000  1.0 -0.2853209005
O  O24  1  0.28260000  0.14900000  0.77760000  1.0 -0.2827159192
O  O25  1  0.78610000  0.33070000  0.29350000  1.0 -0.3201333248
O  O26  1  0.28610000  0.16930000  0.29350000  1.0 -0.3201333248
O  O27  1  0.75390000  0.37000000  0.33980000  1.0 -0.3088281119
O  O28  1  0.25390000  0.13000000  0.33980000  1.0 -0.3088281119
O  O29  1  0.17130000  0.66400000  0.30250000  1.0 -0.2827159192
O  O30  1  0.67130000  0.83600000  0.30250000  1.0 -0.2827159192
O  O31  1  0.24280000  0.65600000  0.31900000  1.0 -0.2987518833
O  O32  1  0.74280000  0.84400000  0.31900000  1.0 -0.2987518833
O  O33  1  0.66520000  0.75500000  0.62200000  1.0 -0.1407036437
O  O34  1  0.16520000  0.74500000  0.62200000  1.0 -0.1407036437
O  O35  1  0.60200000  0.78700000  0.58600000  1.0 -0.1091342049
O  O36  1  0.10200000  0.71300000  0.58600000  1.0 -0.1091342049
O  O37  1  0.66500000  0.71200000  0.60400000  1.0 -0.0358883336
O  O38  1  0.16500000  0.78800000  0.60400000  1.0 -0.0358883336
O  O39  1  0.59300000  0.71600000  0.59300000  1.0 0.0608817994
O  O40  1  0.09300000  0.78400000  0.59300000  1.0 0.0608817994
