# DDEC6 charges by PACMAN v1.1 (https://github.com/mtap-research/PACMAN-charge/)
data_FAVDEO_FSR_pacman
_symmetry_space_group_name_H-M   'P 1'
_cell_length_a   30.56540000
_cell_length_b   15.00480000
_cell_length_c   35.04700000
_cell_angle_alpha   90.00000000
_cell_angle_beta   101.46400000
_cell_angle_gamma   90.00000000
_symmetry_Int_Tables_number   1
_chemical_formula_structural   Zn11H48C72(I11N8)3
_chemical_formula_sum   'Zn44 H192 C288 I132 N96'
_cell_volume   15752.85508391
_cell_formula_units_Z   4
loop_
 _symmetry_equiv_pos_site_id
 _symmetry_equiv_pos_as_xyz
  1  'x, y, z'
loop_
 _atom_site_type_symbol
 _atom_site_label
 _atom_site_symmetry_multiplicity
 _atom_site_fract_x
 _atom_site_fract_y
 _atom_site_fract_z
 _atom_site_occupancy
 _atom_site_charge
Zn  Zn1  1  0.58259000  0.87445000  0.33881000  1.0 0.2316308568
Zn  Zn2  1  0.91741000  0.37445000  0.66119000  1.0 0.2316308568
Zn  Zn3  1  0.41741000  0.12555000  0.66119000  1.0 0.2316308568
Zn  Zn4  1  0.08259000  0.62555000  0.33881000  1.0 0.2316308568
Zn  Zn5  1  0.76777000  0.13096000  0.41366000  1.0 0.4284831366
Zn  Zn6  1  0.73223000  0.63096000  0.58634000  1.0 0.4284831366
Zn  Zn7  1  0.23223000  0.86904000  0.58634000  1.0 0.4284831366
Zn  Zn8  1  0.26777000  0.36904000  0.41366000  1.0 0.4284831366
Zn  Zn9  1  0.93596000  0.84120000  0.63099000  1.0 0.4403265274
Zn  Zn10  1  0.56404000  0.34120000  0.36901000  1.0 0.4403265274
Zn  Zn11  1  0.06404000  0.15880000  0.36901000  1.0 0.4403265274
Zn  Zn12  1  0.43596000  0.65880000  0.63099000  1.0 0.4403265274
Zn  Zn13  1  0.76960000  0.61330000  0.93600000  1.0 -0.0094353498
Zn  Zn14  1  0.73040000  0.11330000  0.06400000  1.0 -0.0094353498
Zn  Zn15  1  0.23040000  0.38670000  0.06400000  1.0 -0.0094353498
Zn  Zn16  1  0.26960000  0.88670000  0.93600000  1.0 -0.0094353498
Zn  Zn17  1  0.09330000  0.13300000  0.83612000  1.0 0.3979441604
Zn  Zn18  1  0.40670000  0.63300000  0.16388000  1.0 0.3979441604
Zn  Zn19  1  0.90670000  0.86700000  0.16388000  1.0 0.3979441604
Zn  Zn20  1  0.59330000  0.36700000  0.83612000  1.0 0.3979441604
Zn  Zn21  1  0.45644000  0.16070000  0.11555000  1.0 0.2316308568
Zn  Zn22  1  0.04356000  0.66070000  0.88445000  1.0 0.2316308568
Zn  Zn23  1  0.54356000  0.83930000  0.88445000  1.0 0.2316308568
Zn  Zn24  1  0.95644000  0.33930000  0.11555000  1.0 0.2316308568
Zn  Zn25  1  0.44430000  0.14850000  0.12330000  1.0 0.2193689725
Zn  Zn26  1  0.05570000  0.64850000  0.87670000  1.0 0.2193689725
Zn  Zn27  1  0.55570000  0.85150000  0.87670000  1.0 0.2193689725
Zn  Zn28  1  0.94430000  0.35150000  0.12330000  1.0 0.2193689725
Zn  Zn29  1  0.59760000  0.89200000  0.31930000  1.0 -0.0797829638
Zn  Zn30  1  0.90240000  0.39200000  0.68070000  1.0 -0.0797829638
Zn  Zn31  1  0.40240000  0.10800000  0.68070000  1.0 -0.0797829638
Zn  Zn32  1  0.09760000  0.60800000  0.31930000  1.0 -0.0797829638
Zn  Zn33  1  0.08700000  0.14590000  0.84010000  1.0 0.4518041914
Zn  Zn34  1  0.41300000  0.64590000  0.15990000  1.0 0.4518041914
Zn  Zn35  1  0.91300000  0.85410000  0.15990000  1.0 0.4518041914
Zn  Zn36  1  0.58700000  0.35410000  0.84010000  1.0 0.4518041914
Zn  Zn37  1  0.78790000  0.60350000  0.94590000  1.0 -0.03297882
Zn  Zn38  1  0.71210000  0.10350000  0.05410000  1.0 -0.03297882
Zn  Zn39  1  0.21210000  0.39650000  0.05410000  1.0 -0.0396979447
Zn  Zn40  1  0.28790000  0.89650000  0.94590000  1.0 -0.03297882
Zn  Zn41  1  0.77070000  0.61190000  0.91910000  1.0 0.050638706
Zn  Zn42  1  0.72930000  0.11190000  0.08090000  1.0 0.0404720121
Zn  Zn43  1  0.22930000  0.38810000  0.08090000  1.0 0.050638706
Zn  Zn44  1  0.27070000  0.88810000  0.91910000  1.0 0.050638706
H  H1  1  0.66550000  0.61520000  0.40730000  1.0 0.1087778564
H  H2  1  0.83450000  0.11520000  0.59270000  1.0 0.1208803493
H  H3  1  0.33450000  0.38480000  0.59270000  1.0 0.1208803493
H  H4  1  0.16550000  0.88480000  0.40730000  1.0 0.1208803493
H  H5  1  0.60320000  0.69170000  0.36910000  1.0 0.0775776291
H  H6  1  0.89680000  0.19170000  0.63090000  1.0 0.0775776291
H  H7  1  0.39680000  0.30830000  0.63090000  1.0 0.0775776291
H  H8  1  0.10320000  0.80830000  0.36910000  1.0 0.0775776291
H  H9  1  0.66200000  0.91740000  0.40300000  1.0 0.0890193122
H  H10  1  0.83800000  0.41740000  0.59700000  1.0 0.0890193122
H  H11  1  0.33800000  0.08260000  0.59700000  1.0 0.0890193122
H  H12  1  0.16200000  0.58260000  0.40300000  1.0 0.0890193122
H  H13  1  0.72130000  0.84860000  0.44040000  1.0 0.1208803493
H  H14  1  0.77870000  0.34860000  0.55960000  1.0 0.1208803493
H  H15  1  0.27870000  0.15140000  0.55960000  1.0 0.1208803493
H  H16  1  0.22130000  0.65140000  0.44040000  1.0 0.1208803493
H  H17  1  0.81370000  0.82970000  0.51120000  1.0 0.1208803493
H  H18  1  0.68630000  0.32970000  0.48880000  1.0 0.1208803493
H  H19  1  0.18630000  0.17030000  0.48880000  1.0 0.1208803493
H  H20  1  0.31370000  0.67030000  0.51120000  1.0 0.1208803493
H  H21  1  0.86030000  0.89390000  0.56490000  1.0 0.0979235024
H  H22  1  0.63970000  0.39390000  0.43510000  1.0 0.0979235024
H  H23  1  0.13970000  0.10610000  0.43510000  1.0 0.0979235024
H  H24  1  0.36030000  0.60610000  0.56490000  1.0 0.0979235024
H  H25  1  0.91680000  0.66250000  0.59560000  1.0 0.0775776291
H  H26  1  0.58320000  0.16250000  0.40440000  1.0 0.0775776291
H  H27  1  0.08320000  0.33750000  0.40440000  1.0 0.0775776291
H  H28  1  0.41680000  0.83750000  0.59560000  1.0 0.0775776291
H  H29  1  0.86970000  0.59430000  0.54360000  1.0 0.1279422725
H  H30  1  0.63030000  0.09430000  0.45640000  1.0 0.1279422725
H  H31  1  0.13030000  0.40570000  0.45640000  1.0 0.1279422725
H  H32  1  0.36970000  0.90570000  0.54360000  1.0 0.1279422725
H  H33  1  0.82760000  0.40610000  0.49000000  1.0 0.1279422725
H  H34  1  0.67240000  0.90610000  0.51000000  1.0 0.1279422725
H  H35  1  0.17240000  0.59390000  0.51000000  1.0 0.1279422725
H  H36  1  0.32760000  0.09390000  0.49000000  1.0 0.1279422725
H  H37  1  0.82080000  0.25520000  0.47590000  1.0 0.0979235024
H  H38  1  0.67920000  0.75520000  0.52410000  1.0 0.0979235024
H  H39  1  0.17920000  0.74480000  0.52410000  1.0 0.0979235024
H  H40  1  0.32080000  0.24480000  0.47590000  1.0 0.0979235024
H  H41  1  0.72920000  0.30050000  0.38420000  1.0 0.0890193122
H  H42  1  0.77080000  0.80050000  0.61580000  1.0 0.0890193122
H  H43  1  0.27080000  0.69950000  0.61580000  1.0 0.0890193122
H  H44  1  0.22920000  0.19950000  0.38420000  1.0 0.0890193122
H  H45  1  0.72840000  0.45220000  0.39920000  1.0 0.1208803493
H  H46  1  0.77160000  0.95220000  0.60080000  1.0 0.1208803493
H  H47  1  0.27160000  0.54780000  0.60080000  1.0 0.1208803493
H  H48  1  0.22840000  0.04780000  0.39920000  1.0 0.1208803493
H  H49  1  0.38170000  0.31870000  0.21120000  1.0 0.1208803493
H  H50  1  0.11830000  0.81870000  0.78880000  1.0 0.1208803493
H  H51  1  0.61830000  0.68130000  0.78880000  1.0 0.1208803493
H  H52  1  0.88170000  0.18130000  0.21120000  1.0 0.1208803493
H  H53  1  0.38970000  0.22180000  0.16030000  1.0 0.0775776291
H  H54  1  0.11030000  0.72180000  0.83970000  1.0 0.0775776291
H  H55  1  0.61030000  0.77820000  0.83970000  1.0 0.0775776291
H  H56  1  0.88970000  0.27820000  0.16030000  1.0 0.0775776291
H  H57  1  0.51780000  0.27550000  0.17600000  1.0 0.0775776291
H  H58  1  0.98220000  0.77550000  0.82400000  1.0 0.0775776291
H  H59  1  0.48220000  0.72450000  0.82400000  1.0 0.0775776291
H  H60  1  0.01780000  0.22450000  0.17600000  1.0 0.0775776291
H  H61  1  0.51270000  0.37340000  0.22560000  1.0 0.1279422725
H  H62  1  0.98730000  0.87340000  0.77440000  1.0 0.1279422725
H  H63  1  0.48730000  0.62660000  0.77440000  1.0 0.1279422725
H  H64  1  0.01270000  0.12660000  0.22560000  1.0 0.1279422725
H  H65  1  0.52890000  0.59370000  0.26540000  1.0 0.1279422725
H  H66  1  0.97110000  0.09370000  0.73460000  1.0 0.1279422725
H  H67  1  0.47110000  0.40630000  0.73460000  1.0 0.1279422725
H  H68  1  0.02890000  0.90630000  0.26540000  1.0 0.1279422725
H  H69  1  0.56970000  0.72930000  0.27750000  1.0 0.0775776291
H  H70  1  0.93030000  0.22930000  0.72250000  1.0 0.0775776291
H  H71  1  0.43030000  0.27070000  0.72250000  1.0 0.0775776291
H  H72  1  0.06970000  0.77070000  0.27750000  1.0 0.0775776291
H  H73  1  0.50040000  0.79230000  0.35670000  1.0 0.0890193122
H  H74  1  0.99960000  0.29230000  0.64330000  1.0 0.0890193122
H  H75  1  0.49960000  0.20770000  0.64330000  1.0 0.0890193122
H  H76  1  0.00040000  0.70770000  0.35670000  1.0 0.0890193122
H  H77  1  0.45720000  0.66490000  0.34380000  1.0 0.1279422725
H  H78  1  0.04280000  0.16490000  0.65620000  1.0 0.1279422725
H  H79  1  0.54280000  0.33510000  0.65620000  1.0 0.1279422725
H  H80  1  0.95720000  0.83510000  0.34380000  1.0 0.1279422725
H  H81  1  0.40230000  0.50430000  0.37690000  1.0 0.1208803493
H  H82  1  0.09770000  0.00430000  0.62310000  1.0 0.1208803493
H  H83  1  0.59770000  0.49570000  0.62310000  1.0 0.1208803493
H  H84  1  0.90230000  0.99570000  0.37690000  1.0 0.1208803493
H  H85  1  0.35270000  0.47180000  0.41600000  1.0 0.0979235024
H  H86  1  0.14730000  0.97180000  0.58400000  1.0 0.0979235024
H  H87  1  0.64730000  0.52820000  0.58400000  1.0 0.0979235024
H  H88  1  0.85270000  0.02820000  0.41600000  1.0 0.0979235024
H  H89  1  0.28590000  0.31080000  0.33700000  1.0 0.0979235024
H  H90  1  0.21410000  0.81080000  0.66300000  1.0 0.0979235024
H  H91  1  0.71410000  0.68920000  0.66300000  1.0 0.0979235024
H  H92  1  0.78590000  0.18920000  0.33700000  1.0 0.0979235024
H  H93  1  0.33720000  0.32970000  0.29660000  1.0 0.1208803493
H  H94  1  0.16280000  0.82970000  0.70340000  1.0 0.1208803493
H  H95  1  0.66280000  0.67030000  0.70340000  1.0 0.1208803493
H  H96  1  0.83720000  0.17030000  0.29660000  1.0 0.1208803493
H  H97  1  0.87960000  0.43770000  0.87750000  1.0 0.1208803493
H  H98  1  0.62040000  0.93770000  0.12250000  1.0 0.1208803493
H  H99  1  0.12040000  0.56230000  0.12250000  1.0 0.1208803493
H  H100  1  0.37960000  0.06230000  0.87750000  1.0 0.1208803493
H  H101  1  0.83150000  0.46800000  0.91710000  1.0 0.0890193122
H  H102  1  0.66850000  0.96800000  0.08290000  1.0 0.0890193122
H  H103  1  0.16850000  0.53200000  0.08290000  1.0 0.0890193122
H  H104  1  0.33150000  0.03200000  0.91710000  1.0 0.0890193122
H  H105  1  0.80490000  0.69700000  0.86960000  1.0 0.0979235024
H  H106  1  0.69510000  0.19700000  0.13040000  1.0 0.0979235024
H  H107  1  0.19510000  0.30300000  0.13040000  1.0 0.0979235024
H  H108  1  0.30490000  0.80300000  0.86960000  1.0 0.0979235024
H  H109  1  0.84960000  0.67520000  0.82570000  1.0 0.1087778564
H  H110  1  0.65040000  0.17520000  0.17430000  1.0 0.1087778564
H  H111  1  0.15040000  0.32480000  0.17430000  1.0 0.1087778564
H  H112  1  0.34960000  0.82480000  0.82570000  1.0 0.1087778564
H  H113  1  0.87560000  0.70010000  0.73900000  1.0 0.1279422725
H  H114  1  0.62440000  0.20010000  0.26100000  1.0 0.1279422725
H  H115  1  0.12440000  0.29990000  0.26100000  1.0 0.1279422725
H  H116  1  0.37560000  0.79990000  0.73900000  1.0 0.1279422725
H  H117  1  0.87840000  0.79390000  0.68580000  1.0 0.0890193122
H  H118  1  0.62160000  0.29390000  0.31420000  1.0 0.0890193122
H  H119  1  0.12160000  0.20610000  0.31420000  1.0 0.0890193122
H  H120  1  0.37840000  0.70610000  0.68580000  1.0 0.0890193122
H  H121  1  0.99610000  0.70430000  0.67720000  1.0 0.0775776291
H  H122  1  0.50390000  0.20430000  0.32280000  1.0 0.0775776291
H  H123  1  0.00390000  0.29570000  0.32280000  1.0 0.0775776291
H  H124  1  0.49610000  0.79570000  0.67720000  1.0 0.0775776291
H  H125  1  0.99660000  0.60710000  0.73150000  1.0 0.1279422725
H  H126  1  0.50340000  0.10710000  0.26850000  1.0 0.1279422725
H  H127  1  0.00340000  0.39290000  0.26850000  1.0 0.1279422725
H  H128  1  0.49660000  0.89290000  0.73150000  1.0 0.1279422725
H  H129  1  0.00630000  0.38270000  0.75930000  1.0 0.1279422725
H  H130  1  0.49370000  0.88270000  0.24070000  1.0 0.1279422725
H  H131  1  0.99370000  0.61730000  0.24070000  1.0 0.1279422725
H  H132  1  0.50630000  0.11730000  0.75930000  1.0 0.1279422725
H  H133  1  0.05970000  0.27250000  0.77160000  1.0 0.0775776291
H  H134  1  0.44030000  0.77250000  0.22840000  1.0 0.0775776291
H  H135  1  0.94030000  0.72750000  0.22840000  1.0 0.0775776291
H  H136  1  0.55970000  0.22750000  0.77160000  1.0 0.0775776291
H  H137  1  0.02630000  0.23090000  0.87500000  1.0 0.0775776291
H  H138  1  0.47370000  0.73090000  0.12500000  1.0 0.0775776291
H  H139  1  0.97370000  0.76910000  0.12500000  1.0 0.0775776291
H  H140  1  0.52630000  0.26910000  0.87500000  1.0 0.0775776291
H  H141  1  0.97650000  0.34270000  0.86330000  1.0 0.1366207009
H  H142  1  0.52350000  0.84270000  0.13670000  1.0 0.1366207009
H  H143  1  0.02350000  0.65730000  0.13670000  1.0 0.1366207009
H  H144  1  0.47650000  0.15730000  0.86330000  1.0 0.1366207009
H  H145  1  0.73070000  0.33040000  0.93970000  1.0 0.1279422725
H  H146  1  0.76930000  0.83040000  0.06030000  1.0 0.1279422725
H  H147  1  0.26930000  0.66960000  0.06030000  1.0 0.1279422725
H  H148  1  0.23070000  0.16960000  0.93970000  1.0 0.1279422725
H  H149  1  0.66560000  0.40100000  0.90730000  1.0 0.0711735041
H  H150  1  0.83440000  0.90100000  0.09270000  1.0 0.0711735041
H  H151  1  0.33440000  0.59900000  0.09270000  1.0 0.0711735041
H  H152  1  0.16560000  0.09900000  0.90730000  1.0 0.0711735041
H  H153  1  0.62140000  0.17760000  0.85720000  1.0 0.0711735041
H  H154  1  0.87860000  0.67760000  0.14280000  1.0 0.0711735041
H  H155  1  0.37860000  0.82240000  0.14280000  1.0 0.0711735041
H  H156  1  0.12140000  0.32240000  0.85720000  1.0 0.0711735041
H  H157  1  0.67780000  0.10420000  0.89530000  1.0 0.0979235024
H  H158  1  0.82220000  0.60420000  0.10470000  1.0 0.0979235024
H  H159  1  0.32220000  0.89580000  0.10470000  1.0 0.0979235024
H  H160  1  0.17780000  0.39580000  0.89530000  1.0 0.0979235024
H  H161  1  0.73060000  0.92610000  0.90720000  1.0 0.1208803493
H  H162  1  0.76940000  0.42610000  0.09280000  1.0 0.1208803493
H  H163  1  0.26940000  0.07390000  0.09280000  1.0 0.1208803493
H  H164  1  0.23060000  0.57390000  0.90720000  1.0 0.1208803493
H  H165  1  0.72780000  0.77080000  0.90520000  1.0 0.0711735041
H  H166  1  0.77220000  0.27080000  0.09480000  1.0 0.0711735041
H  H167  1  0.27220000  0.22920000  0.09480000  1.0 0.0711735041
H  H168  1  0.22780000  0.72920000  0.90520000  1.0 0.0711735041
H  H169  1  0.83530000  0.74450000  0.98390000  1.0 0.0711735041
H  H170  1  0.66470000  0.24450000  0.01610000  1.0 0.0711735041
H  H171  1  0.16470000  0.25550000  0.01610000  1.0 0.0711735041
H  H172  1  0.33530000  0.75550000  0.98390000  1.0 0.0711735041
H  H173  1  0.84220000  0.89850000  0.99070000  1.0 0.1087778564
H  H174  1  0.65780000  0.39850000  0.00930000  1.0 0.1087778564
H  H175  1  0.15780000  0.10150000  0.00930000  1.0 0.1087778564
H  H176  1  0.34220000  0.60150000  0.99070000  1.0 0.1087778564
H  H177  1  0.89450000  0.09500000  0.02580000  1.0 0.0979235024
H  H178  1  0.60550000  0.59500000  0.97420000  1.0 0.0979235024
H  H179  1  0.10550000  0.90500000  0.97420000  1.0 0.0979235024
H  H180  1  0.39450000  0.40500000  0.02580000  1.0 0.0979235024
H  H181  1  0.94150000  0.16710000  0.07390000  1.0 0.0775776291
H  H182  1  0.55850000  0.66710000  0.92610000  1.0 0.0711735041
H  H183  1  0.05850000  0.83290000  0.92610000  1.0 0.0775776291
H  H184  1  0.44150000  0.33290000  0.07390000  1.0 0.0775776291
H  H185  1  0.87250000  0.38850000  0.05850000  1.0 0.050638706
H  H186  1  0.62750000  0.88850000  0.94150000  1.0 0.050638706
H  H187  1  0.12750000  0.61150000  0.94150000  1.0 0.050638706
H  H188  1  0.37250000  0.11150000  0.05850000  1.0 0.050638706
H  H189  1  0.81910000  0.31620000  0.00960000  1.0 0.1208803493
H  H190  1  0.68090000  0.81620000  0.99040000  1.0 0.1208803493
H  H191  1  0.18090000  0.68380000  0.99040000  1.0 0.1208803493
H  H192  1  0.31910000  0.18380000  0.00960000  1.0 0.1208803493
C  C1  1  0.74110000  0.67130000  0.44570000  1.0 0.3678600744
C  C2  1  0.75890000  0.17130000  0.55430000  1.0 0.3678600744
C  C3  1  0.25890000  0.32870000  0.55430000  1.0 0.3678600744
C  C4  1  0.24110000  0.82870000  0.44570000  1.0 0.3678600744
C  C5  1  0.80370000  0.66270000  0.49090000  1.0 0.3678600744
C  C6  1  0.69630000  0.16270000  0.50910000  1.0 0.3678600744
C  C7  1  0.19630000  0.33730000  0.50910000  1.0 0.3678600744
C  C8  1  0.30370000  0.83730000  0.49090000  1.0 0.3678600744
C  C9  1  0.77770000  0.54170000  0.45540000  1.0 0.3594937032
C  C10  1  0.72230000  0.04170000  0.54460000  1.0 0.3594937032
C  C11  1  0.22230000  0.45830000  0.54460000  1.0 0.3594937032
C  C12  1  0.27770000  0.95830000  0.45540000  1.0 0.3594937032
C  C13  1  0.70040000  0.72350000  0.42570000  1.0 0.0404720121
C  C14  1  0.79960000  0.22350000  0.57430000  1.0 0.0404720121
C  C15  1  0.29960000  0.27650000  0.57430000  1.0 0.0404720121
C  C16  1  0.20040000  0.77650000  0.42570000  1.0 0.0404720121
C  C17  1  0.66560000  0.67850000  0.40610000  1.0 -0.1591427647
C  C18  1  0.83440000  0.17850000  0.59390000  1.0 -0.1591427647
C  C19  1  0.33440000  0.32150000  0.59390000  1.0 -0.1591427647
C  C20  1  0.16560000  0.82150000  0.40610000  1.0 -0.1591427647
C  C21  1  0.62800000  0.72430000  0.38290000  1.0 0.0775776291
C  C22  1  0.87200000  0.22430000  0.61710000  1.0 0.0775776291
C  C23  1  0.37200000  0.27570000  0.61710000  1.0 0.0775776291
C  C24  1  0.12800000  0.77570000  0.38290000  1.0 0.0711735041
C  C25  1  0.66270000  0.85410000  0.40310000  1.0 0.0288501547
C  C26  1  0.83730000  0.35410000  0.59690000  1.0 0.0288501547
C  C27  1  0.33730000  0.14590000  0.59690000  1.0 0.0288501547
C  C28  1  0.16270000  0.64590000  0.40310000  1.0 0.0288501547
C  C29  1  0.69810000  0.81410000  0.42520000  1.0 -0.1591427647
C  C30  1  0.80190000  0.31410000  0.57480000  1.0 -0.1591427647
C  C31  1  0.30190000  0.18590000  0.57480000  1.0 -0.1591427647
C  C32  1  0.19810000  0.68590000  0.42520000  1.0 -0.1591427647
C  C33  1  0.83700000  0.70560000  0.52310000  1.0 0.050638706
C  C34  1  0.66300000  0.20560000  0.47690000  1.0 0.050638706
C  C35  1  0.16300000  0.29440000  0.47690000  1.0 0.050638706
C  C36  1  0.33700000  0.79440000  0.52310000  1.0 0.050638706
C  C37  1  0.83440000  0.79420000  0.52860000  1.0 -0.1503567783
C  C38  1  0.66560000  0.29420000  0.47140000  1.0 -0.1503567783
C  C39  1  0.16560000  0.20580000  0.47140000  1.0 -0.1503567783
C  C40  1  0.33440000  0.70580000  0.52860000  1.0 -0.1503567783
C  C41  1  0.86280000  0.83200000  0.56010000  1.0 0.0595597572
C  C42  1  0.63720000  0.33200000  0.43990000  1.0 0.0595597572
C  C43  1  0.13720000  0.16800000  0.43990000  1.0 0.0595597572
C  C44  1  0.36280000  0.66800000  0.56010000  1.0 0.0595597572
C  C45  1  0.89570000  0.69760000  0.57840000  1.0 0.0775776291
C  C46  1  0.60430000  0.19760000  0.42160000  1.0 0.0775776291
C  C47  1  0.10430000  0.30240000  0.42160000  1.0 0.0775776291
C  C48  1  0.39570000  0.80240000  0.57840000  1.0 0.0775776291
C  C49  1  0.86750000  0.65660000  0.54750000  1.0 -0.1503567783
C  C50  1  0.63250000  0.15660000  0.45250000  1.0 -0.1503567783
C  C51  1  0.13250000  0.34340000  0.45250000  1.0 -0.1503567783
C  C52  1  0.36750000  0.84340000  0.54750000  1.0 -0.1503567783
C  C53  1  0.77680000  0.44330000  0.44580000  1.0 0.0595597572
C  C54  1  0.72320000  0.94330000  0.55420000  1.0 0.0595597572
C  C55  1  0.22320000  0.55670000  0.55420000  1.0 0.0595597572
C  C56  1  0.27680000  0.05670000  0.44580000  1.0 0.0595597572
C  C57  1  0.80580000  0.38520000  0.46870000  1.0 -0.1770002791
C  C58  1  0.69420000  0.88520000  0.53130000  1.0 -0.1770002791
C  C59  1  0.19420000  0.61480000  0.53130000  1.0 -0.1770002791
C  C60  1  0.30580000  0.11480000  0.46870000  1.0 -0.1770002791
C  C61  1  0.80210000  0.29610000  0.45950000  1.0 0.050638706
C  C62  1  0.69790000  0.79610000  0.54050000  1.0 0.050638706
C  C63  1  0.19790000  0.70390000  0.54050000  1.0 0.050638706
C  C64  1  0.30210000  0.20390000  0.45950000  1.0 0.050638706
C  C65  1  0.74850000  0.32160000  0.40700000  1.0 0.0711735041
C  C66  1  0.75150000  0.82160000  0.59300000  1.0 0.0711735041
C  C67  1  0.25150000  0.67840000  0.59300000  1.0 0.0711735041
C  C68  1  0.24850000  0.17840000  0.40700000  1.0 0.0711735041
C  C69  1  0.74850000  0.41290000  0.41530000  1.0 -0.1503567783
C  C70  1  0.75150000  0.91290000  0.58470000  1.0 -0.1503567783
C  C71  1  0.25150000  0.58710000  0.58470000  1.0 -0.1503567783
C  C72  1  0.24850000  0.08710000  0.41530000  1.0 -0.1503567783
C  C73  1  0.44470000  0.40570000  0.26020000  1.0 0.3594937032
C  C74  1  0.05530000  0.90570000  0.73980000  1.0 0.3594937032
C  C75  1  0.55530000  0.59430000  0.73980000  1.0 0.3594937032
C  C76  1  0.94470000  0.09430000  0.26020000  1.0 0.3594937032
C  C77  1  0.46410000  0.53060000  0.29630000  1.0 0.3678600744
C  C78  1  0.03590000  0.03060000  0.70370000  1.0 0.3678600744
C  C79  1  0.53590000  0.46940000  0.70370000  1.0 0.3678600744
C  C80  1  0.96410000  0.96940000  0.29630000  1.0 0.3678600744
C  C81  1  0.40830000  0.44250000  0.30820000  1.0 0.3408598682
C  C82  1  0.09170000  0.94250000  0.69180000  1.0 0.3408598682
C  C83  1  0.59170000  0.55750000  0.69180000  1.0 0.3408598682
C  C84  1  0.90830000  0.05750000  0.30820000  1.0 0.3408598682
C  C85  1  0.44920000  0.34680000  0.22720000  1.0 0.0404720121
C  C86  1  0.05080000  0.84680000  0.77280000  1.0 0.0404720121
C  C87  1  0.55080000  0.65320000  0.77280000  1.0 0.0404720121
C  C88  1  0.94920000  0.15320000  0.22720000  1.0 0.0404720121
C  C89  1  0.41020000  0.30790000  0.20520000  1.0 -0.1503567783
C  C90  1  0.08980000  0.80790000  0.79480000  1.0 -0.1591427647
C  C91  1  0.58980000  0.69210000  0.79480000  1.0 -0.1503567783
C  C92  1  0.91020000  0.19210000  0.20520000  1.0 -0.1591427647
C  C93  1  0.41530000  0.25240000  0.17400000  1.0 0.0404720121
C  C94  1  0.08470000  0.75240000  0.82600000  1.0 0.0404720121
C  C95  1  0.58470000  0.74760000  0.82600000  1.0 0.0404720121
C  C96  1  0.91530000  0.24760000  0.17400000  1.0 0.0404720121
C  C97  1  0.48960000  0.28380000  0.18310000  1.0 0.0194100512
C  C98  1  0.01040000  0.78380000  0.81690000  1.0 0.0194100512
C  C99  1  0.51040000  0.71620000  0.81690000  1.0 0.0194100512
C  C100  1  0.98960000  0.21620000  0.18310000  1.0 0.0194100512
C  C101  1  0.48720000  0.33970000  0.21380000  1.0 -0.1591427647
C  C102  1  0.01280000  0.83970000  0.78620000  1.0 -0.1591427647
C  C103  1  0.51280000  0.66030000  0.78620000  1.0 -0.1591427647
C  C104  1  0.98720000  0.16030000  0.21380000  1.0 -0.1591427647
C  C105  1  0.49050000  0.61430000  0.30350000  1.0 0.0404720121
C  C106  1  0.00950000  0.11430000  0.69650000  1.0 0.0404720121
C  C107  1  0.50950000  0.38570000  0.69650000  1.0 0.0404720121
C  C108  1  0.99050000  0.88570000  0.30350000  1.0 0.0404720121
C  C109  1  0.52260000  0.63380000  0.28450000  1.0 -0.1503567783
C  C110  1  0.97740000  0.13380000  0.71550000  1.0 -0.1385259449
C  C111  1  0.47740000  0.36620000  0.71550000  1.0 -0.1385259449
C  C112  1  0.02260000  0.86620000  0.28450000  1.0 -0.1385259449
C  C113  1  0.54780000  0.71390000  0.29220000  1.0 0.0404720121
C  C114  1  0.95220000  0.21390000  0.70780000  1.0 0.050638706
C  C115  1  0.45220000  0.28610000  0.70780000  1.0 0.0404720121
C  C116  1  0.04780000  0.78610000  0.29220000  1.0 0.0404720121
C  C117  1  0.50680000  0.75070000  0.33810000  1.0 0.0775776291
C  C118  1  0.99320000  0.25070000  0.66190000  1.0 0.0775776291
C  C119  1  0.49320000  0.24930000  0.66190000  1.0 0.0775776291
C  C120  1  0.00680000  0.74930000  0.33810000  1.0 0.0775776291
C  C121  1  0.48110000  0.67520000  0.33060000  1.0 -0.1691600856
C  C122  1  0.01890000  0.17520000  0.66940000  1.0 -0.1691600856
C  C123  1  0.51890000  0.32480000  0.66940000  1.0 -0.1691600856
C  C124  1  0.98110000  0.82480000  0.33060000  1.0 -0.1691600856
C  C125  1  0.37630000  0.42480000  0.33190000  1.0 0.0288501547
C  C126  1  0.12370000  0.92480000  0.66810000  1.0 0.0288501547
C  C127  1  0.62370000  0.57520000  0.66810000  1.0 0.0288501547
C  C128  1  0.87630000  0.07520000  0.33190000  1.0 0.0288501547
C  C129  1  0.37900000  0.46290000  0.36790000  1.0 -0.1503567783
C  C130  1  0.12100000  0.96290000  0.63210000  1.0 -0.1503567783
C  C131  1  0.62100000  0.53710000  0.63210000  1.0 -0.1503567783
C  C132  1  0.87900000  0.03710000  0.36790000  1.0 -0.1503567783
C  C133  1  0.34920000  0.44340000  0.39130000  1.0 0.0711735041
C  C134  1  0.15080000  0.94340000  0.60870000  1.0 0.0711735041
C  C135  1  0.65080000  0.55660000  0.60870000  1.0 0.0711735041
C  C136  1  0.84920000  0.05660000  0.39130000  1.0 0.0711735041
C  C137  1  0.31090000  0.34860000  0.34540000  1.0 0.050638706
C  C138  1  0.18910000  0.84860000  0.65460000  1.0 0.050638706
C  C139  1  0.68910000  0.65140000  0.65460000  1.0 0.050638706
C  C140  1  0.81090000  0.15140000  0.34540000  1.0 0.0595597572
C  C141  1  0.34040000  0.36150000  0.32050000  1.0 -0.1503567783
C  C142  1  0.15960000  0.86150000  0.67950000  1.0 -0.1503567783
C  C143  1  0.65960000  0.63850000  0.67950000  1.0 -0.1503567783
C  C144  1  0.84040000  0.13850000  0.32050000  1.0 -0.1503567783
C  C145  1  0.90230000  0.53370000  0.82070000  1.0 0.3314401439
C  C146  1  0.59770000  0.03370000  0.17930000  1.0 0.3314401439
C  C147  1  0.09770000  0.46630000  0.17930000  1.0 0.3314401439
C  C148  1  0.40230000  0.96630000  0.82070000  1.0 0.3314401439
C  C149  1  0.95690000  0.45830000  0.80580000  1.0 0.3161240226
C  C150  1  0.54310000  0.95830000  0.19420000  1.0 0.3161240226
C  C151  1  0.04310000  0.54170000  0.19420000  1.0 0.3161240226
C  C152  1  0.45690000  0.04170000  0.80580000  1.0 0.3161240226
C  C153  1  0.93420000  0.58110000  0.77170000  1.0 0.3408598682
C  C154  1  0.56580000  0.08110000  0.22830000  1.0 0.3408598682
C  C155  1  0.06580000  0.41890000  0.22830000  1.0 0.3408598682
C  C156  1  0.43420000  0.91890000  0.77170000  1.0 0.3454401871
C  C157  1  0.87000000  0.55380000  0.84670000  1.0 0.0194100512
C  C158  1  0.63000000  0.05380000  0.15330000  1.0 0.0194100512
C  C159  1  0.13000000  0.44620000  0.15330000  1.0 0.0194100512
C  C160  1  0.37000000  0.94620000  0.84670000  1.0 0.0194100512
C  C161  1  0.86390000  0.49270000  0.87500000  1.0 -0.1385259449
C  C162  1  0.63610000  0.99270000  0.12500000  1.0 -0.1385259449
C  C163  1  0.13610000  0.50730000  0.12500000  1.0 -0.1385259449
C  C164  1  0.36390000  0.00730000  0.87500000  1.0 -0.1385259449
C  C165  1  0.83580000  0.51200000  0.89860000  1.0 -0.03297882
C  C166  1  0.66420000  0.01200000  0.10140000  1.0 -0.03297882
C  C167  1  0.16420000  0.48800000  0.10140000  1.0 -0.03297882
C  C168  1  0.33580000  0.98800000  0.89860000  1.0 -0.03297882
C  C169  1  0.82040000  0.64180000  0.87120000  1.0 0.050638706
C  C170  1  0.67960000  0.14180000  0.12880000  1.0 0.050638706
C  C171  1  0.17960000  0.35820000  0.12880000  1.0 0.050638706
C  C172  1  0.32040000  0.85820000  0.87120000  1.0 0.050638706
C  C173  1  0.84720000  0.63100000  0.84460000  1.0 -0.1691600856
C  C174  1  0.65280000  0.13100000  0.15540000  1.0 -0.1691600856
C  C175  1  0.15280000  0.36900000  0.15540000  1.0 -0.1691600856
C  C176  1  0.34720000  0.86900000  0.84460000  1.0 -0.1691600856
C  C177  1  0.93590000  0.64270000  0.73840000  1.0 0.050638706
C  C178  1  0.56410000  0.14270000  0.26160000  1.0 0.050638706
C  C179  1  0.06410000  0.35730000  0.26160000  1.0 0.050638706
C  C180  1  0.43590000  0.85730000  0.73840000  1.0 0.050638706
C  C181  1  0.90040000  0.69900000  0.72640000  1.0 -0.1503567783
C  C182  1  0.59960000  0.19900000  0.27360000  1.0 -0.1503567783
C  C183  1  0.09960000  0.30100000  0.27360000  1.0 -0.1503567783
C  C184  1  0.40040000  0.80100000  0.72640000  1.0 -0.1503567783
C  C185  1  0.90260000  0.75450000  0.69480000  1.0 0.0890193122
C  C186  1  0.59740000  0.25450000  0.30520000  1.0 0.0890193122
C  C187  1  0.09740000  0.24550000  0.30520000  1.0 0.0890193122
C  C188  1  0.40260000  0.74550000  0.69480000  1.0 0.0890193122
C  C189  1  0.97120000  0.70260000  0.68970000  1.0 0.0595597572
C  C190  1  0.52880000  0.20260000  0.31030000  1.0 0.0595597572
C  C191  1  0.02880000  0.29740000  0.31030000  1.0 0.0595597572
C  C192  1  0.47120000  0.79740000  0.68970000  1.0 0.0595597572
C  C193  1  0.97150000  0.64400000  0.72200000  1.0 -0.1591427647
C  C194  1  0.52850000  0.14400000  0.27800000  1.0 -0.1591427647
C  C195  1  0.02850000  0.35600000  0.27800000  1.0 -0.1591427647
C  C196  1  0.47150000  0.85600000  0.72200000  1.0 -0.1591427647
C  C197  1  0.98850000  0.37700000  0.81050000  1.0 0.0595597572
C  C198  1  0.51150000  0.87700000  0.18950000  1.0 0.0595597572
C  C199  1  0.01150000  0.62300000  0.18950000  1.0 0.0595597572
C  C200  1  0.48850000  0.12300000  0.81050000  1.0 0.0595597572
C  C201  1  0.01130000  0.35240000  0.78360000  1.0 -0.1503567783
C  C202  1  0.48870000  0.85240000  0.21640000  1.0 -0.1503567783
C  C203  1  0.98870000  0.64760000  0.21640000  1.0 -0.1503567783
C  C204  1  0.51130000  0.14760000  0.78360000  1.0 -0.1503567783
C  C205  1  0.04160000  0.28460000  0.79010000  1.0 0.0194100512
C  C206  1  0.45840000  0.78460000  0.20990000  1.0 0.0194100512
C  C207  1  0.95840000  0.71540000  0.20990000  1.0 0.0194100512
C  C208  1  0.54160000  0.21540000  0.79010000  1.0 0.0086522895
C  C209  1  0.02210000  0.26120000  0.85070000  1.0 0.0086522895
C  C210  1  0.47790000  0.76120000  0.14930000  1.0 0.0086522895
C  C211  1  0.97790000  0.73880000  0.14930000  1.0 0.0086522895
C  C212  1  0.52210000  0.23880000  0.85070000  1.0 0.0086522895
C  C213  1  0.99360000  0.32810000  0.84430000  1.0 -0.1385259449
C  C214  1  0.50640000  0.82810000  0.15570000  1.0 -0.1385259449
C  C215  1  0.00640000  0.67190000  0.15570000  1.0 -0.1385259449
C  C216  1  0.49360000  0.17190000  0.84430000  1.0 -0.1385259449
C  C217  1  0.75280000  0.15910000  0.93970000  1.0 0.3408598682
C  C218  1  0.74720000  0.65910000  0.06030000  1.0 0.3408598682
C  C219  1  0.24720000  0.84090000  0.06030000  1.0 0.3408598682
C  C220  1  0.25280000  0.34090000  0.93970000  1.0 0.3408598682
C  C221  1  0.78760000  0.02730000  0.95460000  1.0 0.2970800256
C  C222  1  0.71240000  0.52730000  0.04540000  1.0 0.2970800256
C  C223  1  0.21240000  0.97270000  0.04540000  1.0 0.2970800256
C  C224  1  0.28760000  0.47270000  0.95460000  1.0 0.2970800256
C  C225  1  0.81610000  0.14880000  0.98440000  1.0 0.3161240226
C  C226  1  0.68390000  0.64880000  0.01560000  1.0 0.3161240226
C  C227  1  0.18390000  0.85120000  0.01560000  1.0 0.3161240226
C  C228  1  0.31610000  0.35120000  0.98440000  1.0 0.3161240226
C  C229  1  0.71520000  0.20970000  0.91660000  1.0 0.050638706
C  C230  1  0.78480000  0.70970000  0.08340000  1.0 0.050638706
C  C231  1  0.28480000  0.79030000  0.08340000  1.0 0.050638706
C  C232  1  0.21520000  0.29030000  0.91660000  1.0 0.050638706
C  C233  1  0.70900000  0.29750000  0.92210000  1.0 -0.1385259449
C  C234  1  0.79100000  0.79750000  0.07790000  1.0 -0.1385259449
C  C235  1  0.29100000  0.70250000  0.07790000  1.0 -0.1385259449
C  C236  1  0.20900000  0.20250000  0.92210000  1.0 -0.1385259449
C  C237  1  0.67040000  0.34020000  0.90190000  1.0 -0.0094353498
C  C238  1  0.82960000  0.84020000  0.09810000  1.0 -0.0094353498
C  C239  1  0.32960000  0.65980000  0.09810000  1.0 -0.0094353498
C  C240  1  0.17040000  0.15980000  0.90190000  1.0 -0.0094353498
C  C241  1  0.64390000  0.21070000  0.87390000  1.0 0.050638706
C  C242  1  0.85610000  0.71070000  0.12610000  1.0 0.050638706
C  C243  1  0.35610000  0.78930000  0.12610000  1.0 0.050638706
C  C244  1  0.14390000  0.28930000  0.87390000  1.0 0.050638706
C  C245  1  0.67850000  0.16740000  0.89510000  1.0 -0.1591427647
C  C246  1  0.82150000  0.66740000  0.10490000  1.0 -0.1591427647
C  C247  1  0.32150000  0.83260000  0.10490000  1.0 -0.1591427647
C  C248  1  0.17850000  0.33260000  0.89510000  1.0 -0.1591427647
C  C249  1  0.78730000  0.93160000  0.95020000  1.0 0.0404720121
C  C250  1  0.71270000  0.43160000  0.04980000  1.0 0.0404720121
C  C251  1  0.21270000  0.06840000  0.04980000  1.0 0.0404720121
C  C252  1  0.28730000  0.56840000  0.95020000  1.0 0.0404720121
C  C253  1  0.75270000  0.89150000  0.92360000  1.0 -0.131708491
C  C254  1  0.74730000  0.39150000  0.07640000  1.0 -0.131708491
C  C255  1  0.24730000  0.10850000  0.07640000  1.0 -0.131708491
C  C256  1  0.25270000  0.60850000  0.92360000  1.0 -0.131708491
C  C257  1  0.75190000  0.79850000  0.92230000  1.0 0.0288501547
C  C258  1  0.74810000  0.29850000  0.07770000  1.0 0.0288501547
C  C259  1  0.24810000  0.20150000  0.07770000  1.0 0.0288501547
C  C260  1  0.25190000  0.70150000  0.92230000  1.0 0.0194100512
C  C261  1  0.81400000  0.78200000  0.96810000  1.0 0.0194100512
C  C262  1  0.68600000  0.28200000  0.03190000  1.0 0.0194100512
C  C263  1  0.18600000  0.21800000  0.03190000  1.0 0.0194100512
C  C264  1  0.31400000  0.71800000  0.96810000  1.0 0.0194100512
C  C265  1  0.81810000  0.87440000  0.97240000  1.0 -0.1591427647
C  C266  1  0.68190000  0.37440000  0.02760000  1.0 -0.1591427647
C  C267  1  0.18190000  0.12560000  0.02760000  1.0 -0.1591427647
C  C268  1  0.31810000  0.62560000  0.97240000  1.0 -0.1591427647
C  C269  1  0.84900000  0.19650000  0.01370000  1.0 0.050638706
C  C270  1  0.65100000  0.69650000  0.98630000  1.0 0.050638706
C  C271  1  0.15100000  0.80350000  0.98630000  1.0 0.050638706
C  C272  1  0.34900000  0.30350000  0.01370000  1.0 0.050638706
C  C273  1  0.88780000  0.15390000  0.03280000  1.0 -0.1691600856
C  C274  1  0.61220000  0.65390000  0.96720000  1.0 -0.1691600856
C  C275  1  0.11220000  0.84610000  0.96720000  1.0 -0.1691600856
C  C276  1  0.38780000  0.34610000  0.03280000  1.0 -0.1691600856
C  C277  1  0.91550000  0.19730000  0.06090000  1.0 0.0194100512
C  C278  1  0.58450000  0.69730000  0.93910000  1.0 0.0194100512
C  C279  1  0.08450000  0.80270000  0.93910000  1.0 0.0086522895
C  C280  1  0.41550000  0.30270000  0.06090000  1.0 0.0194100512
C  C281  1  0.87570000  0.32710000  0.05290000  1.0 0.0288501547
C  C282  1  0.62430000  0.82710000  0.94710000  1.0 0.0288501547
C  C283  1  0.12430000  0.67290000  0.94710000  1.0 0.0288501547
C  C284  1  0.37570000  0.17290000  0.05290000  1.0 0.0288501547
C  C285  1  0.84400000  0.28360000  0.02310000  1.0 -0.1503567783
C  C286  1  0.65600000  0.78360000  0.97690000  1.0 -0.1503567783
C  C287  1  0.15600000  0.71640000  0.97690000  1.0 -0.1503567783
C  C288  1  0.34400000  0.21640000  0.02310000  1.0 -0.1503567783
I  I1  1  0.62819000  0.90031000  0.28629000  1.0 -0.0494583042
I  I2  1  0.87181000  0.40031000  0.71371000  1.0 -0.0494583042
I  I3  1  0.37181000  0.09969000  0.71371000  1.0 -0.0606713185
I  I4  1  0.12819000  0.59969000  0.28629000  1.0 -0.0494583042
I  I5  1  0.53993000  0.98996000  0.36958000  1.0 -0.002971916
I  I6  1  0.96007000  0.48996000  0.63042000  1.0 -0.0094353498
I  I7  1  0.46007000  0.01004000  0.63042000  1.0 -0.0094353498
I  I8  1  0.03993000  0.51004000  0.36958000  1.0 -0.0094353498
I  I9  1  0.69300000  0.10832000  0.36762000  1.0 -0.4797111893
I  I10  1  0.80700000  0.60832000  0.63238000  1.0 -0.4797111893
I  I11  1  0.30700000  0.89168000  0.63238000  1.0 -0.4797111893
I  I12  1  0.19300000  0.39168000  0.36762000  1.0 -0.4797111893
I  I13  1  0.79019000  0.03216000  0.47345000  1.0 -0.4472218597
I  I14  1  0.70981000  0.53216000  0.52655000  1.0 -0.4472218597
I  I15  1  0.20981000  0.96784000  0.52655000  1.0 -0.4472218597
I  I16  1  0.29019000  0.46784000  0.47345000  1.0 -0.4472218597
I  I17  1  0.89885000  0.98323000  0.64892000  1.0 -0.4574981288
I  I18  1  0.60115000  0.48323000  0.35108000  1.0 -0.4574981288
I  I19  1  0.10115000  0.01677000  0.35108000  1.0 -0.4574981288
I  I20  1  0.39885000  0.51677000  0.64892000  1.0 -0.4574981288
I  I21  1  0.01313000  0.83749000  0.61598000  1.0 -0.2815286884
I  I22  1  0.48687000  0.33749000  0.38402000  1.0 -0.2815286884
I  I23  1  0.98687000  0.16251000  0.38402000  1.0 -0.2815286884
I  I24  1  0.51313000  0.66251000  0.61598000  1.0 -0.2815286884
I  I25  1  0.05777000  0.00690000  0.86803000  1.0 0.0086522895
I  I26  1  0.44223000  0.50690000  0.13197000  1.0 -0.002971916
I  I27  1  0.94223000  0.99310000  0.13197000  1.0 0.0086522895
I  I28  1  0.55777000  0.49310000  0.86803000  1.0 -0.002971916
I  I29  1  0.68960000  0.59340000  0.90265000  1.0 -0.0396979447
I  I30  1  0.81040000  0.09340000  0.09735000  1.0 -0.0396979447
I  I31  1  0.31040000  0.40660000  0.09735000  1.0 -0.0396979447
I  I32  1  0.18960000  0.90660000  0.90265000  1.0 -0.0396979447
I  I33  1  0.80640000  0.53070000  0.99770000  1.0 -0.0396979447
I  I34  1  0.69360000  0.03070000  0.00230000  1.0 -0.0396979447
I  I35  1  0.19360000  0.46930000  0.00230000  1.0 -0.0396979447
I  I36  1  0.30640000  0.96930000  0.99770000  1.0 -0.0396979447
I  I37  1  0.12877000  0.10730000  0.77791000  1.0 -0.002971916
I  I38  1  0.37123000  0.60730000  0.22209000  1.0 -0.0094353498
I  I39  1  0.87123000  0.89270000  0.22209000  1.0 -0.0094353498
I  I40  1  0.62877000  0.39270000  0.77791000  1.0 -0.0094353498
I  I41  1  0.53360000  0.17090000  0.10016000  1.0 0.0086522895
I  I42  1  0.96640000  0.67090000  0.89984000  1.0 0.0086522895
I  I43  1  0.46640000  0.82910000  0.89984000  1.0 0.0086522895
I  I44  1  0.03360000  0.32910000  0.10016000  1.0 0.0086522895
I  I45  1  0.42064000  0.01394000  0.13138000  1.0 -0.0094353498
I  I46  1  0.07936000  0.51394000  0.86862000  1.0 -0.0094353498
I  I47  1  0.57936000  0.98606000  0.86862000  1.0 -0.0094353498
I  I48  1  0.92064000  0.48606000  0.13138000  1.0 -0.0094353498
I  I49  1  0.54139000  0.28890000  0.01851000  1.0 0.0595597572
I  I50  1  0.95861000  0.78890000  0.98149000  1.0 0.0595597572
I  I51  1  0.45861000  0.71110000  0.98149000  1.0 0.0595597572
I  I52  1  0.04139000  0.21110000  0.01851000  1.0 0.0595597572
I  I53  1  0.55332000  0.38352000  0.95425000  1.0 0.050638706
I  I54  1  0.94668000  0.88352000  0.04575000  1.0 0.050638706
I  I55  1  0.44668000  0.61648000  0.04575000  1.0 0.050638706
I  I56  1  0.05332000  0.11648000  0.95425000  1.0 0.050638706
I  I57  1  0.51510000  0.12690000  0.09730000  1.0 -0.0494583042
I  I58  1  0.98490000  0.62690000  0.90270000  1.0 -0.0494583042
I  I59  1  0.48490000  0.87310000  0.90270000  1.0 -0.0494583042
I  I60  1  0.01510000  0.37310000  0.09730000  1.0 -0.0396979447
I  I61  1  0.63730000  0.92200000  0.27240000  1.0 0.0014858848
I  I62  1  0.86270000  0.42200000  0.72760000  1.0 0.0086522895
I  I63  1  0.36270000  0.07800000  0.72760000  1.0 0.0014858848
I  I64  1  0.13730000  0.57800000  0.27240000  1.0 0.0014858848
I  I65  1  0.55540000  0.01300000  0.35760000  1.0 -0.0203225419
I  I66  1  0.94460000  0.51300000  0.64240000  1.0 -0.0203225419
I  I67  1  0.44460000  0.98700000  0.64240000  1.0 -0.0203225419
I  I68  1  0.05540000  0.48700000  0.35760000  1.0 -0.0203225419
I  I69  1  0.12070000  0.09700000  0.78320000  1.0 -0.0494583042
I  I70  1  0.37930000  0.59700000  0.21680000  1.0 -0.0494583042
I  I71  1  0.87930000  0.90300000  0.21680000  1.0 -0.0494583042
I  I72  1  0.62070000  0.40300000  0.78320000  1.0 -0.0494583042
I  I73  1  0.55750000  0.46790000  0.88260000  1.0 -0.03297882
I  I74  1  0.94250000  0.96790000  0.11740000  1.0 -0.03297882
I  I75  1  0.44250000  0.53210000  0.11740000  1.0 -0.03297882
I  I76  1  0.05750000  0.03210000  0.88260000  1.0 -0.0396979447
I  I77  1  0.66870000  0.04550000  0.98970000  1.0 -0.0094353498
I  I78  1  0.83130000  0.54550000  0.01030000  1.0 -0.0094353498
I  I79  1  0.33130000  0.95450000  0.01030000  1.0 -0.0094353498
I  I80  1  0.16870000  0.45450000  0.98970000  1.0 -0.0094353498
I  I81  1  0.58840000  0.09350000  0.94030000  1.0 -0.0094353498
I  I82  1  0.91160000  0.59350000  0.05970000  1.0 -0.0203225419
I  I83  1  0.41160000  0.90650000  0.05970000  1.0 -0.0094353498
I  I84  1  0.08840000  0.40650000  0.94030000  1.0 -0.0203225419
I  I85  1  0.58300000  0.17860000  0.00670000  1.0 0.0194100512
I  I86  1  0.91700000  0.67860000  0.99330000  1.0 0.0194100512
I  I87  1  0.41700000  0.82140000  0.99330000  1.0 0.0194100512
I  I88  1  0.08300000  0.32140000  0.00670000  1.0 0.0194100512
I  I89  1  0.57230000  0.31660000  0.09770000  1.0 0.0711735041
I  I90  1  0.92770000  0.81660000  0.90230000  1.0 0.0595597572
I  I91  1  0.42770000  0.68340000  0.90230000  1.0 0.0711735041
I  I92  1  0.07230000  0.18340000  0.09770000  1.0 0.0595597572
I  I93  1  0.61900000  0.47290000  0.09930000  1.0 -0.0094353498
I  I94  1  0.88100000  0.97290000  0.90070000  1.0 -0.002971916
I  I95  1  0.38100000  0.52710000  0.90070000  1.0 -0.002971916
I  I96  1  0.11900000  0.02710000  0.09930000  1.0 -0.002971916
I  I97  1  0.51960000  0.48630000  0.96970000  1.0 -0.0094353498
I  I98  1  0.98040000  0.98630000  0.03030000  1.0 -0.0094353498
I  I99  1  0.48040000  0.51370000  0.03030000  1.0 -0.0094353498
I  I100  1  0.01960000  0.01370000  0.96970000  1.0 -0.0094353498
I  I101  1  0.07950000  0.67830000  0.62110000  1.0 0.0288501547
I  I102  1  0.42050000  0.17830000  0.37890000  1.0 0.0288501547
I  I103  1  0.92050000  0.32170000  0.37890000  1.0 0.0288501547
I  I104  1  0.57950000  0.82170000  0.62110000  1.0 0.0288501547
I  I105  1  0.12740000  0.53680000  0.61810000  1.0 -0.0724144733
I  I106  1  0.37260000  0.03680000  0.38190000  1.0 -0.0797829638
I  I107  1  0.87260000  0.46320000  0.38190000  1.0 -0.0724144733
I  I108  1  0.62740000  0.96320000  0.61810000  1.0 -0.0724144733
I  I109  1  0.40190000  0.01230000  0.14290000  1.0 0.0711735041
I  I110  1  0.09810000  0.51230000  0.85710000  1.0 0.0711735041
I  I111  1  0.59810000  0.98770000  0.85710000  1.0 0.0775776291
I  I112  1  0.90190000  0.48770000  0.14290000  1.0 0.0775776291
I  I113  1  0.71260000  0.54290000  0.91640000  1.0 -0.0606713185
I  I114  1  0.78740000  0.04290000  0.08360000  1.0 -0.0606713185
I  I115  1  0.28740000  0.45710000  0.08360000  1.0 -0.0606713185
I  I116  1  0.21260000  0.95710000  0.91640000  1.0 -0.0606713185
I  I117  1  0.69570000  0.58880000  0.87500000  1.0 -0.0203225419
I  I118  1  0.80430000  0.08880000  0.12500000  1.0 -0.03297882
I  I119  1  0.30430000  0.41120000  0.12500000  1.0 -0.03297882
I  I120  1  0.19570000  0.91120000  0.87500000  1.0 -0.0203225419
I  I121  1  0.79130000  0.51320000  0.97870000  1.0 -0.0874206493
I  I122  1  0.70870000  0.01320000  0.02130000  1.0 -0.0797829638
I  I123  1  0.20870000  0.48680000  0.02130000  1.0 -0.0797829638
I  I124  1  0.29130000  0.98680000  0.97870000  1.0 -0.0874206493
I  I125  1  0.69430000  0.72730000  0.30420000  1.0 0.0194100512
I  I126  1  0.80570000  0.22730000  0.69580000  1.0 0.0194100512
I  I127  1  0.30570000  0.27270000  0.69580000  1.0 0.0288501547
I  I128  1  0.19430000  0.77270000  0.30420000  1.0 0.0288501547
I  I129  1  0.74540000  0.58590000  0.32290000  1.0 0.0194100512
I  I130  1  0.75460000  0.08590000  0.67710000  1.0 0.0194100512
I  I131  1  0.25460000  0.41410000  0.67710000  1.0 0.0194100512
I  I132  1  0.24540000  0.91410000  0.32290000  1.0 0.0194100512
N  N1  1  0.77050000  0.71460000  0.47280000  1.0 -0.3892119074
N  N2  1  0.72950000  0.21460000  0.52720000  1.0 -0.3892119074
N  N3  1  0.22950000  0.28540000  0.52720000  1.0 -0.3892119074
N  N4  1  0.27050000  0.78540000  0.47280000  1.0 -0.3892119074
N  N5  1  0.80900000  0.57840000  0.48350000  1.0 -0.3892119074
N  N6  1  0.69100000  0.07840000  0.51650000  1.0 -0.3892119074
N  N7  1  0.19100000  0.42160000  0.51650000  1.0 -0.3892119074
N  N8  1  0.30900000  0.92160000  0.48350000  1.0 -0.3892119074
N  N9  1  0.74320000  0.58700000  0.43500000  1.0 -0.3892119074
N  N10  1  0.75680000  0.08700000  0.56500000  1.0 -0.3892119074
N  N11  1  0.25680000  0.41300000  0.56500000  1.0 -0.3892119074
N  N12  1  0.24320000  0.91300000  0.43500000  1.0 -0.3892119074
N  N13  1  0.62850000  0.81130000  0.38110000  1.0 -0.1896274887
N  N14  1  0.87150000  0.31130000  0.61890000  1.0 -0.1896274887
N  N15  1  0.37150000  0.18870000  0.61890000  1.0 -0.1896274887
N  N16  1  0.12850000  0.68870000  0.38110000  1.0 -0.1896274887
N  N17  1  0.89400000  0.78370000  0.58430000  1.0 -0.1896274887
N  N18  1  0.60600000  0.28370000  0.41570000  1.0 -0.1896274887
N  N19  1  0.10600000  0.21630000  0.41570000  1.0 -0.1896274887
N  N20  1  0.39400000  0.71630000  0.58430000  1.0 -0.1896274887
N  N21  1  0.77370000  0.26430000  0.42910000  1.0 -0.1896274887
N  N22  1  0.72630000  0.76430000  0.57090000  1.0 -0.1896274887
N  N23  1  0.22630000  0.73570000  0.57090000  1.0 -0.1896274887
N  N24  1  0.27370000  0.23570000  0.42910000  1.0 -0.1896274887
N  N25  1  0.47230000  0.47550000  0.26820000  1.0 -0.4291030647
N  N26  1  0.02770000  0.97550000  0.73180000  1.0 -0.4291030647
N  N27  1  0.52770000  0.52450000  0.73180000  1.0 -0.4291030647
N  N28  1  0.97230000  0.02450000  0.26820000  1.0 -0.4291030647
N  N29  1  0.43300000  0.51760000  0.31730000  1.0 -0.4291030647
N  N30  1  0.06700000  0.01760000  0.68270000  1.0 -0.4291030647
N  N31  1  0.56700000  0.48240000  0.68270000  1.0 -0.4291030647
N  N32  1  0.93300000  0.98240000  0.31730000  1.0 -0.4291030647
N  N33  1  0.41260000  0.38710000  0.27940000  1.0 -0.4164726728
N  N34  1  0.08740000  0.88710000  0.72060000  1.0 -0.4164726728
N  N35  1  0.58740000  0.61290000  0.72060000  1.0 -0.4164726728
N  N36  1  0.91260000  0.11290000  0.27940000  1.0 -0.4164726728
N  N37  1  0.45390000  0.24040000  0.16260000  1.0 -0.1770002791
N  N38  1  0.04610000  0.74040000  0.83740000  1.0 -0.1770002791
N  N39  1  0.54610000  0.75960000  0.83740000  1.0 -0.1770002791
N  N40  1  0.95390000  0.25960000  0.16260000  1.0 -0.1770002791
N  N41  1  0.53960000  0.76690000  0.32080000  1.0 -0.2027535537
N  N42  1  0.96040000  0.26690000  0.67920000  1.0 -0.2027535537
N  N43  1  0.46040000  0.23310000  0.67920000  1.0 -0.1896274887
N  N44  1  0.03960000  0.73310000  0.32080000  1.0 -0.1896274887
N  N45  1  0.31570000  0.38670000  0.38100000  1.0 -0.2027535537
N  N46  1  0.18430000  0.88670000  0.61900000  1.0 -0.2027535537
N  N47  1  0.68430000  0.61330000  0.61900000  1.0 -0.2027535537
N  N48  1  0.81570000  0.11330000  0.38100000  1.0 -0.2027535537
N  N49  1  0.92820000  0.46400000  0.82720000  1.0 -0.3892119074
N  N50  1  0.57180000  0.96400000  0.17280000  1.0 -0.3892119074
N  N51  1  0.07180000  0.53600000  0.17280000  1.0 -0.3892119074
N  N52  1  0.42820000  0.03600000  0.82720000  1.0 -0.3892119074
N  N53  1  0.96360000  0.51330000  0.77680000  1.0 -0.4574981288
N  N54  1  0.53640000  0.01330000  0.22320000  1.0 -0.4574981288
N  N55  1  0.03640000  0.48670000  0.22320000  1.0 -0.4574981288
N  N56  1  0.46360000  0.98670000  0.77680000  1.0 -0.4574981288
N  N57  1  0.90390000  0.59500000  0.79330000  1.0 -0.4114515328
N  N58  1  0.59610000  0.09500000  0.20670000  1.0 -0.4114515328
N  N59  1  0.09610000  0.40500000  0.20670000  1.0 -0.4114515328
N  N60  1  0.40390000  0.90500000  0.79330000  1.0 -0.4114515328
N  N61  1  0.81300000  0.58990000  0.89770000  1.0 -0.1503567783
N  N62  1  0.68700000  0.08990000  0.10230000  1.0 -0.1503567783
N  N63  1  0.18700000  0.41010000  0.10230000  1.0 -0.1503567783
N  N64  1  0.31300000  0.91010000  0.89770000  1.0 -0.1503567783
N  N65  1  0.93620000  0.75450000  0.67720000  1.0 -0.2027535537
N  N66  1  0.56380000  0.25450000  0.32280000  1.0 -0.2027535537
N  N67  1  0.06380000  0.24550000  0.32280000  1.0 -0.2027535537
N  N68  1  0.43620000  0.74550000  0.67720000  1.0 -0.2027535537
N  N69  1  0.04610000  0.23350000  0.82330000  1.0 -0.2433061109
N  N70  1  0.45390000  0.73350000  0.17670000  1.0 -0.2433061109
N  N71  1  0.95390000  0.76650000  0.17670000  1.0 -0.2433061109
N  N72  1  0.54610000  0.26650000  0.82330000  1.0 -0.2433061109
N  N73  1  0.75420000  0.07400000  0.93180000  1.0 -0.4114515328
N  N74  1  0.74580000  0.57400000  0.06820000  1.0 -0.4114515328
N  N75  1  0.24580000  0.92600000  0.06820000  1.0 -0.4114515328
N  N76  1  0.25420000  0.42600000  0.93180000  1.0 -0.4114515328
N  N77  1  0.81950000  0.06430000  0.97920000  1.0 -0.3998408461
N  N78  1  0.68050000  0.56430000  0.02080000  1.0 -0.3998408461
N  N79  1  0.18050000  0.93570000  0.02080000  1.0 -0.3998408461
N  N80  1  0.31950000  0.43570000  0.97920000  1.0 -0.3998408461
N  N81  1  0.78230000  0.20250000  0.96670000  1.0 -0.4164726728
N  N82  1  0.71770000  0.70250000  0.03330000  1.0 -0.4164726728
N  N83  1  0.21770000  0.79750000  0.03330000  1.0 -0.4164726728
N  N84  1  0.28230000  0.29750000  0.96670000  1.0 -0.4164726728
N  N85  1  0.64010000  0.29820000  0.87530000  1.0 -0.2117371367
N  N86  1  0.85990000  0.79820000  0.12470000  1.0 -0.2117371367
N  N87  1  0.35990000  0.70180000  0.12470000  1.0 -0.2117371367
N  N88  1  0.14010000  0.20180000  0.87530000  1.0 -0.2117371367
N  N89  1  0.78230000  0.74660000  0.94330000  1.0 -0.1896274887
N  N90  1  0.71770000  0.24660000  0.05670000  1.0 -0.1896274887
N  N91  1  0.21770000  0.25340000  0.05670000  1.0 -0.1896274887
N  N92  1  0.28230000  0.75340000  0.94330000  1.0 -0.1896274887
N  N93  1  0.90880000  0.28110000  0.07210000  1.0 -0.1770002791
N  N94  1  0.59120000  0.78110000  0.92790000  1.0 -0.1770002791
N  N95  1  0.09120000  0.71890000  0.92790000  1.0 -0.1691600856
N  N96  1  0.40880000  0.21890000  0.07210000  1.0 -0.1691600856
