# DDEC6 charges by PACMAN v1.1 (https://github.com/mtap-research/PACMAN-charge/)
data_FAVDIS_FSR_pacman
_symmetry_space_group_name_H-M   'P 1'
_cell_length_a   30.83900000
_cell_length_b   14.91280000
_cell_length_c   42.01550000
_cell_angle_alpha   90.00000000
_cell_angle_beta   126.37300000
_cell_angle_gamma   90.00000000
_symmetry_Int_Tables_number   1
_chemical_formula_structural   Zn5H24C36(I13N6)2
_chemical_formula_sum   'Zn40 H192 C288 I208 N96'
_cell_volume   15558.16627376
_cell_formula_units_Z   8
loop_
 _symmetry_equiv_pos_site_id
 _symmetry_equiv_pos_as_xyz
  1  'x, y, z'
loop_
 _atom_site_type_symbol
 _atom_site_label
 _atom_site_symmetry_multiplicity
 _atom_site_fract_x
 _atom_site_fract_y
 _atom_site_fract_z
 _atom_site_occupancy
 _atom_site_charge
Zn  Zn1  1  0.65550000  0.88320000  0.41519000  1.0 0.1278809518
Zn  Zn2  1  0.34450000  0.88320000  0.08481000  1.0 0.1211095515
Zn  Zn3  1  0.34450000  0.11680000  0.58481000  1.0 0.1211095515
Zn  Zn4  1  0.65550000  0.11680000  0.91519000  1.0 0.1211095515
Zn  Zn5  1  0.24082000  0.35530000  0.33949000  1.0 0.4209371375
Zn  Zn6  1  0.75918000  0.35530000  0.16051000  1.0 0.4209371375
Zn  Zn7  1  0.75918000  0.64470000  0.66051000  1.0 0.4209371375
Zn  Zn8  1  0.24082000  0.64470000  0.83949000  1.0 0.4209371375
Zn  Zn9  1  0.73621000  0.11670000  0.32705000  1.0 0.4109622033
Zn  Zn10  1  0.26379000  0.11670000  0.17295000  1.0 0.4109622033
Zn  Zn11  1  0.26379000  0.88330000  0.67295000  1.0 0.4109622033
Zn  Zn12  1  0.73621000  0.88330000  0.82705000  1.0 0.4109622033
Zn  Zn13  1  0.15500000  0.33170000  0.61580000  1.0 0.1788594405
Zn  Zn14  1  0.84500000  0.33170000  0.88420000  1.0 0.1788594405
Zn  Zn15  1  0.84500000  0.66830000  0.38420000  1.0 0.1788594405
Zn  Zn16  1  0.15500000  0.66830000  0.11580000  1.0 0.1788594405
Zn  Zn17  1  0.14650000  0.60470000  0.41990000  1.0 0.1559209766
Zn  Zn18  1  0.85350000  0.60470000  0.08010000  1.0 0.1505089593
Zn  Zn19  1  0.85350000  0.39530000  0.58010000  1.0 0.1505089593
Zn  Zn20  1  0.14650000  0.39530000  0.91990000  1.0 0.1559209766
Zn  Zn21  1  0.68135000  0.84220000  0.11585000  1.0 0.1788594405
Zn  Zn22  1  0.31865000  0.84220000  0.38415000  1.0 0.1788594405
Zn  Zn23  1  0.31865000  0.15780000  0.88415000  1.0 0.1788594405
Zn  Zn24  1  0.68135000  0.15780000  0.61585000  1.0 0.1788594405
Zn  Zn25  1  0.63620000  0.88400000  0.42310000  1.0 0.2190140975
Zn  Zn26  1  0.36380000  0.88400000  0.07690000  1.0 0.2190140975
Zn  Zn27  1  0.36380000  0.11600000  0.57690000  1.0 0.2190140975
Zn  Zn28  1  0.63620000  0.11600000  0.92310000  1.0 0.2250751498
Zn  Zn29  1  0.18000000  0.35070000  0.62410000  1.0 0.2018789145
Zn  Zn30  1  0.82000000  0.35070000  0.87590000  1.0 0.2018789145
Zn  Zn31  1  0.82000000  0.64930000  0.37590000  1.0 0.2018789145
Zn  Zn32  1  0.18000000  0.64930000  0.12410000  1.0 0.2018789145
Zn  Zn33  1  0.14620000  0.59960000  0.44430000  1.0 0.1418914638
Zn  Zn34  1  0.85380000  0.59960000  0.05570000  1.0 0.1418914638
Zn  Zn35  1  0.85380000  0.40040000  0.55570000  1.0 0.1505089593
Zn  Zn36  1  0.14620000  0.40040000  0.94430000  1.0 0.1418914638
Zn  Zn37  1  0.65590000  0.83400000  0.11300000  1.0 0.0891718791
Zn  Zn38  1  0.34410000  0.83400000  0.38700000  1.0 0.0891718791
Zn  Zn39  1  0.34410000  0.16600000  0.88700000  1.0 0.0891718791
Zn  Zn40  1  0.65590000  0.16600000  0.61300000  1.0 0.079958833
H  H1  1  0.46160000  0.80440000  0.32250000  1.0 0.1278809518
H  H2  1  0.53840000  0.80440000  0.17750000  1.0 0.1278809518
H  H3  1  0.53840000  0.19560000  0.67750000  1.0 0.1278809518
H  H4  1  0.46160000  0.19560000  0.82250000  1.0 0.1278809518
H  H5  1  0.55150000  0.78850000  0.35380000  1.0 0.0891718791
H  H6  1  0.44850000  0.78850000  0.14620000  1.0 0.0891718791
H  H7  1  0.44850000  0.21150000  0.64620000  1.0 0.0891718791
H  H8  1  0.55150000  0.21150000  0.85380000  1.0 0.0891718791
H  H9  1  0.57960000  0.01210000  0.40980000  1.0 0.0602866151
H  H10  1  0.42040000  0.01210000  0.09020000  1.0 0.0602866151
H  H11  1  0.42040000  0.98790000  0.59020000  1.0 0.0602866151
H  H12  1  0.57960000  0.98790000  0.90980000  1.0 0.0602866151
H  H13  1  0.48460000  0.04770000  0.36900000  1.0 0.1211095515
H  H14  1  0.51540000  0.04770000  0.13100000  1.0 0.1211095515
H  H15  1  0.51540000  0.95230000  0.63100000  1.0 0.1211095515
H  H16  1  0.48460000  0.95230000  0.86900000  1.0 0.1211095515
H  H17  1  0.38220000  0.13610000  0.36500000  1.0 0.1211095515
H  H18  1  0.61780000  0.13610000  0.13500000  1.0 0.1211095515
H  H19  1  0.61780000  0.86390000  0.63500000  1.0 0.1211095515
H  H20  1  0.38220000  0.86390000  0.86500000  1.0 0.1211095515
H  H21  1  0.34780000  0.25370000  0.37760000  1.0 0.097412433
H  H22  1  0.65220000  0.25370000  0.12240000  1.0 0.097412433
H  H23  1  0.65220000  0.74630000  0.62240000  1.0 0.097412433
H  H24  1  0.34780000  0.74630000  0.87760000  1.0 0.097412433
H  H25  1  0.20270000  0.22390000  0.27280000  1.0 0.097412433
H  H26  1  0.79730000  0.22390000  0.22720000  1.0 0.097412433
H  H27  1  0.79730000  0.77610000  0.72720000  1.0 0.097412433
H  H28  1  0.20270000  0.77610000  0.77280000  1.0 0.097412433
H  H29  1  0.23580000  0.08880000  0.26410000  1.0 0.1278809518
H  H30  1  0.76420000  0.08880000  0.23590000  1.0 0.1278809518
H  H31  1  0.76420000  0.91120000  0.73590000  1.0 0.1278809518
H  H32  1  0.23580000  0.91120000  0.76410000  1.0 0.1278809518
H  H33  1  0.21740000  0.84660000  0.23630000  1.0 0.1278809518
H  H34  1  0.78260000  0.84660000  0.26370000  1.0 0.1278809518
H  H35  1  0.78260000  0.15340000  0.76370000  1.0 0.1278809518
H  H36  1  0.21740000  0.15340000  0.73630000  1.0 0.1278809518
H  H37  1  0.15870000  0.76120000  0.17870000  1.0 0.0703224294
H  H38  1  0.84130000  0.76120000  0.32130000  1.0 0.0703224294
H  H39  1  0.84130000  0.23880000  0.82130000  1.0 0.0703224294
H  H40  1  0.15870000  0.23880000  0.67870000  1.0 0.079958833
H  H41  1  0.26970000  0.73610000  0.16250000  1.0 0.0703224294
H  H42  1  0.73030000  0.73610000  0.33750000  1.0 0.0703224294
H  H43  1  0.73030000  0.26390000  0.83750000  1.0 0.0703224294
H  H44  1  0.26970000  0.26390000  0.66250000  1.0 0.0703224294
H  H45  1  0.33460000  0.81100000  0.22120000  1.0 0.1211095515
H  H46  1  0.66540000  0.81100000  0.27880000  1.0 0.1211095515
H  H47  1  0.66540000  0.18900000  0.77880000  1.0 0.1211095515
H  H48  1  0.33460000  0.18900000  0.72120000  1.0 0.1211095515
H  H49  1  0.17410000  0.10650000  0.37650000  1.0 0.1211095515
H  H50  1  0.82590000  0.10650000  0.12350000  1.0 0.1211095515
H  H51  1  0.82590000  0.89350000  0.62350000  1.0 0.1211095515
H  H52  1  0.17410000  0.89350000  0.87650000  1.0 0.1211095515
H  H53  1  0.18790000  0.18930000  0.33580000  1.0 0.097412433
H  H54  1  0.81210000  0.18930000  0.16420000  1.0 0.097412433
H  H55  1  0.81210000  0.81070000  0.66420000  1.0 0.097412433
H  H56  1  0.18790000  0.81070000  0.83580000  1.0 0.097412433
H  H57  1  0.25550000  0.37660000  0.42090000  1.0 0.0891718791
H  H58  1  0.74450000  0.37660000  0.07910000  1.0 0.0891718791
H  H59  1  0.74450000  0.62340000  0.57910000  1.0 0.0891718791
H  H60  1  0.25550000  0.62340000  0.92090000  1.0 0.0891718791
H  H61  1  0.22920000  0.30380000  0.45160000  1.0 0.1211095515
H  H62  1  0.77080000  0.30380000  0.04840000  1.0 0.1211095515
H  H63  1  0.77080000  0.69620000  0.54840000  1.0 0.1211095515
H  H64  1  0.22920000  0.69620000  0.95160000  1.0 0.1211095515
H  H65  1  0.19380000  0.31280000  0.51520000  1.0 0.1116507711
H  H66  1  0.80620000  0.31280000  0.98480000  1.0 0.1116507711
H  H67  1  0.80620000  0.68720000  0.48480000  1.0 0.1116507711
H  H68  1  0.19380000  0.68720000  0.01520000  1.0 0.1116507711
H  H69  1  0.19740000  0.37870000  0.56780000  1.0 0.0496113123
H  H70  1  0.80260000  0.37870000  0.93220000  1.0 0.0496113123
H  H71  1  0.80260000  0.62130000  0.43220000  1.0 0.0496113123
H  H72  1  0.19740000  0.62130000  0.06780000  1.0 0.0496113123
H  H73  1  0.13760000  0.15990000  0.58120000  1.0 0.079958833
H  H74  1  0.86240000  0.15990000  0.91880000  1.0 0.079958833
H  H75  1  0.86240000  0.84010000  0.41880000  1.0 0.079958833
H  H76  1  0.13760000  0.84010000  0.08120000  1.0 0.079958833
H  H77  1  0.13690000  0.08240000  0.53050000  1.0 0.1116507711
H  H78  1  0.86310000  0.08240000  0.96950000  1.0 0.1116507711
H  H79  1  0.86310000  0.91760000  0.46950000  1.0 0.1116507711
H  H80  1  0.13690000  0.91760000  0.03050000  1.0 0.1116507711
H  H81  1  0.13200000  0.88860000  0.48480000  1.0 0.1211095515
H  H82  1  0.86800000  0.88860000  0.01520000  1.0 0.1211095515
H  H83  1  0.86800000  0.11140000  0.51520000  1.0 0.1211095515
H  H84  1  0.13200000  0.11140000  0.98480000  1.0 0.1211095515
H  H85  1  0.13720000  0.73700000  0.47560000  1.0 0.079958833
H  H86  1  0.86280000  0.73700000  0.02440000  1.0 0.079958833
H  H87  1  0.86280000  0.26300000  0.52440000  1.0 0.079958833
H  H88  1  0.13720000  0.26300000  0.97560000  1.0 0.079958833
H  H89  1  0.16080000  0.76590000  0.39980000  1.0 0.079958833
H  H90  1  0.83920000  0.76590000  0.10020000  1.0 0.079958833
H  H91  1  0.83920000  0.23410000  0.60020000  1.0 0.079958833
H  H92  1  0.16080000  0.23410000  0.89980000  1.0 0.079958833
H  H93  1  0.16870000  0.91310000  0.40610000  1.0 0.1278809518
H  H94  1  0.83130000  0.91310000  0.09390000  1.0 0.1278809518
H  H95  1  0.83130000  0.08690000  0.59390000  1.0 0.1278809518
H  H96  1  0.16870000  0.08690000  0.90610000  1.0 0.1278809518
H  H97  1  0.96410000  0.66720000  0.31460000  1.0 0.1211095515
H  H98  1  0.03590000  0.66720000  0.18540000  1.0 0.1211095515
H  H99  1  0.03590000  0.33280000  0.68540000  1.0 0.1211095515
H  H100  1  0.96410000  0.33280000  0.81460000  1.0 0.1211095515
H  H101  1  0.05380000  0.67750000  0.35630000  1.0 0.079958833
H  H102  1  0.94620000  0.67750000  0.14370000  1.0 0.079958833
H  H103  1  0.94620000  0.32250000  0.64370000  1.0 0.079958833
H  H104  1  0.05380000  0.32250000  0.85630000  1.0 0.079958833
H  H105  1  0.05610000  0.49520000  0.42500000  1.0 0.0703224294
H  H106  1  0.94390000  0.49520000  0.07500000  1.0 0.0703224294
H  H107  1  0.94390000  0.50480000  0.57500000  1.0 0.0703224294
H  H108  1  0.05610000  0.50480000  0.92500000  1.0 0.0703224294
H  H109  1  0.96830000  0.44920000  0.37270000  1.0 0.1116507711
H  H110  1  0.03170000  0.44920000  0.12730000  1.0 0.1116507711
H  H111  1  0.03170000  0.55080000  0.62730000  1.0 0.1116507711
H  H112  1  0.96830000  0.55080000  0.87270000  1.0 0.1116507711
H  H113  1  0.87520000  0.33160000  0.35080000  1.0 0.1278809518
H  H114  1  0.12480000  0.33160000  0.14920000  1.0 0.1278809518
H  H115  1  0.12480000  0.66840000  0.64920000  1.0 0.1278809518
H  H116  1  0.87520000  0.66840000  0.85080000  1.0 0.1278809518
H  H117  1  0.83840000  0.20180000  0.35690000  1.0 0.0891718791
H  H118  1  0.16160000  0.20180000  0.14310000  1.0 0.0891718791
H  H119  1  0.16160000  0.79820000  0.64310000  1.0 0.0891718791
H  H120  1  0.83840000  0.79820000  0.85690000  1.0 0.0891718791
H  H121  1  0.69310000  0.25190000  0.26280000  1.0 0.0891718791
H  H122  1  0.30690000  0.25190000  0.23720000  1.0 0.0891718791
H  H123  1  0.30690000  0.74810000  0.73720000  1.0 0.0891718791
H  H124  1  0.69310000  0.74810000  0.76280000  1.0 0.0891718791
H  H125  1  0.72510000  0.38620000  0.25060000  1.0 0.1116507711
H  H126  1  0.27490000  0.38620000  0.24940000  1.0 0.1116507711
H  H127  1  0.27490000  0.61380000  0.74940000  1.0 0.1116507711
H  H128  1  0.72510000  0.61380000  0.75060000  1.0 0.1116507711
H  H129  1  0.70680000  0.61240000  0.21470000  1.0 0.1116507711
H  H130  1  0.29320000  0.61240000  0.28530000  1.0 0.1116507711
H  H131  1  0.29320000  0.38760000  0.78530000  1.0 0.1116507711
H  H132  1  0.70680000  0.38760000  0.71470000  1.0 0.1116507711
H  H133  1  0.66020000  0.72150000  0.16560000  1.0 0.079958833
H  H134  1  0.33980000  0.72150000  0.33440000  1.0 0.079958833
H  H135  1  0.33980000  0.27850000  0.83440000  1.0 0.079958833
H  H136  1  0.66020000  0.27850000  0.66560000  1.0 0.079958833
H  H137  1  0.78380000  0.75830000  0.16290000  1.0 0.0703224294
H  H138  1  0.21620000  0.75830000  0.33710000  1.0 0.0703224294
H  H139  1  0.21620000  0.24170000  0.83710000  1.0 0.0703224294
H  H140  1  0.78380000  0.24170000  0.66290000  1.0 0.0703224294
H  H141  1  0.84220000  0.67840000  0.22100000  1.0 0.1278809518
H  H142  1  0.15780000  0.67840000  0.27900000  1.0 0.1278809518
H  H143  1  0.15780000  0.32160000  0.77900000  1.0 0.1278809518
H  H144  1  0.84220000  0.32160000  0.72100000  1.0 0.1278809518
H  H145  1  0.69370000  0.37750000  0.37790000  1.0 0.1116507711
H  H146  1  0.30630000  0.37750000  0.12210000  1.0 0.1116507711
H  H147  1  0.30630000  0.62250000  0.62210000  1.0 0.1116507711
H  H148  1  0.69370000  0.62250000  0.87790000  1.0 0.1116507711
H  H149  1  0.71840000  0.30410000  0.33970000  1.0 0.0703224294
H  H150  1  0.28160000  0.30410000  0.16030000  1.0 0.0703224294
H  H151  1  0.28160000  0.69590000  0.66030000  1.0 0.0703224294
H  H152  1  0.71840000  0.69590000  0.83970000  1.0 0.0703224294
H  H153  1  0.74670000  0.09310000  0.40600000  1.0 0.097412433
H  H154  1  0.25330000  0.09310000  0.09400000  1.0 0.097412433
H  H155  1  0.25330000  0.90690000  0.59400000  1.0 0.097412433
H  H156  1  0.74670000  0.90690000  0.90600000  1.0 0.097412433
H  H157  1  0.72730000  0.16160000  0.44130000  1.0 0.1211095515
H  H158  1  0.27270000  0.16160000  0.05870000  1.0 0.1211095515
H  H159  1  0.27270000  0.83840000  0.55870000  1.0 0.1211095515
H  H160  1  0.72730000  0.83840000  0.94130000  1.0 0.1211095515
H  H161  1  0.71320000  0.17500000  0.51430000  1.0 0.1116507711
H  H162  1  0.28680000  0.17500000  0.98570000  1.0 0.1116507711
H  H163  1  0.28680000  0.82500000  0.48570000  1.0 0.1116507711
H  H164  1  0.71320000  0.82500000  0.01430000  1.0 0.1116507711
H  H165  1  0.70190000  0.11110000  0.55670000  1.0 0.0703224294
H  H166  1  0.29810000  0.11110000  0.94330000  1.0 0.0703224294
H  H167  1  0.29810000  0.88890000  0.44330000  1.0 0.0703224294
H  H168  1  0.70190000  0.88890000  0.05670000  1.0 0.0703224294
H  H169  1  0.65230000  0.33540000  0.57420000  1.0 0.0891718791
H  H170  1  0.34770000  0.33540000  0.92580000  1.0 0.0891718791
H  H171  1  0.34770000  0.66460000  0.42580000  1.0 0.0891718791
H  H172  1  0.65230000  0.66460000  0.07420000  1.0 0.0891718791
H  H173  1  0.66360000  0.41110000  0.53300000  1.0 0.1211095515
H  H174  1  0.33640000  0.41110000  0.96700000  1.0 0.1211095515
H  H175  1  0.33640000  0.58890000  0.46700000  1.0 0.1211095515
H  H176  1  0.66360000  0.58890000  0.03300000  1.0 0.1211095515
H  H177  1  0.65890000  0.60500000  0.48370000  1.0 0.1278809518
H  H178  1  0.34110000  0.60500000  0.01630000  1.0 0.1278809518
H  H179  1  0.34110000  0.39500000  0.51630000  1.0 0.1278809518
H  H180  1  0.65890000  0.39500000  0.98370000  1.0 0.1278809518
H  H181  1  0.65970000  0.76040000  0.47340000  1.0 0.0703224294
H  H182  1  0.34030000  0.76040000  0.02660000  1.0 0.0703224294
H  H183  1  0.34030000  0.23960000  0.52660000  1.0 0.0703224294
H  H184  1  0.65970000  0.23960000  0.97340000  1.0 0.0703224294
H  H185  1  0.66620000  0.70980000  0.38290000  1.0 0.0703224294
H  H186  1  0.33380000  0.70980000  0.11710000  1.0 0.0703224294
H  H187  1  0.33380000  0.29020000  0.61710000  1.0 0.0703224294
H  H188  1  0.66620000  0.29020000  0.88290000  1.0 0.0703224294
H  H189  1  0.67410000  0.56350000  0.39630000  1.0 0.1278809518
H  H190  1  0.32590000  0.56350000  0.10370000  1.0 0.1278809518
H  H191  1  0.32590000  0.43650000  0.60370000  1.0 0.1278809518
H  H192  1  0.67410000  0.43650000  0.89630000  1.0 0.1278809518
C  C1  1  0.40450000  0.94200000  0.31770000  1.0 0.358675314
C  C2  1  0.59550000  0.94200000  0.18230000  1.0 0.358675314
C  C3  1  0.59550000  0.05800000  0.68230000  1.0 0.358675314
C  C4  1  0.40450000  0.05800000  0.81770000  1.0 0.358675314
C  C5  1  0.33200000  0.02200000  0.30320000  1.0 0.3202868702
C  C6  1  0.66800000  0.02200000  0.19680000  1.0 0.3202868702
C  C7  1  0.66800000  0.97800000  0.69680000  1.0 0.3202868702
C  C8  1  0.33200000  0.97800000  0.80320000  1.0 0.3202868702
C  C9  1  0.31990000  0.90100000  0.26760000  1.0 0.358675314
C  C10  1  0.68010000  0.90100000  0.23240000  1.0 0.358675314
C  C11  1  0.68010000  0.09900000  0.73240000  1.0 0.358675314
C  C12  1  0.31990000  0.09900000  0.76760000  1.0 0.358675314
C  C13  1  0.46380000  0.92600000  0.34090000  1.0 0.0401474579
C  C14  1  0.53620000  0.92600000  0.15910000  1.0 0.0401474579
C  C15  1  0.53620000  0.07400000  0.65910000  1.0 0.0401474579
C  C16  1  0.46380000  0.07400000  0.84090000  1.0 0.0401474579
C  C17  1  0.48500000  0.85200000  0.33870000  1.0 -0.170299352
C  C18  1  0.51500000  0.85200000  0.16130000  1.0 -0.170299352
C  C19  1  0.51500000  0.14800000  0.66130000  1.0 -0.170299352
C  C20  1  0.48500000  0.14800000  0.83870000  1.0 -0.170299352
C  C21  1  0.53850000  0.84100000  0.35840000  1.0 0.0496113123
C  C22  1  0.46150000  0.84100000  0.14160000  1.0 0.0496113123
C  C23  1  0.46150000  0.15900000  0.64160000  1.0 0.0496113123
C  C24  1  0.53850000  0.15900000  0.85840000  1.0 0.0496113123
C  C25  1  0.55450000  0.97200000  0.38950000  1.0 0.0293263626
C  C26  1  0.44550000  0.97200000  0.11050000  1.0 0.0401474579
C  C27  1  0.44550000  0.02800000  0.61050000  1.0 0.0293263626
C  C28  1  0.55450000  0.02800000  0.88950000  1.0 0.0293263626
C  C29  1  0.49760000  0.99200000  0.36650000  1.0 -0.135691751
C  C30  1  0.50240000  0.99200000  0.13350000  1.0 -0.135691751
C  C31  1  0.50240000  0.00800000  0.63350000  1.0 -0.135691751
C  C32  1  0.49760000  0.00800000  0.86650000  1.0 -0.135691751
C  C33  1  0.31270000  0.10200000  0.31180000  1.0 0.0401474579
C  C34  1  0.68730000  0.10200000  0.18820000  1.0 0.0401474579
C  C35  1  0.68730000  0.89800000  0.68820000  1.0 0.0401474579
C  C36  1  0.31270000  0.89800000  0.81180000  1.0 0.0401474579
C  C37  1  0.34540000  0.15200000  0.34630000  1.0 -0.1497835779
C  C38  1  0.65460000  0.15200000  0.15370000  1.0 -0.1497835779
C  C39  1  0.65460000  0.84800000  0.65370000  1.0 -0.1497835779
C  C40  1  0.34540000  0.84800000  0.84630000  1.0 -0.1497835779
C  C41  1  0.32560000  0.22200000  0.35320000  1.0 0.0207733519
C  C42  1  0.67440000  0.22200000  0.14680000  1.0 0.0207733519
C  C43  1  0.67440000  0.77800000  0.64680000  1.0 0.0207733519
C  C44  1  0.32560000  0.77800000  0.85320000  1.0 0.0207733519
C  C45  1  0.23880000  0.20500000  0.29190000  1.0 0.0891718791
C  C46  1  0.76120000  0.20500000  0.20810000  1.0 0.0891718791
C  C47  1  0.76120000  0.79500000  0.70810000  1.0 0.0891718791
C  C48  1  0.23880000  0.79500000  0.79190000  1.0 0.0891718791
C  C49  1  0.25960000  0.12600000  0.28630000  1.0 -0.170299352
C  C50  1  0.74040000  0.12600000  0.21370000  1.0 -0.170299352
C  C51  1  0.74040000  0.87400000  0.71370000  1.0 -0.1806623415
C  C52  1  0.25960000  0.87400000  0.78630000  1.0 -0.170299352
C  C53  1  0.28070000  0.84300000  0.23210000  1.0 0.0602866151
C  C54  1  0.71930000  0.84300000  0.26790000  1.0 0.0602866151
C  C55  1  0.71930000  0.15700000  0.76790000  1.0 0.0602866151
C  C56  1  0.28070000  0.15700000  0.73210000  1.0 0.0602866151
C  C57  1  0.22880000  0.82400000  0.22120000  1.0 -0.1497835779
C  C58  1  0.77120000  0.82400000  0.27880000  1.0 -0.1497835779
C  C59  1  0.77120000  0.17600000  0.77880000  1.0 -0.1497835779
C  C60  1  0.22880000  0.17600000  0.72120000  1.0 -0.1497835779
C  C61  1  0.19470000  0.77200000  0.18780000  1.0 0.0496113123
C  C62  1  0.80530000  0.77200000  0.31220000  1.0 0.0496113123
C  C63  1  0.80530000  0.22800000  0.81220000  1.0 0.0496113123
C  C64  1  0.19470000  0.22800000  0.68780000  1.0 0.0496113123
C  C65  1  0.26000000  0.75700000  0.17890000  1.0 0.079958833
C  C66  1  0.74000000  0.75700000  0.32110000  1.0 0.079958833
C  C67  1  0.74000000  0.24300000  0.82110000  1.0 0.079958833
C  C68  1  0.26000000  0.24300000  0.67890000  1.0 0.079958833
C  C69  1  0.29850000  0.80500000  0.21260000  1.0 -0.170299352
C  C70  1  0.70150000  0.80500000  0.28740000  1.0 -0.1602130405
C  C71  1  0.70150000  0.19500000  0.78740000  1.0 -0.170299352
C  C72  1  0.29850000  0.19500000  0.71260000  1.0 -0.170299352
C  C73  1  0.18330000  0.15100000  0.43970000  1.0 0.3394850554
C  C74  1  0.81670000  0.15100000  0.06030000  1.0 0.3394850554
C  C75  1  0.81670000  0.84900000  0.56030000  1.0 0.3394850554
C  C76  1  0.18330000  0.84900000  0.93970000  1.0 0.3394850554
C  C77  1  0.16940000  0.14600000  0.48730000  1.0 0.3301097265
C  C78  1  0.83060000  0.14600000  0.01270000  1.0 0.3301097265
C  C79  1  0.83060000  0.85400000  0.51270000  1.0 0.3301097265
C  C80  1  0.16940000  0.85400000  0.98730000  1.0 0.3301097265
C  C81  1  0.16000000  0.02200000  0.45520000  1.0 0.3202868702
C  C82  1  0.84000000  0.02200000  0.04480000  1.0 0.3301097265
C  C83  1  0.84000000  0.97800000  0.54480000  1.0 0.3202868702
C  C84  1  0.16000000  0.97800000  0.95520000  1.0 0.3202868702
C  C85  1  0.19780000  0.20000000  0.41650000  1.0 0.0401474579
C  C86  1  0.80220000  0.20000000  0.08350000  1.0 0.0401474579
C  C87  1  0.80220000  0.80000000  0.58350000  1.0 0.0401474579
C  C88  1  0.19780000  0.80000000  0.91650000  1.0 0.0401474579
C  C89  1  0.18880000  0.16500000  0.38420000  1.0 -0.1497835779
C  C90  1  0.81120000  0.16500000  0.11580000  1.0 -0.1497835779
C  C91  1  0.81120000  0.83500000  0.61580000  1.0 -0.1497835779
C  C92  1  0.18880000  0.83500000  0.88420000  1.0 -0.1497835779
C  C93  1  0.19990000  0.21100000  0.36110000  1.0 0.0207733519
C  C94  1  0.80010000  0.21100000  0.13890000  1.0 0.0207733519
C  C95  1  0.80010000  0.78900000  0.63890000  1.0 0.0207733519
C  C96  1  0.19990000  0.78900000  0.86110000  1.0 0.0207733519
C  C97  1  0.23770000  0.32100000  0.41030000  1.0 0.0496113123
C  C98  1  0.76230000  0.32100000  0.08970000  1.0 0.0496113123
C  C99  1  0.76230000  0.67900000  0.58970000  1.0 0.0496113123
C  C100  1  0.23770000  0.67900000  0.91030000  1.0 0.0496113123
C  C101  1  0.22240000  0.27800000  0.42840000  1.0 -0.170299352
C  C102  1  0.77760000  0.27800000  0.07160000  1.0 -0.170299352
C  C103  1  0.77760000  0.72200000  0.57160000  1.0 -0.170299352
C  C104  1  0.22240000  0.72200000  0.92840000  1.0 -0.170299352
C  C105  1  0.16910000  0.19100000  0.51850000  1.0 0.0401474579
C  C106  1  0.83090000  0.19100000  0.98150000  1.0 0.0496113123
C  C107  1  0.83090000  0.80900000  0.48150000  1.0 0.0496113123
C  C108  1  0.16910000  0.80900000  0.01850000  1.0 0.0401474579
C  C109  1  0.18350000  0.27900000  0.52880000  1.0 -0.1602130405
C  C110  1  0.81650000  0.27900000  0.97120000  1.0 -0.1602130405
C  C111  1  0.81650000  0.72100000  0.47120000  1.0 -0.1602130405
C  C112  1  0.18350000  0.72100000  0.02880000  1.0 -0.1602130405
C  C113  1  0.18350000  0.32000000  0.55910000  1.0 -0.0021770355
C  C114  1  0.81650000  0.32000000  0.94090000  1.0 -0.0021770355
C  C115  1  0.81650000  0.68000000  0.44090000  1.0 -0.0021770355
C  C116  1  0.18350000  0.68000000  0.05910000  1.0 -0.0021770355
C  C117  1  0.14870000  0.19000000  0.56730000  1.0 0.0496113123
C  C118  1  0.85130000  0.19000000  0.93270000  1.0 0.0496113123
C  C119  1  0.85130000  0.81000000  0.43270000  1.0 0.0496113123
C  C120  1  0.14870000  0.81000000  0.06730000  1.0 0.0496113123
C  C121  1  0.14910000  0.14300000  0.53740000  1.0 -0.1602130405
C  C122  1  0.85090000  0.14300000  0.96260000  1.0 -0.1602130405
C  C123  1  0.85090000  0.85700000  0.46260000  1.0 -0.1602130405
C  C124  1  0.14910000  0.85700000  0.03740000  1.0 -0.1602130405
C  C125  1  0.15530000  0.92200000  0.44950000  1.0 0.0602866151
C  C126  1  0.84470000  0.92200000  0.05050000  1.0 0.0602866151
C  C127  1  0.84470000  0.07800000  0.55050000  1.0 0.0602866151
C  C128  1  0.15530000  0.07800000  0.94950000  1.0 0.0602866151
C  C129  1  0.14160000  0.86700000  0.46840000  1.0 -0.1806623415
C  C130  1  0.85840000  0.86700000  0.03160000  1.0 -0.1806623415
C  C131  1  0.85840000  0.13300000  0.53160000  1.0 -0.1806623415
C  C132  1  0.14160000  0.13300000  0.96840000  1.0 -0.1806623415
C  C133  1  0.14360000  0.77700000  0.46110000  1.0 0.0496113123
C  C134  1  0.85640000  0.77700000  0.03890000  1.0 0.0496113123
C  C135  1  0.85640000  0.22300000  0.53890000  1.0 0.0496113123
C  C136  1  0.14360000  0.22300000  0.96110000  1.0 0.0496113123
C  C137  1  0.15830000  0.79100000  0.41940000  1.0 0.079958833
C  C138  1  0.84170000  0.79100000  0.08060000  1.0 0.079958833
C  C139  1  0.84170000  0.20900000  0.58060000  1.0 0.079958833
C  C140  1  0.15830000  0.20900000  0.91940000  1.0 0.079958833
C  C141  1  0.16200000  0.87900000  0.42190000  1.0 -0.1914390002
C  C142  1  0.83800000  0.87900000  0.07810000  1.0 -0.1914390002
C  C143  1  0.83800000  0.12100000  0.57810000  1.0 -0.1914390002
C  C144  1  0.16200000  0.12100000  0.92190000  1.0 -0.1914390002
C  C145  1  0.89780000  0.53300000  0.31030000  1.0 0.3301097265
C  C146  1  0.10220000  0.53300000  0.18970000  1.0 0.3301097265
C  C147  1  0.10220000  0.46700000  0.68970000  1.0 0.3394850554
C  C148  1  0.89780000  0.46700000  0.81030000  1.0 0.3301097265
C  C149  1  0.82390000  0.45500000  0.29190000  1.0 0.3301097265
C  C150  1  0.17610000  0.45500000  0.20810000  1.0 0.3301097265
C  C151  1  0.17610000  0.54500000  0.70810000  1.0 0.3301097265
C  C152  1  0.82390000  0.54500000  0.79190000  1.0 0.3301097265
C  C153  1  0.81770000  0.57600000  0.25760000  1.0 0.3078413548
C  C154  1  0.18230000  0.57600000  0.24240000  1.0 0.3202868702
C  C155  1  0.18230000  0.42400000  0.74240000  1.0 0.3202868702
C  C156  1  0.81770000  0.42400000  0.75760000  1.0 0.3202868702
C  C157  1  0.95850000  0.55500000  0.33890000  1.0 0.0496113123
C  C158  1  0.04150000  0.55500000  0.16110000  1.0 0.0496113123
C  C159  1  0.04150000  0.44500000  0.66110000  1.0 0.0496113123
C  C160  1  0.95850000  0.44500000  0.83890000  1.0 0.0496113123
C  C161  1  0.98400000  0.62500000  0.33530000  1.0 -0.1806623415
C  C162  1  0.01600000  0.62500000  0.16470000  1.0 -0.1806623415
C  C163  1  0.01600000  0.37500000  0.66470000  1.0 -0.1806623415
C  C164  1  0.98400000  0.37500000  0.83530000  1.0 -0.1806623415
C  C165  1  0.03670000  0.63200000  0.36100000  1.0 0.079958833
C  C166  1  0.96330000  0.63200000  0.13900000  1.0 0.079958833
C  C167  1  0.96330000  0.36800000  0.63900000  1.0 0.079958833
C  C168  1  0.03670000  0.36800000  0.86100000  1.0 0.079958833
C  C169  1  0.03810000  0.52100000  0.39950000  1.0 -0.0774963239
C  C170  1  0.96190000  0.52100000  0.10050000  1.0 -0.0774963239
C  C171  1  0.96190000  0.47900000  0.60050000  1.0 -0.0774963239
C  C172  1  0.03810000  0.47900000  0.89950000  1.0 -0.0774963239
C  C173  1  0.98510000  0.50000000  0.37050000  1.0 -0.1602130405
C  C174  1  0.01490000  0.50000000  0.12950000  1.0 -0.1602130405
C  C175  1  0.01490000  0.50000000  0.62950000  1.0 -0.1602130405
C  C176  1  0.98510000  0.50000000  0.87050000  1.0 -0.1602130405
C  C177  1  0.80260000  0.37000000  0.29720000  1.0 0.0602866151
C  C178  1  0.19740000  0.37000000  0.20280000  1.0 0.0602866151
C  C179  1  0.19740000  0.63000000  0.70280000  1.0 0.0602866151
C  C180  1  0.80260000  0.63000000  0.79720000  1.0 0.0602866151
C  C181  1  0.83850000  0.31600000  0.33170000  1.0 -0.1914390002
C  C182  1  0.16150000  0.31600000  0.16830000  1.0 -0.1914390002
C  C183  1  0.16150000  0.68400000  0.66830000  1.0 -0.1914390002
C  C184  1  0.83850000  0.68400000  0.83170000  1.0 -0.1914390002
C  C185  1  0.81560000  0.24000000  0.33500000  1.0 0.097412433
C  C186  1  0.18440000  0.24000000  0.16500000  1.0 0.097412433
C  C187  1  0.18440000  0.76000000  0.66500000  1.0 0.097412433
C  C188  1  0.81560000  0.76000000  0.83500000  1.0 0.097412433
C  C189  1  0.73000000  0.26900000  0.27950000  1.0 0.0401474579
C  C190  1  0.27000000  0.26900000  0.22050000  1.0 0.0401474579
C  C191  1  0.27000000  0.73100000  0.72050000  1.0 0.0401474579
C  C192  1  0.73000000  0.73100000  0.77950000  1.0 0.0401474579
C  C193  1  0.74930000  0.34800000  0.27240000  1.0 -0.1602130405
C  C194  1  0.25070000  0.34800000  0.22760000  1.0 -0.1602130405
C  C195  1  0.25070000  0.65200000  0.72760000  1.0 -0.1602130405
C  C196  1  0.74930000  0.65200000  0.77240000  1.0 -0.1602130405
C  C197  1  0.78130000  0.63700000  0.22490000  1.0 0.0703224294
C  C198  1  0.21870000  0.63700000  0.27510000  1.0 0.0703224294
C  C199  1  0.21870000  0.36300000  0.77510000  1.0 0.0602866151
C  C200  1  0.78130000  0.36300000  0.72490000  1.0 0.0703224294
C  C201  1  0.72420000  0.64700000  0.20630000  1.0 -0.170299352
C  C202  1  0.27580000  0.64700000  0.29370000  1.0 -0.170299352
C  C203  1  0.27580000  0.35300000  0.79370000  1.0 -0.170299352
C  C204  1  0.72420000  0.35300000  0.70630000  1.0 -0.170299352
C  C205  1  0.69650000  0.70800000  0.17600000  1.0 0.0029027315
C  C206  1  0.30350000  0.70800000  0.32400000  1.0 0.0029027315
C  C207  1  0.30350000  0.29200000  0.82400000  1.0 0.0029027315
C  C208  1  0.69650000  0.29200000  0.67600000  1.0 0.0029027315
C  C209  1  0.76960000  0.73300000  0.17570000  1.0 0.0891718791
C  C210  1  0.23040000  0.73300000  0.32430000  1.0 0.0891718791
C  C211  1  0.23040000  0.26700000  0.82430000  1.0 0.0891718791
C  C212  1  0.76960000  0.26700000  0.67570000  1.0 0.0891718791
C  C213  1  0.80470000  0.68200000  0.20930000  1.0 -0.1806623415
C  C214  1  0.19530000  0.68200000  0.29070000  1.0 -0.1806623415
C  C215  1  0.19530000  0.31800000  0.79070000  1.0 -0.1806623415
C  C216  1  0.80470000  0.31800000  0.70930000  1.0 -0.1806623415
C  C217  1  0.69810000  0.33800000  0.43780000  1.0 0.3301097265
C  C218  1  0.30190000  0.33800000  0.06220000  1.0 0.3301097265
C  C219  1  0.30190000  0.66200000  0.56220000  1.0 0.3301097265
C  C220  1  0.69810000  0.66200000  0.93780000  1.0 0.3301097265
C  C221  1  0.68790000  0.34800000  0.48540000  1.0 0.2707000541
C  C222  1  0.31210000  0.34800000  0.01460000  1.0 0.2707000541
C  C223  1  0.31210000  0.65200000  0.51460000  1.0 0.2707000541
C  C224  1  0.68790000  0.65200000  0.98540000  1.0 0.2707000541
C  C225  1  0.67920000  0.46600000  0.45020000  1.0 0.3047629538
C  C226  1  0.32080000  0.46600000  0.04980000  1.0 0.3078413548
C  C227  1  0.32080000  0.53400000  0.54980000  1.0 0.3078413548
C  C228  1  0.67920000  0.53400000  0.95020000  1.0 0.3078413548
C  C229  1  0.71370000  0.28300000  0.41440000  1.0 0.0602866151
C  C230  1  0.28630000  0.28300000  0.08560000  1.0 0.0602866151
C  C231  1  0.28630000  0.71700000  0.58560000  1.0 0.0602866151
C  C232  1  0.71370000  0.71700000  0.91440000  1.0 0.0602866151
C  C233  1  0.70760000  0.31800000  0.38480000  1.0 -0.1602130405
C  C234  1  0.29240000  0.31800000  0.11520000  1.0 -0.1602130405
C  C235  1  0.29240000  0.68200000  0.61520000  1.0 -0.1602130405
C  C236  1  0.70760000  0.68200000  0.88480000  1.0 -0.1602130405
C  C237  1  0.72050000  0.27400000  0.36040000  1.0 0.0207733519
C  C238  1  0.27950000  0.27400000  0.13960000  1.0 0.0207733519
C  C239  1  0.27950000  0.72600000  0.63960000  1.0 0.0207733519
C  C240  1  0.72050000  0.72600000  0.86040000  1.0 0.0207733519
C  C241  1  0.73680000  0.15400000  0.39960000  1.0 0.0496113123
C  C242  1  0.26320000  0.15400000  0.10040000  1.0 0.0496113123
C  C243  1  0.26320000  0.84600000  0.60040000  1.0 0.0496113123
C  C244  1  0.73680000  0.84600000  0.89960000  1.0 0.0496113123
C  C245  1  0.72640000  0.19300000  0.42130000  1.0 -0.1602130405
C  C246  1  0.27360000  0.19300000  0.07870000  1.0 -0.1602130405
C  C247  1  0.27360000  0.80700000  0.57870000  1.0 -0.1602130405
C  C248  1  0.72640000  0.80700000  0.92130000  1.0 -0.1602130405
C  C249  1  0.68370000  0.30200000  0.51380000  1.0 0.0602866151
C  C250  1  0.31630000  0.30200000  0.98620000  1.0 0.0602866151
C  C251  1  0.31630000  0.69800000  0.48620000  1.0 0.0602866151
C  C252  1  0.68370000  0.69800000  0.01380000  1.0 0.0602866151
C  C253  1  0.69950000  0.20900000  0.52560000  1.0 -0.1806623415
C  C254  1  0.30050000  0.20900000  0.97440000  1.0 -0.1806623415
C  C255  1  0.30050000  0.79100000  0.47440000  1.0 -0.1806623415
C  C256  1  0.69950000  0.79100000  0.02560000  1.0 -0.1806623415
C  C257  1  0.69510000  0.17400000  0.55160000  1.0 0.0401474579
C  C258  1  0.30490000  0.17400000  0.94840000  1.0 0.0401474579
C  C259  1  0.30490000  0.82600000  0.44840000  1.0 0.0401474579
C  C260  1  0.69510000  0.82600000  0.05160000  1.0 0.0401474579
C  C261  1  0.66630000  0.30500000  0.56230000  1.0 0.0703224294
C  C262  1  0.33370000  0.30500000  0.93770000  1.0 0.0703224294
C  C263  1  0.33370000  0.69500000  0.43770000  1.0 0.0703224294
C  C264  1  0.66630000  0.69500000  0.06230000  1.0 0.0703224294
C  C265  1  0.67000000  0.34800000  0.53640000  1.0 -0.1914390002
C  C266  1  0.33000000  0.34800000  0.96360000  1.0 -0.1914390002
C  C267  1  0.33000000  0.65200000  0.46360000  1.0 -0.1914390002
C  C268  1  0.67000000  0.65200000  0.03640000  1.0 -0.1914390002
C  C269  1  0.67440000  0.56800000  0.44320000  1.0 0.0703224294
C  C270  1  0.32560000  0.56800000  0.05680000  1.0 0.0703224294
C  C271  1  0.32560000  0.43200000  0.55680000  1.0 0.0703224294
C  C272  1  0.67440000  0.43200000  0.94320000  1.0 0.0703224294
C  C273  1  0.66420000  0.62700000  0.46500000  1.0 -0.170299352
C  C274  1  0.33580000  0.62700000  0.03500000  1.0 -0.170299352
C  C275  1  0.33580000  0.37300000  0.53500000  1.0 -0.170299352
C  C276  1  0.66420000  0.37300000  0.96500000  1.0 -0.170299352
C  C277  1  0.66240000  0.71800000  0.45760000  1.0 0.0293263626
C  C278  1  0.33760000  0.71800000  0.04240000  1.0 0.0207733519
C  C279  1  0.33760000  0.28200000  0.54240000  1.0 0.0293263626
C  C280  1  0.66240000  0.28200000  0.95760000  1.0 0.0207733519
C  C281  1  0.66750000  0.68900000  0.40480000  1.0 0.0401474579
C  C282  1  0.33250000  0.68900000  0.09520000  1.0 0.0401474579
C  C283  1  0.33250000  0.31100000  0.59520000  1.0 0.0401474579
C  C284  1  0.66750000  0.31100000  0.90480000  1.0 0.0401474579
C  C285  1  0.67210000  0.60400000  0.41300000  1.0 -0.170299352
C  C286  1  0.32790000  0.60400000  0.08700000  1.0 -0.170299352
C  C287  1  0.32790000  0.39600000  0.58700000  1.0 -0.170299352
C  C288  1  0.67210000  0.39600000  0.91300000  1.0 -0.170299352
I  I1  1  0.68492000  0.90310000  0.36996000  1.0 0.0891718791
I  I2  1  0.31508000  0.90310000  0.13004000  1.0 0.0891718791
I  I3  1  0.31508000  0.09690000  0.63004000  1.0 0.0891718791
I  I4  1  0.68492000  0.09690000  0.86996000  1.0 0.079958833
I  I5  1  0.69710000  0.98100000  0.47593000  1.0 0.0207733519
I  I6  1  0.30290000  0.98100000  0.02407000  1.0 0.0207733519
I  I7  1  0.30290000  0.01900000  0.52407000  1.0 0.0207733519
I  I8  1  0.69710000  0.01900000  0.97593000  1.0 0.0207733519
I  I9  1  0.14598000  0.39100000  0.27912000  1.0 -0.4104528584
I  I10  1  0.85402000  0.39100000  0.22088000  1.0 -0.4198751805
I  I11  1  0.85402000  0.60900000  0.72088000  1.0 -0.4104528584
I  I12  1  0.14598000  0.60900000  0.77912000  1.0 -0.4104528584
I  I13  1  0.31061000  0.47800000  0.37698000  1.0 -0.2178376151
I  I14  1  0.68939000  0.47800000  0.12302000  1.0 -0.2178376151
I  I15  1  0.68939000  0.52200000  0.62302000  1.0 -0.2178376151
I  I16  1  0.31061000  0.52200000  0.87698000  1.0 -0.2178376151
I  I17  1  0.80954000  0.99760000  0.35891000  1.0 -0.3529599217
I  I18  1  0.19046000  0.99760000  0.14109000  1.0 -0.3529599217
I  I19  1  0.19046000  0.00240000  0.64109000  1.0 -0.3529599217
I  I20  1  0.80954000  0.00240000  0.85891000  1.0 -0.3529599217
I  I21  1  0.63982000  0.08420000  0.26977000  1.0 -0.236815354
I  I22  1  0.36018000  0.08420000  0.23023000  1.0 -0.236815354
I  I23  1  0.36018000  0.91580000  0.73023000  1.0 -0.236815354
I  I24  1  0.63982000  0.91580000  0.76977000  1.0 -0.236815354
I  I25  1  0.19300000  0.49030000  0.62620000  1.0 -0.0495771565
I  I26  1  0.80700000  0.49030000  0.87380000  1.0 -0.0495771565
I  I27  1  0.80700000  0.50970000  0.37380000  1.0 -0.0495771565
I  I28  1  0.19300000  0.50970000  0.12620000  1.0 -0.0495771565
I  I29  1  0.06010000  0.31210000  0.59480000  1.0 0.0293263626
I  I30  1  0.93990000  0.31210000  0.90520000  1.0 0.0293263626
I  I31  1  0.93990000  0.68790000  0.40520000  1.0 0.0293263626
I  I32  1  0.06010000  0.68790000  0.09480000  1.0 0.0293263626
I  I33  1  0.18160000  0.51310000  0.48090000  1.0 -0.0190648744
I  I34  1  0.81840000  0.51310000  0.01910000  1.0 -0.0190648744
I  I35  1  0.81840000  0.48690000  0.51910000  1.0 -0.0190648744
I  I36  1  0.18160000  0.48690000  0.98090000  1.0 -0.0190648744
I  I37  1  0.18080000  0.58480000  0.37780000  1.0 -0.0190648744
I  I38  1  0.81920000  0.58480000  0.12220000  1.0 -0.0190648744
I  I39  1  0.81920000  0.41520000  0.62220000  1.0 -0.0190648744
I  I40  1  0.18080000  0.41520000  0.87780000  1.0 -0.0190648744
I  I41  1  0.58478000  0.86840000  0.09057000  1.0 -0.0495771565
I  I42  1  0.41522000  0.86840000  0.40943000  1.0 -0.0439364991
I  I43  1  0.41522000  0.13160000  0.90943000  1.0 -0.0439364991
I  I44  1  0.58478000  0.13160000  0.59057000  1.0 -0.0439364991
I  I45  1  0.74714000  0.97550000  0.14070000  1.0 0.0602866151
I  I46  1  0.25286000  0.97550000  0.35930000  1.0 0.0602866151
I  I47  1  0.25286000  0.02450000  0.85930000  1.0 0.0602866151
I  I48  1  0.74714000  0.02450000  0.64070000  1.0 0.0602866151
I  I49  1  0.58239000  0.18480000  0.99210000  1.0 -0.1988700044
I  I50  1  0.41761000  0.18480000  0.50790000  1.0 -0.1914390002
I  I51  1  0.41761000  0.81520000  0.00790000  1.0 -0.1914390002
I  I52  1  0.58239000  0.81520000  0.49210000  1.0 -0.1914390002
I  I53  1  0.65682000  0.09130000  0.05841000  1.0 -0.0190648744
I  I54  1  0.34318000  0.09130000  0.44159000  1.0 -0.0190648744
I  I55  1  0.34318000  0.90870000  0.94159000  1.0 -0.0190648744
I  I56  1  0.65682000  0.90870000  0.55841000  1.0 -0.0190648744
I  I57  1  0.10296000  0.89990000  0.55696000  1.0 -0.0594887283
I  I58  1  0.89704000  0.89990000  0.94304000  1.0 -0.0495771565
I  I59  1  0.89704000  0.10010000  0.44304000  1.0 -0.0495771565
I  I60  1  0.10296000  0.10010000  0.05696000  1.0 -0.0594887283
I  I61  1  0.02792000  0.80720000  0.49032000  1.0 -0.0190648744
I  I62  1  0.97208000  0.80720000  0.00968000  1.0 -0.0190648744
I  I63  1  0.97208000  0.19280000  0.50968000  1.0 -0.0190648744
I  I64  1  0.02792000  0.19280000  0.99032000  1.0 -0.0190648744
I  I65  1  0.66770000  0.91200000  0.37960000  1.0 -0.0495771565
I  I66  1  0.33230000  0.91200000  0.12040000  1.0 -0.0439364991
I  I67  1  0.33230000  0.08800000  0.62040000  1.0 -0.0495771565
I  I68  1  0.66770000  0.08800000  0.87960000  1.0 -0.0439364991
I  I69  1  0.68000000  0.97000000  0.48720000  1.0 0.0891718791
I  I70  1  0.32000000  0.97000000  0.01280000  1.0 0.0891718791
I  I71  1  0.32000000  0.03000000  0.51280000  1.0 0.0891718791
I  I72  1  0.68000000  0.03000000  0.98720000  1.0 0.0891718791
I  I73  1  0.91480000  0.63900000  0.39620000  1.0 0.0091612094
I  I74  1  0.08520000  0.63900000  0.10380000  1.0 0.0091612094
I  I75  1  0.08520000  0.36100000  0.60380000  1.0 0.0091612094
I  I76  1  0.91480000  0.36100000  0.89620000  1.0 0.0091612094
I  I77  1  0.17130000  0.53640000  0.50900000  1.0 0.0207733519
I  I78  1  0.82870000  0.53640000  0.99100000  1.0 0.0207733519
I  I79  1  0.82870000  0.46360000  0.49100000  1.0 0.0091612094
I  I80  1  0.17130000  0.46360000  0.00900000  1.0 0.0207733519
I  I81  1  0.19400000  0.54640000  0.41450000  1.0 -0.0439364991
I  I82  1  0.80600000  0.54640000  0.08550000  1.0 -0.0495771565
I  I83  1  0.80600000  0.45360000  0.58550000  1.0 -0.0495771565
I  I84  1  0.19400000  0.45360000  0.91450000  1.0 -0.0439364991
I  I85  1  0.10220000  0.40400000  0.35790000  1.0 0.0293263626
I  I86  1  0.89780000  0.40400000  0.14210000  1.0 0.0293263626
I  I87  1  0.89780000  0.59600000  0.64210000  1.0 0.0207733519
I  I88  1  0.10220000  0.59600000  0.85790000  1.0 0.0293263626
I  I89  1  0.02320000  0.28780000  0.30670000  1.0 -0.0495771565
I  I90  1  0.97680000  0.28780000  0.19330000  1.0 -0.0495771565
I  I91  1  0.97680000  0.71220000  0.69330000  1.0 -0.0495771565
I  I92  1  0.02320000  0.71220000  0.80670000  1.0 -0.0495771565
I  I93  1  0.04550000  0.26110000  0.35990000  1.0 -0.0120424055
I  I94  1  0.95450000  0.26110000  0.14010000  1.0 -0.0190648744
I  I95  1  0.95450000  0.73890000  0.64010000  1.0 -0.0120424055
I  I96  1  0.04550000  0.73890000  0.85990000  1.0 -0.0190648744
I  I97  1  0.08010000  0.32800000  0.31840000  1.0 -0.028833823
I  I98  1  0.91990000  0.32800000  0.18160000  1.0 -0.028833823
I  I99  1  0.91990000  0.67200000  0.68160000  1.0 -0.0190648744
I  I100  1  0.08010000  0.67200000  0.81840000  1.0 -0.028833823
I  I101  1  0.03130000  0.99480000  0.52320000  1.0 0.0401474579
I  I102  1  0.96870000  0.99480000  0.97680000  1.0 0.0293263626
I  I103  1  0.96870000  0.00520000  0.47680000  1.0 0.0293263626
I  I104  1  0.03130000  0.00520000  0.02320000  1.0 0.0293263626
I  I105  1  0.08270000  0.83800000  0.53390000  1.0 -0.0495771565
I  I106  1  0.91730000  0.83800000  0.96610000  1.0 -0.0495771565
I  I107  1  0.91730000  0.16200000  0.46610000  1.0 -0.0495771565
I  I108  1  0.08270000  0.16200000  0.03390000  1.0 -0.0594887283
I  I109  1  0.58860000  0.16200000  0.31000000  1.0 0.0401474579
I  I110  1  0.41140000  0.16200000  0.19000000  1.0 0.0401474579
I  I111  1  0.41140000  0.83800000  0.69000000  1.0 0.0401474579
I  I112  1  0.58860000  0.83800000  0.81000000  1.0 0.0496113123
I  I113  1  0.54940000  0.24270000  0.34610000  1.0 -0.0120424055
I  I114  1  0.45060000  0.24270000  0.15390000  1.0 -0.0120424055
I  I115  1  0.45060000  0.75730000  0.65390000  1.0 -0.0190648744
I  I116  1  0.54940000  0.75730000  0.84610000  1.0 -0.0190648744
I  I117  1  0.13550000  0.56800000  0.55610000  1.0 0.0496113123
I  I118  1  0.86450000  0.56800000  0.94390000  1.0 0.0496113123
I  I119  1  0.86450000  0.43200000  0.44390000  1.0 0.0496113123
I  I120  1  0.13550000  0.43200000  0.05610000  1.0 0.0496113123
I  I121  1  0.04340000  0.59360000  0.48240000  1.0 0.0207733519
I  I122  1  0.95660000  0.59360000  0.01760000  1.0 0.0207733519
I  I123  1  0.95660000  0.40640000  0.51760000  1.0 0.0207733519
I  I124  1  0.04340000  0.40640000  0.98240000  1.0 0.0207733519
I  I125  1  0.14240000  0.59300000  0.56140000  1.0 0.079958833
I  I126  1  0.85760000  0.59300000  0.93860000  1.0 0.079958833
I  I127  1  0.85760000  0.40700000  0.43860000  1.0 0.079958833
I  I128  1  0.14240000  0.40700000  0.06140000  1.0 0.079958833
I  I129  1  0.04810000  0.50800000  0.50750000  1.0 -0.0120424055
I  I130  1  0.95190000  0.50800000  0.99250000  1.0 -0.0120424055
I  I131  1  0.95190000  0.49200000  0.49250000  1.0 -0.0120424055
I  I132  1  0.04810000  0.49200000  0.00750000  1.0 -0.0120424055
I  I133  1  0.98360000  0.86900000  0.38340000  1.0 0.0207733519
I  I134  1  0.01640000  0.86900000  0.11660000  1.0 0.0207733519
I  I135  1  0.01640000  0.13100000  0.61660000  1.0 0.0207733519
I  I136  1  0.98360000  0.13100000  0.88340000  1.0 0.0207733519
I  I137  1  0.02290000  0.99700000  0.36100000  1.0 -0.028833823
I  I138  1  0.97710000  0.99700000  0.13900000  1.0 -0.028833823
I  I139  1  0.97710000  0.00300000  0.63900000  1.0 -0.028833823
I  I140  1  0.02290000  0.00300000  0.86100000  1.0 -0.028833823
I  I141  1  0.95490000  0.82330000  0.40280000  1.0 0.0029027315
I  I142  1  0.04510000  0.82330000  0.09720000  1.0 0.0029027315
I  I143  1  0.04510000  0.17670000  0.59720000  1.0 -0.0021770355
I  I144  1  0.95490000  0.17670000  0.90280000  1.0 0.0029027315
I  I145  1  0.98700000  0.99590000  0.40850000  1.0 0.1211095515
I  I146  1  0.01300000  0.99590000  0.09150000  1.0 0.1116507711
I  I147  1  0.01300000  0.00410000  0.59150000  1.0 0.1211095515
I  I148  1  0.98700000  0.00410000  0.90850000  1.0 0.1116507711
I  I149  1  0.00220000  0.24800000  0.44080000  1.0 -0.0594887283
I  I150  1  0.99780000  0.24800000  0.05920000  1.0 -0.0495771565
I  I151  1  0.99780000  0.75200000  0.55920000  1.0 -0.0495771565
I  I152  1  0.00220000  0.75200000  0.94080000  1.0 -0.0594887283
I  I153  1  0.01910000  0.24380000  0.38430000  1.0 0.0091612094
I  I154  1  0.98090000  0.24380000  0.11570000  1.0 0.0029027315
I  I155  1  0.98090000  0.75620000  0.61570000  1.0 0.0029027315
I  I156  1  0.01910000  0.75620000  0.88430000  1.0 0.0091612094
I  I157  1  0.01310000  0.19700000  0.42620000  1.0 -0.0667704684
I  I158  1  0.98690000  0.19700000  0.07380000  1.0 -0.0667704684
I  I159  1  0.98690000  0.80300000  0.57380000  1.0 -0.0667704684
I  I160  1  0.01310000  0.80300000  0.92620000  1.0 -0.0667704684
I  I161  1  0.02570000  0.36420000  0.45590000  1.0 0.0091612094
I  I162  1  0.97430000  0.36420000  0.04410000  1.0 0.0091612094
I  I163  1  0.97430000  0.63580000  0.54410000  1.0 0.0091612094
I  I164  1  0.02570000  0.63580000  0.95590000  1.0 0.0091612094
I  I165  1  0.56200000  0.85000000  0.09410000  1.0 0.0207733519
I  I166  1  0.43800000  0.85000000  0.40590000  1.0 0.0293263626
I  I167  1  0.43800000  0.15000000  0.90590000  1.0 0.0207733519
I  I168  1  0.56200000  0.15000000  0.59410000  1.0 0.0293263626
I  I169  1  0.53180000  0.70270000  0.10170000  1.0 -0.028833823
I  I170  1  0.46820000  0.70270000  0.39830000  1.0 -0.028833823
I  I171  1  0.46820000  0.29730000  0.89830000  1.0 -0.028833823
I  I172  1  0.53180000  0.29730000  0.60170000  1.0 -0.028833823
I  I173  1  0.48210000  0.58360000  0.11920000  1.0 0.0207733519
I  I174  1  0.51790000  0.58360000  0.38080000  1.0 0.0207733519
I  I175  1  0.51790000  0.41640000  0.88080000  1.0 0.0207733519
I  I176  1  0.48210000  0.41640000  0.61920000  1.0 0.0207733519
I  I177  1  0.52190000  0.67070000  0.08710000  1.0 -0.0495771565
I  I178  1  0.47810000  0.67070000  0.41290000  1.0 -0.0495771565
I  I179  1  0.47810000  0.32930000  0.91290000  1.0 -0.0495771565
I  I180  1  0.52190000  0.32930000  0.58710000  1.0 -0.0495771565
I  I181  1  0.47420000  0.51540000  0.08500000  1.0 0.0293263626
I  I182  1  0.52580000  0.51540000  0.41500000  1.0 0.0293263626
I  I183  1  0.52580000  0.48460000  0.91500000  1.0 0.0401474579
I  I184  1  0.47420000  0.48460000  0.58500000  1.0 0.0401474579
I  I185  1  0.42620000  0.32560000  0.31900000  1.0 -0.0594887283
I  I186  1  0.57380000  0.32560000  0.18100000  1.0 -0.0594887283
I  I187  1  0.57380000  0.67440000  0.68100000  1.0 -0.0594887283
I  I188  1  0.42620000  0.67440000  0.81900000  1.0 -0.0667704684
I  I189  1  0.37475000  0.41350000  0.34418000  1.0 0.0207733519
I  I190  1  0.62525000  0.41350000  0.15582000  1.0 0.0207733519
I  I191  1  0.62525000  0.58650000  0.65582000  1.0 0.0207733519
I  I192  1  0.37475000  0.58650000  0.84418000  1.0 0.0207733519
I  I193  1  0.23800000  0.49160000  0.64400000  1.0 0.0602866151
I  I194  1  0.76200000  0.49160000  0.85600000  1.0 0.0602866151
I  I195  1  0.76200000  0.50840000  0.35600000  1.0 0.0602866151
I  I196  1  0.23800000  0.50840000  0.14400000  1.0 0.0602866151
I  I197  1  0.40320000  0.40310000  0.78380000  1.0 -0.1055261699
I  I198  1  0.59680000  0.40310000  0.71620000  1.0 -0.1021576407
I  I199  1  0.59680000  0.59690000  0.21620000  1.0 -0.1021576407
I  I200  1  0.40320000  0.59690000  0.28380000  1.0 -0.1021576407
I  I201  1  0.31180000  0.45160000  0.71330000  1.0 0.0091612094
I  I202  1  0.68820000  0.45160000  0.78670000  1.0 0.0091612094
I  I203  1  0.68820000  0.54840000  0.28670000  1.0 0.0091612094
I  I204  1  0.31180000  0.54840000  0.21330000  1.0 0.0091612094
I  I205  1  0.71650000  0.97500000  0.13540000  1.0 -0.0021770355
I  I206  1  0.28350000  0.97500000  0.36460000  1.0 -0.0021770355
I  I207  1  0.28350000  0.02500000  0.86460000  1.0 -0.0120424055
I  I208  1  0.71650000  0.02500000  0.63540000  1.0 -0.0021770355
N  N1  1  0.37180000  0.88530000  0.28740000  1.0 -0.4104528584
N  N2  1  0.62820000  0.88530000  0.21260000  1.0 -0.4104528584
N  N3  1  0.62820000  0.11470000  0.71260000  1.0 -0.4104528584
N  N4  1  0.37180000  0.11470000  0.78740000  1.0 -0.4104528584
N  N5  1  0.38810000  0.01400000  0.32640000  1.0 -0.4198751805
N  N6  1  0.61190000  0.01400000  0.17360000  1.0 -0.4198751805
N  N7  1  0.61190000  0.98600000  0.67360000  1.0 -0.4198751805
N  N8  1  0.38810000  0.98600000  0.82640000  1.0 -0.4198751805
N  N9  1  0.29640000  0.96700000  0.27480000  1.0 -0.4198751805
N  N10  1  0.70360000  0.96700000  0.22520000  1.0 -0.4198751805
N  N11  1  0.70360000  0.03300000  0.72520000  1.0 -0.4198751805
N  N12  1  0.29640000  0.03300000  0.77480000  1.0 -0.4198751805
N  N13  1  0.57270000  0.89900000  0.38320000  1.0 -0.1497835779
N  N14  1  0.42730000  0.89900000  0.11680000  1.0 -0.1497835779
N  N15  1  0.42730000  0.10100000  0.61680000  1.0 -0.1497835779
N  N16  1  0.57270000  0.10100000  0.88320000  1.0 -0.1497835779
N  N17  1  0.27240000  0.25100000  0.32510000  1.0 -0.1988700044
N  N18  1  0.72760000  0.25100000  0.17490000  1.0 -0.1988700044
N  N19  1  0.72760000  0.74900000  0.67490000  1.0 -0.1988700044
N  N20  1  0.27240000  0.74900000  0.82510000  1.0 -0.1988700044
N  N21  1  0.21350000  0.73800000  0.16850000  1.0 -0.1806623415
N  N22  1  0.78650000  0.73800000  0.33150000  1.0 -0.1806623415
N  N23  1  0.78650000  0.26200000  0.83150000  1.0 -0.1806623415
N  N24  1  0.21350000  0.26200000  0.66850000  1.0 -0.1806623415
N  N25  1  0.17100000  0.06400000  0.43370000  1.0 -0.3957515342
N  N26  1  0.82900000  0.06400000  0.06630000  1.0 -0.3957515342
N  N27  1  0.82900000  0.93600000  0.56630000  1.0 -0.3957515342
N  N28  1  0.17100000  0.93600000  0.93370000  1.0 -0.3957515342
N  N29  1  0.18460000  0.19500000  0.46960000  1.0 -0.4104528584
N  N30  1  0.81540000  0.19500000  0.03040000  1.0 -0.4104528584
N  N31  1  0.81540000  0.80500000  0.53040000  1.0 -0.4104528584
N  N32  1  0.18460000  0.80500000  0.96960000  1.0 -0.4104528584
N  N33  1  0.15760000  0.05600000  0.48490000  1.0 -0.4700706361
N  N34  1  0.84240000  0.05600000  0.01510000  1.0 -0.4700706361
N  N35  1  0.84240000  0.94400000  0.51510000  1.0 -0.4700706361
N  N36  1  0.15760000  0.94400000  0.98490000  1.0 -0.4700706361
N  N37  1  0.22990000  0.29100000  0.37700000  1.0 -0.1988700044
N  N38  1  0.77010000  0.29100000  0.12300000  1.0 -0.1988700044
N  N39  1  0.77010000  0.70900000  0.62300000  1.0 -0.1988700044
N  N40  1  0.22990000  0.70900000  0.87700000  1.0 -0.1988700044
N  N41  1  0.16340000  0.27500000  0.57530000  1.0 -0.1914390002
N  N42  1  0.83660000  0.27500000  0.92470000  1.0 -0.1914390002
N  N43  1  0.83660000  0.72500000  0.42470000  1.0 -0.1914390002
N  N44  1  0.16340000  0.72500000  0.07530000  1.0 -0.1914390002
N  N45  1  0.15220000  0.73700000  0.43820000  1.0 -0.1806623415
N  N46  1  0.84780000  0.73700000  0.06180000  1.0 -0.1806623415
N  N47  1  0.84780000  0.26300000  0.56180000  1.0 -0.1806623415
N  N48  1  0.15220000  0.26300000  0.93820000  1.0 -0.1806623415
N  N49  1  0.86670000  0.59420000  0.28100000  1.0 -0.3824770806
N  N50  1  0.13330000  0.59420000  0.21900000  1.0 -0.3824770806
N  N51  1  0.13330000  0.40580000  0.71900000  1.0 -0.3824770806
N  N52  1  0.86670000  0.40580000  0.78100000  1.0 -0.3824770806
N  N53  1  0.87870000  0.46500000  0.31590000  1.0 -0.3716333268
N  N54  1  0.12130000  0.46500000  0.18410000  1.0 -0.3716333268
N  N55  1  0.12130000  0.53500000  0.68410000  1.0 -0.3716333268
N  N56  1  0.87870000  0.53500000  0.81590000  1.0 -0.3716333268
N  N57  1  0.79060000  0.50500000  0.26160000  1.0 -0.3957515342
N  N58  1  0.20940000  0.50500000  0.23840000  1.0 -0.3957515342
N  N59  1  0.20940000  0.49500000  0.73840000  1.0 -0.3957515342
N  N60  1  0.79060000  0.49500000  0.76160000  1.0 -0.3957515342
N  N61  1  0.06680000  0.58300000  0.39150000  1.0 -0.1988700044
N  N62  1  0.93320000  0.58300000  0.10850000  1.0 -0.1988700044
N  N63  1  0.93320000  0.41700000  0.60850000  1.0 -0.1988700044
N  N64  1  0.06680000  0.41700000  0.89150000  1.0 -0.1988700044
N  N65  1  0.76750000  0.21800000  0.31140000  1.0 -0.1806623415
N  N66  1  0.23250000  0.21800000  0.18860000  1.0 -0.1806623415
N  N67  1  0.23250000  0.78200000  0.68860000  1.0 -0.1806623415
N  N68  1  0.76750000  0.78200000  0.81140000  1.0 -0.1806623415
N  N69  1  0.71990000  0.75000000  0.16000000  1.0 -0.1914390002
N  N70  1  0.28010000  0.75000000  0.34000000  1.0 -0.1914390002
N  N71  1  0.28010000  0.25000000  0.84000000  1.0 -0.1914390002
N  N72  1  0.71990000  0.25000000  0.66000000  1.0 -0.1914390002
N  N73  1  0.68760000  0.42200000  0.42650000  1.0 -0.4104528584
N  N74  1  0.31240000  0.42200000  0.07350000  1.0 -0.4104528584
N  N75  1  0.31240000  0.57800000  0.57350000  1.0 -0.4104528584
N  N76  1  0.68760000  0.57800000  0.92650000  1.0 -0.4104528584
N  N77  1  0.70080000  0.29500000  0.46490000  1.0 -0.3716333268
N  N78  1  0.29920000  0.29500000  0.03510000  1.0 -0.3716333268
N  N79  1  0.29920000  0.70500000  0.53510000  1.0 -0.3716333268
N  N80  1  0.70080000  0.70500000  0.96490000  1.0 -0.3716333268
N  N81  1  0.67640000  0.43500000  0.47730000  1.0 -0.3862428722
N  N82  1  0.32360000  0.43500000  0.02270000  1.0 -0.3862428722
N  N83  1  0.32360000  0.56500000  0.52270000  1.0 -0.3862428722
N  N84  1  0.67640000  0.56500000  0.97730000  1.0 -0.3862428722
N  N85  1  0.73630000  0.18400000  0.36940000  1.0 -0.210314179
N  N86  1  0.26370000  0.18400000  0.13060000  1.0 -0.210314179
N  N87  1  0.26370000  0.81600000  0.63060000  1.0 -0.210314179
N  N88  1  0.73630000  0.81600000  0.86940000  1.0 -0.210314179
N  N89  1  0.68150000  0.22000000  0.57190000  1.0 -0.1914390002
N  N90  1  0.31850000  0.22000000  0.92810000  1.0 -0.1914390002
N  N91  1  0.31850000  0.78000000  0.42810000  1.0 -0.1914390002
N  N92  1  0.68150000  0.78000000  0.07190000  1.0 -0.1914390002
N  N93  1  0.66440000  0.74800000  0.42800000  1.0 -0.1806623415
N  N94  1  0.33560000  0.74800000  0.07200000  1.0 -0.170299352
N  N95  1  0.33560000  0.25200000  0.57200000  1.0 -0.1806623415
N  N96  1  0.66440000  0.25200000  0.92800000  1.0 -0.1806623415
