# DDEC6 charges by PACMAN v1.1 (https://github.com/mtap-research/PACMAN-charge/)
data_FAVFOA_ion_pacman
_symmetry_space_group_name_H-M   'P 1'
_cell_length_a   23.94250000
_cell_length_b   20.98240000
_cell_length_c   20.72630000
_cell_angle_alpha   70.06200000
_cell_angle_beta   55.47080000
_cell_angle_gamma   54.46720000
_symmetry_Int_Tables_number   1
_chemical_formula_structural   Mg2Cd4H100C144N3O32
_chemical_formula_sum   'Mg4 Cd8 H200 C288 N6 O64'
_cell_volume   6979.61923048
_cell_formula_units_Z   2
loop_
 _symmetry_equiv_pos_site_id
 _symmetry_equiv_pos_as_xyz
  1  'x, y, z'
loop_
 _atom_site_type_symbol
 _atom_site_label
 _atom_site_symmetry_multiplicity
 _atom_site_fract_x
 _atom_site_fract_y
 _atom_site_fract_z
 _atom_site_occupancy
 _atom_site_charge
Mg  Mg1  1  0.41585000  0.14777000  0.69891000  1.0 1.3810959339
Mg  Mg2  1  0.73747000  0.69891000  0.14777000  1.0 1.3810959339
Mg  Mg3  1  0.10223000  0.83415000  0.51253000  1.0 1.3810959339
Mg  Mg4  1  0.55109000  0.51253000  0.83415000  1.0 1.3810959339
Cd  Cd1  1  0.49957000  0.13501000  0.50255000  1.0 0.9302013397
Cd  Cd2  1  0.32080000  0.17576000  0.89504000  1.0 0.9368991286
Cd  Cd3  1  0.86287000  0.50255000  0.13501000  1.0 0.9302013397
Cd  Cd4  1  0.60840000  0.89504000  0.17576000  1.0 0.9368991286
Cd  Cd5  1  0.11499000  0.75043000  0.38713000  1.0 0.9302013397
Cd  Cd6  1  0.07424000  0.92920000  0.64160000  1.0 0.9368991286
Cd  Cd7  1  0.74745000  0.38713000  0.75043000  1.0 0.9302013397
Cd  Cd8  1  0.35496000  0.64160000  0.92920000  1.0 0.9368991286
H  H1  1  0.10390000  0.71310000  0.79950000  1.0 0.1109035599
H  H2  1  0.14070000  0.59390000  0.85970000  1.0 0.0975038383
H  H3  1  0.21560000  0.44880000  0.85280000  1.0 0.1283952597
H  H4  1  0.22930000  0.61410000  0.59290000  1.0 0.1283952597
H  H5  1  0.30500000  0.46900000  0.58540000  1.0 0.1188165724
H  H6  1  0.34630000  0.34670000  0.64390000  1.0 0.1283952597
H  H7  1  0.23060000  0.88080000  0.36240000  1.0 0.070003279
H  H8  1  0.08900000  0.10840000  0.41080000  1.0 0.070003279
H  H9  1  0.28090000  0.90810000  0.23150000  1.0 0.1109035599
H  H10  1  0.28590000  0.00810000  0.12150000  1.0 0.0787616568
H  H11  1  0.13830000  0.23670000  0.17050000  1.0 0.0787616568
H  H12  1  0.08640000  0.20700000  0.30260000  1.0 0.0787616568
H  H13  1  0.50830000  0.41050000  0.76770000  1.0 0.1283952597
H  H14  1  0.46000000  0.36400000  0.73880000  1.0 0.1283952597
H  H15  1  0.48340000  0.27160000  0.66140000  1.0 0.1283952597
H  H16  1  0.70210000  0.12350000  0.51490000  1.0 0.1188165724
H  H17  1  0.75120000  0.16200000  0.55340000  1.0 0.1109035599
H  H18  1  0.72830000  0.24810000  0.63250000  1.0 0.1283952597
H  H19  1  0.17100000  0.17640000  0.56040000  1.0 0.1188165724
H  H20  1  0.29020000  0.14460000  0.53520000  1.0 0.070003279
H  H21  1  0.02370000  0.24970000  0.64070000  1.0 0.0874754798
H  H22  1  0.19250000  0.27870000  0.70790000  1.0 0.0787616568
H  H23  1  0.04060000  0.36040000  0.78220000  1.0 0.0975038383
H  H24  1  0.92370000  0.39290000  0.80470000  1.0 0.0874754798
H  H25  1  0.19260000  0.30280000  0.72660000  1.0 0.0787616568
H  H26  1  0.25870000  0.16970000  0.56730000  1.0 0.0644222081
H  H27  1  0.06660000  0.35180000  0.76600000  1.0 0.1109035599
H  H28  1  0.96440000  0.35860000  0.75460000  1.0 0.0874754798
H  H29  1  0.02650000  0.22890000  0.59890000  1.0 0.0787616568
H  H30  1  0.15658000  0.17678000  0.55742000  1.0 0.0874754798
H  H31  1  0.04570000  0.14210000  0.45490000  1.0 0.0787616568
H  H32  1  0.07060000  0.20000000  0.33480000  1.0 0.070003279
H  H33  1  0.20400000  0.92860000  0.35640000  1.0 0.0787616568
H  H34  1  0.15720000  0.18460000  0.18660000  1.0 0.070003279
H  H35  1  0.31990000  0.97330000  0.09610000  1.0 0.070003279
H  H36  1  0.28610000  0.91670000  0.21490000  1.0 0.1188165724
H  H37  1  0.38350000  0.79950000  0.71310000  1.0 0.1109035599
H  H38  1  0.40570000  0.85970000  0.59390000  1.0 0.0975038383
H  H39  1  0.48280000  0.85280000  0.44880000  1.0 0.1283952597
H  H40  1  0.56370000  0.59290000  0.61410000  1.0 0.1283952597
H  H41  1  0.64060000  0.58540000  0.46900000  1.0 0.1188165724
H  H42  1  0.66310000  0.64390000  0.34670000  1.0 0.1283952597
H  H43  1  0.52620000  0.36240000  0.88080000  1.0 0.070003279
H  H44  1  0.39180000  0.41080000  0.10840000  1.0 0.070003279
H  H45  1  0.57950000  0.23150000  0.90810000  1.0 0.1109035599
H  H46  1  0.58450000  0.12150000  0.00810000  1.0 0.0787616568
H  H47  1  0.45450000  0.17050000  0.23670000  1.0 0.0787616568
H  H48  1  0.40400000  0.30260000  0.20700000  1.0 0.0787616568
H  H49  1  0.31350000  0.76770000  0.41050000  1.0 0.1283952597
H  H50  1  0.43720000  0.73880000  0.36400000  1.0 0.1283952597
H  H51  1  0.58360000  0.66140000  0.27160000  1.0 0.1283952597
H  H52  1  0.65950000  0.51490000  0.12350000  1.0 0.1188165724
H  H53  1  0.53340000  0.55340000  0.16200000  1.0 0.1109035599
H  H54  1  0.39110000  0.63250000  0.24810000  1.0 0.1283952597
H  H55  1  0.09220000  0.56040000  0.17640000  1.0 0.1188165724
H  H56  1  0.03000000  0.53520000  0.14460000  1.0 0.070003279
H  H57  1  0.08590000  0.64070000  0.24970000  1.0 0.0874754798
H  H58  1  0.82090000  0.70790000  0.27870000  1.0 0.0787616568
H  H59  1  0.81680000  0.78220000  0.36040000  1.0 0.0975038383
H  H60  1  0.87870000  0.80470000  0.39290000  1.0 0.0874754798
H  H61  1  0.77800000  0.72660000  0.30280000  1.0 0.0787616568
H  H62  1  0.00430000  0.56730000  0.16970000  1.0 0.0644222081
H  H63  1  0.81560000  0.76600000  0.35180000  1.0 0.1109035599
H  H64  1  0.92240000  0.75460000  0.35860000  1.0 0.0874754798
H  H65  1  0.14570000  0.59890000  0.22890000  1.0 0.0787616568
H  H66  1  0.10922000  0.55742000  0.17678000  1.0 0.0874754798
H  H67  1  0.35730000  0.45490000  0.14210000  1.0 0.0787616568
H  H68  1  0.39460000  0.33480000  0.20000000  1.0 0.070003279
H  H69  1  0.51100000  0.35640000  0.92860000  1.0 0.0787616568
H  H70  1  0.47160000  0.18660000  0.18460000  1.0 0.070003279
H  H71  1  0.61070000  0.09610000  0.97330000  1.0 0.070003279
H  H72  1  0.58230000  0.21490000  0.91670000  1.0 0.1188165724
H  H73  1  0.53690000  0.14610000  0.86650000  1.0 0.1109035599
H  H74  1  0.65610000  0.10930000  0.84430000  1.0 0.0975038383
H  H75  1  0.80120000  0.03440000  0.76720000  1.0 0.1283952597
H  H76  1  0.63590000  0.02070000  0.68630000  1.0 0.1283952597
H  H77  1  0.78100000  0.94500000  0.60940000  1.0 0.1188165724
H  H78  1  0.90330000  0.90370000  0.58690000  1.0 0.1283952597
H  H79  1  0.36920000  0.01940000  0.72380000  1.0 0.070003279
H  H80  1  0.14160000  0.16100000  0.85820000  1.0 0.070003279
H  H81  1  0.34190000  0.96910000  0.67050000  1.0 0.1109035599
H  H82  1  0.24190000  0.96410000  0.66550000  1.0 0.0787616568
H  H83  1  0.01330000  0.11170000  0.79550000  1.0 0.0787616568
H  H84  1  0.04300000  0.16360000  0.84600000  1.0 0.0787616568
H  H85  1  0.83950000  0.74170000  0.93650000  1.0 0.1283952597
H  H86  1  0.88600000  0.79000000  0.81280000  1.0 0.1283952597
H  H87  1  0.97840000  0.76660000  0.66640000  1.0 0.1283952597
H  H88  1  0.12650000  0.54790000  0.59050000  1.0 0.1188165724
H  H89  1  0.08800000  0.49880000  0.71660000  1.0 0.1109035599
H  H90  1  0.00190000  0.52170000  0.85890000  1.0 0.1283952597
H  H91  1  0.07360000  0.07900000  0.15780000  1.0 0.1188165724
H  H92  1  0.10540000  0.95980000  0.22000000  1.0 0.070003279
H  H93  1  0.00030000  0.22630000  0.16410000  1.0 0.0874754798
H  H94  1  0.97130000  0.05750000  0.42910000  1.0 0.070003279
H  H95  1  0.88960000  0.20940000  0.43320000  1.0 0.0975038383
H  H96  1  0.85710000  0.32630000  0.37130000  1.0 0.0874754798
H  H97  1  0.94720000  0.05740000  0.47200000  1.0 0.0787616568
H  H98  1  0.08030000  0.99130000  0.24570000  1.0 0.0644222081
H  H99  1  0.89820000  0.18340000  0.43440000  1.0 0.1109035599
H  H100  1  0.89140000  0.28560000  0.32760000  1.0 0.0874754798
H  H101  1  0.02110000  0.22350000  0.10430000  1.0 0.0787616568
H  H102  1  0.07322000  0.09342000  0.14078000  1.0 0.0874754798
H  H103  1  0.10790000  0.20430000  0.89270000  1.0 0.0787616568
H  H104  1  0.05000000  0.17940000  0.85540000  1.0 0.070003279
H  H105  1  0.32140000  0.04600000  0.73900000  1.0 0.0787616568
H  H106  1  0.06540000  0.09280000  0.77840000  1.0 0.070003279
H  H107  1  0.27670000  0.93010000  0.63930000  1.0 0.070003279
H  H108  1  0.33333333  0.96390000  0.66770000  1.0 0.1188165724
H  H109  1  0.45050000  0.86650000  0.14610000  1.0 0.1109035599
H  H110  1  0.39030000  0.84430000  0.10930000  1.0 0.0975038383
H  H111  1  0.39720000  0.76720000  0.03440000  1.0 0.1283952597
H  H112  1  0.65710000  0.68630000  0.02070000  1.0 0.1283952597
H  H113  1  0.66460000  0.60940000  0.94500000  1.0 0.1188165724
H  H114  1  0.60610000  0.58690000  0.90370000  1.0 0.1283952597
H  H115  1  0.88760000  0.72380000  0.01940000  1.0 0.070003279
H  H116  1  0.83920000  0.85820000  0.16100000  1.0 0.070003279
H  H117  1  0.01850000  0.67050000  0.96910000  1.0 0.1109035599
H  H118  1  0.12850000  0.66550000  0.96410000  1.0 0.0787616568
H  H119  1  0.07950000  0.79550000  0.11170000  1.0 0.0787616568
H  H120  1  0.94740000  0.84600000  0.16360000  1.0 0.0787616568
H  H121  1  0.48230000  0.93650000  0.74170000  1.0 0.1283952597
H  H122  1  0.51120000  0.81280000  0.79000000  1.0 0.1283952597
H  H123  1  0.58860000  0.66640000  0.76660000  1.0 0.1283952597
H  H124  1  0.73510000  0.59050000  0.54790000  1.0 0.1188165724
H  H125  1  0.69660000  0.71660000  0.49880000  1.0 0.1109035599
H  H126  1  0.61750000  0.85890000  0.52170000  1.0 0.1283952597
H  H127  1  0.68960000  0.15780000  0.07900000  1.0 0.1188165724
H  H128  1  0.71480000  0.22000000  0.95980000  1.0 0.070003279
H  H129  1  0.60930000  0.16410000  0.22630000  1.0 0.0874754798
H  H130  1  0.54210000  0.42910000  0.05750000  1.0 0.0787616568
H  H131  1  0.46780000  0.43320000  0.20940000  1.0 0.0975038383
H  H132  1  0.44530000  0.37130000  0.32630000  1.0 0.0874754798
H  H133  1  0.52340000  0.47200000  0.05740000  1.0 0.0787616568
H  H134  1  0.68270000  0.24570000  0.99130000  1.0 0.0644222081
H  H135  1  0.48400000  0.43440000  0.18340000  1.0 0.1109035599
H  H136  1  0.49540000  0.32760000  0.28560000  1.0 0.0874754798
H  H137  1  0.65110000  0.10430000  0.22350000  1.0 0.0787616568
H  H138  1  0.69258000  0.14078000  0.09342000  1.0 0.0874754798
H  H139  1  0.79510000  0.89270000  0.20430000  1.0 0.0787616568
H  H140  1  0.91520000  0.85540000  0.17940000  1.0 0.070003279
H  H141  1  0.89360000  0.73900000  0.04600000  1.0 0.0787616568
H  H142  1  0.06340000  0.77840000  0.09280000  1.0 0.070003279
H  H143  1  0.15390000  0.63930000  0.93010000  1.0 0.070003279
H  H144  1  0.03510000  0.66770000  0.96390000  1.0 0.1188165724
H  H145  1  0.28150000  0.30070000  0.22410000  1.0 0.1283952597
H  H146  1  0.27310000  0.32110000  0.29630000  1.0 0.1188165724
H  H147  1  0.29080000  0.23800000  0.29060000  1.0 0.1283952597
H  H148  1  0.15770000  0.41510000  0.24670000  1.0 0.1188165724
H  H149  1  0.08120000  0.42400000  0.32480000  1.0 0.1283952597
H  H150  1  0.13960000  0.43700000  0.32420000  1.0 0.1283952597
H  H151  1  0.19370000  0.22410000  0.30070000  1.0 0.1283952597
H  H152  1  0.10950000  0.29630000  0.32110000  1.0 0.1188165724
H  H153  1  0.18060000  0.29060000  0.23800000  1.0 0.1283952597
H  H154  1  0.18050000  0.24670000  0.41510000  1.0 0.1188165724
H  H155  1  0.17000000  0.32480000  0.42400000  1.0 0.1283952597
H  H156  1  0.09920000  0.32420000  0.43700000  1.0 0.1283952597
H  H157  1  0.94930000  0.96850000  0.05630000  1.0 0.1283952597
H  H158  1  0.92890000  0.97690000  0.14050000  1.0 0.1188165724
H  H159  1  0.01200000  0.95920000  0.06940000  1.0 0.1283952597
H  H160  1  0.83490000  0.09230000  0.06950000  1.0 0.1188165724
H  H161  1  0.82600000  0.16880000  0.08000000  1.0 0.1283952597
H  H162  1  0.81300000  0.11040000  0.15080000  1.0 0.1283952597
H  H163  1  0.02590000  0.05630000  0.96850000  1.0 0.1283952597
H  H164  1  0.95370000  0.14050000  0.97690000  1.0 0.1188165724
H  H165  1  0.95940000  0.06940000  0.95920000  1.0 0.1283952597
H  H166  1  0.00330000  0.06950000  0.09230000  1.0 0.1188165724
H  H167  1  0.92520000  0.08000000  0.16880000  1.0 0.1283952597
H  H168  1  0.92580000  0.15080000  0.11040000  1.0 0.1283952597
H  H169  1  0.54050000  0.06250000  0.34030000  1.0 0.2425931275
H  H170  1  0.54800000  0.01820000  0.29340000  1.0 0.249262917
H  H171  1  0.45460000  0.99340000  0.39580000  1.0 0.1188165724
H  H172  1  0.44810000  0.03790000  0.44910000  1.0 0.1109035599
H  H173  1  0.42200000  0.08400000  0.38480000  1.0 0.1109035599
H  H174  1  0.59570000  0.90670000  0.35690000  1.0 0.1109035599
H  H175  1  0.64770000  0.94530000  0.31950000  1.0 0.1109035599
H  H176  1  0.58680000  0.95480000  0.40900000  1.0 0.1188165724
H  H177  1  0.05670000  0.34030000  0.06250000  1.0 0.2425931275
H  H178  1  0.14040000  0.29340000  0.01820000  1.0 0.249262917
H  H179  1  0.15620000  0.39580000  0.99340000  1.0 0.1188165724
H  H180  1  0.06490000  0.44910000  0.03790000  1.0 0.1109035599
H  H181  1  0.10920000  0.38480000  0.08400000  1.0 0.1109035599
H  H182  1  0.14070000  0.35690000  0.90670000  1.0 0.1109035599
H  H183  1  0.08750000  0.31950000  0.94530000  1.0 0.1109035599
H  H184  1  0.04940000  0.40900000  0.95480000  1.0 0.1188165724
H  H185  1  0.18750000  0.70950000  0.19330000  1.0 0.2425931275
H  H186  1  0.23180000  0.70200000  0.10960000  1.0 0.249262917
H  H187  1  0.25660000  0.79540000  0.09380000  1.0 0.1188165724
H  H188  1  0.21210000  0.80190000  0.18510000  1.0 0.1109035599
H  H189  1  0.16600000  0.82800000  0.14080000  1.0 0.1109035599
H  H190  1  0.34330000  0.65430000  0.10930000  1.0 0.1109035599
H  H191  1  0.30470000  0.60230000  0.16250000  1.0 0.1109035599
H  H192  1  0.29520000  0.66320000  0.20060000  1.0 0.1188165724
H  H193  1  0.90970000  0.19330000  0.70950000  1.0 0.2425931275
H  H194  1  0.95660000  0.10960000  0.70200000  1.0 0.249262917
H  H195  1  0.85420000  0.09380000  0.79540000  1.0 0.1188165724
H  H196  1  0.80090000  0.18510000  0.80190000  1.0 0.1109035599
H  H197  1  0.86520000  0.14080000  0.82800000  1.0 0.1109035599
H  H198  1  0.89310000  0.10930000  0.65430000  1.0 0.1109035599
H  H199  1  0.93050000  0.16250000  0.60230000  1.0 0.1109035599
H  H200  1  0.84100000  0.20060000  0.66320000  1.0 0.1188165724
C  C1  1  0.16340000  0.67440000  0.69020000  1.0 -0.017844678
C  C2  1  0.13720000  0.66800000  0.77020000  1.0 -0.1136540145
C  C3  1  0.32800000  0.19060000  0.60860000  1.0 0.4332491835
C  C4  1  0.15940000  0.59700000  0.80600000  1.0 -0.1704625625
C  C5  1  0.89020000  0.34040000  0.72500000  1.0 0.4332491835
C  C6  1  0.23390000  0.45290000  0.79910000  1.0 -0.1704625625
C  C7  1  0.30590000  0.30730000  0.79630000  1.0 0.5863890131
C  C8  1  0.28280000  0.38640000  0.75620000  1.0 -0.0115936263
C  C9  1  0.21130000  0.52710000  0.76270000  1.0 0.0787616568
C  C10  1  0.21210000  0.60910000  0.64650000  1.0 -0.1468284718
C  C11  1  0.23710000  0.53330000  0.68170000  1.0 0.070003279
C  C12  1  0.28740000  0.46500000  0.63900000  1.0 -0.1403874812
C  C13  1  0.31180000  0.39160000  0.67360000  1.0 -0.1172756802
C  C14  1  0.13780000  0.75340000  0.65100000  1.0 0.6070604801
C  C15  1  0.15440000  0.99260000  0.39840000  1.0 0.0093472349
C  C16  1  0.21250000  0.93250000  0.34470000  1.0 -0.0813307852
C  C17  1  0.12700000  0.06880000  0.37420000  1.0 0.0281949628
C  C18  1  0.24270000  0.94850000  0.26730000  1.0 -0.0813307852
C  C19  1  0.21520000  0.02860000  0.24060000  1.0 0.0281949628
C  C20  1  0.24700000  0.04780000  0.15800000  1.0 0.0026540417
C  C21  1  0.21960000  0.12440000  0.13380000  1.0 0.0208003488
C  C22  1  0.15800000  0.18480000  0.18780000  1.0 -0.0874273234
C  C23  1  0.12700000  0.16700000  0.26640000  1.0 -0.0874273234
C  C24  1  0.15630000  0.08810000  0.29290000  1.0 -0.0483603038
C  C25  1  0.11730000  0.97870000  0.48890000  1.0 0.4401099414
C  C26  1  0.25830000  0.13890000  0.04710000  1.0 0.4332491835
C  C27  1  0.65540000  0.36140000  0.72640000  1.0 0.5863890131
C  C28  1  0.62500000  0.33220000  0.70280000  1.0 -0.017844678
C  C29  1  0.54230000  0.36830000  0.73450000  1.0 -0.1136540145
C  C30  1  0.51390000  0.34130000  0.71630000  1.0 -0.1403874812
C  C31  1  0.56470000  0.27890000  0.66350000  1.0 0.0787616568
C  C32  1  0.53700000  0.25060000  0.63920000  1.0 -0.1403874812
C  C33  1  0.58620000  0.19540000  0.58580000  1.0 -0.017844678
C  C34  1  0.55630000  0.16970000  0.55890000  1.0 0.5863890131
C  C35  1  0.66790000  0.16190000  0.55250000  1.0 -0.0992844537
C  C36  1  0.69730000  0.18530000  0.57490000  1.0 -0.1596317597
C  C37  1  0.64660000  0.24380000  0.62960000  1.0 0.0787616568
C  C38  1  0.67460000  0.27180000  0.65260000  1.0 -0.1596317597
C  C39  1  0.25360000  0.20680000  0.61880000  1.0 0.0093472349
C  C40  1  0.10580000  0.24920000  0.64940000  1.0 0.0026540417
C  C41  1  0.10830000  0.28470000  0.69570000  1.0 0.0382519441
C  C42  1  0.17380000  0.19780000  0.59040000  1.0 -0.0874273234
C  C43  1  0.24530000  0.17850000  0.57590000  1.0 -0.0813307852
C  C44  1  0.02830000  0.27250000  0.66770000  1.0 -0.0115936263
C  C45  1  0.18710000  0.25950000  0.67850000  1.0 -0.0015737778
C  C46  1  0.96650000  0.32250000  0.71970000  1.0 0.0026540417
C  C47  1  0.03870000  0.33770000  0.75250000  1.0 -0.0992844537
C  C48  1  0.96960000  0.35740000  0.76580000  1.0 -0.1172756802
C  C49  1  0.17890000  0.28730000  0.70310000  1.0 -0.0992844537
C  C50  1  0.24100000  0.22960000  0.63740000  1.0 0.0281949628
C  C51  1  0.22030000  0.20730000  0.60610000  1.0 -0.0115936263
C  C52  1  0.13920000  0.24020000  0.63080000  1.0 0.0208003488
C  C53  1  0.08250000  0.29210000  0.69190000  1.0 0.0093472349
C  C54  1  0.10530000  0.31550000  0.72590000  1.0 -0.0813307852
C  C55  1  0.00320000  0.32140000  0.71560000  1.0 0.0026540417
C  C56  1  0.98040000  0.29840000  0.68440000  1.0 0.0093472349
C  C57  1  0.04020000  0.24420000  0.62260000  1.0 -0.1307810648
C  C58  1  0.11810000  0.21390000  0.59670000  1.0 -0.0992844537
C  C59  1  0.12370000  0.02890000  0.41710000  1.0 0.0281949628
C  C60  1  0.08340000  0.11160000  0.41020000  1.0 -0.1307810648
C  C61  1  0.09970000  0.14590000  0.33890000  1.0 -0.1172756802
C  C62  1  0.18012000  0.98288000  0.35048000  1.0 0.0093472349
C  C63  1  0.20060000  0.01400000  0.27940000  1.0 0.0093472349
C  C64  1  0.15700000  0.10400000  0.27320000  1.0 0.0026540417
C  C65  1  0.18250000  0.13050000  0.19410000  1.0 -0.0015737778
C  C66  1  0.23610000  0.09010000  0.13050000  1.0 0.0281949628
C  C67  1  0.27900000  0.00440000  0.14000000  1.0 -0.0992844537
C  C68  1  0.25930000  0.97110000  0.21090000  1.0 -0.0874273234
C  C69  1  0.47200000  0.69020000  0.67440000  1.0 -0.017844678
C  C70  1  0.42460000  0.77020000  0.66800000  1.0 -0.1136540145
C  C71  1  0.87280000  0.60860000  0.19060000  1.0 0.4332491835
C  C72  1  0.43760000  0.80600000  0.59700000  1.0 -0.1704625625
C  C73  1  0.04440000  0.72500000  0.34040000  1.0 0.4332491835
C  C74  1  0.51410000  0.79910000  0.45290000  1.0 -0.1704625625
C  C75  1  0.59050000  0.79630000  0.30730000  1.0 0.5863890131
C  C76  1  0.57460000  0.75620000  0.38640000  1.0 -0.0115936263
C  C77  1  0.49890000  0.76270000  0.52710000  1.0 0.0787616568
C  C78  1  0.53230000  0.64650000  0.60910000  1.0 -0.1468284718
C  C79  1  0.54790000  0.68170000  0.53330000  1.0 0.070003279
C  C80  1  0.60860000  0.63900000  0.46500000  1.0 -0.1403874812
C  C81  1  0.62300000  0.67360000  0.39160000  1.0 -0.1172756802
C  C82  1  0.45780000  0.65100000  0.75340000  1.0 0.6070604801
C  C83  1  0.45460000  0.39840000  0.99260000  1.0 0.0093472349
C  C84  1  0.51030000  0.34470000  0.93250000  1.0 -0.0813307852
C  C85  1  0.43000000  0.37420000  0.06880000  1.0 0.0281949628
C  C86  1  0.54150000  0.26730000  0.94850000  1.0 -0.0813307852
C  C87  1  0.51560000  0.24060000  0.02860000  1.0 0.0281949628
C  C88  1  0.54720000  0.15800000  0.04780000  1.0 0.0026540417
C  C89  1  0.52220000  0.13380000  0.12440000  1.0 0.0208003488
C  C90  1  0.46940000  0.18780000  0.18480000  1.0 -0.0874273234
C  C91  1  0.43960000  0.26640000  0.16700000  1.0 -0.0874273234
C  C92  1  0.46270000  0.29290000  0.08810000  1.0 -0.0483603038
C  C93  1  0.41510000  0.48890000  0.97870000  1.0 0.4401099414
C  C94  1  0.55570000  0.04710000  0.13890000  1.0 0.4332491835
C  C95  1  0.25680000  0.72640000  0.36140000  1.0 0.5863890131
C  C96  1  0.34000000  0.70280000  0.33220000  1.0 -0.017844678
C  C97  1  0.35490000  0.73450000  0.36830000  1.0 -0.1136540145
C  C98  1  0.42850000  0.71630000  0.34130000  1.0 -0.1403874812
C  C99  1  0.49290000  0.66350000  0.27890000  1.0 0.0787616568
C  C100  1  0.57320000  0.63920000  0.25060000  1.0 -0.1403874812
C  C101  1  0.63260000  0.58580000  0.19540000  1.0 -0.017844678
C  C102  1  0.71510000  0.55890000  0.16970000  1.0 0.5863890131
C  C103  1  0.61770000  0.55250000  0.16190000  1.0 -0.0992844537
C  C104  1  0.54250000  0.57490000  0.18530000  1.0 -0.1596317597
C  C105  1  0.48000000  0.62960000  0.24380000  1.0 0.0787616568
C  C106  1  0.40100000  0.65260000  0.27180000  1.0 -0.1596317597
C  C107  1  0.92080000  0.61880000  0.20680000  1.0 0.0093472349
C  C108  1  0.99560000  0.64940000  0.24920000  1.0 0.0093472349
C  C109  1  0.91130000  0.69570000  0.28470000  1.0 0.0382519441
C  C110  1  0.03800000  0.59040000  0.19780000  1.0 -0.0874273234
C  C111  1  0.00030000  0.57590000  0.17850000  1.0 -0.0874273234
C  C112  1  0.03150000  0.66770000  0.27250000  1.0 -0.0115936263
C  C113  1  0.87490000  0.67850000  0.25950000  1.0 0.0026540417
C  C114  1  0.99130000  0.71970000  0.32250000  1.0 0.0026540417
C  C115  1  0.87110000  0.75250000  0.33770000  1.0 -0.0992844537
C  C116  1  0.90720000  0.76580000  0.35740000  1.0 -0.1172756802
C  C117  1  0.83070000  0.70310000  0.28730000  1.0 -0.0992844537
C  C118  1  0.89200000  0.63740000  0.22960000  1.0 0.0281949628
C  C119  1  0.96630000  0.60610000  0.20730000  1.0 -0.0115936263
C  C120  1  0.98980000  0.63080000  0.24020000  1.0 0.0208003488
C  C121  1  0.93350000  0.69190000  0.29210000  1.0 0.0093472349
C  C122  1  0.85330000  0.72590000  0.31550000  1.0 -0.0813307852
C  C123  1  0.95980000  0.71560000  0.32140000  1.0 0.0026540417
C  C124  1  0.03680000  0.68440000  0.29840000  1.0 0.0093472349
C  C125  1  0.09300000  0.62260000  0.24420000  1.0 -0.1307810648
C  C126  1  0.07130000  0.59670000  0.21390000  1.0 -0.0992844537
C  C127  1  0.43030000  0.41710000  0.02890000  1.0 0.0281949628
C  C128  1  0.39480000  0.41020000  0.11160000  1.0 -0.1307810648
C  C129  1  0.41550000  0.33890000  0.14590000  1.0 -0.1172756802
C  C130  1  0.48652000  0.35048000  0.98288000  1.0 0.0026540417
C  C131  1  0.50600000  0.27940000  0.01400000  1.0 0.0093472349
C  C132  1  0.46580000  0.27320000  0.10400000  1.0 0.0026540417
C  C133  1  0.49290000  0.19410000  0.13050000  1.0 -0.0015737778
C  C134  1  0.54330000  0.13050000  0.09010000  1.0 0.0281949628
C  C135  1  0.57660000  0.14000000  0.00440000  1.0 -0.0992844537
C  C136  1  0.55870000  0.21090000  0.97110000  1.0 -0.0874273234
C  C137  1  0.57560000  0.08660000  0.77800000  1.0 -0.0115936263
C  C138  1  0.58200000  0.11280000  0.82540000  1.0 -0.1136540145
C  C139  1  0.05940000  0.92200000  0.37720000  1.0 0.4332491835
C  C140  1  0.65300000  0.09060000  0.81240000  1.0 -0.1704625625
C  C141  1  0.90960000  0.35980000  0.20560000  1.0 0.4332491835
C  C142  1  0.79710000  0.01610000  0.73590000  1.0 -0.1704625625
C  C143  1  0.94270000  0.94410000  0.65950000  1.0 0.5863890131
C  C144  1  0.86360000  0.96720000  0.67540000  1.0 -0.017844678
C  C145  1  0.72290000  0.03870000  0.75110000  1.0 0.0787616568
C  C146  1  0.64090000  0.03790000  0.71770000  1.0 -0.1468284718
C  C147  1  0.71670000  0.01290000  0.70210000  1.0 0.070003279
C  C148  1  0.78500000  0.96260000  0.64140000  1.0 -0.1403874812
C  C149  1  0.85840000  0.93820000  0.62700000  1.0 -0.1172756802
C  C150  1  0.49660000  0.11220000  0.79220000  1.0 0.6070604801
C  C151  1  0.25740000  0.09560000  0.79540000  1.0 0.0093472349
C  C152  1  0.31750000  0.03750000  0.73970000  1.0 -0.0813307852
C  C153  1  0.18120000  0.12300000  0.82000000  1.0 0.0281949628
C  C154  1  0.30150000  0.00730000  0.70850000  1.0 -0.0813307852
C  C155  1  0.22140000  0.03480000  0.73440000  1.0 0.0281949628
C  C156  1  0.20220000  0.00300000  0.70280000  1.0 0.0026540417
C  C157  1  0.12560000  0.03040000  0.72780000  1.0 0.0208003488
C  C158  1  0.06520000  0.09200000  0.78060000  1.0 -0.0874273234
C  C159  1  0.08300000  0.12300000  0.81040000  1.0 -0.0874273234
C  C160  1  0.16190000  0.09370000  0.78730000  1.0 -0.0483603038
C  C161  1  0.27130000  0.13270000  0.83490000  1.0 0.4401099414
C  C162  1  0.11110000  0.99170000  0.69430000  1.0 0.4332491835
C  C163  1  0.88860000  0.59460000  0.99320000  1.0 0.5863890131
C  C164  1  0.91780000  0.62500000  0.91000000  1.0 -0.017844678
C  C165  1  0.88170000  0.70770000  0.89510000  1.0 -0.1136540145
C  C166  1  0.90870000  0.73610000  0.82150000  1.0 -0.1403874812
C  C167  1  0.97110000  0.68530000  0.75710000  1.0 0.0787616568
C  C168  1  0.99940000  0.71300000  0.67680000  1.0 -0.1307810648
C  C169  1  0.05460000  0.66380000  0.61740000  1.0 -0.017844678
C  C170  1  0.08030000  0.69370000  0.53490000  1.0 0.5863890131
C  C171  1  0.08810000  0.58210000  0.63230000  1.0 -0.0992844537
C  C172  1  0.06470000  0.55270000  0.70750000  1.0 -0.1596317597
C  C173  1  0.00620000  0.60340000  0.77000000  1.0 0.0787616568
C  C174  1  0.97820000  0.57540000  0.84900000  1.0 -0.1596317597
C  C175  1  0.04320000  0.99640000  0.32920000  1.0 0.0093472349
C  C176  1  0.00080000  0.14420000  0.25440000  1.0 0.0026540417
C  C177  1  0.96530000  0.14170000  0.33870000  1.0 0.0382519441
C  C178  1  0.05220000  0.07620000  0.21200000  1.0 -0.0874273234
C  C179  1  0.07150000  0.00470000  0.24970000  1.0 -0.0813307852
C  C180  1  0.97750000  0.22170000  0.21850000  1.0 -0.0015737778
C  C181  1  0.99050000  0.06290000  0.37510000  1.0 0.0026540417
C  C182  1  0.92750000  0.28350000  0.25870000  1.0 0.0026540417
C  C183  1  0.91230000  0.21130000  0.37890000  1.0 -0.0992844537
C  C184  1  0.89260000  0.28040000  0.34280000  1.0 -0.1172756802
C  C185  1  0.96270000  0.07110000  0.41930000  1.0 -0.0992844537
C  C186  1  0.02040000  0.00900000  0.35800000  1.0 0.0281949628
C  C187  1  0.04270000  0.02970000  0.28370000  1.0 -0.0115936263
C  C188  1  0.00980000  0.11080000  0.26020000  1.0 0.0208003488
C  C189  1  0.95790000  0.16750000  0.31650000  1.0 0.0093472349
C  C190  1  0.93450000  0.14470000  0.39670000  1.0 -0.0813307852
C  C191  1  0.92860000  0.24680000  0.29020000  1.0 0.0026540417
C  C192  1  0.95160000  0.26960000  0.21320000  1.0 0.0093472349
C  C193  1  0.00580000  0.20980000  0.15700000  1.0 -0.1307810648
C  C194  1  0.03610000  0.13190000  0.17870000  1.0 -0.0992844537
C  C195  1  0.22110000  0.12630000  0.81970000  1.0 0.0281949628
C  C196  1  0.13840000  0.16660000  0.85520000  1.0 -0.1307810648
C  C197  1  0.10410000  0.15030000  0.83450000  1.0 -0.1172756802
C  C198  1  0.26712000  0.06988000  0.76348000  1.0 0.0026540417
C  C199  1  0.23600000  0.04940000  0.74400000  1.0 0.0093472349
C  C200  1  0.14600000  0.09300000  0.78420000  1.0 0.0026540417
C  C201  1  0.11950000  0.06750000  0.75710000  1.0 -0.0015737778
C  C202  1  0.15990000  0.01390000  0.70670000  1.0 0.0281949628
C  C203  1  0.24560000  0.97100000  0.67340000  1.0 -0.0992844537
C  C204  1  0.27890000  0.99070000  0.69130000  1.0 -0.0874273234
C  C205  1  0.55980000  0.77800000  0.08660000  1.0 -0.0115936263
C  C206  1  0.47980000  0.82540000  0.11280000  1.0 -0.1136540145
C  C207  1  0.64140000  0.37720000  0.92200000  1.0 0.4332491835
C  C208  1  0.44400000  0.81240000  0.09060000  1.0 -0.1704625625
C  C209  1  0.52500000  0.20560000  0.35980000  1.0 0.4332491835
C  C210  1  0.45090000  0.73590000  0.01610000  1.0 -0.1704625625
C  C211  1  0.45370000  0.65950000  0.94410000  1.0 0.5863890131
C  C212  1  0.49380000  0.67540000  0.96720000  1.0 -0.0115936263
C  C213  1  0.48730000  0.75110000  0.03870000  1.0 0.0787616568
C  C214  1  0.60350000  0.71770000  0.03790000  1.0 -0.1403874812
C  C215  1  0.56830000  0.70210000  0.01290000  1.0 0.070003279
C  C216  1  0.61100000  0.64140000  0.96260000  1.0 -0.1403874812
C  C217  1  0.57640000  0.62700000  0.93820000  1.0 -0.1172756802
C  C218  1  0.59900000  0.79220000  0.11220000  1.0 0.6070604801
C  C219  1  0.85160000  0.79540000  0.09560000  1.0 0.0093472349
C  C220  1  0.90530000  0.73970000  0.03750000  1.0 -0.0813307852
C  C221  1  0.87580000  0.82000000  0.12300000  1.0 0.0281949628
C  C222  1  0.98270000  0.70850000  0.00730000  1.0 -0.0813307852
C  C223  1  0.00940000  0.73440000  0.03480000  1.0 0.0281949628
C  C224  1  0.09200000  0.70280000  0.00300000  1.0 0.0026540417
C  C225  1  0.11620000  0.72780000  0.03040000  1.0 0.0208003488
C  C226  1  0.06220000  0.78060000  0.09200000  1.0 -0.0874273234
C  C227  1  0.98360000  0.81040000  0.12300000  1.0 -0.0874273234
C  C228  1  0.95710000  0.78730000  0.09370000  1.0 -0.0483603038
C  C229  1  0.76110000  0.83490000  0.13270000  1.0 0.4401099414
C  C230  1  0.20290000  0.69430000  0.99170000  1.0 0.4332491835
C  C231  1  0.52360000  0.99320000  0.59460000  1.0 0.5863890131
C  C232  1  0.54720000  0.91000000  0.62500000  1.0 -0.017844678
C  C233  1  0.51550000  0.89510000  0.70770000  1.0 -0.1136540145
C  C234  1  0.53370000  0.82150000  0.73610000  1.0 -0.1403874812
C  C235  1  0.58650000  0.75710000  0.68530000  1.0 0.0787616568
C  C236  1  0.61080000  0.67680000  0.71300000  1.0 -0.1403874812
C  C237  1  0.66420000  0.61740000  0.66380000  1.0 -0.017844678
C  C238  1  0.69110000  0.53490000  0.69370000  1.0 0.5863890131
C  C239  1  0.69750000  0.63230000  0.58210000  1.0 -0.0992844537
C  C240  1  0.67510000  0.70750000  0.55270000  1.0 -0.1596317597
C  C241  1  0.62040000  0.77000000  0.60340000  1.0 0.0787616568
C  C242  1  0.59740000  0.84900000  0.57540000  1.0 -0.1596317597
C  C243  1  0.63120000  0.32920000  0.99640000  1.0 0.0093472349
C  C244  1  0.60060000  0.25440000  0.14420000  1.0 0.0093472349
C  C245  1  0.55430000  0.33870000  0.14170000  1.0 0.0382519441
C  C246  1  0.65960000  0.21200000  0.07620000  1.0 -0.0874273234
C  C247  1  0.67410000  0.24970000  0.00470000  1.0 -0.0813307852
C  C248  1  0.58230000  0.21850000  0.22170000  1.0 -0.0015737778
C  C249  1  0.57150000  0.37510000  0.06290000  1.0 -0.0015737778
C  C250  1  0.53030000  0.25870000  0.28350000  1.0 0.0026540417
C  C251  1  0.49750000  0.37890000  0.21130000  1.0 -0.0992844537
C  C252  1  0.48420000  0.34280000  0.28040000  1.0 -0.1172756802
C  C253  1  0.54690000  0.41930000  0.07110000  1.0 -0.0992844537
C  C254  1  0.61260000  0.35800000  0.00900000  1.0 0.0281949628
C  C255  1  0.64390000  0.28370000  0.02970000  1.0 -0.0115936263
C  C256  1  0.61920000  0.26020000  0.11080000  1.0 0.0208003488
C  C257  1  0.55810000  0.31650000  0.16750000  1.0 0.0093472349
C  C258  1  0.52410000  0.39670000  0.14470000  1.0 -0.0813307852
C  C259  1  0.53440000  0.29020000  0.24680000  1.0 0.0026540417
C  C260  1  0.56560000  0.21320000  0.26960000  1.0 0.0093472349
C  C261  1  0.62740000  0.15700000  0.20980000  1.0 -0.1307810648
C  C262  1  0.65330000  0.17870000  0.13190000  1.0 -0.0992844537
C  C263  1  0.83290000  0.81970000  0.12630000  1.0 0.0281949628
C  C264  1  0.83980000  0.85520000  0.16660000  1.0 -0.1307810648
C  C265  1  0.91110000  0.83450000  0.15030000  1.0 -0.1172756802
C  C266  1  0.89952000  0.76348000  0.06988000  1.0 0.0093472349
C  C267  1  0.97060000  0.74400000  0.04940000  1.0 0.0093472349
C  C268  1  0.97680000  0.78420000  0.09300000  1.0 0.0026540417
C  C269  1  0.05590000  0.75710000  0.06750000  1.0 -0.0015737778
C  C270  1  0.11950000  0.70670000  0.01390000  1.0 0.0281949628
C  C271  1  0.11000000  0.67340000  0.97100000  1.0 -0.0992844537
C  C272  1  0.03910000  0.69130000  0.99070000  1.0 -0.0874273234
C  C273  1  0.26340000  0.29280000  0.27940000  1.0 -0.3729177087
C  C274  1  0.13530000  0.40730000  0.30250000  1.0 -0.3793012619
C  C275  1  0.16440000  0.27940000  0.29280000  1.0 -0.3729177087
C  C276  1  0.15490000  0.30250000  0.40730000  1.0 -0.3793012619
C  C277  1  0.95720000  0.98660000  0.08560000  1.0 -0.3729177087
C  C278  1  0.84270000  0.11470000  0.09510000  1.0 -0.3793012619
C  C279  1  0.97060000  0.08560000  0.98660000  1.0 -0.3729177087
C  C280  1  0.94750000  0.09510000  0.11470000  1.0 -0.3793012619
C  C281  1  0.45890000  0.03550000  0.39750000  1.0 -0.3120374985
C  C282  1  0.59700000  0.95120000  0.35800000  1.0 -0.3120374985
C  C283  1  0.10810000  0.39750000  0.03550000  1.0 -0.3120374985
C  C284  1  0.09380000  0.35800000  0.95120000  1.0 -0.3120374985
C  C285  1  0.21450000  0.79110000  0.14190000  1.0 -0.3120374985
C  C286  1  0.29880000  0.65300000  0.15620000  1.0 -0.3120374985
C  C287  1  0.85250000  0.14190000  0.79110000  1.0 -0.3120374985
C  C288  1  0.89200000  0.15620000  0.65300000  1.0 -0.3120374985
N  N1  1  0.17870000  0.32130000  0.32130000  1.0 0.3600752533
N  N2  1  0.92870000  0.07130000  0.07130000  1.0 0.3600752533
N  N3  1  0.53790000  0.02170000  0.34090000  1.0 -0.1468284718
N  N4  1  0.09950000  0.34090000  0.02170000  1.0 -0.1468284718
N  N5  1  0.22830000  0.71210000  0.15050000  1.0 -0.1468284718
N  N6  1  0.90910000  0.15050000  0.71210000  1.0 -0.1468284718
O  O1  1  0.14075000  0.90617000  0.50623000  1.0 -0.5795642853
O  O2  1  0.27454000  0.30518000  0.86922000  1.0 -0.5170979992
O  O3  1  0.35436000  0.24834000  0.75406000  1.0 -0.6419606169
O  O4  1  0.07251000  0.02839000  0.54061000  1.0 -0.4441883534
O  O5  1  0.72819000  0.32747000  0.69953000  1.0 -0.5264830708
O  O6  1  0.60648000  0.41852000  0.77088000  1.0 -0.6419606169
O  O7  1  0.83560000  0.40020000  0.76160000  1.0 -0.4287112921
O  O8  1  0.87980000  0.29980000  0.70100000  1.0 -0.5382804691
O  O9  1  0.33746000  0.19624000  0.65916000  1.0 -0.5587337136
O  O10  1  0.38039000  0.16411000  0.54189000  1.0 -0.4604359314
O  O11  1  0.23008000  0.20944000  0.02856000  1.0 -0.4755496502
O  O12  1  0.31453000  0.08493000  0.99807000  1.0 -0.4604359314
O  O13  1  0.14846000  0.75840000  0.58320000  1.0 -0.6419606169
O  O14  1  0.10679000  0.81039000  0.69141000  1.0 -0.5652604818
O  O15  1  0.48399000  0.19105000  0.59595000  1.0 -0.6419606169
O  O16  1  0.60300000  0.12990000  0.49870000  1.0 -0.5170979992
O  O17  1  0.44685000  0.50623000  0.90617000  1.0 -0.5795642853
O  O18  1  0.55106000  0.86922000  0.30518000  1.0 -0.5170979992
O  O19  1  0.64324000  0.75406000  0.24834000  1.0 -0.6419606169
O  O20  1  0.35849000  0.54061000  0.02839000  1.0 -0.4441883534
O  O21  1  0.24481000  0.69953000  0.32747000  1.0 -0.5264830708
O  O22  1  0.20412000  0.77088000  0.41852000  1.0 -0.6419606169
O  O23  1  0.00260000  0.76160000  0.40020000  1.0 -0.4287112921
O  O24  1  0.11940000  0.70100000  0.29980000  1.0 -0.5382804691
O  O25  1  0.80714000  0.65916000  0.19624000  1.0 -0.5587337136
O  O26  1  0.91361000  0.54189000  0.16411000  1.0 -0.4604359314
O  O27  1  0.53192000  0.02856000  0.20944000  1.0 -0.4755496502
O  O28  1  0.60247000  0.99807000  0.08493000  1.0 -0.4604359314
O  O29  1  0.50994000  0.58320000  0.75840000  1.0 -0.6419606169
O  O30  1  0.39141000  0.69141000  0.81039000  1.0 -0.5652604818
O  O31  1  0.72901000  0.59595000  0.19105000  1.0 -0.6419606169
O  O32  1  0.76840000  0.49870000  0.12990000  1.0 -0.5170979992
O  O33  1  0.34383000  0.10925000  0.80315000  1.0 -0.5795642853
O  O34  1  0.94482000  0.97546000  0.69894000  1.0 -0.5170979992
O  O35  1  0.00166000  0.89564000  0.60676000  1.0 -0.6419606169
O  O36  1  0.22161000  0.17749000  0.89151000  1.0 -0.4441883534
O  O37  1  0.92253000  0.52181000  0.00519000  1.0 -0.5264830708
O  O38  1  0.83148000  0.64352000  0.04588000  1.0 -0.6419606169
O  O39  1  0.84980000  0.41440000  0.24740000  1.0 -0.4287112921
O  O40  1  0.95020000  0.37020000  0.13060000  1.0 -0.5382804691
O  O41  1  0.05376000  0.91254000  0.44286000  1.0 -0.5587337136
O  O42  1  0.08589000  0.86961000  0.33639000  1.0 -0.4604359314
O  O43  1  0.04056000  0.01992000  0.71808000  1.0 -0.4755496502
O  O44  1  0.16507000  0.93547000  0.64753000  1.0 -0.4604359314
O  O45  1  0.49160000  0.10154000  0.74006000  1.0 -0.6419606169
O  O46  1  0.43961000  0.14321000  0.85859000  1.0 -0.5652604818
O  O47  1  0.05895000  0.76601000  0.52099000  1.0 -0.6348584413
O  O48  1  0.12010000  0.64700000  0.48160000  1.0 -0.5170979992
O  O49  1  0.74377000  0.80315000  0.10925000  1.0 -0.5795642853
O  O50  1  0.38078000  0.69894000  0.97546000  1.0 -0.5170979992
O  O51  1  0.49594000  0.60676000  0.89564000  1.0 -0.6419606169
O  O52  1  0.70939000  0.89151000  0.17749000  1.0 -0.4441883534
O  O53  1  0.55047000  0.00519000  0.52181000  1.0 -0.5264830708
O  O54  1  0.47912000  0.04588000  0.64352000  1.0 -0.6419606169
O  O55  1  0.48840000  0.24740000  0.41440000  1.0 -0.4287112921
O  O56  1  0.54900000  0.13060000  0.37020000  1.0 -0.5382804691
O  O57  1  0.59084000  0.44286000  0.91254000  1.0 -0.5587337136
O  O58  1  0.70811000  0.33639000  0.86961000  1.0 -0.4604359314
O  O59  1  0.22144000  0.71808000  0.01992000  1.0 -0.4755496502
O  O60  1  0.25193000  0.64753000  0.93547000  1.0 -0.4604359314
O  O61  1  0.66680000  0.74006000  0.10154000  1.0 -0.6419606169
O  O62  1  0.55859000  0.85859000  0.14321000  1.0 -0.5652604818
O  O63  1  0.65405000  0.52099000  0.76601000  1.0 -0.6419606169
O  O64  1  0.75130000  0.48160000  0.64700000  1.0 -0.5170979992
