# DDEC6 charges by PACMAN v1.1 (https://github.com/mtap-research/PACMAN-charge/)
data_FAXKOI_ASR_pacman
_symmetry_space_group_name_H-M   'P 1'
_cell_length_a   35.69770000
_cell_length_b   35.69770000
_cell_length_c   14.93830000
_cell_angle_alpha   90.00000000
_cell_angle_beta   90.00000000
_cell_angle_gamma   93.76360000
_symmetry_Int_Tables_number   1
_chemical_formula_structural   Cu6Ni4H49C77(NO3)12
_chemical_formula_sum   'Cu24 Ni16 H196 C308 N48 O144'
_cell_volume   18995.20672097
_cell_formula_units_Z   4
loop_
 _symmetry_equiv_pos_site_id
 _symmetry_equiv_pos_as_xyz
  1  'x, y, z'
loop_
 _atom_site_type_symbol
 _atom_site_label
 _atom_site_symmetry_multiplicity
 _atom_site_fract_x
 _atom_site_fract_y
 _atom_site_fract_z
 _atom_site_occupancy
 _atom_site_charge
Cu  Cu1  1  0.33196000  0.01836000  0.23458000  1.0 0.6837893496
Cu  Cu2  1  0.51264000  0.15404000  0.23379000  1.0 0.6700264839
Cu  Cu3  1  0.66804000  0.98164000  0.23458000  1.0 0.6837893496
Cu  Cu4  1  0.48736000  0.84596000  0.23379000  1.0 0.6700264839
Cu  Cu5  1  0.98164000  0.66804000  0.76542000  1.0 0.6852210276
Cu  Cu6  1  0.84596000  0.48736000  0.76621000  1.0 0.6631711118
Cu  Cu7  1  0.01836000  0.33196000  0.76542000  1.0 0.6837893496
Cu  Cu8  1  0.15404000  0.51264000  0.76621000  1.0 0.6631711118
Cu  Cu9  1  0.66804000  0.98164000  0.76542000  1.0 0.6837893496
Cu  Cu10  1  0.48736000  0.84596000  0.76621000  1.0 0.6631711118
Cu  Cu11  1  0.33196000  0.01836000  0.76542000  1.0 0.6837893496
Cu  Cu12  1  0.51264000  0.15404000  0.76621000  1.0 0.6631711118
Cu  Cu13  1  0.01836000  0.33196000  0.23458000  1.0 0.6837893496
Cu  Cu14  1  0.15404000  0.51264000  0.23379000  1.0 0.6700264839
Cu  Cu15  1  0.98164000  0.66804000  0.23458000  1.0 0.6837893496
Cu  Cu16  1  0.84596000  0.48736000  0.23379000  1.0 0.6631711118
Cu  Cu17  1  0.22213000  0.77787000  0.26416000  1.0 0.6700264839
Cu  Cu18  1  0.77787000  0.22213000  0.26416000  1.0 0.6700264839
Cu  Cu19  1  0.22213000  0.77787000  0.73584000  1.0 0.6700264839
Cu  Cu20  1  0.77787000  0.22213000  0.73584000  1.0 0.6700264839
Cu  Cu21  1  0.25589000  0.25589000  0.26364000  1.0 0.5996134692
Cu  Cu22  1  0.74411000  0.74411000  0.26364000  1.0 0.5996134692
Cu  Cu23  1  0.74411000  0.74411000  0.73636000  1.0 0.5996134692
Cu  Cu24  1  0.25589000  0.25589000  0.73636000  1.0 0.5996134692
Ni  Ni1  1  0.34292000  0.87140000  0.25464000  1.0 0.9294491523
Ni  Ni2  1  0.36567000  0.16527000  0.25103000  1.0 0.9072272209
Ni  Ni3  1  0.65708000  0.12860000  0.25464000  1.0 0.9294491523
Ni  Ni4  1  0.63433000  0.83473000  0.25103000  1.0 0.9072272209
Ni  Ni5  1  0.12860000  0.65708000  0.74536000  1.0 0.9294491523
Ni  Ni6  1  0.83473000  0.63433000  0.74897000  1.0 0.9047988169
Ni  Ni7  1  0.87140000  0.34292000  0.74536000  1.0 0.9294491523
Ni  Ni8  1  0.16527000  0.36567000  0.74897000  1.0 0.9072272209
Ni  Ni9  1  0.65708000  0.12860000  0.74536000  1.0 0.9294491523
Ni  Ni10  1  0.63433000  0.83473000  0.74897000  1.0 0.9072272209
Ni  Ni11  1  0.34292000  0.87140000  0.74536000  1.0 0.9294491523
Ni  Ni12  1  0.36567000  0.16527000  0.74897000  1.0 0.9072272209
Ni  Ni13  1  0.87140000  0.34292000  0.25464000  1.0 0.9294491523
Ni  Ni14  1  0.16527000  0.36567000  0.25103000  1.0 0.9072272209
Ni  Ni15  1  0.12860000  0.65708000  0.25464000  1.0 0.9294491523
Ni  Ni16  1  0.83473000  0.63433000  0.25103000  1.0 0.9072272209
H  H1  1  0.24906000  0.95470000  0.21644000  1.0 0.1495213368
H  H2  1  0.21057000  0.94999000  0.16143000  1.0 0.1495213368
H  H3  1  0.22737000  0.99093000  0.18992000  1.0 0.1409677984
H  H4  1  0.25026000  0.05216000  0.21223000  1.0 0.1409677984
H  H5  1  0.21306000  0.05944000  0.15683000  1.0 0.1409677984
H  H6  1  0.24001000  0.09419000  0.19055000  1.0 0.1624806651
H  H7  1  0.46503000  0.07487000  0.21424000  1.0 0.1495213368
H  H8  1  0.45483000  0.03839000  0.15456000  1.0 0.1409677984
H  H9  1  0.42262000  0.06516000  0.18307000  1.0 0.1624806651
H  H10  1  0.57457000  0.04501000  0.18707000  1.0 0.1663613154
H  H11  1  0.53653000  0.02205000  0.15773000  1.0 0.1409677984
H  H12  1  0.53486000  0.05936000  0.21660000  1.0 0.1495213368
H  H13  1  0.17218000  0.89452000  0.33854000  1.0 0.1409677984
H  H14  1  0.19081000  0.86193000  0.28403000  1.0 0.1409677984
H  H15  1  0.21484000  0.90028000  0.30575000  1.0 0.1663613154
H  H16  1  0.23646000  0.16942000  0.28477000  1.0 0.1495213368
H  H17  1  0.19769000  0.15167000  0.32490000  1.0 0.1301074955
H  H18  1  0.23407000  0.12775000  0.32479000  1.0 0.1495213368
H  H19  1  0.29752000  0.26824000  0.47680000  1.0 0.0339596204
H  H20  1  0.32807000  0.23797000  0.46195000  1.0 0.0577109253
H  H21  1  0.31650000  0.24944000  0.56125000  1.0 0.0577109253
H  H22  1  0.75094000  0.04530000  0.21644000  1.0 0.1495213368
H  H23  1  0.78943000  0.05001000  0.16143000  1.0 0.1495213368
H  H24  1  0.77263000  0.00907000  0.18992000  1.0 0.1409677984
H  H25  1  0.74974000  0.94784000  0.21223000  1.0 0.1409677984
H  H26  1  0.78694000  0.94056000  0.15683000  1.0 0.1409677984
H  H27  1  0.75999000  0.90581000  0.19055000  1.0 0.1495213368
H  H28  1  0.53497000  0.92513000  0.21424000  1.0 0.1495213368
H  H29  1  0.54517000  0.96161000  0.15456000  1.0 0.1409677984
H  H30  1  0.57738000  0.93484000  0.18307000  1.0 0.1624806651
H  H31  1  0.42543000  0.95499000  0.18707000  1.0 0.1663613154
H  H32  1  0.46347000  0.97795000  0.15773000  1.0 0.1409677984
H  H33  1  0.46514000  0.94064000  0.21660000  1.0 0.1495213368
H  H34  1  0.82782000  0.10548000  0.33854000  1.0 0.1409677984
H  H35  1  0.80919000  0.13807000  0.28403000  1.0 0.1409677984
H  H36  1  0.78516000  0.09972000  0.30575000  1.0 0.1663613154
H  H37  1  0.76354000  0.83058000  0.28477000  1.0 0.1495213368
H  H38  1  0.80231000  0.84833000  0.32490000  1.0 0.1301074955
H  H39  1  0.76593000  0.87225000  0.32479000  1.0 0.1495213368
H  H40  1  0.70248000  0.73176000  0.47680000  1.0 0.0339596204
H  H41  1  0.67193000  0.76203000  0.46195000  1.0 0.0577109253
H  H42  1  0.68350000  0.75056000  0.56125000  1.0 0.0577109253
H  H43  1  0.04530000  0.75094000  0.78356000  1.0 0.1495213368
H  H44  1  0.05001000  0.78943000  0.83857000  1.0 0.1495213368
H  H45  1  0.00907000  0.77263000  0.81008000  1.0 0.1409677984
H  H46  1  0.94784000  0.74974000  0.78777000  1.0 0.1409677984
H  H47  1  0.94056000  0.78694000  0.84317000  1.0 0.1409677984
H  H48  1  0.90581000  0.75999000  0.80945000  1.0 0.1495213368
H  H49  1  0.92513000  0.53497000  0.78576000  1.0 0.1495213368
H  H50  1  0.96161000  0.54517000  0.84544000  1.0 0.1409677984
H  H51  1  0.93484000  0.57738000  0.81693000  1.0 0.1624806651
H  H52  1  0.95499000  0.42543000  0.81293000  1.0 0.1663613154
H  H53  1  0.97795000  0.46347000  0.84227000  1.0 0.1409677984
H  H54  1  0.94064000  0.46514000  0.78340000  1.0 0.1495213368
H  H55  1  0.10548000  0.82782000  0.66146000  1.0 0.1409677984
H  H56  1  0.13807000  0.80919000  0.71597000  1.0 0.1409677984
H  H57  1  0.09972000  0.78516000  0.69425000  1.0 0.1663613154
H  H58  1  0.83058000  0.76354000  0.71523000  1.0 0.1495213368
H  H59  1  0.84833000  0.80231000  0.67510000  1.0 0.1301074955
H  H60  1  0.87225000  0.76593000  0.67521000  1.0 0.1495213368
H  H61  1  0.73176000  0.70248000  0.52320000  1.0 0.0351248794
H  H62  1  0.76203000  0.67193000  0.53805000  1.0 0.0577109253
H  H63  1  0.75056000  0.68350000  0.43875000  1.0 0.0577109253
H  H64  1  0.95470000  0.24906000  0.78356000  1.0 0.1495213368
H  H65  1  0.94999000  0.21057000  0.83857000  1.0 0.1495213368
H  H66  1  0.99093000  0.22737000  0.81008000  1.0 0.1409677984
H  H67  1  0.05216000  0.25026000  0.78777000  1.0 0.1409677984
H  H68  1  0.05944000  0.21306000  0.84317000  1.0 0.1409677984
H  H69  1  0.09419000  0.24001000  0.80945000  1.0 0.1495213368
H  H70  1  0.07487000  0.46503000  0.78576000  1.0 0.1495213368
H  H71  1  0.03839000  0.45483000  0.84544000  1.0 0.1409677984
H  H72  1  0.06516000  0.42262000  0.81693000  1.0 0.1624806651
H  H73  1  0.04501000  0.57457000  0.81293000  1.0 0.1663613154
H  H74  1  0.02205000  0.53653000  0.84227000  1.0 0.1409677984
H  H75  1  0.05936000  0.53486000  0.78340000  1.0 0.1495213368
H  H76  1  0.89452000  0.17218000  0.66146000  1.0 0.1409677984
H  H77  1  0.86193000  0.19081000  0.71597000  1.0 0.1409677984
H  H78  1  0.90028000  0.21484000  0.69425000  1.0 0.1663613154
H  H79  1  0.16942000  0.23646000  0.71523000  1.0 0.1495213368
H  H80  1  0.15167000  0.19769000  0.67510000  1.0 0.1301074955
H  H81  1  0.12775000  0.23407000  0.67521000  1.0 0.1495213368
H  H82  1  0.26824000  0.29752000  0.52320000  1.0 0.0339596204
H  H83  1  0.23797000  0.32807000  0.53805000  1.0 0.0577109253
H  H84  1  0.24944000  0.31650000  0.43875000  1.0 0.0577109253
H  H85  1  0.75094000  0.04530000  0.78356000  1.0 0.1495213368
H  H86  1  0.78943000  0.05001000  0.83857000  1.0 0.1495213368
H  H87  1  0.77263000  0.00907000  0.81008000  1.0 0.1409677984
H  H88  1  0.74974000  0.94784000  0.78777000  1.0 0.1409677984
H  H89  1  0.78694000  0.94056000  0.84317000  1.0 0.1409677984
H  H90  1  0.75999000  0.90581000  0.80945000  1.0 0.1495213368
H  H91  1  0.53497000  0.92513000  0.78576000  1.0 0.1495213368
H  H92  1  0.54517000  0.96161000  0.84544000  1.0 0.1409677984
H  H93  1  0.57738000  0.93484000  0.81693000  1.0 0.1624806651
H  H94  1  0.42543000  0.95499000  0.81293000  1.0 0.1663613154
H  H95  1  0.46347000  0.97795000  0.84227000  1.0 0.1409677984
H  H96  1  0.46514000  0.94064000  0.78340000  1.0 0.1495213368
H  H97  1  0.82782000  0.10548000  0.66146000  1.0 0.1409677984
H  H98  1  0.80919000  0.13807000  0.71597000  1.0 0.1409677984
H  H99  1  0.78516000  0.09972000  0.69425000  1.0 0.1663613154
H  H100  1  0.76354000  0.83058000  0.71523000  1.0 0.1495213368
H  H101  1  0.80231000  0.84833000  0.67510000  1.0 0.1301074955
H  H102  1  0.76593000  0.87225000  0.67521000  1.0 0.1495213368
H  H103  1  0.70248000  0.73176000  0.52320000  1.0 0.0339596204
H  H104  1  0.67193000  0.76203000  0.53805000  1.0 0.0577109253
H  H105  1  0.68350000  0.75056000  0.43875000  1.0 0.0577109253
H  H106  1  0.24906000  0.95470000  0.78356000  1.0 0.1495213368
H  H107  1  0.21057000  0.94999000  0.83857000  1.0 0.1495213368
H  H108  1  0.22737000  0.99093000  0.81008000  1.0 0.1409677984
H  H109  1  0.25026000  0.05216000  0.78777000  1.0 0.1409677984
H  H110  1  0.21306000  0.05944000  0.84317000  1.0 0.1409677984
H  H111  1  0.24001000  0.09419000  0.80945000  1.0 0.1495213368
H  H112  1  0.46503000  0.07487000  0.78576000  1.0 0.1495213368
H  H113  1  0.45483000  0.03839000  0.84544000  1.0 0.1409677984
H  H114  1  0.42262000  0.06516000  0.81693000  1.0 0.1624806651
H  H115  1  0.57457000  0.04501000  0.81293000  1.0 0.1663613154
H  H116  1  0.53653000  0.02205000  0.84227000  1.0 0.1409677984
H  H117  1  0.53486000  0.05936000  0.78340000  1.0 0.1495213368
H  H118  1  0.17218000  0.89452000  0.66146000  1.0 0.1409677984
H  H119  1  0.19081000  0.86193000  0.71597000  1.0 0.1409677984
H  H120  1  0.21484000  0.90028000  0.69425000  1.0 0.1663613154
H  H121  1  0.23646000  0.16942000  0.71523000  1.0 0.1495213368
H  H122  1  0.19769000  0.15167000  0.67510000  1.0 0.1301074955
H  H123  1  0.23407000  0.12775000  0.67521000  1.0 0.1495213368
H  H124  1  0.29752000  0.26824000  0.52320000  1.0 0.0339596204
H  H125  1  0.32807000  0.23797000  0.53805000  1.0 0.0577109253
H  H126  1  0.31650000  0.24944000  0.43875000  1.0 0.0577109253
H  H127  1  0.95470000  0.24906000  0.21644000  1.0 0.1495213368
H  H128  1  0.94999000  0.21057000  0.16143000  1.0 0.1495213368
H  H129  1  0.99093000  0.22737000  0.18992000  1.0 0.1409677984
H  H130  1  0.05216000  0.25026000  0.21223000  1.0 0.1409677984
H  H131  1  0.05944000  0.21306000  0.15683000  1.0 0.1409677984
H  H132  1  0.09419000  0.24001000  0.19055000  1.0 0.1495213368
H  H133  1  0.07487000  0.46503000  0.21424000  1.0 0.1495213368
H  H134  1  0.03839000  0.45483000  0.15456000  1.0 0.1409677984
H  H135  1  0.06516000  0.42262000  0.18307000  1.0 0.1624806651
H  H136  1  0.04501000  0.57457000  0.18707000  1.0 0.1663613154
H  H137  1  0.02205000  0.53653000  0.15773000  1.0 0.1409677984
H  H138  1  0.05936000  0.53486000  0.21660000  1.0 0.1495213368
H  H139  1  0.89452000  0.17218000  0.33854000  1.0 0.1409677984
H  H140  1  0.86193000  0.19081000  0.28403000  1.0 0.1409677984
H  H141  1  0.90028000  0.21484000  0.30575000  1.0 0.1663613154
H  H142  1  0.16942000  0.23646000  0.28477000  1.0 0.1495213368
H  H143  1  0.15167000  0.19769000  0.32490000  1.0 0.1301074955
H  H144  1  0.12775000  0.23407000  0.32479000  1.0 0.1495213368
H  H145  1  0.26824000  0.29752000  0.47680000  1.0 0.0339596204
H  H146  1  0.23797000  0.32807000  0.46195000  1.0 0.0577109253
H  H147  1  0.24944000  0.31650000  0.56125000  1.0 0.0577109253
H  H148  1  0.04530000  0.75094000  0.21644000  1.0 0.1495213368
H  H149  1  0.05001000  0.78943000  0.16143000  1.0 0.1495213368
H  H150  1  0.00907000  0.77263000  0.18992000  1.0 0.1409677984
H  H151  1  0.94784000  0.74974000  0.21223000  1.0 0.1409677984
H  H152  1  0.94056000  0.78694000  0.15683000  1.0 0.1409677984
H  H153  1  0.90581000  0.75999000  0.19055000  1.0 0.1495213368
H  H154  1  0.92513000  0.53497000  0.21424000  1.0 0.1495213368
H  H155  1  0.96161000  0.54517000  0.15456000  1.0 0.1409677984
H  H156  1  0.93484000  0.57738000  0.18307000  1.0 0.1624806651
H  H157  1  0.95499000  0.42543000  0.18707000  1.0 0.1663613154
H  H158  1  0.97795000  0.46347000  0.15773000  1.0 0.1409677984
H  H159  1  0.94064000  0.46514000  0.21660000  1.0 0.1495213368
H  H160  1  0.10548000  0.82782000  0.33854000  1.0 0.1409677984
H  H161  1  0.13807000  0.80919000  0.28403000  1.0 0.1409677984
H  H162  1  0.09972000  0.78516000  0.30575000  1.0 0.1624806651
H  H163  1  0.83058000  0.76354000  0.28477000  1.0 0.1495213368
H  H164  1  0.84833000  0.80231000  0.32490000  1.0 0.1301074955
H  H165  1  0.87225000  0.76593000  0.32479000  1.0 0.1495213368
H  H166  1  0.73176000  0.70248000  0.47680000  1.0 0.0351248794
H  H167  1  0.76203000  0.67193000  0.46195000  1.0 0.0577109253
H  H168  1  0.75056000  0.68350000  0.56125000  1.0 0.0577109253
H  H169  1  0.20922000  0.96194000  0.00000000  1.0 0.1301074955
H  H170  1  0.21392000  0.06428000  0.00000000  1.0 0.1301074955
H  H171  1  0.46791000  0.17945000  0.00000000  1.0 0.1929196716
H  H172  1  0.44603000  0.03855000  0.00000000  1.0 0.1183955206
H  H173  1  0.54773000  0.01899000  0.00000000  1.0 0.1301074955
H  H174  1  0.79078000  0.03806000  0.00000000  1.0 0.1301074955
H  H175  1  0.78608000  0.93572000  0.00000000  1.0 0.1301074955
H  H176  1  0.53209000  0.82055000  0.00000000  1.0 0.1929196716
H  H177  1  0.55397000  0.96145000  0.00000000  1.0 0.1183955206
H  H178  1  0.45227000  0.98101000  0.00000000  1.0 0.1301074955
H  H179  1  0.03806000  0.79078000  0.00000000  1.0 0.1301074955
H  H180  1  0.93572000  0.78608000  0.00000000  1.0 0.1301074955
H  H181  1  0.82055000  0.53209000  0.00000000  1.0 0.1929196716
H  H182  1  0.96145000  0.55397000  0.00000000  1.0 0.1183955206
H  H183  1  0.98101000  0.45227000  0.00000000  1.0 0.1301074955
H  H184  1  0.96194000  0.20922000  0.00000000  1.0 0.1301074955
H  H185  1  0.06428000  0.21392000  0.00000000  1.0 0.1301074955
H  H186  1  0.17945000  0.46791000  0.00000000  1.0 0.1929196716
H  H187  1  0.03855000  0.44603000  0.00000000  1.0 0.1183955206
H  H188  1  0.01899000  0.54773000  0.00000000  1.0 0.1301074955
H  H189  1  0.18095000  0.89861000  0.50000000  1.0 0.1409677984
H  H190  1  0.20148000  0.13597000  0.50000000  1.0 0.1495213368
H  H191  1  0.81905000  0.10139000  0.50000000  1.0 0.1409677984
H  H192  1  0.79851000  0.86403000  0.50000000  1.0 0.1495213368
H  H193  1  0.10139000  0.81905000  0.50000000  1.0 0.1409677984
H  H194  1  0.86403000  0.79852000  0.50000000  1.0 0.1495213368
H  H195  1  0.89861000  0.18095000  0.50000000  1.0 0.1409677984
H  H196  1  0.13597000  0.20149000  0.50000000  1.0 0.1495213368
C  C1  1  0.32352000  0.94128000  0.20200000  1.0 0.3782520108
C  C2  1  0.35060000  0.95100000  0.28800000  1.0 0.5025967323
C  C3  1  0.29363000  0.97013000  0.08080000  1.0 0.1183955206
C  C4  1  0.25614000  0.96918000  0.08080000  1.0 0.1118309971
C  C5  1  0.23369000  0.96589000  0.17050000  1.0 -0.41979596
C  C6  1  0.33326000  0.09608000  0.19810000  1.0 0.3976736181
C  C7  1  0.35873000  0.08955000  0.28230000  1.0 0.4685477156
C  C8  1  0.29823000  0.06571000  0.08040000  1.0 0.1118309971
C  C9  1  0.26081000  0.06741000  0.08290000  1.0 0.0989383009
C  C10  1  0.23919000  0.06839000  0.16790000  1.0 -0.4115204182
C  C11  1  0.43784000  0.15664000  0.19590000  1.0 0.3782520108
C  C12  1  0.44293000  0.17687000  0.28440000  1.0 0.4844044304
C  C13  1  0.46286000  0.12466000  0.07650000  1.0 0.1409677984
C  C14  1  0.45627000  0.08755000  0.08120000  1.0 0.0989383009
C  C15  1  0.44900000  0.06440000  0.16580000  1.0 -0.41979596
C  C16  1  0.58529000  0.15321000  0.28780000  1.0 0.4468914867
C  C17  1  0.58411000  0.13581000  0.20000000  1.0 0.3389195939
C  C18  1  0.55078000  0.10848000  0.07800000  1.0 0.0989383009
C  C19  1  0.54728000  0.07148000  0.08010000  1.0 0.1118309971
C  C20  1  0.54843000  0.04717000  0.16890000  1.0 -0.41979596
C  C21  1  0.27682000  0.83214000  0.30600000  1.0 0.3389195939
C  C22  1  0.28853000  0.81367000  0.22290000  1.0 0.4685477156
C  C23  1  0.23384000  0.83586000  0.42220000  1.0 0.1183955206
C  C24  1  0.20877000  0.86491000  0.41780000  1.0 0.1301074955
C  C25  1  0.19541000  0.88199000  0.32820000  1.0 -0.4292510934
C  C26  1  0.32061000  0.22247000  0.22090000  1.0 0.4685477156
C  C27  1  0.30676000  0.20448000  0.30520000  1.0 0.3261609935
C  C28  1  0.26186000  0.19756000  0.41930000  1.0 0.1183955206
C  C29  1  0.23530000  0.16764000  0.41760000  1.0 0.0845278241
C  C30  1  0.22510000  0.15290000  0.33120000  1.0 -0.3988864501
C  C31  1  0.67648000  0.05872000  0.20200000  1.0 0.3782520108
C  C32  1  0.64940000  0.04900000  0.28800000  1.0 0.5025967323
C  C33  1  0.70637000  0.02987000  0.08080000  1.0 0.1183955206
C  C34  1  0.74386000  0.03082000  0.08080000  1.0 0.1118309971
C  C35  1  0.76631000  0.03411000  0.17050000  1.0 -0.41979596
C  C36  1  0.66674000  0.90392000  0.19810000  1.0 0.3976736181
C  C37  1  0.64127000  0.91045000  0.28230000  1.0 0.4685477156
C  C38  1  0.70177000  0.93429000  0.08040000  1.0 0.1118309971
C  C39  1  0.73919000  0.93259000  0.08290000  1.0 0.0989383009
C  C40  1  0.76081000  0.93161000  0.16790000  1.0 -0.4115204182
C  C41  1  0.56216000  0.84336000  0.19590000  1.0 0.3782520108
C  C42  1  0.55707000  0.82313000  0.28440000  1.0 0.4851036184
C  C43  1  0.53714000  0.87534000  0.07650000  1.0 0.1409677984
C  C44  1  0.54373000  0.91245000  0.08120000  1.0 0.0989383009
C  C45  1  0.55100000  0.93560000  0.16580000  1.0 -0.41979596
C  C46  1  0.41471000  0.84679000  0.28780000  1.0 0.4468914867
C  C47  1  0.41589000  0.86419000  0.20000000  1.0 0.3389195939
C  C48  1  0.44922000  0.89152000  0.07800000  1.0 0.0989383009
C  C49  1  0.45272000  0.92852000  0.08010000  1.0 0.1118309971
C  C50  1  0.45157000  0.95283000  0.16890000  1.0 -0.41979596
C  C51  1  0.72318000  0.16786000  0.30600000  1.0 0.3454277926
C  C52  1  0.71147000  0.18633000  0.22290000  1.0 0.4685477156
C  C53  1  0.76616000  0.16414000  0.42220000  1.0 0.1183955206
C  C54  1  0.79123000  0.13509000  0.41780000  1.0 0.1301074955
C  C55  1  0.80459000  0.11801000  0.32820000  1.0 -0.4292510934
C  C56  1  0.67939000  0.77753000  0.22090000  1.0 0.4685477156
C  C57  1  0.69324000  0.79552000  0.30520000  1.0 0.3261609935
C  C58  1  0.73814000  0.80244000  0.41930000  1.0 0.1183955206
C  C59  1  0.76470000  0.83236000  0.41760000  1.0 0.0845278241
C  C60  1  0.77490000  0.84710000  0.33120000  1.0 -0.3988864501
C  C61  1  0.05872000  0.67648000  0.79800000  1.0 0.3782520108
C  C62  1  0.04900000  0.64940000  0.71200000  1.0 0.5025967323
C  C63  1  0.02987000  0.70637000  0.91920000  1.0 0.1183955206
C  C64  1  0.03082000  0.74386000  0.91920000  1.0 0.1118309971
C  C65  1  0.03411000  0.76631000  0.82950000  1.0 -0.41979596
C  C66  1  0.90392000  0.66674000  0.80190000  1.0 0.3976736181
C  C67  1  0.91045000  0.64127000  0.71770000  1.0 0.4685477156
C  C68  1  0.93429000  0.70177000  0.91960000  1.0 0.1118309971
C  C69  1  0.93259000  0.73919000  0.91710000  1.0 0.0949124136
C  C70  1  0.93161000  0.76081000  0.83210000  1.0 -0.4115204182
C  C71  1  0.84336000  0.56216000  0.80410000  1.0 0.3782520108
C  C72  1  0.82313000  0.55707000  0.71560000  1.0 0.4844044304
C  C73  1  0.87534000  0.53714000  0.92350000  1.0 0.1409677984
C  C74  1  0.91245000  0.54373000  0.91880000  1.0 0.0989383009
C  C75  1  0.93560000  0.55100000  0.83420000  1.0 -0.41979596
C  C76  1  0.84679000  0.41471000  0.71220000  1.0 0.4468914867
C  C77  1  0.86419000  0.41589000  0.80000000  1.0 0.3389195939
C  C78  1  0.89152000  0.44922000  0.92200000  1.0 0.0989383009
C  C79  1  0.92852000  0.45272000  0.91990000  1.0 0.1118309971
C  C80  1  0.95283000  0.45157000  0.83110000  1.0 -0.41979596
C  C81  1  0.16786000  0.72318000  0.69400000  1.0 0.3454277926
C  C82  1  0.18633000  0.71147000  0.77710000  1.0 0.4685477156
C  C83  1  0.16414000  0.76616000  0.57780000  1.0 0.1183955206
C  C84  1  0.13509000  0.79123000  0.58220000  1.0 0.1301074955
C  C85  1  0.11801000  0.80459000  0.67180000  1.0 -0.4292510934
C  C86  1  0.77753000  0.67939000  0.77910000  1.0 0.4685477156
C  C87  1  0.79552000  0.69324000  0.69480000  1.0 0.3261609935
C  C88  1  0.80244000  0.73814000  0.58070000  1.0 0.1183955206
C  C89  1  0.83236000  0.76470000  0.58240000  1.0 0.0845278241
C  C90  1  0.84710000  0.77490000  0.66880000  1.0 -0.3988864501
C  C91  1  0.94128000  0.32352000  0.79800000  1.0 0.3782520108
C  C92  1  0.95100000  0.35060000  0.71200000  1.0 0.5025967323
C  C93  1  0.97013000  0.29363000  0.91920000  1.0 0.1183955206
C  C94  1  0.96918000  0.25614000  0.91920000  1.0 0.1118309971
C  C95  1  0.96589000  0.23369000  0.82950000  1.0 -0.41979596
C  C96  1  0.09608000  0.33326000  0.80190000  1.0 0.3976736181
C  C97  1  0.08955000  0.35873000  0.71770000  1.0 0.4685477156
C  C98  1  0.06571000  0.29823000  0.91960000  1.0 0.1118309971
C  C99  1  0.06741000  0.26081000  0.91710000  1.0 0.0989383009
C  C100  1  0.06839000  0.23919000  0.83210000  1.0 -0.4115204182
C  C101  1  0.15664000  0.43784000  0.80410000  1.0 0.3782520108
C  C102  1  0.17687000  0.44293000  0.71560000  1.0 0.4844044304
C  C103  1  0.12466000  0.46286000  0.92350000  1.0 0.1409677984
C  C104  1  0.08755000  0.45627000  0.91880000  1.0 0.0989383009
C  C105  1  0.06440000  0.44900000  0.83420000  1.0 -0.41979596
C  C106  1  0.15321000  0.58529000  0.71220000  1.0 0.4468914867
C  C107  1  0.13581000  0.58411000  0.80000000  1.0 0.3389195939
C  C108  1  0.10848000  0.55078000  0.92200000  1.0 0.0989383009
C  C109  1  0.07148000  0.54728000  0.91990000  1.0 0.1118309971
C  C110  1  0.04717000  0.54843000  0.83110000  1.0 -0.41979596
C  C111  1  0.83214000  0.27682000  0.69400000  1.0 0.3454277926
C  C112  1  0.81367000  0.28853000  0.77710000  1.0 0.4685477156
C  C113  1  0.83586000  0.23384000  0.57780000  1.0 0.1183955206
C  C114  1  0.86491000  0.20877000  0.58220000  1.0 0.1301074955
C  C115  1  0.88199000  0.19541000  0.67180000  1.0 -0.4292510934
C  C116  1  0.22247000  0.32061000  0.77910000  1.0 0.4685477156
C  C117  1  0.20448000  0.30676000  0.69480000  1.0 0.3261609935
C  C118  1  0.19756000  0.26186000  0.58070000  1.0 0.1183955206
C  C119  1  0.16764000  0.23530000  0.58240000  1.0 0.0845278241
C  C120  1  0.15290000  0.22510000  0.66880000  1.0 -0.3988864501
C  C121  1  0.67648000  0.05872000  0.79800000  1.0 0.3782520108
C  C122  1  0.64940000  0.04900000  0.71200000  1.0 0.5025967323
C  C123  1  0.70637000  0.02987000  0.91920000  1.0 0.1183955206
C  C124  1  0.74386000  0.03082000  0.91920000  1.0 0.1118309971
C  C125  1  0.76631000  0.03411000  0.82950000  1.0 -0.41979596
C  C126  1  0.66674000  0.90392000  0.80190000  1.0 0.3976736181
C  C127  1  0.64127000  0.91045000  0.71770000  1.0 0.4685477156
C  C128  1  0.70177000  0.93429000  0.91960000  1.0 0.1118309971
C  C129  1  0.73919000  0.93259000  0.91710000  1.0 0.0949124136
C  C130  1  0.76081000  0.93161000  0.83210000  1.0 -0.4115204182
C  C131  1  0.56216000  0.84336000  0.80410000  1.0 0.3782520108
C  C132  1  0.55707000  0.82313000  0.71560000  1.0 0.4844044304
C  C133  1  0.53714000  0.87534000  0.92350000  1.0 0.1409677984
C  C134  1  0.54373000  0.91245000  0.91880000  1.0 0.0989383009
C  C135  1  0.55100000  0.93560000  0.83420000  1.0 -0.41979596
C  C136  1  0.41471000  0.84679000  0.71220000  1.0 0.4468914867
C  C137  1  0.41589000  0.86419000  0.80000000  1.0 0.3389195939
C  C138  1  0.44922000  0.89152000  0.92200000  1.0 0.0989383009
C  C139  1  0.45272000  0.92852000  0.91990000  1.0 0.1118309971
C  C140  1  0.45157000  0.95283000  0.83110000  1.0 -0.41979596
C  C141  1  0.72318000  0.16786000  0.69400000  1.0 0.3454277926
C  C142  1  0.71147000  0.18633000  0.77710000  1.0 0.4685477156
C  C143  1  0.76616000  0.16414000  0.57780000  1.0 0.1183955206
C  C144  1  0.79123000  0.13509000  0.58220000  1.0 0.1301074955
C  C145  1  0.80459000  0.11801000  0.67180000  1.0 -0.4292510934
C  C146  1  0.67939000  0.77753000  0.77910000  1.0 0.4685477156
C  C147  1  0.69324000  0.79552000  0.69480000  1.0 0.3261609935
C  C148  1  0.73814000  0.80244000  0.58070000  1.0 0.1183955206
C  C149  1  0.76470000  0.83236000  0.58240000  1.0 0.0845278241
C  C150  1  0.77490000  0.84710000  0.66880000  1.0 -0.3988864501
C  C151  1  0.32352000  0.94128000  0.79800000  1.0 0.3782520108
C  C152  1  0.35060000  0.95100000  0.71200000  1.0 0.5025967323
C  C153  1  0.29363000  0.97013000  0.91920000  1.0 0.1183955206
C  C154  1  0.25614000  0.96918000  0.91920000  1.0 0.1118309971
C  C155  1  0.23369000  0.96589000  0.82950000  1.0 -0.41979596
C  C156  1  0.33326000  0.09608000  0.80190000  1.0 0.3976736181
C  C157  1  0.35873000  0.08955000  0.71770000  1.0 0.4685477156
C  C158  1  0.29823000  0.06571000  0.91960000  1.0 0.1118309971
C  C159  1  0.26081000  0.06741000  0.91710000  1.0 0.0989383009
C  C160  1  0.23919000  0.06839000  0.83210000  1.0 -0.4115204182
C  C161  1  0.43784000  0.15664000  0.80410000  1.0 0.3782520108
C  C162  1  0.44293000  0.17687000  0.71560000  1.0 0.4844044304
C  C163  1  0.46286000  0.12466000  0.92350000  1.0 0.1409677984
C  C164  1  0.45627000  0.08755000  0.91880000  1.0 0.0989383009
C  C165  1  0.44900000  0.06440000  0.83420000  1.0 -0.41979596
C  C166  1  0.58529000  0.15321000  0.71220000  1.0 0.4468914867
C  C167  1  0.58411000  0.13581000  0.80000000  1.0 0.3389195939
C  C168  1  0.55078000  0.10848000  0.92200000  1.0 0.0989383009
C  C169  1  0.54728000  0.07148000  0.91990000  1.0 0.1118309971
C  C170  1  0.54843000  0.04717000  0.83110000  1.0 -0.41979596
C  C171  1  0.27682000  0.83214000  0.69400000  1.0 0.3454277926
C  C172  1  0.28853000  0.81367000  0.77710000  1.0 0.4685477156
C  C173  1  0.23384000  0.83586000  0.57780000  1.0 0.1183955206
C  C174  1  0.20877000  0.86491000  0.58220000  1.0 0.1301074955
C  C175  1  0.19541000  0.88199000  0.67180000  1.0 -0.4292510934
C  C176  1  0.32061000  0.22247000  0.77910000  1.0 0.4685477156
C  C177  1  0.30676000  0.20448000  0.69480000  1.0 0.3261609935
C  C178  1  0.26186000  0.19756000  0.58070000  1.0 0.1183955206
C  C179  1  0.23530000  0.16764000  0.58240000  1.0 0.0845278241
C  C180  1  0.22510000  0.15290000  0.66880000  1.0 -0.3988864501
C  C181  1  0.94128000  0.32352000  0.20200000  1.0 0.3782520108
C  C182  1  0.95100000  0.35060000  0.28800000  1.0 0.5025967323
C  C183  1  0.97013000  0.29363000  0.08080000  1.0 0.1183955206
C  C184  1  0.96918000  0.25614000  0.08080000  1.0 0.1118309971
C  C185  1  0.96589000  0.23369000  0.17050000  1.0 -0.41979596
C  C186  1  0.09608000  0.33326000  0.19810000  1.0 0.3976736181
C  C187  1  0.08955000  0.35873000  0.28230000  1.0 0.4685477156
C  C188  1  0.06571000  0.29823000  0.08040000  1.0 0.1118309971
C  C189  1  0.06741000  0.26081000  0.08290000  1.0 0.0989383009
C  C190  1  0.06839000  0.23919000  0.16790000  1.0 -0.4115204182
C  C191  1  0.15664000  0.43784000  0.19590000  1.0 0.3782520108
C  C192  1  0.17687000  0.44293000  0.28440000  1.0 0.4844044304
C  C193  1  0.12466000  0.46286000  0.07650000  1.0 0.1409677984
C  C194  1  0.08755000  0.45627000  0.08120000  1.0 0.0989383009
C  C195  1  0.06440000  0.44900000  0.16580000  1.0 -0.41979596
C  C196  1  0.15321000  0.58529000  0.28780000  1.0 0.4468914867
C  C197  1  0.13581000  0.58411000  0.20000000  1.0 0.3389195939
C  C198  1  0.10848000  0.55078000  0.07800000  1.0 0.0989383009
C  C199  1  0.07148000  0.54728000  0.08010000  1.0 0.1118309971
C  C200  1  0.04717000  0.54843000  0.16890000  1.0 -0.41979596
C  C201  1  0.83214000  0.27682000  0.30600000  1.0 0.3389195939
C  C202  1  0.81367000  0.28853000  0.22290000  1.0 0.4685477156
C  C203  1  0.83586000  0.23384000  0.42220000  1.0 0.1183955206
C  C204  1  0.86491000  0.20877000  0.41780000  1.0 0.1301074955
C  C205  1  0.88199000  0.19541000  0.32820000  1.0 -0.4292510934
C  C206  1  0.22247000  0.32061000  0.22090000  1.0 0.4685477156
C  C207  1  0.20448000  0.30676000  0.30520000  1.0 0.3261609935
C  C208  1  0.19756000  0.26186000  0.41930000  1.0 0.1118309971
C  C209  1  0.16764000  0.23530000  0.41760000  1.0 0.0845278241
C  C210  1  0.15290000  0.22510000  0.33120000  1.0 -0.3988864501
C  C211  1  0.05872000  0.67648000  0.20200000  1.0 0.3782520108
C  C212  1  0.04900000  0.64940000  0.28800000  1.0 0.5025967323
C  C213  1  0.02987000  0.70637000  0.08080000  1.0 0.1183955206
C  C214  1  0.03082000  0.74386000  0.08080000  1.0 0.1118309971
C  C215  1  0.03411000  0.76631000  0.17050000  1.0 -0.41979596
C  C216  1  0.90392000  0.66674000  0.19810000  1.0 0.3976736181
C  C217  1  0.91045000  0.64127000  0.28230000  1.0 0.4685477156
C  C218  1  0.93429000  0.70177000  0.08040000  1.0 0.1118309971
C  C219  1  0.93259000  0.73919000  0.08290000  1.0 0.0989383009
C  C220  1  0.93161000  0.76081000  0.16790000  1.0 -0.4115204182
C  C221  1  0.84336000  0.56216000  0.19590000  1.0 0.3782520108
C  C222  1  0.82313000  0.55707000  0.28440000  1.0 0.4844044304
C  C223  1  0.87534000  0.53714000  0.07650000  1.0 0.1409677984
C  C224  1  0.91245000  0.54373000  0.08120000  1.0 0.0989383009
C  C225  1  0.93560000  0.55100000  0.16580000  1.0 -0.41979596
C  C226  1  0.84679000  0.41471000  0.28780000  1.0 0.4468914867
C  C227  1  0.86419000  0.41589000  0.20000000  1.0 0.3389195939
C  C228  1  0.89152000  0.44922000  0.07800000  1.0 0.0989383009
C  C229  1  0.92852000  0.45272000  0.08010000  1.0 0.1118309971
C  C230  1  0.95283000  0.45157000  0.16890000  1.0 -0.41979596
C  C231  1  0.16786000  0.72318000  0.30600000  1.0 0.3389195939
C  C232  1  0.18633000  0.71147000  0.22290000  1.0 0.4685477156
C  C233  1  0.16414000  0.76616000  0.42220000  1.0 0.1183955206
C  C234  1  0.13509000  0.79123000  0.41780000  1.0 0.1301074955
C  C235  1  0.11801000  0.80459000  0.32820000  1.0 -0.4292510934
C  C236  1  0.77753000  0.67939000  0.22090000  1.0 0.4685477156
C  C237  1  0.79552000  0.69324000  0.30520000  1.0 0.3261609935
C  C238  1  0.80244000  0.73814000  0.41930000  1.0 0.1118309971
C  C239  1  0.83236000  0.76470000  0.41760000  1.0 0.0845278241
C  C240  1  0.84710000  0.77490000  0.33120000  1.0 -0.3988864501
C  C241  1  0.23578000  0.96602000  0.00000000  1.0 -0.2397264987
C  C242  1  0.31450000  0.96990000  0.00000000  1.0 -0.0034045155
C  C243  1  0.35660000  0.97020000  0.00000000  1.0 -0.0207205165
C  C244  1  0.31870000  0.06610000  0.00000000  1.0 -0.0127806935
C  C245  1  0.24060000  0.06600000  0.00000000  1.0 -0.208102595
C  C246  1  0.36410000  0.06590000  0.00000000  1.0 0.0165580539
C  C247  1  0.46540000  0.15280000  0.00000000  1.0 -0.2232525721
C  C248  1  0.45150000  0.06490000  0.00000000  1.0 -0.188700389
C  C249  1  0.55110000  0.12930000  0.00000000  1.0 0.0099111758
C  C250  1  0.54750000  0.04550000  0.00000000  1.0 -0.227185361
C  C251  1  0.55640000  0.16800000  0.00000000  1.0 -0.0127806935
C  C252  1  0.76422000  0.03398000  0.00000000  1.0 -0.2397264987
C  C253  1  0.68550000  0.03010000  0.00000000  1.0 -0.0034045155
C  C254  1  0.64340000  0.02980000  0.00000000  1.0 -0.0259301618
C  C255  1  0.68130000  0.93390000  0.00000000  1.0 -0.0127806935
C  C256  1  0.75940000  0.93400000  0.00000000  1.0 -0.2040949724
C  C257  1  0.63590000  0.93410000  0.00000000  1.0 0.0165580539
C  C258  1  0.53460000  0.84720000  0.00000000  1.0 -0.2232525721
C  C259  1  0.54850000  0.93510000  0.00000000  1.0 -0.188700389
C  C260  1  0.44890000  0.87070000  0.00000000  1.0 0.0099111758
C  C261  1  0.45250000  0.95450000  0.00000000  1.0 -0.227185361
C  C262  1  0.44360000  0.83200000  0.00000000  1.0 -0.0207205165
C  C263  1  0.03398000  0.76422000  0.00000000  1.0 -0.2397264987
C  C264  1  0.03010000  0.68550000  0.00000000  1.0 -0.0034045155
C  C265  1  0.02980000  0.64340000  0.00000000  1.0 -0.0259301618
C  C266  1  0.93390000  0.68130000  0.00000000  1.0 -0.0127806935
C  C267  1  0.93400000  0.75940000  0.00000000  1.0 -0.2040949724
C  C268  1  0.93410000  0.63590000  0.00000000  1.0 0.0165580539
C  C269  1  0.84720000  0.53460000  0.00000000  1.0 -0.2232525721
C  C270  1  0.93510000  0.54850000  0.00000000  1.0 -0.188700389
C  C271  1  0.87070000  0.44890000  0.00000000  1.0 0.0099111758
C  C272  1  0.95450000  0.45250000  0.00000000  1.0 -0.227185361
C  C273  1  0.83200000  0.44360000  0.00000000  1.0 -0.0207205165
C  C274  1  0.96602000  0.23578000  0.00000000  1.0 -0.2397264987
C  C275  1  0.96990000  0.31450000  0.00000000  1.0 -0.0034045155
C  C276  1  0.97020000  0.35660000  0.00000000  1.0 -0.0259301618
C  C277  1  0.06610000  0.31870000  0.00000000  1.0 -0.0127806935
C  C278  1  0.06600000  0.24060000  0.00000000  1.0 -0.208102595
C  C279  1  0.06590000  0.36410000  0.00000000  1.0 0.0099111758
C  C280  1  0.15280000  0.46540000  0.00000000  1.0 -0.2232525721
C  C281  1  0.06490000  0.45150000  0.00000000  1.0 -0.188700389
C  C282  1  0.12930000  0.55110000  0.00000000  1.0 0.0099111758
C  C283  1  0.04550000  0.54750000  0.00000000  1.0 -0.227185361
C  C284  1  0.16800000  0.55640000  0.00000000  1.0 -0.0207205165
C  C285  1  0.19730000  0.87870000  0.50000000  1.0 -0.2609994299
C  C286  1  0.24550000  0.82190000  0.50000000  1.0 -0.0207205165
C  C287  1  0.26850000  0.79090000  0.50000000  1.0 0.0099111758
C  C288  1  0.27713000  0.21467000  0.50000000  1.0 0.0542240069
C  C289  1  0.22160000  0.15480000  0.50000000  1.0 -0.208102595
C  C290  1  0.30740000  0.24520000  0.50000000  1.0 -0.1787957288
C  C291  1  0.80270000  0.12130000  0.50000000  1.0 -0.2609994299
C  C292  1  0.75450000  0.17810000  0.50000000  1.0 -0.0207205165
C  C293  1  0.73150000  0.20910000  0.50000000  1.0 0.0165580539
C  C294  1  0.72287000  0.78533000  0.50000000  1.0 0.0542240069
C  C295  1  0.77840000  0.84520000  0.50000000  1.0 -0.208102595
C  C296  1  0.69260000  0.75480000  0.50000000  1.0 -0.1787957288
C  C297  1  0.12130000  0.80270000  0.50000000  1.0 -0.2609994299
C  C298  1  0.17810000  0.75450000  0.50000000  1.0 -0.0207205165
C  C299  1  0.20910000  0.73150000  0.50000000  1.0 0.0099111758
C  C300  1  0.78533000  0.72287000  0.50000000  1.0 0.0577109253
C  C301  1  0.84520000  0.77840000  0.50000000  1.0 -0.208102595
C  C302  1  0.75480000  0.69260000  0.50000000  1.0 -0.1787957288
C  C303  1  0.87870000  0.19730000  0.50000000  1.0 -0.2609994299
C  C304  1  0.82190000  0.24550000  0.50000000  1.0 -0.0207205165
C  C305  1  0.79090000  0.26850000  0.50000000  1.0 0.0165580539
C  C306  1  0.21467000  0.27713000  0.50000000  1.0 0.0542240069
C  C307  1  0.15480000  0.22160000  0.50000000  1.0 -0.208102595
C  C308  1  0.24520000  0.30740000  0.50000000  1.0 -0.1787957288
N  N1  1  0.31479000  0.97281000  0.16220000  1.0 -0.4115204182
N  N2  1  0.32031000  0.06327000  0.16440000  1.0 -0.4292510934
N  N3  1  0.46710000  0.14256000  0.16310000  1.0 -0.3988864501
N  N4  1  0.55151000  0.13043000  0.16300000  1.0 -0.3586398251
N  N5  1  0.24481000  0.81999000  0.33500000  1.0 -0.3787518851
N  N6  1  0.27546000  0.21560000  0.33560000  1.0 -0.3787518851
N  N7  1  0.68521000  0.02719000  0.16220000  1.0 -0.4115204182
N  N8  1  0.67969000  0.93673000  0.16440000  1.0 -0.4292510934
N  N9  1  0.53290000  0.85744000  0.16310000  1.0 -0.3988864501
N  N10  1  0.44849000  0.86957000  0.16300000  1.0 -0.3586398251
N  N11  1  0.75519000  0.18001000  0.33500000  1.0 -0.3787518851
N  N12  1  0.72454000  0.78440000  0.33560000  1.0 -0.3787518851
N  N13  1  0.02719000  0.68521000  0.83780000  1.0 -0.4115204182
N  N14  1  0.93673000  0.67969000  0.83560000  1.0 -0.4292510934
N  N15  1  0.85744000  0.53290000  0.83690000  1.0 -0.3988864501
N  N16  1  0.86957000  0.44849000  0.83700000  1.0 -0.3586398251
N  N17  1  0.18001000  0.75519000  0.66500000  1.0 -0.3787518851
N  N18  1  0.78440000  0.72454000  0.66440000  1.0 -0.3787518851
N  N19  1  0.97281000  0.31479000  0.83780000  1.0 -0.4115204182
N  N20  1  0.06327000  0.32031000  0.83560000  1.0 -0.4292510934
N  N21  1  0.14256000  0.46710000  0.83690000  1.0 -0.3988864501
N  N22  1  0.13043000  0.55151000  0.83700000  1.0 -0.3586398251
N  N23  1  0.81999000  0.24481000  0.66500000  1.0 -0.3787518851
N  N24  1  0.21560000  0.27546000  0.66440000  1.0 -0.3787518851
N  N25  1  0.68521000  0.02719000  0.83780000  1.0 -0.4115204182
N  N26  1  0.67969000  0.93673000  0.83560000  1.0 -0.4292510934
N  N27  1  0.53290000  0.85744000  0.83690000  1.0 -0.3988864501
N  N28  1  0.44849000  0.86957000  0.83700000  1.0 -0.3586398251
N  N29  1  0.75519000  0.18001000  0.66500000  1.0 -0.3787518851
N  N30  1  0.72454000  0.78440000  0.66440000  1.0 -0.3787518851
N  N31  1  0.31479000  0.97281000  0.83780000  1.0 -0.4115204182
N  N32  1  0.32031000  0.06327000  0.83560000  1.0 -0.4292510934
N  N33  1  0.46710000  0.14256000  0.83690000  1.0 -0.3988864501
N  N34  1  0.55151000  0.13043000  0.83700000  1.0 -0.3586398251
N  N35  1  0.24481000  0.81999000  0.66500000  1.0 -0.3787518851
N  N36  1  0.27546000  0.21560000  0.66440000  1.0 -0.3787518851
N  N37  1  0.97281000  0.31479000  0.16220000  1.0 -0.4115204182
N  N38  1  0.06327000  0.32031000  0.16440000  1.0 -0.4292510934
N  N39  1  0.14256000  0.46710000  0.16310000  1.0 -0.3988864501
N  N40  1  0.13043000  0.55151000  0.16300000  1.0 -0.3586398251
N  N41  1  0.81999000  0.24481000  0.33500000  1.0 -0.3787518851
N  N42  1  0.21560000  0.27546000  0.33560000  1.0 -0.3787518851
N  N43  1  0.02719000  0.68521000  0.16220000  1.0 -0.4115204182
N  N44  1  0.93673000  0.67969000  0.16440000  1.0 -0.4292510934
N  N45  1  0.85744000  0.53290000  0.16310000  1.0 -0.3988864501
N  N46  1  0.86957000  0.44849000  0.16300000  1.0 -0.3586398251
N  N47  1  0.18001000  0.75519000  0.33500000  1.0 -0.3787518851
N  N48  1  0.78440000  0.72454000  0.33560000  1.0 -0.3787518851
O  O1  1  0.35673000  0.98299000  0.30710000  1.0 -0.3916608554
O  O2  1  0.36017000  0.91957000  0.31860000  1.0 -0.4952643997
O  O3  1  0.31318000  0.90750000  0.17680000  1.0 -0.4292510934
O  O4  1  0.36090000  0.05480000  0.30820000  1.0 -0.4712424681
O  O5  1  0.37423000  0.11695000  0.31780000  1.0 -0.4115204182
O  O6  1  0.32959000  0.12913000  0.18070000  1.0 -0.3988864501
O  O7  1  0.40534000  0.15574000  0.16070000  1.0 -0.4292510934
O  O8  1  0.41436000  0.19028000  0.31730000  1.0 -0.4492601503
O  O9  1  0.47573000  0.18023000  0.31270000  1.0 -0.4492601503
O  O10  1  0.55556000  0.16542000  0.31740000  1.0 -0.41979596
O  O11  1  0.61641000  0.15677000  0.32480000  1.0 -0.4358535992
O  O12  1  0.61353000  0.12177000  0.16940000  1.0 -0.4115204182
O  O13  1  0.26785000  0.78747000  0.19110000  1.0 -0.41979596
O  O14  1  0.32164000  0.82636000  0.18780000  1.0 -0.4778500862
O  O15  1  0.29945000  0.86001000  0.33580000  1.0 -0.4492601503
O  O16  1  0.32704000  0.17914000  0.33900000  1.0 -0.4115204182
O  O17  1  0.34935000  0.21205000  0.18780000  1.0 -0.41979596
O  O18  1  0.30121000  0.24729000  0.19220000  1.0 -0.3988864501
O  O19  1  0.64327000  0.01701000  0.30710000  1.0 -0.3916608554
O  O20  1  0.63983000  0.08043000  0.31860000  1.0 -0.4944596774
O  O21  1  0.68682000  0.09250000  0.17680000  1.0 -0.4292510934
O  O22  1  0.63910000  0.94520000  0.30820000  1.0 -0.4712424681
O  O23  1  0.62577000  0.88305000  0.31780000  1.0 -0.4115204182
O  O24  1  0.67041000  0.87087000  0.18070000  1.0 -0.3988864501
O  O25  1  0.59466000  0.84426000  0.16070000  1.0 -0.4292510934
O  O26  1  0.58564000  0.80972000  0.31730000  1.0 -0.4492601503
O  O27  1  0.52427000  0.81977000  0.31270000  1.0 -0.4492601503
O  O28  1  0.44444000  0.83458000  0.31740000  1.0 -0.41979596
O  O29  1  0.38359000  0.84323000  0.32480000  1.0 -0.4358535992
O  O30  1  0.38647000  0.87823000  0.16940000  1.0 -0.4115204182
O  O31  1  0.73215000  0.21253000  0.19110000  1.0 -0.41979596
O  O32  1  0.67836000  0.17364000  0.18780000  1.0 -0.4778500862
O  O33  1  0.70055000  0.13999000  0.33580000  1.0 -0.4492601503
O  O34  1  0.67296000  0.82086000  0.33900000  1.0 -0.4115204182
O  O35  1  0.65065000  0.78795000  0.18780000  1.0 -0.41979596
O  O36  1  0.69879000  0.75271000  0.19220000  1.0 -0.3988864501
O  O37  1  0.01701000  0.64327000  0.69290000  1.0 -0.3916608554
O  O38  1  0.08043000  0.63983000  0.68140000  1.0 -0.4952643997
O  O39  1  0.09250000  0.68682000  0.82320000  1.0 -0.4292510934
O  O40  1  0.94520000  0.63910000  0.69180000  1.0 -0.4712424681
O  O41  1  0.88305000  0.62577000  0.68220000  1.0 -0.4115204182
O  O42  1  0.87087000  0.67041000  0.81930000  1.0 -0.3916608554
O  O43  1  0.84426000  0.59466000  0.83930000  1.0 -0.4292510934
O  O44  1  0.80972000  0.58564000  0.68270000  1.0 -0.4492601503
O  O45  1  0.81977000  0.52427000  0.68730000  1.0 -0.4492601503
O  O46  1  0.83458000  0.44444000  0.68260000  1.0 -0.41979596
O  O47  1  0.84323000  0.38359000  0.67520000  1.0 -0.4292510934
O  O48  1  0.87823000  0.38647000  0.83060000  1.0 -0.4115204182
O  O49  1  0.21253000  0.73215000  0.80890000  1.0 -0.4115204182
O  O50  1  0.17364000  0.67836000  0.81220000  1.0 -0.4778500862
O  O51  1  0.13999000  0.70055000  0.66420000  1.0 -0.4492601503
O  O52  1  0.82086000  0.67296000  0.66100000  1.0 -0.4115204182
O  O53  1  0.78795000  0.65065000  0.81220000  1.0 -0.4115204182
O  O54  1  0.75271000  0.69879000  0.80780000  1.0 -0.3988864501
O  O55  1  0.98299000  0.35673000  0.69290000  1.0 -0.3916608554
O  O56  1  0.91957000  0.36017000  0.68140000  1.0 -0.4944596774
O  O57  1  0.90750000  0.31318000  0.82320000  1.0 -0.4292510934
O  O58  1  0.05480000  0.36090000  0.69180000  1.0 -0.4712424681
O  O59  1  0.11695000  0.37423000  0.68220000  1.0 -0.4115204182
O  O60  1  0.12913000  0.32959000  0.81930000  1.0 -0.3916608554
O  O61  1  0.15574000  0.40534000  0.83930000  1.0 -0.4292510934
O  O62  1  0.19028000  0.41436000  0.68270000  1.0 -0.4492601503
O  O63  1  0.18023000  0.47573000  0.68730000  1.0 -0.4492601503
O  O64  1  0.16542000  0.55556000  0.68260000  1.0 -0.41979596
O  O65  1  0.15677000  0.61641000  0.67520000  1.0 -0.4292510934
O  O66  1  0.12177000  0.61353000  0.83060000  1.0 -0.4115204182
O  O67  1  0.78747000  0.26785000  0.80890000  1.0 -0.41979596
O  O68  1  0.82636000  0.32164000  0.81220000  1.0 -0.4712424681
O  O69  1  0.86001000  0.29945000  0.66420000  1.0 -0.4492601503
O  O70  1  0.17914000  0.32704000  0.66100000  1.0 -0.4115204182
O  O71  1  0.21205000  0.34935000  0.81220000  1.0 -0.41979596
O  O72  1  0.24729000  0.30121000  0.80780000  1.0 -0.3988864501
O  O73  1  0.64327000  0.01701000  0.69290000  1.0 -0.3916608554
O  O74  1  0.63983000  0.08043000  0.68140000  1.0 -0.4952643997
O  O75  1  0.68682000  0.09250000  0.82320000  1.0 -0.4292510934
O  O76  1  0.63910000  0.94520000  0.69180000  1.0 -0.4712424681
O  O77  1  0.62577000  0.88305000  0.68220000  1.0 -0.4115204182
O  O78  1  0.67041000  0.87087000  0.81930000  1.0 -0.3988864501
O  O79  1  0.59466000  0.84426000  0.83930000  1.0 -0.4292510934
O  O80  1  0.58564000  0.80972000  0.68270000  1.0 -0.4492601503
O  O81  1  0.52427000  0.81977000  0.68730000  1.0 -0.4492601503
O  O82  1  0.44444000  0.83458000  0.68260000  1.0 -0.41979596
O  O83  1  0.38359000  0.84323000  0.67520000  1.0 -0.4292510934
O  O84  1  0.38647000  0.87823000  0.83060000  1.0 -0.4115204182
O  O85  1  0.73215000  0.21253000  0.80890000  1.0 -0.41979596
O  O86  1  0.67836000  0.17364000  0.81220000  1.0 -0.4712424681
O  O87  1  0.70055000  0.13999000  0.66420000  1.0 -0.4492601503
O  O88  1  0.67296000  0.82086000  0.66100000  1.0 -0.4115204182
O  O89  1  0.65065000  0.78795000  0.81220000  1.0 -0.4115204182
O  O90  1  0.69879000  0.75271000  0.80780000  1.0 -0.3988864501
O  O91  1  0.35673000  0.98299000  0.69290000  1.0 -0.3916608554
O  O92  1  0.36017000  0.91957000  0.68140000  1.0 -0.4944596774
O  O93  1  0.31318000  0.90750000  0.82320000  1.0 -0.4292510934
O  O94  1  0.36090000  0.05480000  0.69180000  1.0 -0.4712424681
O  O95  1  0.37423000  0.11695000  0.68220000  1.0 -0.4115204182
O  O96  1  0.32959000  0.12913000  0.81930000  1.0 -0.3916608554
O  O97  1  0.40534000  0.15574000  0.83930000  1.0 -0.4292510934
O  O98  1  0.41436000  0.19028000  0.68270000  1.0 -0.4492601503
O  O99  1  0.47573000  0.18023000  0.68730000  1.0 -0.4492601503
O  O100  1  0.55556000  0.16542000  0.68260000  1.0 -0.41979596
O  O101  1  0.61641000  0.15677000  0.67520000  1.0 -0.4292510934
O  O102  1  0.61353000  0.12177000  0.83060000  1.0 -0.4115204182
O  O103  1  0.26785000  0.78747000  0.80890000  1.0 -0.41979596
O  O104  1  0.32164000  0.82636000  0.81220000  1.0 -0.4712424681
O  O105  1  0.29945000  0.86001000  0.66420000  1.0 -0.4492601503
O  O106  1  0.32704000  0.17914000  0.66100000  1.0 -0.4115204182
O  O107  1  0.34935000  0.21205000  0.81220000  1.0 -0.4115204182
O  O108  1  0.30121000  0.24729000  0.80780000  1.0 -0.3988864501
O  O109  1  0.98299000  0.35673000  0.30710000  1.0 -0.3916608554
O  O110  1  0.91957000  0.36017000  0.31860000  1.0 -0.4944596774
O  O111  1  0.90750000  0.31318000  0.17680000  1.0 -0.4292510934
O  O112  1  0.05480000  0.36090000  0.30820000  1.0 -0.4712424681
O  O113  1  0.11695000  0.37423000  0.31780000  1.0 -0.4115204182
O  O114  1  0.12913000  0.32959000  0.18070000  1.0 -0.3988864501
O  O115  1  0.15574000  0.40534000  0.16070000  1.0 -0.4292510934
O  O116  1  0.19028000  0.41436000  0.31730000  1.0 -0.4492601503
O  O117  1  0.18023000  0.47573000  0.31270000  1.0 -0.4492601503
O  O118  1  0.16542000  0.55556000  0.31740000  1.0 -0.41979596
O  O119  1  0.15677000  0.61641000  0.32480000  1.0 -0.4358535992
O  O120  1  0.12177000  0.61353000  0.16940000  1.0 -0.4115204182
O  O121  1  0.78747000  0.26785000  0.19110000  1.0 -0.41979596
O  O122  1  0.82636000  0.32164000  0.18780000  1.0 -0.4778500862
O  O123  1  0.86001000  0.29945000  0.33580000  1.0 -0.4492601503
O  O124  1  0.17914000  0.32704000  0.33900000  1.0 -0.4115204182
O  O125  1  0.21205000  0.34935000  0.18780000  1.0 -0.41979596
O  O126  1  0.24729000  0.30121000  0.19220000  1.0 -0.3988864501
O  O127  1  0.01701000  0.64327000  0.30710000  1.0 -0.3916608554
O  O128  1  0.08043000  0.63983000  0.31860000  1.0 -0.4944596774
O  O129  1  0.09250000  0.68682000  0.17680000  1.0 -0.4292510934
O  O130  1  0.94520000  0.63910000  0.30820000  1.0 -0.4712424681
O  O131  1  0.88305000  0.62577000  0.31780000  1.0 -0.4115204182
O  O132  1  0.87087000  0.67041000  0.18070000  1.0 -0.3916608554
O  O133  1  0.84426000  0.59466000  0.16070000  1.0 -0.4292510934
O  O134  1  0.80972000  0.58564000  0.31730000  1.0 -0.4492601503
O  O135  1  0.81977000  0.52427000  0.31270000  1.0 -0.4492601503
O  O136  1  0.83458000  0.44444000  0.31740000  1.0 -0.41979596
O  O137  1  0.84323000  0.38359000  0.32480000  1.0 -0.4292510934
O  O138  1  0.87823000  0.38647000  0.16940000  1.0 -0.4115204182
O  O139  1  0.21253000  0.73215000  0.19110000  1.0 -0.4115204182
O  O140  1  0.17364000  0.67836000  0.18780000  1.0 -0.4778500862
O  O141  1  0.13999000  0.70055000  0.33580000  1.0 -0.4492601503
O  O142  1  0.82086000  0.67296000  0.33900000  1.0 -0.4115204182
O  O143  1  0.78795000  0.65065000  0.18780000  1.0 -0.41979596
O  O144  1  0.75271000  0.69879000  0.19220000  1.0 -0.3988864501
