# DDEC6 charges by PACMAN v1.1 (https://github.com/mtap-research/PACMAN-charge/)
data_FAYLEY_ASR_pacman
_symmetry_space_group_name_H-M   'P 1'
_cell_length_a   7.14900000
_cell_length_b   7.14900000
_cell_length_c   13.39200000
_cell_angle_alpha   90.00000000
_cell_angle_beta   90.00000000
_cell_angle_gamma   90.00000000
_symmetry_Int_Tables_number   1
_chemical_formula_structural   FePt(C8N3)2
_chemical_formula_sum   'Fe1 Pt1 C16 N6'
_cell_volume   684.44102779
_cell_formula_units_Z   1
loop_
 _symmetry_equiv_pos_site_id
 _symmetry_equiv_pos_as_xyz
  1  'x, y, z'
loop_
 _atom_site_type_symbol
 _atom_site_label
 _atom_site_symmetry_multiplicity
 _atom_site_fract_x
 _atom_site_fract_y
 _atom_site_fract_z
 _atom_site_occupancy
 _atom_site_charge
Fe  Fe1  1  0.50000000  0.50000000  0.50000000  1.0 0.5993409463
Pt  Pt1  1  0.00000000  0.00000000  0.50000000  1.0 0.0516298198
C  C1  1  0.50000000  0.50000000  0.09073000  1.0 0.003110648
C  C2  1  0.50000000  0.50000000  0.90927000  1.0 0.003110648
C  C3  1  0.80578000  0.80483000  0.50000000  1.0 0.128332196
C  C4  1  0.19422000  0.19517000  0.50000000  1.0 0.128332196
C  C5  1  0.19422000  0.80483000  0.50000000  1.0 0.128332196
C  C6  1  0.80578000  0.19517000  0.50000000  1.0 0.128332196
C  C7  1  0.64044000  0.50000000  0.29734000  1.0 0.00504537
C  C8  1  0.71835000  0.50000000  0.20974000  1.0 -0.0493941663
C  C9  1  0.35956000  0.50000000  0.29734000  1.0 0.00504537
C  C10  1  0.28165000  0.50000000  0.20974000  1.0 -0.0493941663
C  C11  1  0.35956000  0.50000000  0.70266000  1.0 0.00504537
C  C12  1  0.28165000  0.50000000  0.79026000  1.0 -0.0493941663
C  C13  1  0.64044000  0.50000000  0.70266000  1.0 0.00504537
C  C14  1  0.71835000  0.50000000  0.79026000  1.0 -0.0493941663
C  C15  1  0.50000000  0.50000000  0.19129000  1.0 0.128332196
C  C16  1  0.50000000  0.50000000  0.80871000  1.0 0.128332196
N  N1  1  0.50000000  0.50000000  0.36477000  1.0 -0.1058054782
N  N2  1  0.50000000  0.50000000  0.63523000  1.0 -0.1058054782
N  N3  1  0.69093000  0.68688000  0.50000000  1.0 -0.2595447741
N  N4  1  0.30907000  0.31312000  0.50000000  1.0 -0.2595447741
N  N5  1  0.30907000  0.68688000  0.50000000  1.0 -0.2595447741
N  N6  1  0.69093000  0.31312000  0.50000000  1.0 -0.2595447741
