# DDEC6 charges by PACMAN v1.1 (https://github.com/mtap-research/PACMAN-charge/)
data_FAYPEC_FSR_pacman
_symmetry_space_group_name_H-M   'P 1'
_cell_length_a   23.78840000
_cell_length_b   23.78840000
_cell_length_c   42.04500000
_cell_angle_alpha   64.43090000
_cell_angle_beta   115.56900000
_cell_angle_gamma   129.29100000
_symmetry_Int_Tables_number   1
_chemical_formula_structural   Zn5H72C81(N3O2)6
_chemical_formula_sum   'Zn20 H288 C324 N72 O48'
_cell_volume   16178.23203779
_cell_formula_units_Z   4
loop_
 _symmetry_equiv_pos_site_id
 _symmetry_equiv_pos_as_xyz
  1  'x, y, z'
loop_
 _atom_site_type_symbol
 _atom_site_label
 _atom_site_symmetry_multiplicity
 _atom_site_fract_x
 _atom_site_fract_y
 _atom_site_fract_z
 _atom_site_occupancy
 _atom_site_charge
Zn  Zn1  1  0.48428000  0.18866000  0.63972000  1.0 0.6898323327
Zn  Zn2  1  0.81134000  0.51572000  0.13972000  1.0 0.6898323327
Zn  Zn3  1  0.68356000  0.28120000  0.65735000  1.0 0.441118452
Zn  Zn4  1  0.71880000  0.31644000  0.15735000  1.0 0.441118452
Zn  Zn5  1  0.77251000  0.48095000  0.63377000  1.0 0.6786341399
Zn  Zn6  1  0.51905000  0.22749000  0.13377000  1.0 0.6786341399
Zn  Zn7  1  0.75751000  0.22997000  0.75222000  1.0 0.7062459618
Zn  Zn8  1  0.77003000  0.24249000  0.25222000  1.0 0.7062459618
Zn  Zn9  1  0.72389000  0.23017000  0.60304000  1.0 0.6898323327
Zn  Zn10  1  0.76983000  0.27611000  0.10304000  1.0 0.6898323327
Zn  Zn11  1  0.18866000  0.48428000  0.86028000  1.0 0.6898323327
Zn  Zn12  1  0.51572000  0.81134000  0.36028000  1.0 0.6898323327
Zn  Zn13  1  0.28120000  0.68356000  0.84265000  1.0 0.441118452
Zn  Zn14  1  0.31644000  0.71880000  0.34265000  1.0 0.441118452
Zn  Zn15  1  0.48095000  0.77251000  0.86623000  1.0 0.6786341399
Zn  Zn16  1  0.22749000  0.51905000  0.36623000  1.0 0.6786341399
Zn  Zn17  1  0.22997000  0.75751000  0.74778000  1.0 0.7062459618
Zn  Zn18  1  0.24249000  0.77003000  0.24778000  1.0 0.7062459618
Zn  Zn19  1  0.23017000  0.72389000  0.89696000  1.0 0.6898323327
Zn  Zn20  1  0.27611000  0.76983000  0.39696000  1.0 0.6898323327
H  H1  1  0.90360000  0.25740000  0.36170000  1.0 0.1202565842
H  H2  1  0.74260000  0.09640000  0.86170000  1.0 0.1202565842
H  H3  1  0.91010000  0.57910000  0.70210000  1.0 0.1485593559
H  H4  1  0.42090000  0.08990000  0.20210000  1.0 0.1485593559
H  H5  1  0.69270000  0.04770000  0.56960000  1.0 0.1295892483
H  H6  1  0.95230000  0.30730000  0.06960000  1.0 0.1295892483
H  H7  1  0.24848000  0.08488000  0.65200000  1.0 0.1295892483
H  H8  1  0.91512000  0.75152000  0.15200000  1.0 0.1295892483
H  H9  1  0.89800000  0.23640000  0.57380000  1.0 0.1295892483
H  H10  1  0.76360000  0.10200000  0.07380000  1.0 0.1295892483
H  H11  1  0.55600000  0.00260000  0.85010000  1.0 0.1399107299
H  H12  1  0.99740000  0.44400000  0.35010000  1.0 0.1399107299
H  H13  1  0.47840000  0.98960000  0.84250000  1.0 0.1485593559
H  H14  1  0.01040000  0.52160000  0.34250000  1.0 0.1485593559
H  H15  1  0.48280000  0.93460000  0.83420000  1.0 0.1295892483
H  H16  1  0.06540000  0.51720000  0.33420000  1.0 0.1295892483
H  H17  1  0.72800000  0.99640000  0.55270000  1.0 0.1399107299
H  H18  1  0.00360000  0.27200000  0.05270000  1.0 0.1399107299
H  H19  1  0.65680000  0.53880000  0.60940000  1.0 0.1295892483
H  H20  1  0.46120000  0.34320000  0.10940000  1.0 0.1295892483
H  H21  1  0.49650000  0.54590000  0.58570000  1.0 0.1295892483
H  H22  1  0.45410000  0.50350000  0.08570000  1.0 0.1295892483
H  H23  1  0.57410000  0.58110000  0.61280000  1.0 0.1076996228
H  H24  1  0.41890000  0.42590000  0.11280000  1.0 0.1019174665
H  H25  1  0.57000000  0.59280000  0.57240000  1.0 0.1076996228
H  H26  1  0.40720000  0.43000000  0.07240000  1.0 0.1019174665
H  H27  1  0.93630000  0.18530000  0.55820000  1.0 0.1295892483
H  H28  1  0.81470000  0.06370000  0.05820000  1.0 0.1295892483
H  H29  1  0.97190000  0.67570000  0.53250000  1.0 0.1202565842
H  H30  1  0.32430000  0.02810000  0.03250000  1.0 0.1202565842
H  H31  1  0.02000000  0.65040000  0.53390000  1.0 0.1295892483
H  H32  1  0.34960000  0.98000000  0.03390000  1.0 0.1295892483
H  H33  1  0.95240000  0.64320000  0.50110000  1.0 0.1295892483
H  H34  1  0.35680000  0.04760000  0.00110000  1.0 0.1295892483
H  H35  1  0.42240000  0.29980000  0.61280000  1.0 0.1295892483
H  H36  1  0.70020000  0.57760000  0.11280000  1.0 0.1295892483
H  H37  1  0.82170000  0.82690000  0.59160000  1.0 0.1202565842
H  H38  1  0.17310000  0.17830000  0.09160000  1.0 0.1202565842
H  H39  1  0.03680000  0.12580000  0.51870000  1.0 0.1019174665
H  H40  1  0.87420000  0.96320000  0.01870000  1.0 0.1019174665
H  H41  1  0.01760000  0.04760000  0.52100000  1.0 0.1076996228
H  H42  1  0.95240000  0.98240000  0.02100000  1.0 0.1076996228
H  H43  1  0.62580000  0.09280000  0.80410000  1.0 0.1485593559
H  H44  1  0.90720000  0.37420000  0.30410000  1.0 0.1485593559
H  H45  1  0.76040000  0.03980000  0.36550000  1.0 0.1295892483
H  H46  1  0.96020000  0.23960000  0.86550000  1.0 0.1295892483
H  H47  1  0.14260000  0.12820000  0.52850000  1.0 0.1202565842
H  H48  1  0.87180000  0.85740000  0.02850000  1.0 0.1202565842
H  H49  1  0.80750000  0.01150000  0.42580000  1.0 0.1295892483
H  H50  1  0.98850000  0.19250000  0.92580000  1.0 0.1295892483
H  H51  1  0.94640000  0.13580000  0.52730000  1.0 0.1076996228
H  H52  1  0.86420000  0.05360000  0.02730000  1.0 0.1076996228
H  H53  1  0.95980000  0.09220000  0.56760000  1.0 0.1076996228
H  H54  1  0.90780000  0.04020000  0.06760000  1.0 0.1076996228
H  H55  1  0.84250000  0.93430000  0.54960000  1.0 0.1019174665
H  H56  1  0.06570000  0.15750000  0.04960000  1.0 0.1019174665
H  H57  1  0.91770000  0.95810000  0.57920000  1.0 0.1076996228
H  H58  1  0.04190000  0.08230000  0.07920000  1.0 0.1076996228
H  H59  1  0.88320000  0.58080000  0.57380000  1.0 0.1399107299
H  H60  1  0.41920000  0.11680000  0.07380000  1.0 0.1399107299
H  H61  1  0.85390000  0.38630000  0.54930000  1.0 0.1399107299
H  H62  1  0.61370000  0.14610000  0.04930000  1.0 0.1399107299
H  H63  1  0.32940000  0.96180000  0.75540000  1.0 0.1399107299
H  H64  1  0.03820000  0.67060000  0.25540000  1.0 0.1399107299
H  H65  1  0.35960000  0.91620000  0.78860000  1.0 0.1295892483
H  H66  1  0.08380000  0.64040000  0.28860000  1.0 0.1295892483
H  H67  1  0.36350000  0.98030000  0.79360000  1.0 0.1485593559
H  H68  1  0.01970000  0.63650000  0.29360000  1.0 0.1485593559
H  H69  1  0.12620000  0.05340000  0.63240000  1.0 0.1399107299
H  H70  1  0.94660000  0.87380000  0.13240000  1.0 0.1399107299
H  H71  1  0.89640000  0.37560000  0.79900000  1.0 0.1485593559
H  H72  1  0.62440000  0.10360000  0.29900000  1.0 0.1485593559
H  H73  1  0.40420000  0.05520000  0.71580000  1.0 0.1485593559
H  H74  1  0.94480000  0.59580000  0.21580000  1.0 0.1485593559
H  H75  1  0.95140000  0.23140000  0.42590000  1.0 0.1295892483
H  H76  1  0.76860000  0.04860000  0.92590000  1.0 0.1295892483
H  H77  1  0.26580000  0.16140000  0.54820000  1.0 0.1202565842
H  H78  1  0.83860000  0.73420000  0.04820000  1.0 0.1202565842
H  H79  1  0.91720000  0.12100000  0.67220000  1.0 0.1019174665
H  H80  1  0.87900000  0.08280000  0.17220000  1.0 0.1019174665
H  H81  1  0.98500000  0.16920000  0.69980000  1.0 0.1019174665
H  H82  1  0.83080000  0.01500000  0.19980000  1.0 0.1076996228
H  H83  1  0.92990000  0.08350000  0.71350000  1.0 0.1019174665
H  H84  1  0.91650000  0.07010000  0.21350000  1.0 0.1019174665
H  H85  1  0.95950000  0.14170000  0.79570000  1.0 0.1202565842
H  H86  1  0.85830000  0.04050000  0.29570000  1.0 0.1202565842
H  H87  1  0.94570000  0.08390000  0.77990000  1.0 0.1202565842
H  H88  1  0.91610000  0.05430000  0.27990000  1.0 0.1202565842
H  H89  1  0.00720000  0.16880000  0.76940000  1.0 0.1202565842
H  H90  1  0.83120000  0.99280000  0.26940000  1.0 0.1202565842
H  H91  1  0.93960000  0.46480000  0.51660000  1.0 0.1076996228
H  H92  1  0.53520000  0.06040000  0.01660000  1.0 0.1076996228
H  H93  1  0.94440000  0.53920000  0.49290000  1.0 0.1202565842
H  H94  1  0.46080000  0.05560000  0.99290000  1.0 0.1202565842
H  H95  1  0.00730000  0.54070000  0.52760000  1.0 0.1202565842
H  H96  1  0.45930000  0.99270000  0.02760000  1.0 0.1202565842
H  H97  1  0.40580000  0.45240000  0.59510000  1.0 0.1485593559
H  H98  1  0.54760000  0.59420000  0.09510000  1.0 0.1485593559
H  H99  1  0.36120000  0.38260000  0.57900000  1.0 0.1019174665
H  H100  1  0.61740000  0.63880000  0.07900000  1.0 0.1019174665
H  H101  1  0.37670000  0.37250000  0.62070000  1.0 0.1019174665
H  H102  1  0.62750000  0.62330000  0.12070000  1.0 0.1019174665
H  H103  1  0.98940000  0.45540000  0.83900000  1.0 0.1399107299
H  H104  1  0.54460000  0.01060000  0.33900000  1.0 0.1399107299
H  H105  1  0.05090000  0.53150000  0.82000000  1.0 0.1295892483
H  H106  1  0.46850000  0.94910000  0.32000000  1.0 0.1295892483
H  H107  1  0.99240000  0.52820000  0.83000000  1.0 0.1399107299
H  H108  1  0.47180000  0.00760000  0.33000000  1.0 0.1399107299
H  H109  1  0.00330000  0.66410000  0.73820000  1.0 0.1399107299
H  H110  1  0.33590000  0.99670000  0.23820000  1.0 0.1399107299
H  H111  1  0.99500000  0.63440000  0.77820000  1.0 0.1485593559
H  H112  1  0.36560000  0.00500000  0.27820000  1.0 0.1485593559
H  H113  1  0.05730000  0.64170000  0.76940000  1.0 0.1295892483
H  H114  1  0.35830000  0.94270000  0.26940000  1.0 0.1295892483
H  H115  1  0.37790000  0.95590000  0.51740000  1.0 0.1076996228
H  H116  1  0.04410000  0.62210000  0.01740000  1.0 0.1076996228
H  H117  1  0.45470000  0.01410000  0.50600000  1.0 0.1295892483
H  H118  1  0.98590000  0.54530000  0.00600000  1.0 0.1202565842
H  H119  1  0.44690000  0.94990000  0.54080000  1.0 0.1399107299
H  H120  1  0.05010000  0.55310000  0.04080000  1.0 0.1399107299
H  H121  1  0.37800000  0.06620000  0.58430000  1.0 0.1485593559
H  H122  1  0.93380000  0.62200000  0.08430000  1.0 0.1485593559
H  H123  1  0.56860000  0.09520000  0.55820000  1.0 0.1399107299
H  H124  1  0.90480000  0.43140000  0.05820000  1.0 0.1399107299
H  H125  1  0.78990000  0.70430000  0.62410000  1.0 0.1295892483
H  H126  1  0.29570000  0.21010000  0.12410000  1.0 0.1295892483
H  H127  1  0.94360000  0.83980000  0.54310000  1.0 0.1295892483
H  H128  1  0.16020000  0.05640000  0.04310000  1.0 0.1295892483
H  H129  1  0.90470000  0.71650000  0.57290000  1.0 0.1202565842
H  H130  1  0.28350000  0.09530000  0.07290000  1.0 0.1202565842
H  H131  1  0.27990000  0.96890000  0.54850000  1.0 0.1295892483
H  H132  1  0.03110000  0.72010000  0.04850000  1.0 0.1295892483
H  H133  1  0.30440000  0.98060000  0.51580000  1.0 0.1202565842
H  H134  1  0.01940000  0.69560000  0.01580000  1.0 0.1202565842
H  H135  1  0.30430000  0.91910000  0.55090000  1.0 0.1399107299
H  H136  1  0.08090000  0.69570000  0.05090000  1.0 0.1399107299
H  H137  1  0.86820000  0.16720000  0.77390000  1.0 0.1399107299
H  H138  1  0.83280000  0.13180000  0.27390000  1.0 0.1399107299
H  H139  1  0.82710000  0.15850000  0.65170000  1.0 0.1399107299
H  H140  1  0.84150000  0.17290000  0.15170000  1.0 0.1399107299
H  H141  1  0.89070000  0.00390000  0.48230000  1.0 0.1076996228
H  H142  1  0.99610000  0.10930000  0.98230000  1.0 0.1076996228
H  H143  1  0.83450000  0.01030000  0.48870000  1.0 0.1076996228
H  H144  1  0.98970000  0.16550000  0.98870000  1.0 0.1076996228
H  H145  1  0.25740000  0.90360000  0.13830000  1.0 0.1202565842
H  H146  1  0.09640000  0.74260000  0.63830000  1.0 0.1202565842
H  H147  1  0.57910000  0.91010000  0.79790000  1.0 0.1485593559
H  H148  1  0.08990000  0.42090000  0.29790000  1.0 0.1485593559
H  H149  1  0.04770000  0.69270000  0.93040000  1.0 0.1295892483
H  H150  1  0.30730000  0.95230000  0.43040000  1.0 0.1295892483
H  H151  1  0.08488000  0.24848000  0.84800000  1.0 0.1295892483
H  H152  1  0.75152000  0.91512000  0.34800000  1.0 0.1295892483
H  H153  1  0.23640000  0.89800000  0.92620000  1.0 0.1295892483
H  H154  1  0.10200000  0.76360000  0.42620000  1.0 0.1295892483
H  H155  1  0.00260000  0.55600000  0.64990000  1.0 0.1399107299
H  H156  1  0.44400000  0.99740000  0.14990000  1.0 0.1399107299
H  H157  1  0.98960000  0.47840000  0.65750000  1.0 0.1485593559
H  H158  1  0.52160000  0.01040000  0.15750000  1.0 0.1485593559
H  H159  1  0.93460000  0.48280000  0.66580000  1.0 0.1295892483
H  H160  1  0.51720000  0.06540000  0.16580000  1.0 0.1295892483
H  H161  1  0.99640000  0.72800000  0.94730000  1.0 0.1399107299
H  H162  1  0.27200000  0.00360000  0.44730000  1.0 0.1399107299
H  H163  1  0.53880000  0.65680000  0.89060000  1.0 0.1295892483
H  H164  1  0.34320000  0.46120000  0.39060000  1.0 0.1295892483
H  H165  1  0.54590000  0.49650000  0.91430000  1.0 0.1295892483
H  H166  1  0.50350000  0.45410000  0.41430000  1.0 0.1295892483
H  H167  1  0.58110000  0.57410000  0.88720000  1.0 0.1019174665
H  H168  1  0.42590000  0.41890000  0.38720000  1.0 0.1019174665
H  H169  1  0.59280000  0.57000000  0.92760000  1.0 0.1076996228
H  H170  1  0.43000000  0.40720000  0.42760000  1.0 0.1019174665
H  H171  1  0.18530000  0.93630000  0.94180000  1.0 0.1295892483
H  H172  1  0.06370000  0.81470000  0.44180000  1.0 0.1295892483
H  H173  1  0.67570000  0.97190000  0.96750000  1.0 0.1202565842
H  H174  1  0.02810000  0.32430000  0.46750000  1.0 0.1202565842
H  H175  1  0.65040000  0.02000000  0.96610000  1.0 0.1295892483
H  H176  1  0.98000000  0.34960000  0.46610000  1.0 0.1295892483
H  H177  1  0.64320000  0.95240000  0.99890000  1.0 0.1295892483
H  H178  1  0.04760000  0.35680000  0.49890000  1.0 0.1295892483
H  H179  1  0.29980000  0.42240000  0.88720000  1.0 0.1295892483
H  H180  1  0.57760000  0.70020000  0.38720000  1.0 0.1295892483
H  H181  1  0.82690000  0.82170000  0.90840000  1.0 0.1202565842
H  H182  1  0.17830000  0.17310000  0.40840000  1.0 0.1202565842
H  H183  1  0.12580000  0.03680000  0.98130000  1.0 0.1019174665
H  H184  1  0.96320000  0.87420000  0.48130000  1.0 0.1019174665
H  H185  1  0.04760000  0.01760000  0.97900000  1.0 0.1076996228
H  H186  1  0.98240000  0.95240000  0.47900000  1.0 0.1076996228
H  H187  1  0.09280000  0.62580000  0.69590000  1.0 0.1485593559
H  H188  1  0.37420000  0.90720000  0.19590000  1.0 0.1485593559
H  H189  1  0.03980000  0.76040000  0.13450000  1.0 0.1295892483
H  H190  1  0.23960000  0.96020000  0.63450000  1.0 0.1295892483
H  H191  1  0.12820000  0.14260000  0.97150000  1.0 0.1202565842
H  H192  1  0.85740000  0.87180000  0.47150000  1.0 0.1202565842
H  H193  1  0.01150000  0.80750000  0.07420000  1.0 0.1295892483
H  H194  1  0.19250000  0.98850000  0.57420000  1.0 0.1295892483
H  H195  1  0.13580000  0.94640000  0.97270000  1.0 0.1076996228
H  H196  1  0.05360000  0.86420000  0.47270000  1.0 0.1076996228
H  H197  1  0.09220000  0.95980000  0.93240000  1.0 0.1076996228
H  H198  1  0.04020000  0.90780000  0.43240000  1.0 0.1076996228
H  H199  1  0.93430000  0.84250000  0.95040000  1.0 0.1019174665
H  H200  1  0.15750000  0.06570000  0.45040000  1.0 0.1019174665
H  H201  1  0.95810000  0.91770000  0.92080000  1.0 0.1076996228
H  H202  1  0.08230000  0.04190000  0.42080000  1.0 0.1076996228
H  H203  1  0.58080000  0.88320000  0.92620000  1.0 0.1399107299
H  H204  1  0.11680000  0.41920000  0.42620000  1.0 0.1399107299
H  H205  1  0.38630000  0.85390000  0.95070000  1.0 0.1399107299
H  H206  1  0.14610000  0.61370000  0.45070000  1.0 0.1399107299
H  H207  1  0.96180000  0.32940000  0.74460000  1.0 0.1399107299
H  H208  1  0.67060000  0.03820000  0.24460000  1.0 0.1399107299
H  H209  1  0.91620000  0.35960000  0.71140000  1.0 0.1295892483
H  H210  1  0.64040000  0.08380000  0.21140000  1.0 0.1295892483
H  H211  1  0.98030000  0.36350000  0.70640000  1.0 0.1485593559
H  H212  1  0.63650000  0.01970000  0.20640000  1.0 0.1485593559
H  H213  1  0.05340000  0.12620000  0.86760000  1.0 0.1399107299
H  H214  1  0.87380000  0.94660000  0.36760000  1.0 0.1399107299
H  H215  1  0.37560000  0.89640000  0.70100000  1.0 0.1485593559
H  H216  1  0.10360000  0.62440000  0.20100000  1.0 0.1485593559
H  H217  1  0.05520000  0.40420000  0.78420000  1.0 0.1485593559
H  H218  1  0.59580000  0.94480000  0.28420000  1.0 0.1485593559
H  H219  1  0.23140000  0.95140000  0.07410000  1.0 0.1295892483
H  H220  1  0.04860000  0.76860000  0.57410000  1.0 0.1295892483
H  H221  1  0.16140000  0.26580000  0.95180000  1.0 0.1202565842
H  H222  1  0.73420000  0.83860000  0.45180000  1.0 0.1202565842
H  H223  1  0.12100000  0.91720000  0.82780000  1.0 0.1019174665
H  H224  1  0.08280000  0.87900000  0.32780000  1.0 0.1019174665
H  H225  1  0.16920000  0.98500000  0.80020000  1.0 0.1019174665
H  H226  1  0.01500000  0.83080000  0.30020000  1.0 0.1019174665
H  H227  1  0.08350000  0.92990000  0.78650000  1.0 0.1019174665
H  H228  1  0.07010000  0.91650000  0.28650000  1.0 0.1019174665
H  H229  1  0.14170000  0.95950000  0.70430000  1.0 0.1202565842
H  H230  1  0.04050000  0.85830000  0.20430000  1.0 0.1202565842
H  H231  1  0.08390000  0.94570000  0.72010000  1.0 0.1202565842
H  H232  1  0.05430000  0.91610000  0.22010000  1.0 0.1202565842
H  H233  1  0.16880000  0.00720000  0.73060000  1.0 0.1202565842
H  H234  1  0.99280000  0.83120000  0.23060000  1.0 0.1202565842
H  H235  1  0.46480000  0.93960000  0.98340000  1.0 0.1076996228
H  H236  1  0.06040000  0.53520000  0.48340000  1.0 0.1076996228
H  H237  1  0.53920000  0.94440000  0.00710000  1.0 0.1202565842
H  H238  1  0.05560000  0.46080000  0.50710000  1.0 0.1202565842
H  H239  1  0.54070000  0.00730000  0.97240000  1.0 0.1202565842
H  H240  1  0.99270000  0.45930000  0.47240000  1.0 0.1202565842
H  H241  1  0.45240000  0.40580000  0.90490000  1.0 0.1485593559
H  H242  1  0.59420000  0.54760000  0.40490000  1.0 0.1485593559
H  H243  1  0.38260000  0.36120000  0.92100000  1.0 0.1019174665
H  H244  1  0.63880000  0.61740000  0.42100000  1.0 0.1019174665
H  H245  1  0.37250000  0.37670000  0.87930000  1.0 0.1019174665
H  H246  1  0.62330000  0.62750000  0.37930000  1.0 0.1019174665
H  H247  1  0.45540000  0.98940000  0.66100000  1.0 0.1399107299
H  H248  1  0.01060000  0.54460000  0.16100000  1.0 0.1399107299
H  H249  1  0.53150000  0.05090000  0.68000000  1.0 0.1295892483
H  H250  1  0.94910000  0.46850000  0.18000000  1.0 0.1295892483
H  H251  1  0.52820000  0.99240000  0.67000000  1.0 0.1399107299
H  H252  1  0.00760000  0.47180000  0.17000000  1.0 0.1399107299
H  H253  1  0.66410000  0.00330000  0.76180000  1.0 0.1399107299
H  H254  1  0.99670000  0.33590000  0.26180000  1.0 0.1399107299
H  H255  1  0.63440000  0.99500000  0.72180000  1.0 0.1485593559
H  H256  1  0.00500000  0.36560000  0.22180000  1.0 0.1485593559
H  H257  1  0.64170000  0.05730000  0.73060000  1.0 0.1295892483
H  H258  1  0.94270000  0.35830000  0.23060000  1.0 0.1295892483
H  H259  1  0.95590000  0.37790000  0.98260000  1.0 0.1076996228
H  H260  1  0.62210000  0.04410000  0.48260000  1.0 0.1076996228
H  H261  1  0.01410000  0.45470000  0.99400000  1.0 0.1295892483
H  H262  1  0.54530000  0.98590000  0.49400000  1.0 0.1295892483
H  H263  1  0.94990000  0.44690000  0.95920000  1.0 0.1399107299
H  H264  1  0.55310000  0.05010000  0.45920000  1.0 0.1399107299
H  H265  1  0.06620000  0.37800000  0.91570000  1.0 0.1485593559
H  H266  1  0.62200000  0.93380000  0.41570000  1.0 0.1485593559
H  H267  1  0.09520000  0.56860000  0.94180000  1.0 0.1485593559
H  H268  1  0.43140000  0.90480000  0.44180000  1.0 0.1399107299
H  H269  1  0.70430000  0.78990000  0.87590000  1.0 0.1295892483
H  H270  1  0.21010000  0.29570000  0.37590000  1.0 0.1295892483
H  H271  1  0.83980000  0.94360000  0.95690000  1.0 0.1295892483
H  H272  1  0.05640000  0.16020000  0.45690000  1.0 0.1295892483
H  H273  1  0.71650000  0.90470000  0.92710000  1.0 0.1202565842
H  H274  1  0.09530000  0.28350000  0.42710000  1.0 0.1202565842
H  H275  1  0.96890000  0.27990000  0.95150000  1.0 0.1295892483
H  H276  1  0.72010000  0.03110000  0.45150000  1.0 0.1295892483
H  H277  1  0.98060000  0.30440000  0.98420000  1.0 0.1202565842
H  H278  1  0.69560000  0.01940000  0.48420000  1.0 0.1202565842
H  H279  1  0.91910000  0.30430000  0.94910000  1.0 0.1399107299
H  H280  1  0.69570000  0.08090000  0.44910000  1.0 0.1399107299
H  H281  1  0.16720000  0.86820000  0.72610000  1.0 0.1399107299
H  H282  1  0.13180000  0.83280000  0.22610000  1.0 0.1399107299
H  H283  1  0.15850000  0.82710000  0.84830000  1.0 0.1399107299
H  H284  1  0.17290000  0.84150000  0.34830000  1.0 0.1399107299
H  H285  1  0.00390000  0.89070000  0.01770000  1.0 0.1076996228
H  H286  1  0.10930000  0.99610000  0.51770000  1.0 0.1076996228
H  H287  1  0.01030000  0.83450000  0.01130000  1.0 0.1076996228
H  H288  1  0.16550000  0.98970000  0.51130000  1.0 0.1076996228
C  C1  1  0.88336000  0.20824000  0.37493000  1.0 -0.0796800971
C  C2  1  0.79176000  0.11664000  0.87493000  1.0 -0.0796800971
C  C3  1  0.90746000  0.53914000  0.72137000  1.0 -0.240594376
C  C4  1  0.46086000  0.09254000  0.22137000  1.0 -0.240594376
C  C5  1  0.74139000  0.07481000  0.56721000  1.0 -0.0796800971
C  C6  1  0.92519000  0.25861000  0.06721000  1.0 -0.0796800971
C  C7  1  0.84218000  0.69762000  0.59969000  1.0 -0.0193235522
C  C8  1  0.30238000  0.15782000  0.09969000  1.0 -0.0193235522
C  C9  1  0.22762000  0.09438000  0.62738000  1.0 -0.072452084
C  C10  1  0.90562000  0.77238000  0.12738000  1.0 -0.072452084
C  C11  1  0.86490000  0.18830000  0.57000000  1.0 -0.072452084
C  C12  1  0.81170000  0.13510000  0.07000000  1.0 -0.072452084
C  C13  1  0.50732000  0.98568000  0.83422000  1.0 -0.4401022464
C  C14  1  0.01432000  0.49268000  0.33422000  1.0 -0.4401022464
C  C15  1  0.76172000  0.04388000  0.55722000  1.0 -0.2025234868
C  C16  1  0.95612000  0.23828000  0.05722000  1.0 -0.2025234868
C  C17  1  0.91780000  0.55980000  0.54720000  1.0 0.1019174665
C  C18  1  0.44020000  0.08220000  0.04720000  1.0 0.1019174665
C  C19  1  0.61120000  0.49320000  0.60999000  1.0 -0.2310011437
C  C20  1  0.50680000  0.38880000  0.10999000  1.0 -0.2310011437
C  C21  1  0.54654000  0.55846000  0.59240000  1.0 -0.4401022464
C  C22  1  0.44154000  0.45346000  0.09240000  1.0 -0.4319419322
C  C23  1  0.88763000  0.15857000  0.56045000  1.0 -0.2231069366
C  C24  1  0.84143000  0.11237000  0.06045000  1.0 -0.2231069366
C  C25  1  0.53662000  0.35498000  0.62036000  1.0 0.1295892483
C  C26  1  0.64502000  0.46338000  0.12036000  1.0 0.1295892483
C  C27  1  0.97060000  0.64000000  0.52668000  1.0 -0.4177630216
C  C28  1  0.36000000  0.02940000  0.02668000  1.0 -0.4177630216
C  C29  1  0.46763000  0.34597000  0.61280000  1.0 -0.240594376
C  C30  1  0.65403000  0.53237000  0.11280000  1.0 -0.240594376
C  C31  1  0.83839000  0.80441000  0.58783000  1.0 -0.2231069366
C  C32  1  0.19559000  0.16161000  0.08783000  1.0 -0.2231069366
C  C33  1  0.12337000  0.08943000  0.57802000  1.0 0.2598432183
C  C34  1  0.91057000  0.87663000  0.07802000  1.0 0.2598432183
C  C35  1  0.88431000  0.84369000  0.56286000  1.0 0.2420672102
C  C36  1  0.15631000  0.11569000  0.06286000  1.0 0.2420672102
C  C37  1  0.83034000  0.46606000  0.58611000  1.0 0.1485593559
C  C38  1  0.53394000  0.16966000  0.08611000  1.0 0.1485593559
C  C39  1  0.01425000  0.07389000  0.53170000  1.0 -0.0796800971
C  C40  1  0.92611000  0.98575000  0.03170000  1.0 -0.0796800971
C  C41  1  0.58245000  0.08595000  0.78665000  1.0 -0.240594376
C  C42  1  0.91405000  0.41755000  0.28665000  1.0 -0.240594376
C  C43  1  0.79865000  0.07835000  0.37729000  1.0 -0.0632467864
C  C44  1  0.92165000  0.20135000  0.87729000  1.0 -0.0632467864
C  C45  1  0.93140000  0.03780000  0.53046000  1.0 0.0875183076
C  C46  1  0.96220000  0.06860000  0.03046000  1.0 0.0875183076
C  C47  1  0.26968000  0.12792000  0.60192000  1.0 -0.0290122162
C  C48  1  0.87208000  0.73032000  0.10192000  1.0 -0.0290122162
C  C49  1  0.60201000  0.42279000  0.61871000  1.0 0.1202565842
C  C50  1  0.57721000  0.39799000  0.11871000  1.0 0.1202565842
C  C51  1  0.16403000  0.12037000  0.55309000  1.0 -0.2520633142
C  C52  1  0.87963000  0.83597000  0.05309000  1.0 -0.2520633142
C  C53  1  0.82694000  0.06126000  0.41360000  1.0 -0.2310011437
C  C54  1  0.93874000  0.17306000  0.91360000  1.0 -0.2310011437
C  C55  1  0.92854000  0.08666000  0.54340000  1.0 -0.0872496737
C  C56  1  0.91334000  0.07146000  0.04340000  1.0 -0.0872496737
C  C57  1  0.83477000  0.08583000  0.55406000  1.0 0.2455548525
C  C58  1  0.91417000  0.16523000  0.05406000  1.0 0.2420672102
C  C59  1  0.89561000  0.95755000  0.55375000  1.0 -0.0796800971
C  C60  1  0.04245000  0.10439000  0.05375000  1.0 -0.0796800971
C  C61  1  0.87878000  0.54282000  0.56937000  1.0 -0.2582648963
C  C62  1  0.45718000  0.12122000  0.06937000  1.0 -0.2582648963
C  C63  1  0.51484000  0.03456000  0.79513000  1.0 0.1399107299
C  C64  1  0.96544000  0.48516000  0.29513000  1.0 0.1399107299
C  C65  1  0.88396000  0.11684000  0.43242000  1.0 0.2598432183
C  C66  1  0.88316000  0.11604000  0.93242000  1.0 0.2598432183
C  C67  1  0.86036000  0.42364000  0.55540000  1.0 -0.2310011437
C  C68  1  0.57636000  0.13964000  0.05540000  1.0 -0.2310011437
C  C69  1  0.51826000  0.11594000  0.72496000  1.0 0.1399107299
C  C70  1  0.88406000  0.48174000  0.22496000  1.0 0.1399107299
C  C71  1  0.36702000  0.96458000  0.77737000  1.0 -0.4319419322
C  C72  1  0.03542000  0.63298000  0.27737000  1.0 -0.4319419322
C  C73  1  0.15452000  0.07528000  0.61571000  1.0 -0.209349913
C  C74  1  0.92472000  0.84548000  0.11571000  1.0 -0.209349913
C  C75  1  0.89854000  0.41546000  0.77974000  1.0 -0.2310011437
C  C76  1  0.58454000  0.10146000  0.27974000  1.0 -0.2310011437
C  C77  1  0.58578000  0.12882000  0.75089000  1.0 0.1399107299
C  C78  1  0.87118000  0.41422000  0.25089000  1.0 0.1399107299
C  C79  1  0.44753000  0.06247000  0.73332000  1.0 -0.2310011437
C  C80  1  0.93753000  0.55247000  0.23332000  1.0 -0.2310011437
C  C81  1  0.79828000  0.17372000  0.31719000  1.0 0.5425372005
C  C82  1  0.82628000  0.20172000  0.81719000  1.0 0.5425372005
C  C83  1  0.91397000  0.19303000  0.41379000  1.0 -0.2231069366
C  C84  1  0.80697000  0.08603000  0.91379000  1.0 -0.2231069366
C  C85  1  0.23785000  0.14015000  0.56498000  1.0 -0.0796800971
C  C86  1  0.85985000  0.76215000  0.06498000  1.0 -0.0796800971
C  C87  1  0.82523000  0.15157000  0.35743000  1.0 -0.0290122162
C  C88  1  0.84843000  0.17477000  0.85743000  1.0 -0.0290122162
C  C89  1  0.85707000  0.46573000  0.71703000  1.0 0.1399107299
C  C90  1  0.53427000  0.14293000  0.21703000  1.0 0.1399107299
C  C91  1  0.85194000  0.40406000  0.74512000  1.0 0.1295892483
C  C92  1  0.59594000  0.14806000  0.24512000  1.0 0.1295892483
C  C93  1  0.93393000  0.12787000  0.69620000  1.0 -0.394063738
C  C94  1  0.87213000  0.06607000  0.19620000  1.0 -0.3950025409
C  C95  1  0.95880000  0.13380000  0.77488000  1.0 -0.4401022464
C  C96  1  0.86620000  0.04120000  0.27488000  1.0 -0.4401022464
C  C97  1  0.44549000  0.02151000  0.76849000  1.0 0.1485593559
C  C98  1  0.97849000  0.55451000  0.26849000  1.0 0.1485593559
C  C99  1  0.89609000  0.14591000  0.73960000  1.0 0.1656876534
C  C100  1  0.85409000  0.10391000  0.23960000  1.0 0.1656876534
C  C101  1  0.88300000  0.14480000  0.70160000  1.0 0.1019174665
C  C102  1  0.85520000  0.11700000  0.20160000  1.0 0.1019174665
C  C103  1  0.79158000  0.14622000  0.57405000  1.0 -0.0193235522
C  C104  1  0.85378000  0.20842000  0.07405000  1.0 -0.0193235522
C  C105  1  0.90980000  0.50160000  0.54099000  1.0 0.1076996228
C  C106  1  0.49840000  0.09020000  0.04099000  1.0 0.1076996228
C  C107  1  0.95480000  0.51260000  0.51710000  1.0 -0.4319419322
C  C108  1  0.48740000  0.04520000  0.01710000  1.0 -0.4319419322
C  C109  1  0.54510000  0.48510000  0.60270000  1.0 0.1076996228
C  C110  1  0.51490000  0.45490000  0.10270000  1.0 0.1076996228
C  C111  1  0.47370000  0.41370000  0.60520000  1.0 0.1295892483
C  C112  1  0.58630000  0.52630000  0.10520000  1.0 0.1295892483
C  C113  1  0.39649000  0.40431000  0.59940000  1.0 -0.4319419322
C  C114  1  0.59569000  0.60351000  0.09940000  1.0 -0.4319419322
C  C115  1  0.95293000  0.55007000  0.75530000  1.0 0.1485593559
C  C116  1  0.44993000  0.04707000  0.25530000  1.0 0.1485593559
C  C117  1  0.94655000  0.48665000  0.78393000  1.0 0.1295892483
C  C118  1  0.51335000  0.05345000  0.28393000  1.0 0.1295892483
C  C119  1  0.00003000  0.50197000  0.82194000  1.0 -0.4319419322
C  C120  1  0.49803000  0.99997000  0.32194000  1.0 -0.4319419322
C  C121  1  0.00717000  0.63003000  0.76077000  1.0 -0.4319419322
C  C122  1  0.36997000  0.99283000  0.26077000  1.0 -0.4319419322
C  C123  1  0.80515000  0.18285000  0.68390000  1.0 0.1076996228
C  C124  1  0.81715000  0.19485000  0.18390000  1.0 0.1076996228
C  C125  1  0.81446000  0.18514000  0.71813000  1.0 0.1202565842
C  C126  1  0.81486000  0.18554000  0.21813000  1.0 0.1202565842
C  C127  1  0.43111000  0.98369000  0.52613000  1.0 -0.4319419322
C  C128  1  0.01631000  0.56889000  0.02613000  1.0 -0.4319419322
C  C129  1  0.41528000  0.07052000  0.57939000  1.0 -0.2520633142
C  C130  1  0.92948000  0.58472000  0.07939000  1.0 -0.2520633142
C  C131  1  0.39688000  0.02692000  0.55809000  1.0 0.1295892483
C  C132  1  0.97308000  0.60312000  0.05809000  1.0 0.1295892483
C  C133  1  0.45447000  0.03613000  0.55007000  1.0 0.1202565842
C  C134  1  0.96387000  0.54553000  0.05007000  1.0 0.1202565842
C  C135  1  0.53070000  0.08850000  0.56385000  1.0 -0.240594376
C  C136  1  0.91150000  0.46930000  0.06385000  1.0 -0.240594376
C  C137  1  0.81839000  0.73041000  0.60698000  1.0 -0.072452084
C  C138  1  0.26959000  0.18161000  0.10698000  1.0 -0.072452084
C  C139  1  0.91082000  0.81298000  0.55816000  1.0 -0.2231069366
C  C140  1  0.18702000  0.08918000  0.05816000  1.0 -0.2231069366
C  C141  1  0.88755000  0.73845000  0.57676000  1.0 -0.0872496737
C  C142  1  0.26155000  0.11245000  0.07676000  1.0 -0.0872496737
C  C143  1  0.76829000  0.18151000  0.58406000  1.0 0.5235975414
C  C144  1  0.81849000  0.23171000  0.08406000  1.0 0.5235975414
C  C145  1  0.31308000  0.96812000  0.54171000  1.0 -0.4319419322
C  C146  1  0.03188000  0.68692000  0.04171000  1.0 -0.4319419322
C  C147  1  0.81759000  0.61561000  0.61698000  1.0 0.5332992703
C  C148  1  0.38439000  0.18241000  0.11698000  1.0 0.5332992703
C  C149  1  0.86137000  0.16643000  0.75055000  1.0 -0.2520633142
C  C150  1  0.83357000  0.13863000  0.25055000  1.0 -0.2520633142
C  C151  1  0.83736000  0.16124000  0.67523000  1.0 -0.2310011437
C  C152  1  0.83876000  0.16264000  0.17523000  1.0 -0.2310011437
C  C153  1  0.88678000  0.03334000  0.49061000  1.0 -0.072452084
C  C154  1  0.96666000  0.11322000  0.99061000  1.0 -0.072452084
C  C155  1  0.82158000  0.40722000  0.57991000  1.0 0.1202565842
C  C156  1  0.59278000  0.17842000  0.07991000  1.0 0.1202565842
C  C157  1  0.54769000  0.12991000  0.58615000  1.0 0.1202565842
C  C158  1  0.87009000  0.45231000  0.08615000  1.0 0.1202565842
C  C159  1  0.48987000  0.12013000  0.59306000  1.0 0.1295892483
C  C160  1  0.87987000  0.51013000  0.09306000  1.0 0.1295892483
C  C161  1  0.35116000  0.14824000  0.61440000  1.0 0.5235975414
C  C162  1  0.85176000  0.64884000  0.11440000  1.0 0.5235975414
C  C163  1  0.20824000  0.88336000  0.12507000  1.0 -0.0796800971
C  C164  1  0.11664000  0.79176000  0.62507000  1.0 -0.0796800971
C  C165  1  0.53914000  0.90746000  0.77863000  1.0 -0.240594376
C  C166  1  0.09254000  0.46086000  0.27863000  1.0 -0.240594376
C  C167  1  0.07481000  0.74139000  0.93279000  1.0 -0.0796800971
C  C168  1  0.25861000  0.92519000  0.43279000  1.0 -0.0796800971
C  C169  1  0.69762000  0.84218000  0.90031000  1.0 -0.0193235522
C  C170  1  0.15782000  0.30238000  0.40031000  1.0 -0.0193235522
C  C171  1  0.09438000  0.22762000  0.87262000  1.0 -0.072452084
C  C172  1  0.77238000  0.90562000  0.37262000  1.0 -0.072452084
C  C173  1  0.18830000  0.86490000  0.93000000  1.0 -0.072452084
C  C174  1  0.13510000  0.81170000  0.43000000  1.0 -0.072452084
C  C175  1  0.98568000  0.50732000  0.66578000  1.0 -0.4401022464
C  C176  1  0.49268000  0.01432000  0.16578000  1.0 -0.4401022464
C  C177  1  0.04388000  0.76172000  0.94278000  1.0 -0.2025234868
C  C178  1  0.23828000  0.95612000  0.44278000  1.0 -0.2025234868
C  C179  1  0.55980000  0.91780000  0.95280000  1.0 0.1019174665
C  C180  1  0.08220000  0.44020000  0.45280000  1.0 0.1019174665
C  C181  1  0.49320000  0.61120000  0.89001000  1.0 -0.2310011437
C  C182  1  0.38880000  0.50680000  0.39001000  1.0 -0.2310011437
C  C183  1  0.55846000  0.54654000  0.90760000  1.0 -0.4319419322
C  C184  1  0.45346000  0.44154000  0.40760000  1.0 -0.4319419322
C  C185  1  0.15857000  0.88763000  0.93955000  1.0 -0.2310011437
C  C186  1  0.11237000  0.84143000  0.43955000  1.0 -0.2231069366
C  C187  1  0.35498000  0.53662000  0.87964000  1.0 0.1295892483
C  C188  1  0.46338000  0.64502000  0.37964000  1.0 0.1295892483
C  C189  1  0.64000000  0.97060000  0.97332000  1.0 -0.4177630216
C  C190  1  0.02940000  0.36000000  0.47332000  1.0 -0.4177630216
C  C191  1  0.34597000  0.46763000  0.88720000  1.0 -0.240594376
C  C192  1  0.53237000  0.65403000  0.38720000  1.0 -0.240594376
C  C193  1  0.80441000  0.83839000  0.91217000  1.0 -0.2231069366
C  C194  1  0.16161000  0.19559000  0.41217000  1.0 -0.2231069366
C  C195  1  0.08943000  0.12337000  0.92198000  1.0 0.2598432183
C  C196  1  0.87663000  0.91057000  0.42198000  1.0 0.2598432183
C  C197  1  0.84369000  0.88431000  0.93714000  1.0 0.2420672102
C  C198  1  0.11569000  0.15631000  0.43714000  1.0 0.2420672102
C  C199  1  0.46606000  0.83034000  0.91389000  1.0 0.1485593559
C  C200  1  0.16966000  0.53394000  0.41389000  1.0 0.1485593559
C  C201  1  0.07389000  0.01425000  0.96830000  1.0 -0.0796800971
C  C202  1  0.98575000  0.92611000  0.46830000  1.0 -0.0796800971
C  C203  1  0.08595000  0.58245000  0.71335000  1.0 -0.240594376
C  C204  1  0.41755000  0.91405000  0.21335000  1.0 -0.240594376
C  C205  1  0.07835000  0.79865000  0.12271000  1.0 -0.0632467864
C  C206  1  0.20135000  0.92165000  0.62271000  1.0 -0.0632467864
C  C207  1  0.03780000  0.93140000  0.96954000  1.0 0.0875183076
C  C208  1  0.06860000  0.96220000  0.46954000  1.0 0.0875183076
C  C209  1  0.12792000  0.26968000  0.89808000  1.0 -0.0290122162
C  C210  1  0.73032000  0.87208000  0.39808000  1.0 -0.0290122162
C  C211  1  0.42279000  0.60201000  0.88129000  1.0 0.1202565842
C  C212  1  0.39799000  0.57721000  0.38129000  1.0 0.1202565842
C  C213  1  0.12037000  0.16403000  0.94691000  1.0 -0.2520633142
C  C214  1  0.83597000  0.87963000  0.44691000  1.0 -0.2520633142
C  C215  1  0.06126000  0.82694000  0.08640000  1.0 -0.2310011437
C  C216  1  0.17306000  0.93874000  0.58640000  1.0 -0.2310011437
C  C217  1  0.08666000  0.92854000  0.95660000  1.0 -0.0872496737
C  C218  1  0.07146000  0.91334000  0.45660000  1.0 -0.0872496737
C  C219  1  0.08583000  0.83477000  0.94594000  1.0 0.2420672102
C  C220  1  0.16523000  0.91417000  0.44594000  1.0 0.2420672102
C  C221  1  0.95755000  0.89561000  0.94625000  1.0 -0.0796800971
C  C222  1  0.10439000  0.04245000  0.44625000  1.0 -0.0796800971
C  C223  1  0.54282000  0.87878000  0.93063000  1.0 -0.2582648963
C  C224  1  0.12122000  0.45718000  0.43063000  1.0 -0.2582648963
C  C225  1  0.03456000  0.51484000  0.70487000  1.0 0.1399107299
C  C226  1  0.48516000  0.96544000  0.20487000  1.0 0.1399107299
C  C227  1  0.11684000  0.88396000  0.06758000  1.0 0.2598432183
C  C228  1  0.11604000  0.88316000  0.56758000  1.0 0.2598432183
C  C229  1  0.42364000  0.86036000  0.94460000  1.0 -0.2310011437
C  C230  1  0.13964000  0.57636000  0.44460000  1.0 -0.2310011437
C  C231  1  0.11594000  0.51826000  0.77504000  1.0 0.1399107299
C  C232  1  0.48174000  0.88406000  0.27504000  1.0 0.1399107299
C  C233  1  0.96458000  0.36702000  0.72263000  1.0 -0.4319419322
C  C234  1  0.63298000  0.03542000  0.22263000  1.0 -0.4319419322
C  C235  1  0.07528000  0.15452000  0.88429000  1.0 -0.209349913
C  C236  1  0.84548000  0.92472000  0.38429000  1.0 -0.209349913
C  C237  1  0.41546000  0.89854000  0.72026000  1.0 -0.2310011437
C  C238  1  0.10146000  0.58454000  0.22026000  1.0 -0.2310011437
C  C239  1  0.12882000  0.58578000  0.74911000  1.0 0.1399107299
C  C240  1  0.41422000  0.87118000  0.24911000  1.0 0.1399107299
C  C241  1  0.06247000  0.44753000  0.76668000  1.0 -0.2310011437
C  C242  1  0.55247000  0.93753000  0.26668000  1.0 -0.2310011437
C  C243  1  0.17372000  0.79828000  0.18281000  1.0 0.5425372005
C  C244  1  0.20172000  0.82628000  0.68281000  1.0 0.5425372005
C  C245  1  0.19303000  0.91397000  0.08621000  1.0 -0.2231069366
C  C246  1  0.08603000  0.80697000  0.58621000  1.0 -0.2231069366
C  C247  1  0.14015000  0.23785000  0.93502000  1.0 -0.0796800971
C  C248  1  0.76215000  0.85985000  0.43502000  1.0 -0.0796800971
C  C249  1  0.15157000  0.82523000  0.14257000  1.0 -0.0290122162
C  C250  1  0.17477000  0.84843000  0.64257000  1.0 -0.0290122162
C  C251  1  0.46573000  0.85707000  0.78297000  1.0 0.1399107299
C  C252  1  0.14293000  0.53427000  0.28297000  1.0 0.1399107299
C  C253  1  0.40406000  0.85194000  0.75488000  1.0 0.1295892483
C  C254  1  0.14806000  0.59594000  0.25488000  1.0 0.1295892483
C  C255  1  0.12787000  0.93393000  0.80380000  1.0 -0.3950025409
C  C256  1  0.06607000  0.87213000  0.30380000  1.0 -0.394063738
C  C257  1  0.13380000  0.95880000  0.72512000  1.0 -0.4401022464
C  C258  1  0.04120000  0.86620000  0.22512000  1.0 -0.4401022464
C  C259  1  0.02151000  0.44549000  0.73151000  1.0 0.1485593559
C  C260  1  0.55451000  0.97849000  0.23151000  1.0 0.1485593559
C  C261  1  0.14591000  0.89609000  0.76040000  1.0 0.1656876534
C  C262  1  0.10391000  0.85409000  0.26040000  1.0 0.1656876534
C  C263  1  0.14480000  0.88300000  0.79840000  1.0 0.1019174665
C  C264  1  0.11700000  0.85520000  0.29840000  1.0 0.1019174665
C  C265  1  0.14622000  0.79158000  0.92595000  1.0 -0.0193235522
C  C266  1  0.20842000  0.85378000  0.42595000  1.0 -0.0193235522
C  C267  1  0.50160000  0.90980000  0.95901000  1.0 0.1076996228
C  C268  1  0.09020000  0.49840000  0.45901000  1.0 0.1076996228
C  C269  1  0.51260000  0.95480000  0.98290000  1.0 -0.4319419322
C  C270  1  0.04520000  0.48740000  0.48290000  1.0 -0.4319419322
C  C271  1  0.48510000  0.54510000  0.89730000  1.0 0.1076996228
C  C272  1  0.45490000  0.51490000  0.39730000  1.0 0.1076996228
C  C273  1  0.41370000  0.47370000  0.89480000  1.0 0.1295892483
C  C274  1  0.52630000  0.58630000  0.39480000  1.0 0.1295892483
C  C275  1  0.40431000  0.39649000  0.90060000  1.0 -0.4319419322
C  C276  1  0.60351000  0.59569000  0.40060000  1.0 -0.4319419322
C  C277  1  0.55007000  0.95293000  0.74470000  1.0 0.1485593559
C  C278  1  0.04707000  0.44993000  0.24470000  1.0 0.1485593559
C  C279  1  0.48665000  0.94655000  0.71607000  1.0 0.1295892483
C  C280  1  0.05345000  0.51335000  0.21607000  1.0 0.1295892483
C  C281  1  0.50197000  0.00003000  0.67806000  1.0 -0.4319419322
C  C282  1  0.99997000  0.49803000  0.17806000  1.0 -0.4319419322
C  C283  1  0.63003000  0.00717000  0.73923000  1.0 -0.4319419322
C  C284  1  0.99283000  0.36997000  0.23923000  1.0 -0.4319419322
C  C285  1  0.18285000  0.80515000  0.81610000  1.0 0.1076996228
C  C286  1  0.19485000  0.81715000  0.31610000  1.0 0.1076996228
C  C287  1  0.18514000  0.81446000  0.78187000  1.0 0.1202565842
C  C288  1  0.18554000  0.81486000  0.28187000  1.0 0.1202565842
C  C289  1  0.98369000  0.43111000  0.97387000  1.0 -0.4319419322
C  C290  1  0.56889000  0.01631000  0.47387000  1.0 -0.4319419322
C  C291  1  0.07052000  0.41528000  0.92061000  1.0 -0.2520633142
C  C292  1  0.58472000  0.92948000  0.42061000  1.0 -0.2520633142
C  C293  1  0.02692000  0.39688000  0.94191000  1.0 0.1295892483
C  C294  1  0.60312000  0.97308000  0.44191000  1.0 0.1295892483
C  C295  1  0.03613000  0.45447000  0.94993000  1.0 0.1202565842
C  C296  1  0.54553000  0.96387000  0.44993000  1.0 0.1202565842
C  C297  1  0.08850000  0.53070000  0.93615000  1.0 -0.240594376
C  C298  1  0.46930000  0.91150000  0.43615000  1.0 -0.240594376
C  C299  1  0.73041000  0.81839000  0.89302000  1.0 -0.072452084
C  C300  1  0.18161000  0.26959000  0.39302000  1.0 -0.072452084
C  C301  1  0.81298000  0.91082000  0.94184000  1.0 -0.2231069366
C  C302  1  0.08918000  0.18702000  0.44184000  1.0 -0.2231069366
C  C303  1  0.73845000  0.88755000  0.92324000  1.0 -0.0872496737
C  C304  1  0.11245000  0.26155000  0.42324000  1.0 -0.0872496737
C  C305  1  0.18151000  0.76829000  0.91594000  1.0 0.5235975414
C  C306  1  0.23171000  0.81849000  0.41594000  1.0 0.5235975414
C  C307  1  0.96812000  0.31308000  0.95829000  1.0 -0.4319419322
C  C308  1  0.68692000  0.03188000  0.45829000  1.0 -0.4319419322
C  C309  1  0.61561000  0.81759000  0.88302000  1.0 0.5332992703
C  C310  1  0.18241000  0.38439000  0.38302000  1.0 0.5332992703
C  C311  1  0.16643000  0.86137000  0.74945000  1.0 -0.2520633142
C  C312  1  0.13863000  0.83357000  0.24945000  1.0 -0.2520633142
C  C313  1  0.16124000  0.83736000  0.82477000  1.0 -0.2310011437
C  C314  1  0.16264000  0.83876000  0.32477000  1.0 -0.2310011437
C  C315  1  0.03334000  0.88678000  0.00939000  1.0 -0.072452084
C  C316  1  0.11322000  0.96666000  0.50939000  1.0 -0.072452084
C  C317  1  0.40722000  0.82158000  0.92009000  1.0 0.1202565842
C  C318  1  0.17842000  0.59278000  0.42009000  1.0 0.1202565842
C  C319  1  0.12991000  0.54769000  0.91385000  1.0 0.1202565842
C  C320  1  0.45231000  0.87009000  0.41385000  1.0 0.1202565842
C  C321  1  0.12013000  0.48987000  0.90694000  1.0 0.1295892483
C  C322  1  0.51013000  0.87987000  0.40694000  1.0 0.1295892483
C  C323  1  0.14824000  0.35116000  0.88560000  1.0 0.5235975414
C  C324  1  0.64884000  0.85176000  0.38560000  1.0 0.5235975414
N  N1  1  0.64459000  0.18253000  0.73404000  1.0 -0.2310011437
N  N2  1  0.81747000  0.35541000  0.23404000  1.0 -0.2310011437
N  N3  1  0.61628000  0.20442000  0.69854000  1.0 -0.0193235522
N  N4  1  0.79558000  0.38372000  0.19854000  1.0 -0.0193235522
N  N5  1  0.53991000  0.16453000  0.69267000  1.0 -0.240594376
N  N6  1  0.83547000  0.46009000  0.19267000  1.0 -0.240594376
N  N7  1  0.52411000  0.16709000  0.61510000  1.0 -0.209349913
N  N8  1  0.83291000  0.47589000  0.11510000  1.0 -0.209349913
N  N9  1  0.59876000  0.20328000  0.62090000  1.0 -0.0110702943
N  N10  1  0.79672000  0.40124000  0.12090000  1.0 -0.0110702943
N  N11  1  0.61481000  0.18179000  0.60304000  1.0 -0.209349913
N  N12  1  0.81821000  0.38519000  0.10304000  1.0 -0.209349913
N  N13  1  0.77101000  0.33979000  0.59951000  1.0 -0.2310011437
N  N14  1  0.66021000  0.22899000  0.09951000  1.0 -0.2310011437
N  N15  1  0.75239000  0.36001000  0.61752000  1.0 -0.0110702943
N  N16  1  0.63999000  0.24761000  0.11752000  1.0 -0.0110702943
N  N17  1  0.78823000  0.43597000  0.60970000  1.0 -0.2310011437
N  N18  1  0.56403000  0.21177000  0.10970000  1.0 -0.2310011437
N  N19  1  0.80534000  0.43706000  0.68665000  1.0 -0.2310011437
N  N20  1  0.56294000  0.19466000  0.18665000  1.0 -0.2310011437
N  N21  1  0.77017000  0.36101000  0.69604000  1.0 -0.0290122162
N  N22  1  0.63899000  0.22983000  0.19604000  1.0 -0.0290122162
N  N23  1  0.79761000  0.33929000  0.73205000  1.0 -0.240594376
N  N24  1  0.66071000  0.20239000  0.23205000  1.0 -0.240594376
N  N25  1  0.65903000  0.41359000  0.62760000  1.0 -0.209349913
N  N26  1  0.58641000  0.34097000  0.12760000  1.0 -0.209349913
N  N27  1  0.62430000  0.33850000  0.63504000  1.0 -0.0193235522
N  N28  1  0.66150000  0.37570000  0.13504000  1.0 -0.0193235522
N  N29  1  0.54971000  0.30157000  0.63042000  1.0 -0.2025234868
N  N30  1  0.69843000  0.45029000  0.13042000  1.0 -0.2025234868
N  N31  1  0.77496000  0.21082000  0.71691000  1.0 -0.2520633142
N  N32  1  0.78918000  0.22504000  0.21691000  1.0 -0.2520633142
N  N33  1  0.74315000  0.22383000  0.68043000  1.0 -0.0193235522
N  N34  1  0.77617000  0.25685000  0.18043000  1.0 -0.0193235522
N  N35  1  0.76103000  0.20929000  0.65964000  1.0 -0.209349913
N  N36  1  0.79071000  0.23897000  0.15964000  1.0 -0.209349913
N  N37  1  0.18253000  0.64459000  0.76596000  1.0 -0.2310011437
N  N38  1  0.35541000  0.81747000  0.26596000  1.0 -0.2310011437
N  N39  1  0.20442000  0.61628000  0.80146000  1.0 -0.0193235522
N  N40  1  0.38372000  0.79558000  0.30146000  1.0 -0.0193235522
N  N41  1  0.16453000  0.53991000  0.80733000  1.0 -0.240594376
N  N42  1  0.46009000  0.83547000  0.30733000  1.0 -0.240594376
N  N43  1  0.16709000  0.52411000  0.88490000  1.0 -0.209349913
N  N44  1  0.47589000  0.83291000  0.38490000  1.0 -0.209349913
N  N45  1  0.20328000  0.59876000  0.87910000  1.0 -0.0110702943
N  N46  1  0.40124000  0.79672000  0.37910000  1.0 -0.0110702943
N  N47  1  0.18179000  0.61481000  0.89696000  1.0 -0.209349913
N  N48  1  0.38519000  0.81821000  0.39696000  1.0 -0.209349913
N  N49  1  0.33979000  0.77101000  0.90049000  1.0 -0.2310011437
N  N50  1  0.22899000  0.66021000  0.40049000  1.0 -0.2310011437
N  N51  1  0.36001000  0.75239000  0.88248000  1.0 -0.0110702943
N  N52  1  0.24761000  0.63999000  0.38248000  1.0 -0.0110702943
N  N53  1  0.43597000  0.78823000  0.89030000  1.0 -0.2310011437
N  N54  1  0.21177000  0.56403000  0.39030000  1.0 -0.2310011437
N  N55  1  0.43706000  0.80534000  0.81335000  1.0 -0.2310011437
N  N56  1  0.19466000  0.56294000  0.31335000  1.0 -0.2310011437
N  N57  1  0.36101000  0.77017000  0.80396000  1.0 -0.0290122162
N  N58  1  0.22983000  0.63899000  0.30396000  1.0 -0.0290122162
N  N59  1  0.33929000  0.79761000  0.76795000  1.0 -0.240594376
N  N60  1  0.20239000  0.66071000  0.26795000  1.0 -0.240594376
N  N61  1  0.41359000  0.65903000  0.87240000  1.0 -0.209349913
N  N62  1  0.34097000  0.58641000  0.37240000  1.0 -0.209349913
N  N63  1  0.33850000  0.62430000  0.86496000  1.0 -0.0193235522
N  N64  1  0.37570000  0.66150000  0.36496000  1.0 -0.0193235522
N  N65  1  0.30157000  0.54971000  0.86958000  1.0 -0.2025234868
N  N66  1  0.45029000  0.69843000  0.36958000  1.0 -0.2025234868
N  N67  1  0.21082000  0.77496000  0.78309000  1.0 -0.2520633142
N  N68  1  0.22504000  0.78918000  0.28309000  1.0 -0.2520633142
N  N69  1  0.22383000  0.74315000  0.81957000  1.0 -0.0193235522
N  N70  1  0.25685000  0.77617000  0.31957000  1.0 -0.0193235522
N  N71  1  0.20929000  0.76103000  0.84036000  1.0 -0.209349913
N  N72  1  0.23897000  0.79071000  0.34036000  1.0 -0.209349913
O  O1  1  0.82496000  0.24094000  0.30250000  1.0 -0.521130693
O  O2  1  0.75906000  0.17504000  0.80250000  1.0 -0.521130693
O  O3  1  0.74602000  0.12118000  0.30111000  1.0 -0.5587947637
O  O4  1  0.87882000  0.25398000  0.80111000  1.0 -0.5587947637
O  O5  1  0.83290000  0.58750000  0.60836000  1.0 -0.4605206371
O  O6  1  0.41250000  0.16710000  0.10836000  1.0 -0.4605206371
O  O7  1  0.78698000  0.58582000  0.64414000  1.0 -0.5587947637
O  O8  1  0.41418000  0.21302000  0.14414000  1.0 -0.5587947637
O  O9  1  0.38048000  0.13950000  0.64622000  1.0 -0.4769938856
O  O10  1  0.86050000  0.61952000  0.14622000  1.0 -0.4769938856
O  O11  1  0.38667000  0.17873000  0.58987000  1.0 -0.5481908888
O  O12  1  0.82127000  0.61333000  0.08987000  1.0 -0.5481908888
O  O13  1  0.70324000  0.13956000  0.59070000  1.0 -0.5399529308
O  O14  1  0.86044000  0.29676000  0.09070000  1.0 -0.5399529308
O  O15  1  0.81285000  0.24655000  0.58862000  1.0 -0.521130693
O  O16  1  0.75345000  0.18715000  0.08862000  1.0 -0.521130693
O  O17  1  0.05131000  0.06767000  0.57016000  1.0 -0.1792484194
O  O18  1  0.93233000  0.94869000  0.07016000  1.0 -0.1792484194
O  O19  1  0.91825000  0.10793000  0.46930000  1.0 -0.2025234868
O  O20  1  0.89207000  0.08175000  0.96930000  1.0 -0.2025234868
O  O21  1  0.85228000  0.05080000  0.54356000  1.0 -0.1880295247
O  O22  1  0.94920000  0.14772000  0.04356000  1.0 -0.1880295247
O  O23  1  0.90851000  0.91693000  0.54378000  1.0 -0.209349913
O  O24  1  0.08307000  0.09149000  0.04378000  1.0 -0.209349913
O  O25  1  0.24094000  0.82496000  0.19750000  1.0 -0.521130693
O  O26  1  0.17504000  0.75906000  0.69750000  1.0 -0.521130693
O  O27  1  0.12118000  0.74602000  0.19889000  1.0 -0.5587947637
O  O28  1  0.25398000  0.87882000  0.69889000  1.0 -0.5587947637
O  O29  1  0.58750000  0.83290000  0.89164000  1.0 -0.4605206371
O  O30  1  0.16710000  0.41250000  0.39164000  1.0 -0.4605206371
O  O31  1  0.58582000  0.78698000  0.85586000  1.0 -0.5587947637
O  O32  1  0.21302000  0.41418000  0.35586000  1.0 -0.5587947637
O  O33  1  0.13950000  0.38048000  0.85378000  1.0 -0.4769938856
O  O34  1  0.61952000  0.86050000  0.35378000  1.0 -0.4769938856
O  O35  1  0.17873000  0.38667000  0.91013000  1.0 -0.5481908888
O  O36  1  0.61333000  0.82127000  0.41013000  1.0 -0.5481908888
O  O37  1  0.13956000  0.70324000  0.90930000  1.0 -0.5399529308
O  O38  1  0.29676000  0.86044000  0.40930000  1.0 -0.5399529308
O  O39  1  0.24655000  0.81285000  0.91138000  1.0 -0.521130693
O  O40  1  0.18715000  0.75345000  0.41138000  1.0 -0.521130693
O  O41  1  0.06767000  0.05131000  0.92984000  1.0 -0.1792484194
O  O42  1  0.94869000  0.93233000  0.42984000  1.0 -0.1792484194
O  O43  1  0.10793000  0.91825000  0.03070000  1.0 -0.2025234868
O  O44  1  0.08175000  0.89207000  0.53070000  1.0 -0.2025234868
O  O45  1  0.05080000  0.85228000  0.95644000  1.0 -0.1880295247
O  O46  1  0.14772000  0.94920000  0.45644000  1.0 -0.1880295247
O  O47  1  0.91693000  0.90851000  0.95622000  1.0 -0.209349913
O  O48  1  0.09149000  0.08307000  0.45622000  1.0 -0.209349913
