# DDEC6 charges by PACMAN v1.1 (https://github.com/mtap-research/PACMAN-charge/)
data_FAYQUT_ASR_pacman
_symmetry_space_group_name_H-M   'P 1'
_cell_length_a   30.94230000
_cell_length_b   30.94230000
_cell_length_c   27.12420000
_cell_angle_alpha   64.69420000
_cell_angle_beta   115.30600000
_cell_angle_gamma   133.51000000
_symmetry_Int_Tables_number   1
_chemical_formula_structural   Zn5H64C93(N6O5)3
_chemical_formula_sum   'Zn20 H256 C372 N72 O60'
_cell_volume   16672.19646279
_cell_formula_units_Z   4
loop_
 _symmetry_equiv_pos_site_id
 _symmetry_equiv_pos_as_xyz
  1  'x, y, z'
loop_
 _atom_site_type_symbol
 _atom_site_label
 _atom_site_symmetry_multiplicity
 _atom_site_fract_x
 _atom_site_fract_y
 _atom_site_fract_z
 _atom_site_occupancy
 _atom_site_charge
Zn  Zn1  1  0.85280000  0.30140000  0.43090000  1.0 0.4335285842
Zn  Zn2  1  0.81210000  0.34270000  0.49820000  1.0 0.6503232041
Zn  Zn3  1  0.01120000  0.37400000  0.47710000  1.0 0.6341311851
Zn  Zn4  1  0.82310000  0.35150000  0.28350000  1.0 0.6185027877
Zn  Zn5  1  0.76380000  0.13660000  0.46400000  1.0 0.6123144547
Zn  Zn6  1  0.30140000  0.85280000  0.06910000  1.0 0.4350441912
Zn  Zn7  1  0.34270000  0.81210000  0.00180000  1.0 0.6503232041
Zn  Zn8  1  0.37400000  0.01120000  0.02290000  1.0 0.6341311851
Zn  Zn9  1  0.35150000  0.82310000  0.21650000  1.0 0.6185027877
Zn  Zn10  1  0.13660000  0.76380000  0.03600000  1.0 0.6123144547
Zn  Zn11  1  0.14720000  0.69860000  0.56910000  1.0 0.4335285842
Zn  Zn12  1  0.18790000  0.65730000  0.50180000  1.0 0.6503232041
Zn  Zn13  1  0.98880000  0.62600000  0.52290000  1.0 0.6341311851
Zn  Zn14  1  0.17690000  0.64850000  0.71650000  1.0 0.6185027877
Zn  Zn15  1  0.23620000  0.86340000  0.53600000  1.0 0.6123144547
Zn  Zn16  1  0.69860000  0.14720000  0.93090000  1.0 0.4335285842
Zn  Zn17  1  0.65730000  0.18790000  0.99820000  1.0 0.6503232041
Zn  Zn18  1  0.62600000  0.98880000  0.97710000  1.0 0.6341311851
Zn  Zn19  1  0.64850000  0.17690000  0.78350000  1.0 0.6185027877
Zn  Zn20  1  0.86340000  0.23620000  0.96400000  1.0 0.6123144547
H  H1  1  0.68370000  0.06750000  0.35350000  1.0 0.1404334891
H  H2  1  0.65800000  0.06920000  0.25830000  1.0 0.118787175
H  H3  1  0.67850000  0.15170000  0.18820000  1.0 0.1097606936
H  H4  1  0.74330000  0.24690000  0.20850000  1.0 0.118787175
H  H5  1  0.09150000  0.46950000  0.56690000  1.0 0.118787175
H  H6  1  0.10200000  0.51240000  0.63030000  1.0 0.0995161779
H  H7  1  0.02380000  0.50220000  0.63380000  1.0 0.0995161779
H  H8  1  0.92380000  0.43800000  0.58850000  1.0 0.118787175
H  H9  1  0.72990000  0.23170000  0.59830000  1.0 0.118787175
H  H10  1  0.67090000  0.13370000  0.64470000  1.0 0.1301751126
H  H11  1  0.64750000  0.05630000  0.63010000  1.0 0.1301751126
H  H12  1  0.68280000  0.06320000  0.56820000  1.0 0.1404334891
H  H13  1  0.10370000  0.48010000  0.38160000  1.0 0.1301751126
H  H14  1  0.94680000  0.46100000  0.21850000  1.0 0.1301751126
H  H15  1  0.05530000  0.54030000  0.22060000  1.0 0.1097606936
H  H16  1  0.12680000  0.54140000  0.29890000  1.0 0.1097606936
H  H17  1  0.75110000  0.41430000  0.23660000  1.0 0.1097606936
H  H18  1  0.72170000  0.46050000  0.24720000  1.0 0.1097606936
H  H19  1  0.72480000  0.46580000  0.32470000  1.0 0.1097606936
H  H20  1  0.74400000  0.40740000  0.41220000  1.0 0.1097606936
H  H21  1  0.85370000  0.09510000  0.53090000  1.0 0.1301751126
H  H22  1  0.93660000  0.09640000  0.58290000  1.0 0.118787175
H  H23  1  0.03390000  0.18850000  0.59000000  1.0 0.118787175
H  H24  1  0.04840000  0.27920000  0.54510000  1.0 0.1301751126
H  H25  1  0.72420000  0.96680000  0.60100000  1.0 0.1301751126
H  H26  1  0.67720000  0.86040000  0.62700000  1.0 0.0995161779
H  H27  1  0.71490000  0.88230000  0.49050000  1.0 0.0995161779
H  H28  1  0.71800000  0.96940000  0.45610000  1.0 0.1301751126
H  H29  1  0.69750000  0.78870000  0.67460000  1.0 0.0995161779
H  H30  1  0.67160000  0.69220000  0.70550000  1.0 0.088424126
H  H31  1  0.63340000  0.68200000  0.54770000  1.0 0.1404334891
H  H32  1  0.65930000  0.77830000  0.51680000  1.0 0.1097606936
H  H33  1  0.65440000  0.62220000  0.71920000  1.0 0.088424126
H  H34  1  0.68700000  0.63240000  0.67990000  1.0 0.1097606936
H  H35  1  0.16740000  0.37900000  0.48480000  1.0 0.1301751126
H  H36  1  0.26440000  0.40200000  0.52430000  1.0 0.1097606936
H  H37  1  0.29380000  0.49000000  0.62520000  1.0 0.1097606936
H  H38  1  0.19580000  0.45160000  0.59430000  1.0 0.1301751126
H  H39  1  0.36430000  0.47390000  0.52560000  1.0 0.1097606936
H  H40  1  0.46120000  0.50140000  0.55500000  1.0 0.1301751126
H  H41  1  0.46670000  0.49590000  0.70820000  1.0 0.0995161779
H  H42  1  0.36980000  0.46840000  0.67880000  1.0 0.0995161779
H  H43  1  0.53360000  0.46860000  0.68650000  1.0 0.1705471296
H  H44  1  0.53760000  0.51120000  0.70740000  1.0 0.1705471296
H  H45  1  0.59990000  0.51870000  0.63620000  1.0 0.0776845267
H  H46  1  0.66830000  0.55270000  0.66480000  1.0 0.1866066078
H  H47  1  0.78930000  0.46370000  0.12940000  1.0 0.118787175
H  H48  1  0.71300000  0.45640000  0.04280000  1.0 0.118787175
H  H49  1  0.76780000  0.40120000  0.99590000  1.0 0.118787175
H  H50  1  0.79780000  0.36840000  0.09180000  1.0 0.118787175
H  H51  1  0.79630000  0.54570000  0.94520000  1.0 0.118787175
H  H52  1  0.76550000  0.57950000  0.85260000  1.0 0.1301751126
H  H53  1  0.60370000  0.41290000  0.84740000  1.0 0.1097606936
H  H54  1  0.63440000  0.37920000  0.94000000  1.0 0.1097606936
H  H55  1  0.59590000  0.49290000  0.78460000  1.0 0.088424126
H  H56  1  0.60240000  0.46080000  0.75910000  1.0 0.1097606936
H  H57  1  0.78320000  0.35500000  0.64530000  1.0 0.1097606936
H  H58  1  0.74620000  0.37800000  0.68220000  1.0 0.118787175
H  H59  1  0.71330000  0.46330000  0.52770000  1.0 0.1097606936
H  H60  1  0.73630000  0.41950000  0.49470000  1.0 0.1097606936
H  H61  1  0.64230000  0.36010000  0.66360000  1.0 0.1097606936
H  H62  1  0.59980000  0.38800000  0.68390000  1.0 0.1404334891
H  H63  1  0.72490000  0.56310000  0.62030000  1.0 0.1404334891
H  H64  1  0.76740000  0.53500000  0.60000000  1.0 0.118787175
H  H65  1  0.06750000  0.68370000  0.14650000  1.0 0.1404334891
H  H66  1  0.06920000  0.65800000  0.24170000  1.0 0.118787175
H  H67  1  0.15170000  0.67850000  0.31180000  1.0 0.1097606936
H  H68  1  0.24690000  0.74330000  0.29150000  1.0 0.118787175
H  H69  1  0.46950000  0.09150000  0.93310000  1.0 0.118787175
H  H70  1  0.51240000  0.10200000  0.86970000  1.0 0.0995161779
H  H71  1  0.50220000  0.02380000  0.86620000  1.0 0.0995161779
H  H72  1  0.43800000  0.92380000  0.91150000  1.0 0.118787175
H  H73  1  0.23170000  0.72990000  0.90170000  1.0 0.118787175
H  H74  1  0.13370000  0.67090000  0.85530000  1.0 0.1301751126
H  H75  1  0.05630000  0.64750000  0.86990000  1.0 0.1301751126
H  H76  1  0.06320000  0.68280000  0.93180000  1.0 0.1404334891
H  H77  1  0.48010000  0.10370000  0.11840000  1.0 0.1301751126
H  H78  1  0.46100000  0.94680000  0.28150000  1.0 0.1301751126
H  H79  1  0.54030000  0.05530000  0.27940000  1.0 0.1097606936
H  H80  1  0.54140000  0.12680000  0.20110000  1.0 0.1097606936
H  H81  1  0.41430000  0.75110000  0.26340000  1.0 0.1097606936
H  H82  1  0.46050000  0.72170000  0.25280000  1.0 0.1097606936
H  H83  1  0.46580000  0.72480000  0.17530000  1.0 0.1097606936
H  H84  1  0.40740000  0.74400000  0.08780000  1.0 0.1097606936
H  H85  1  0.09510000  0.85370000  0.96910000  1.0 0.1301751126
H  H86  1  0.09640000  0.93660000  0.91710000  1.0 0.118787175
H  H87  1  0.18850000  0.03390000  0.91000000  1.0 0.118787175
H  H88  1  0.27920000  0.04840000  0.95490000  1.0 0.1301751126
H  H89  1  0.96680000  0.72420000  0.89900000  1.0 0.1301751126
H  H90  1  0.86040000  0.67720000  0.87300000  1.0 0.0995161779
H  H91  1  0.88230000  0.71490000  0.00950000  1.0 0.0995161779
H  H92  1  0.96940000  0.71800000  0.04390000  1.0 0.1301751126
H  H93  1  0.78870000  0.69750000  0.82540000  1.0 0.0995161779
H  H94  1  0.69220000  0.67160000  0.79450000  1.0 0.088424126
H  H95  1  0.68200000  0.63340000  0.95230000  1.0 0.1404334891
H  H96  1  0.77830000  0.65930000  0.98320000  1.0 0.1097606936
H  H97  1  0.62220000  0.65440000  0.78080000  1.0 0.088424126
H  H98  1  0.63240000  0.68700000  0.82010000  1.0 0.1097606936
H  H99  1  0.37900000  0.16740000  0.01520000  1.0 0.1301751126
H  H100  1  0.40200000  0.26440000  0.97570000  1.0 0.1097606936
H  H101  1  0.49000000  0.29380000  0.87480000  1.0 0.1097606936
H  H102  1  0.45160000  0.19580000  0.90570000  1.0 0.1301751126
H  H103  1  0.47390000  0.36430000  0.97440000  1.0 0.1097606936
H  H104  1  0.50140000  0.46120000  0.94500000  1.0 0.1301751126
H  H105  1  0.49590000  0.46670000  0.79180000  1.0 0.0995161779
H  H106  1  0.46840000  0.36980000  0.82120000  1.0 0.0995161779
H  H107  1  0.46860000  0.53360000  0.81350000  1.0 0.1705471296
H  H108  1  0.51120000  0.53760000  0.79260000  1.0 0.1705471296
H  H109  1  0.51870000  0.59990000  0.86380000  1.0 0.0776845267
H  H110  1  0.55270000  0.66830000  0.83520000  1.0 0.1866066078
H  H111  1  0.46370000  0.78930000  0.37060000  1.0 0.118787175
H  H112  1  0.45640000  0.71300000  0.45720000  1.0 0.118787175
H  H113  1  0.40120000  0.76780000  0.50410000  1.0 0.118787175
H  H114  1  0.36840000  0.79780000  0.40820000  1.0 0.118787175
H  H115  1  0.54570000  0.79630000  0.55480000  1.0 0.118787175
H  H116  1  0.57950000  0.76550000  0.64740000  1.0 0.1301751126
H  H117  1  0.41290000  0.60370000  0.65260000  1.0 0.1097606936
H  H118  1  0.37920000  0.63440000  0.56000000  1.0 0.1097606936
H  H119  1  0.49290000  0.59590000  0.71540000  1.0 0.088424126
H  H120  1  0.46080000  0.60240000  0.74090000  1.0 0.1097606936
H  H121  1  0.35500000  0.78320000  0.85470000  1.0 0.1097606936
H  H122  1  0.37800000  0.74620000  0.81780000  1.0 0.118787175
H  H123  1  0.46330000  0.71330000  0.97230000  1.0 0.1097606936
H  H124  1  0.41950000  0.73630000  0.00530000  1.0 0.1097606936
H  H125  1  0.36010000  0.64230000  0.83640000  1.0 0.1097606936
H  H126  1  0.38800000  0.59980000  0.81610000  1.0 0.1404334891
H  H127  1  0.56310000  0.72490000  0.87970000  1.0 0.1404334891
H  H128  1  0.53500000  0.76740000  0.90000000  1.0 0.118787175
H  H129  1  0.31630000  0.93250000  0.64650000  1.0 0.1404334891
H  H130  1  0.34200000  0.93080000  0.74170000  1.0 0.118787175
H  H131  1  0.32150000  0.84830000  0.81180000  1.0 0.1097606936
H  H132  1  0.25670000  0.75310000  0.79150000  1.0 0.118787175
H  H133  1  0.90850000  0.53050000  0.43310000  1.0 0.118787175
H  H134  1  0.89800000  0.48760000  0.36970000  1.0 0.0995161779
H  H135  1  0.97620000  0.49780000  0.36620000  1.0 0.0995161779
H  H136  1  0.07620000  0.56200000  0.41150000  1.0 0.118787175
H  H137  1  0.27010000  0.76830000  0.40170000  1.0 0.118787175
H  H138  1  0.32910000  0.86630000  0.35530000  1.0 0.1301751126
H  H139  1  0.35250000  0.94370000  0.36990000  1.0 0.1301751126
H  H140  1  0.31720000  0.93680000  0.43180000  1.0 0.1404334891
H  H141  1  0.89630000  0.51990000  0.61840000  1.0 0.1301751126
H  H142  1  0.05320000  0.53900000  0.78150000  1.0 0.1301751126
H  H143  1  0.94470000  0.45970000  0.77940000  1.0 0.1097606936
H  H144  1  0.87320000  0.45860000  0.70110000  1.0 0.1097606936
H  H145  1  0.24890000  0.58570000  0.76340000  1.0 0.1097606936
H  H146  1  0.27830000  0.53950000  0.75280000  1.0 0.1097606936
H  H147  1  0.27520000  0.53420000  0.67530000  1.0 0.1097606936
H  H148  1  0.25600000  0.59260000  0.58780000  1.0 0.1097606936
H  H149  1  0.14630000  0.90490000  0.46910000  1.0 0.1301751126
H  H150  1  0.06340000  0.90360000  0.41710000  1.0 0.118787175
H  H151  1  0.96610000  0.81150000  0.41000000  1.0 0.118787175
H  H152  1  0.95160000  0.72080000  0.45490000  1.0 0.1301751126
H  H153  1  0.27580000  0.03320000  0.39900000  1.0 0.1301751126
H  H154  1  0.32280000  0.13960000  0.37300000  1.0 0.0995161779
H  H155  1  0.28510000  0.11770000  0.50950000  1.0 0.0995161779
H  H156  1  0.28200000  0.03060000  0.54390000  1.0 0.1301751126
H  H157  1  0.30250000  0.21130000  0.32540000  1.0 0.0995161779
H  H158  1  0.32840000  0.30780000  0.29450000  1.0 0.088424126
H  H159  1  0.36660000  0.31800000  0.45230000  1.0 0.1404334891
H  H160  1  0.34070000  0.22170000  0.48320000  1.0 0.1097606936
H  H161  1  0.34560000  0.37780000  0.28080000  1.0 0.088424126
H  H162  1  0.31300000  0.36760000  0.32010000  1.0 0.1097606936
H  H163  1  0.83260000  0.62100000  0.51520000  1.0 0.1301751126
H  H164  1  0.73560000  0.59800000  0.47570000  1.0 0.1097606936
H  H165  1  0.70620000  0.51000000  0.37480000  1.0 0.1097606936
H  H166  1  0.80420000  0.54840000  0.40570000  1.0 0.1301751126
H  H167  1  0.63570000  0.52610000  0.47440000  1.0 0.1097606936
H  H168  1  0.53880000  0.49860000  0.44500000  1.0 0.1301751126
H  H169  1  0.53330000  0.50410000  0.29180000  1.0 0.0995161779
H  H170  1  0.63020000  0.53160000  0.32120000  1.0 0.0995161779
H  H171  1  0.46640000  0.53140000  0.31350000  1.0 0.1705471296
H  H172  1  0.46240000  0.48880000  0.29260000  1.0 0.1705471296
H  H173  1  0.40010000  0.48130000  0.36380000  1.0 0.0776845267
H  H174  1  0.33170000  0.44730000  0.33520000  1.0 0.1866066078
H  H175  1  0.21070000  0.53630000  0.87060000  1.0 0.118787175
H  H176  1  0.28700000  0.54360000  0.95720000  1.0 0.118787175
H  H177  1  0.23220000  0.59880000  0.00410000  1.0 0.118787175
H  H178  1  0.20220000  0.63160000  0.90820000  1.0 0.118787175
H  H179  1  0.20370000  0.45430000  0.05480000  1.0 0.118787175
H  H180  1  0.23450000  0.42050000  0.14740000  1.0 0.1301751126
H  H181  1  0.39630000  0.58710000  0.15260000  1.0 0.1097606936
H  H182  1  0.36560000  0.62080000  0.06000000  1.0 0.1097606936
H  H183  1  0.40410000  0.50710000  0.21540000  1.0 0.088424126
H  H184  1  0.39760000  0.53920000  0.24090000  1.0 0.1097606936
H  H185  1  0.21680000  0.64500000  0.35470000  1.0 0.1097606936
H  H186  1  0.25380000  0.62200000  0.31780000  1.0 0.118787175
H  H187  1  0.28670000  0.53670000  0.47230000  1.0 0.1097606936
H  H188  1  0.26370000  0.58050000  0.50530000  1.0 0.1097606936
H  H189  1  0.35770000  0.63990000  0.33640000  1.0 0.1097606936
H  H190  1  0.40020000  0.61200000  0.31610000  1.0 0.1404334891
H  H191  1  0.27510000  0.43690000  0.37970000  1.0 0.1404334891
H  H192  1  0.23260000  0.46500000  0.40000000  1.0 0.118787175
H  H193  1  0.93250000  0.31630000  0.85350000  1.0 0.1404334891
H  H194  1  0.93080000  0.34200000  0.75830000  1.0 0.118787175
H  H195  1  0.84830000  0.32150000  0.68820000  1.0 0.1097606936
H  H196  1  0.75310000  0.25670000  0.70850000  1.0 0.118787175
H  H197  1  0.53050000  0.90850000  0.06690000  1.0 0.118787175
H  H198  1  0.48760000  0.89800000  0.13030000  1.0 0.0995161779
H  H199  1  0.49780000  0.97620000  0.13380000  1.0 0.0995161779
H  H200  1  0.56200000  0.07620000  0.08850000  1.0 0.118787175
H  H201  1  0.76830000  0.27010000  0.09830000  1.0 0.118787175
H  H202  1  0.86630000  0.32910000  0.14470000  1.0 0.1301751126
H  H203  1  0.94370000  0.35250000  0.13010000  1.0 0.1301751126
H  H204  1  0.93680000  0.31720000  0.06820000  1.0 0.1404334891
H  H205  1  0.51990000  0.89630000  0.88160000  1.0 0.1301751126
H  H206  1  0.53900000  0.05320000  0.71850000  1.0 0.1301751126
H  H207  1  0.45970000  0.94470000  0.72060000  1.0 0.1097606936
H  H208  1  0.45860000  0.87320000  0.79890000  1.0 0.1097606936
H  H209  1  0.58570000  0.24890000  0.73660000  1.0 0.1097606936
H  H210  1  0.53950000  0.27830000  0.74720000  1.0 0.1097606936
H  H211  1  0.53420000  0.27520000  0.82470000  1.0 0.1097606936
H  H212  1  0.59260000  0.25600000  0.91220000  1.0 0.1097606936
H  H213  1  0.90490000  0.14630000  0.03090000  1.0 0.1301751126
H  H214  1  0.90360000  0.06340000  0.08290000  1.0 0.118787175
H  H215  1  0.81150000  0.96610000  0.09000000  1.0 0.118787175
H  H216  1  0.72080000  0.95160000  0.04510000  1.0 0.1301751126
H  H217  1  0.03320000  0.27580000  0.10100000  1.0 0.1301751126
H  H218  1  0.13960000  0.32280000  0.12700000  1.0 0.0995161779
H  H219  1  0.11770000  0.28510000  0.99050000  1.0 0.0995161779
H  H220  1  0.03060000  0.28200000  0.95610000  1.0 0.1301751126
H  H221  1  0.21130000  0.30250000  0.17460000  1.0 0.0995161779
H  H222  1  0.30780000  0.32840000  0.20550000  1.0 0.088424126
H  H223  1  0.31800000  0.36660000  0.04770000  1.0 0.1404334891
H  H224  1  0.22170000  0.34070000  0.01680000  1.0 0.1097606936
H  H225  1  0.37780000  0.34560000  0.21920000  1.0 0.088424126
H  H226  1  0.36760000  0.31300000  0.17990000  1.0 0.1097606936
H  H227  1  0.62100000  0.83260000  0.98480000  1.0 0.1301751126
H  H228  1  0.59800000  0.73560000  0.02430000  1.0 0.1097606936
H  H229  1  0.51000000  0.70620000  0.12520000  1.0 0.1097606936
H  H230  1  0.54840000  0.80420000  0.09430000  1.0 0.1301751126
H  H231  1  0.52610000  0.63570000  0.02560000  1.0 0.1097606936
H  H232  1  0.49860000  0.53880000  0.05500000  1.0 0.1301751126
H  H233  1  0.50410000  0.53330000  0.20820000  1.0 0.0995161779
H  H234  1  0.53160000  0.63020000  0.17880000  1.0 0.0995161779
H  H235  1  0.53140000  0.46640000  0.18650000  1.0 0.1705471296
H  H236  1  0.48880000  0.46240000  0.20740000  1.0 0.1705471296
H  H237  1  0.48130000  0.40010000  0.13620000  1.0 0.0776845267
H  H238  1  0.44730000  0.33170000  0.16480000  1.0 0.1866066078
H  H239  1  0.53630000  0.21070000  0.62940000  1.0 0.118787175
H  H240  1  0.54360000  0.28700000  0.54280000  1.0 0.118787175
H  H241  1  0.59880000  0.23220000  0.49590000  1.0 0.118787175
H  H242  1  0.63160000  0.20220000  0.59180000  1.0 0.118787175
H  H243  1  0.45430000  0.20370000  0.44520000  1.0 0.118787175
H  H244  1  0.42050000  0.23450000  0.35260000  1.0 0.1301751126
H  H245  1  0.58710000  0.39630000  0.34740000  1.0 0.1097606936
H  H246  1  0.62080000  0.36560000  0.44000000  1.0 0.1097606936
H  H247  1  0.50710000  0.40410000  0.28460000  1.0 0.088424126
H  H248  1  0.53920000  0.39760000  0.25910000  1.0 0.1097606936
H  H249  1  0.64500000  0.21680000  0.14530000  1.0 0.1097606936
H  H250  1  0.62200000  0.25380000  0.18220000  1.0 0.118787175
H  H251  1  0.53670000  0.28670000  0.02770000  1.0 0.1097606936
H  H252  1  0.58050000  0.26370000  0.99470000  1.0 0.1097606936
H  H253  1  0.63990000  0.35770000  0.16360000  1.0 0.1097606936
H  H254  1  0.61200000  0.40020000  0.18390000  1.0 0.1404334891
H  H255  1  0.43690000  0.27510000  0.12030000  1.0 0.1404334891
H  H256  1  0.46500000  0.23260000  0.10000000  1.0 0.118787175
C  C1  1  0.75200000  0.21600000  0.29300000  1.0 0.1301751126
C  C2  1  0.73700000  0.16700000  0.33500000  1.0 0.1474767601
C  C3  1  0.69600000  0.10200000  0.32600000  1.0 -0.1627324734
C  C4  1  0.68000000  0.10600000  0.26900000  1.0 -0.0995465456
C  C5  1  0.69500000  0.15700000  0.22500000  1.0 -0.1072947669
C  C6  1  0.73200000  0.21200000  0.23700000  1.0 -0.171510775
C  C7  1  0.95100000  0.41900000  0.54700000  1.0 0.1097606936
C  C8  1  0.99600000  0.42400000  0.54100000  1.0 0.1404334891
C  C9  1  0.05900000  0.46300000  0.57100000  1.0 -0.171510775
C  C10  1  0.06500000  0.48900000  0.60800000  1.0 -0.1072947669
C  C11  1  0.01500000  0.48100000  0.61100000  1.0 -0.0995465456
C  C12  1  0.95600000  0.44400000  0.58400000  1.0 -0.1899426801
C  C13  1  0.74200000  0.20400000  0.55100000  1.0 0.0995161779
C  C14  1  0.72100000  0.19900000  0.59100000  1.0 -0.1899426801
C  C15  1  0.68700000  0.14100000  0.61700000  1.0 -0.1072947669
C  C16  1  0.67300000  0.09500000  0.60900000  1.0 -0.0995465456
C  C17  1  0.69300000  0.09700000  0.57300000  1.0 -0.1394370527
C  C18  1  0.73300000  0.15900000  0.54000000  1.0 0.1404334891
C  C19  1  0.07400000  0.47800000  0.35100000  1.0 -0.1299146406
C  C20  1  0.00700000  0.43500000  0.35500000  1.0 0.1567909041
C  C21  1  0.96100000  0.42900000  0.30400000  1.0 0.1474767601
C  C22  1  0.97600000  0.46600000  0.25100000  1.0 -0.2112962596
C  C23  1  0.04200000  0.51200000  0.25300000  1.0 -0.0995465456
C  C24  1  0.08600000  0.51400000  0.30200000  1.0 -0.1192833039
C  C25  1  0.77400000  0.39000000  0.37100000  1.0 0.0995161779
C  C26  1  0.77700000  0.39300000  0.32400000  1.0 0.088424126
C  C27  1  0.75400000  0.41600000  0.27100000  1.0 -0.1899426801
C  C28  1  0.73600000  0.44200000  0.27900000  1.0 -0.1072947669
C  C29  1  0.73500000  0.44300000  0.32600000  1.0 -0.1394370527
C  C30  1  0.75000000  0.41200000  0.37900000  1.0 -0.1777946891
C  C31  1  0.96000000  0.24200000  0.51100000  1.0 0.1097606936
C  C32  1  0.90100000  0.18700000  0.50700000  1.0 0.1097606936
C  C33  1  0.89200000  0.13200000  0.53400000  1.0 -0.1627324734
C  C34  1  0.94300000  0.13300000  0.56500000  1.0 -0.0995465456
C  C35  1  0.00000000  0.18800000  0.56900000  1.0 -0.0995465456
C  C36  1  0.01000000  0.24200000  0.54200000  1.0 -0.1627324734
C  C37  1  0.74200000  0.04400000  0.49500000  1.0 0.5166689524
C  C38  1  0.72800000  0.98200000  0.52400000  1.0 -0.0194377335
C  C39  1  0.71700000  0.94900000  0.57600000  1.0 -0.1192833039
C  C40  1  0.69400000  0.88400000  0.59500000  1.0 -0.1899426801
C  C41  1  0.69800000  0.85800000  0.56800000  1.0 0.0776845267
C  C42  1  0.71100000  0.89500000  0.51400000  1.0 -0.2000988281
C  C43  1  0.71900000  0.95300000  0.49400000  1.0 -0.0995465456
C  C44  1  0.68500000  0.76700000  0.64900000  1.0 -0.1394370527
C  C45  1  0.66900000  0.70900000  0.66800000  1.0 -0.3321849784
C  C46  1  0.65000000  0.67800000  0.63000000  1.0 0.2594942221
C  C47  1  0.64600000  0.70400000  0.57300000  1.0 -0.29108393
C  C48  1  0.66100000  0.76100000  0.55500000  1.0 -0.1192833039
C  C49  1  0.68100000  0.79300000  0.59300000  1.0 0.051756797
C  C50  1  0.64700000  0.60900000  0.68800000  1.0 0.1097606936
C  C51  1  0.10900000  0.40300000  0.50300000  1.0 0.4793645063
C  C52  1  0.17600000  0.42200000  0.53200000  1.0 -0.0105935242
C  C53  1  0.19400000  0.40200000  0.51300000  1.0 -0.1299146406
C  C54  1  0.25200000  0.41600000  0.53600000  1.0 -0.1777946891
C  C55  1  0.29100000  0.45100000  0.58000000  1.0 0.0705780282
C  C56  1  0.26900000  0.46700000  0.59800000  1.0 -0.171510775
C  C57  1  0.21100000  0.44700000  0.57600000  1.0 -0.0995465456
C  C58  1  0.35700000  0.46900000  0.59900000  1.0 0.051756797
C  C59  1  0.38500000  0.47900000  0.56200000  1.0 -0.1394370527
C  C60  1  0.44300000  0.49500000  0.58000000  1.0 -0.29108393
C  C61  1  0.47300000  0.50100000  0.63500000  1.0 0.2248654583
C  C62  1  0.44600000  0.49200000  0.67200000  1.0 -0.3682973093
C  C63  1  0.38900000  0.47500000  0.65400000  1.0 -0.1394370527
C  C64  1  0.55300000  0.51100000  0.68300000  1.0 0.088424126
C  C65  1  0.62100000  0.54300000  0.70600000  1.0 -0.29108393
C  C66  1  0.62700000  0.52100000  0.67200000  1.0 0.088424126
C  C67  1  0.80000000  0.38000000  0.18200000  1.0 0.4687443034
C  C68  1  0.77900000  0.39900000  0.12000000  1.0 -0.0026344189
C  C69  1  0.77300000  0.43900000  0.11000000  1.0 -0.1192833039
C  C70  1  0.73800000  0.44600000  0.05000000  1.0 -0.1498267184
C  C71  1  0.74100000  0.43900000  0.00900000  1.0 0.0705780282
C  C72  1  0.76400000  0.40800000  0.02300000  1.0 -0.1777946891
C  C73  1  0.78300000  0.38900000  0.08200000  1.0 -0.1192833039
C  C74  1  0.71900000  0.45900000  0.95200000  1.0 0.051756797
C  C75  1  0.75700000  0.51900000  0.92600000  1.0 -0.1192833039
C  C76  1  0.73900000  0.53900000  0.87000000  1.0 -0.2000988281
C  C77  1  0.68200000  0.50000000  0.84100000  1.0 0.1705471296
C  C78  1  0.64200000  0.44000000  0.86700000  1.0 -0.2369997154
C  C79  1  0.66100000  0.41900000  0.92200000  1.0 -0.1299146406
C  C80  1  0.62000000  0.50000000  0.76400000  1.0 -0.0515647269
C  C81  1  0.78600000  0.36800000  0.54700000  1.0 0.4687443034
C  C82  1  0.76600000  0.38600000  0.57200000  1.0 -0.0194377335
C  C83  1  0.76700000  0.37500000  0.62100000  1.0 -0.0995465456
C  C84  1  0.74600000  0.39000000  0.64400000  1.0 -0.1777946891
C  C85  1  0.72400000  0.42200000  0.60800000  1.0 0.0705780282
C  C86  1  0.72400000  0.43800000  0.55200000  1.0 -0.1498267184
C  C87  1  0.74100000  0.41500000  0.53300000  1.0 -0.1777946891
C  C88  1  0.70900000  0.44500000  0.63000000  1.0 0.051756797
C  C89  1  0.65900000  0.40100000  0.65500000  1.0 -0.1299146406
C  C90  1  0.63300000  0.41700000  0.66700000  1.0 -0.2112962596
C  C91  1  0.65800000  0.47800000  0.65400000  1.0 0.0995161779
C  C92  1  0.70800000  0.52200000  0.62900000  1.0 -0.2191937422
C  C93  1  0.73400000  0.50600000  0.61700000  1.0 -0.1394370527
C  C94  1  0.21600000  0.75200000  0.20700000  1.0 0.1301751126
C  C95  1  0.16700000  0.73700000  0.16500000  1.0 0.1474767601
C  C96  1  0.10200000  0.69600000  0.17400000  1.0 -0.1627324734
C  C97  1  0.10600000  0.68000000  0.23100000  1.0 -0.0995465456
C  C98  1  0.15700000  0.69500000  0.27500000  1.0 -0.1072947669
C  C99  1  0.21200000  0.73200000  0.26300000  1.0 -0.171510775
C  C100  1  0.41900000  0.95100000  0.95300000  1.0 0.1097606936
C  C101  1  0.42400000  0.99600000  0.95900000  1.0 0.1404334891
C  C102  1  0.46300000  0.05900000  0.92900000  1.0 -0.171510775
C  C103  1  0.48900000  0.06500000  0.89200000  1.0 -0.1072947669
C  C104  1  0.48100000  0.01500000  0.88900000  1.0 -0.0995465456
C  C105  1  0.44400000  0.95600000  0.91600000  1.0 -0.1899426801
C  C106  1  0.20400000  0.74200000  0.94900000  1.0 0.0995161779
C  C107  1  0.19900000  0.72100000  0.90900000  1.0 -0.1899426801
C  C108  1  0.14100000  0.68700000  0.88300000  1.0 -0.1072947669
C  C109  1  0.09500000  0.67300000  0.89100000  1.0 -0.0995465456
C  C110  1  0.09700000  0.69300000  0.92700000  1.0 -0.1394370527
C  C111  1  0.15900000  0.73300000  0.96000000  1.0 0.1301751126
C  C112  1  0.47800000  0.07400000  0.14900000  1.0 -0.1299146406
C  C113  1  0.43500000  0.00700000  0.14500000  1.0 0.1567909041
C  C114  1  0.42900000  0.96100000  0.19600000  1.0 0.1474767601
C  C115  1  0.46600000  0.97600000  0.24900000  1.0 -0.2112962596
C  C116  1  0.51200000  0.04200000  0.24700000  1.0 -0.0995465456
C  C117  1  0.51400000  0.08600000  0.19800000  1.0 -0.1192833039
C  C118  1  0.39000000  0.77400000  0.12900000  1.0 0.0995161779
C  C119  1  0.39300000  0.77700000  0.17600000  1.0 0.088424126
C  C120  1  0.41600000  0.75400000  0.22900000  1.0 -0.1899426801
C  C121  1  0.44200000  0.73600000  0.22100000  1.0 -0.1072947669
C  C122  1  0.44300000  0.73500000  0.17400000  1.0 -0.1394370527
C  C123  1  0.41200000  0.75000000  0.12100000  1.0 -0.1777946891
C  C124  1  0.24200000  0.96000000  0.98900000  1.0 0.1097606936
C  C125  1  0.18700000  0.90100000  0.99300000  1.0 0.1097606936
C  C126  1  0.13200000  0.89200000  0.96600000  1.0 -0.171510775
C  C127  1  0.13300000  0.94300000  0.93500000  1.0 -0.0995465456
C  C128  1  0.18800000  0.00000000  0.93100000  1.0 -0.0995465456
C  C129  1  0.24200000  0.01000000  0.95800000  1.0 -0.171510775
C  C130  1  0.04400000  0.74200000  0.00500000  1.0 0.5166689524
C  C131  1  0.98200000  0.72800000  0.97600000  1.0 -0.0194377335
C  C132  1  0.94900000  0.71700000  0.92400000  1.0 -0.1192833039
C  C133  1  0.88400000  0.69400000  0.90500000  1.0 -0.1899426801
C  C134  1  0.85800000  0.69800000  0.93200000  1.0 0.0776845267
C  C135  1  0.89500000  0.71100000  0.98600000  1.0 -0.2000988281
C  C136  1  0.95300000  0.71900000  0.00600000  1.0 -0.0995465456
C  C137  1  0.76700000  0.68500000  0.85100000  1.0 -0.1394370527
C  C138  1  0.70900000  0.66900000  0.83200000  1.0 -0.3321849784
C  C139  1  0.67800000  0.65000000  0.87000000  1.0 0.2594942221
C  C140  1  0.70400000  0.64600000  0.92700000  1.0 -0.29108393
C  C141  1  0.76100000  0.66100000  0.94500000  1.0 -0.1192833039
C  C142  1  0.79300000  0.68100000  0.90700000  1.0 0.051756797
C  C143  1  0.60900000  0.64700000  0.81200000  1.0 0.1097606936
C  C144  1  0.40300000  0.10900000  0.99700000  1.0 0.4793645063
C  C145  1  0.42200000  0.17600000  0.96800000  1.0 -0.0105935242
C  C146  1  0.40200000  0.19400000  0.98700000  1.0 -0.1299146406
C  C147  1  0.41600000  0.25200000  0.96400000  1.0 -0.1777946891
C  C148  1  0.45100000  0.29100000  0.92000000  1.0 0.0705780282
C  C149  1  0.46700000  0.26900000  0.90200000  1.0 -0.171510775
C  C150  1  0.44700000  0.21100000  0.92400000  1.0 -0.0995465456
C  C151  1  0.46900000  0.35700000  0.90100000  1.0 0.051756797
C  C152  1  0.47900000  0.38500000  0.93800000  1.0 -0.1394370527
C  C153  1  0.49500000  0.44300000  0.92000000  1.0 -0.29108393
C  C154  1  0.50100000  0.47300000  0.86500000  1.0 0.2248654583
C  C155  1  0.49200000  0.44600000  0.82800000  1.0 -0.3682973093
C  C156  1  0.47500000  0.38900000  0.84600000  1.0 -0.1394370527
C  C157  1  0.51100000  0.55300000  0.81700000  1.0 0.088424126
C  C158  1  0.54300000  0.62100000  0.79400000  1.0 -0.29108393
C  C159  1  0.52100000  0.62700000  0.82800000  1.0 0.088424126
C  C160  1  0.38000000  0.80000000  0.31800000  1.0 0.4687443034
C  C161  1  0.39900000  0.77900000  0.38000000  1.0 -0.0026344189
C  C162  1  0.43900000  0.77300000  0.39000000  1.0 -0.1192833039
C  C163  1  0.44600000  0.73800000  0.45000000  1.0 -0.1498267184
C  C164  1  0.43900000  0.74100000  0.49100000  1.0 0.0705780282
C  C165  1  0.40800000  0.76400000  0.47700000  1.0 -0.1777946891
C  C166  1  0.38900000  0.78300000  0.41800000  1.0 -0.1192833039
C  C167  1  0.45900000  0.71900000  0.54800000  1.0 0.051756797
C  C168  1  0.51900000  0.75700000  0.57400000  1.0 -0.1192833039
C  C169  1  0.53900000  0.73900000  0.63000000  1.0 -0.2000988281
C  C170  1  0.50000000  0.68200000  0.65900000  1.0 0.1705471296
C  C171  1  0.44000000  0.64200000  0.63300000  1.0 -0.2369997154
C  C172  1  0.41900000  0.66100000  0.57800000  1.0 -0.1299146406
C  C173  1  0.50000000  0.62000000  0.73600000  1.0 -0.0515647269
C  C174  1  0.36800000  0.78600000  0.95300000  1.0 0.4687443034
C  C175  1  0.38600000  0.76600000  0.92800000  1.0 -0.0194377335
C  C176  1  0.37500000  0.76700000  0.87900000  1.0 -0.0995465456
C  C177  1  0.39000000  0.74600000  0.85600000  1.0 -0.1777946891
C  C178  1  0.42200000  0.72400000  0.89200000  1.0 0.0705780282
C  C179  1  0.43800000  0.72400000  0.94800000  1.0 -0.1394370527
C  C180  1  0.41500000  0.74100000  0.96700000  1.0 -0.1777946891
C  C181  1  0.44500000  0.70900000  0.87000000  1.0 0.051756797
C  C182  1  0.40100000  0.65900000  0.84500000  1.0 -0.1299146406
C  C183  1  0.41700000  0.63300000  0.83300000  1.0 -0.2112962596
C  C184  1  0.47800000  0.65800000  0.84600000  1.0 0.0995161779
C  C185  1  0.52200000  0.70800000  0.87100000  1.0 -0.2112962596
C  C186  1  0.50600000  0.73400000  0.88300000  1.0 -0.1394370527
C  C187  1  0.24800000  0.78400000  0.70700000  1.0 0.1301751126
C  C188  1  0.26300000  0.83300000  0.66500000  1.0 0.1474767601
C  C189  1  0.30400000  0.89800000  0.67400000  1.0 -0.1627324734
C  C190  1  0.32000000  0.89400000  0.73100000  1.0 -0.0995465456
C  C191  1  0.30500000  0.84300000  0.77500000  1.0 -0.1072947669
C  C192  1  0.26800000  0.78800000  0.76300000  1.0 -0.171510775
C  C193  1  0.04900000  0.58100000  0.45300000  1.0 0.1097606936
C  C194  1  0.00400000  0.57600000  0.45900000  1.0 0.1404334891
C  C195  1  0.94100000  0.53700000  0.42900000  1.0 -0.171510775
C  C196  1  0.93500000  0.51100000  0.39200000  1.0 -0.1072947669
C  C197  1  0.98500000  0.51900000  0.38900000  1.0 -0.0995465456
C  C198  1  0.04400000  0.55600000  0.41600000  1.0 -0.1899426801
C  C199  1  0.25800000  0.79600000  0.44900000  1.0 0.0995161779
C  C200  1  0.27900000  0.80100000  0.40900000  1.0 -0.1899426801
C  C201  1  0.31300000  0.85900000  0.38300000  1.0 -0.1072947669
C  C202  1  0.32700000  0.90500000  0.39100000  1.0 -0.0995465456
C  C203  1  0.30700000  0.90300000  0.42700000  1.0 -0.1394370527
C  C204  1  0.26700000  0.84100000  0.46000000  1.0 0.1301751126
C  C205  1  0.92600000  0.52200000  0.64900000  1.0 -0.1299146406
C  C206  1  0.99300000  0.56500000  0.64500000  1.0 0.1567909041
C  C207  1  0.03900000  0.57100000  0.69600000  1.0 0.1474767601
C  C208  1  0.02400000  0.53400000  0.74900000  1.0 -0.2112962596
C  C209  1  0.95800000  0.48800000  0.74700000  1.0 -0.0995465456
C  C210  1  0.91400000  0.48600000  0.69800000  1.0 -0.1192833039
C  C211  1  0.22600000  0.61000000  0.62900000  1.0 0.0995161779
C  C212  1  0.22300000  0.60700000  0.67600000  1.0 0.088424126
C  C213  1  0.24600000  0.58400000  0.72900000  1.0 -0.1899426801
C  C214  1  0.26400000  0.55800000  0.72100000  1.0 -0.1072947669
C  C215  1  0.26500000  0.55700000  0.67400000  1.0 -0.1394370527
C  C216  1  0.25000000  0.58800000  0.62100000  1.0 -0.1777946891
C  C217  1  0.04000000  0.75800000  0.48900000  1.0 0.1097606936
C  C218  1  0.09900000  0.81300000  0.49300000  1.0 0.1097606936
C  C219  1  0.10800000  0.86800000  0.46600000  1.0 -0.1627324734
C  C220  1  0.05700000  0.86700000  0.43500000  1.0 -0.0995465456
C  C221  1  0.00000000  0.81200000  0.43100000  1.0 -0.0995465456
C  C222  1  0.99000000  0.75800000  0.45800000  1.0 -0.1627324734
C  C223  1  0.25800000  0.95600000  0.50500000  1.0 0.5166689524
C  C224  1  0.27200000  0.01800000  0.47600000  1.0 -0.0194377335
C  C225  1  0.28300000  0.05100000  0.42400000  1.0 -0.1072947669
C  C226  1  0.30600000  0.11600000  0.40500000  1.0 -0.1899426801
C  C227  1  0.30200000  0.14200000  0.43200000  1.0 0.0776845267
C  C228  1  0.28900000  0.10500000  0.48600000  1.0 -0.2000988281
C  C229  1  0.28100000  0.04700000  0.50600000  1.0 -0.0995465456
C  C230  1  0.31500000  0.23300000  0.35100000  1.0 -0.1394370527
C  C231  1  0.33100000  0.29100000  0.33200000  1.0 -0.3321849784
C  C232  1  0.35000000  0.32200000  0.37000000  1.0 0.2594942221
C  C233  1  0.35400000  0.29600000  0.42700000  1.0 -0.29108393
C  C234  1  0.33900000  0.23900000  0.44500000  1.0 -0.1192833039
C  C235  1  0.31900000  0.20700000  0.40700000  1.0 0.051756797
C  C236  1  0.35300000  0.39100000  0.31200000  1.0 0.1097606936
C  C237  1  0.89100000  0.59700000  0.49700000  1.0 0.4793645063
C  C238  1  0.82400000  0.57800000  0.46800000  1.0 -0.0105935242
C  C239  1  0.80600000  0.59800000  0.48700000  1.0 -0.1299146406
C  C240  1  0.74800000  0.58400000  0.46400000  1.0 -0.1777946891
C  C241  1  0.70900000  0.54900000  0.42000000  1.0 0.0705780282
C  C242  1  0.73100000  0.53300000  0.40200000  1.0 -0.171510775
C  C243  1  0.78900000  0.55300000  0.42400000  1.0 -0.0995465456
C  C244  1  0.64300000  0.53100000  0.40100000  1.0 0.051756797
C  C245  1  0.61500000  0.52100000  0.43800000  1.0 -0.1394370527
C  C246  1  0.55700000  0.50500000  0.42000000  1.0 -0.29108393
C  C247  1  0.52700000  0.49900000  0.36500000  1.0 0.2248654583
C  C248  1  0.55400000  0.50800000  0.32800000  1.0 -0.3682973093
C  C249  1  0.61100000  0.52500000  0.34600000  1.0 -0.1394370527
C  C250  1  0.44700000  0.48900000  0.31700000  1.0 0.088424126
C  C251  1  0.37900000  0.45700000  0.29400000  1.0 -0.29108393
C  C252  1  0.37300000  0.47900000  0.32800000  1.0 0.088424126
C  C253  1  0.20000000  0.62000000  0.81800000  1.0 0.4687443034
C  C254  1  0.22100000  0.60100000  0.88000000  1.0 -0.0026344189
C  C255  1  0.22700000  0.56100000  0.89000000  1.0 -0.1192833039
C  C256  1  0.26200000  0.55400000  0.95000000  1.0 -0.1498267184
C  C257  1  0.25900000  0.56100000  0.99100000  1.0 0.0705780282
C  C258  1  0.23600000  0.59200000  0.97700000  1.0 -0.1777946891
C  C259  1  0.21700000  0.61100000  0.91800000  1.0 -0.1192833039
C  C260  1  0.28100000  0.54100000  0.04800000  1.0 0.051756797
C  C261  1  0.24300000  0.48100000  0.07400000  1.0 -0.1192833039
C  C262  1  0.26100000  0.46100000  0.13000000  1.0 -0.2000988281
C  C263  1  0.31800000  0.50000000  0.15900000  1.0 0.1705471296
C  C264  1  0.35800000  0.56000000  0.13300000  1.0 -0.2369997154
C  C265  1  0.33900000  0.58100000  0.07800000  1.0 -0.1299146406
C  C266  1  0.38000000  0.50000000  0.23600000  1.0 -0.0395947514
C  C267  1  0.21400000  0.63200000  0.45300000  1.0 0.4687443034
C  C268  1  0.23400000  0.61400000  0.42800000  1.0 -0.0194377335
C  C269  1  0.23300000  0.62500000  0.37900000  1.0 -0.0995465456
C  C270  1  0.25400000  0.61000000  0.35600000  1.0 -0.1777946891
C  C271  1  0.27600000  0.57800000  0.39200000  1.0 0.0705780282
C  C272  1  0.27600000  0.56200000  0.44800000  1.0 -0.1394370527
C  C273  1  0.25900000  0.58500000  0.46700000  1.0 -0.1777946891
C  C274  1  0.29100000  0.55500000  0.37000000  1.0 0.051756797
C  C275  1  0.34100000  0.59900000  0.34500000  1.0 -0.1299146406
C  C276  1  0.36700000  0.58300000  0.33300000  1.0 -0.2112962596
C  C277  1  0.34200000  0.52200000  0.34600000  1.0 0.0995161779
C  C278  1  0.29200000  0.47800000  0.37100000  1.0 -0.2191937422
C  C279  1  0.26600000  0.49400000  0.38300000  1.0 -0.1394370527
C  C280  1  0.78400000  0.24800000  0.79300000  1.0 0.1301751126
C  C281  1  0.83300000  0.26300000  0.83500000  1.0 0.1474767601
C  C282  1  0.89800000  0.30400000  0.82600000  1.0 -0.1627324734
C  C283  1  0.89400000  0.32000000  0.76900000  1.0 -0.0995465456
C  C284  1  0.84300000  0.30500000  0.72500000  1.0 -0.1072947669
C  C285  1  0.78800000  0.26800000  0.73700000  1.0 -0.171510775
C  C286  1  0.58100000  0.04900000  0.04700000  1.0 0.1097606936
C  C287  1  0.57600000  0.00400000  0.04100000  1.0 0.1404334891
C  C288  1  0.53700000  0.94100000  0.07100000  1.0 -0.171510775
C  C289  1  0.51100000  0.93500000  0.10800000  1.0 -0.1072947669
C  C290  1  0.51900000  0.98500000  0.11100000  1.0 -0.0995465456
C  C291  1  0.55600000  0.04400000  0.08400000  1.0 -0.1899426801
C  C292  1  0.79600000  0.25800000  0.05100000  1.0 0.0995161779
C  C293  1  0.80100000  0.27900000  0.09100000  1.0 -0.1899426801
C  C294  1  0.85900000  0.31300000  0.11700000  1.0 -0.1072947669
C  C295  1  0.90500000  0.32700000  0.10900000  1.0 -0.0995465456
C  C296  1  0.90300000  0.30700000  0.07300000  1.0 -0.1394370527
C  C297  1  0.84100000  0.26700000  0.04000000  1.0 0.1404334891
C  C298  1  0.52200000  0.92600000  0.85100000  1.0 -0.1299146406
C  C299  1  0.56500000  0.99300000  0.85500000  1.0 0.1567909041
C  C300  1  0.57100000  0.03900000  0.80400000  1.0 0.1474767601
C  C301  1  0.53400000  0.02400000  0.75100000  1.0 -0.2112962596
C  C302  1  0.48800000  0.95800000  0.75300000  1.0 -0.0995465456
C  C303  1  0.48600000  0.91400000  0.80200000  1.0 -0.1192833039
C  C304  1  0.61000000  0.22600000  0.87100000  1.0 0.0995161779
C  C305  1  0.60700000  0.22300000  0.82400000  1.0 0.088424126
C  C306  1  0.58400000  0.24600000  0.77100000  1.0 -0.1899426801
C  C307  1  0.55800000  0.26400000  0.77900000  1.0 -0.1072947669
C  C308  1  0.55700000  0.26500000  0.82600000  1.0 -0.1394370527
C  C309  1  0.58800000  0.25000000  0.87900000  1.0 -0.1777946891
C  C310  1  0.75800000  0.04000000  0.01100000  1.0 0.1097606936
C  C311  1  0.81300000  0.09900000  0.00700000  1.0 0.118787175
C  C312  1  0.86800000  0.10800000  0.03400000  1.0 -0.1627324734
C  C313  1  0.86700000  0.05700000  0.06500000  1.0 -0.0995465456
C  C314  1  0.81200000  0.00000000  0.06900000  1.0 -0.0995465456
C  C315  1  0.75800000  0.99000000  0.04200000  1.0 -0.171510775
C  C316  1  0.95600000  0.25800000  0.99500000  1.0 0.5166689524
C  C317  1  0.01800000  0.27200000  0.02400000  1.0 -0.0194377335
C  C318  1  0.05100000  0.28300000  0.07600000  1.0 -0.1192833039
C  C319  1  0.11600000  0.30600000  0.09500000  1.0 -0.1899426801
C  C320  1  0.14200000  0.30200000  0.06800000  1.0 0.0776845267
C  C321  1  0.10500000  0.28900000  0.01400000  1.0 -0.2000988281
C  C322  1  0.04700000  0.28100000  0.99400000  1.0 -0.0995465456
C  C323  1  0.23300000  0.31500000  0.14900000  1.0 -0.1394370527
C  C324  1  0.29100000  0.33100000  0.16800000  1.0 -0.3321849784
C  C325  1  0.32200000  0.35000000  0.13000000  1.0 0.2594942221
C  C326  1  0.29600000  0.35400000  0.07300000  1.0 -0.29108393
C  C327  1  0.23900000  0.33900000  0.05500000  1.0 -0.1192833039
C  C328  1  0.20700000  0.31900000  0.09300000  1.0 0.051756797
C  C329  1  0.39100000  0.35300000  0.18800000  1.0 0.1097606936
C  C330  1  0.59700000  0.89100000  0.00300000  1.0 0.4793645063
C  C331  1  0.57800000  0.82400000  0.03200000  1.0 -0.0105935242
C  C332  1  0.59800000  0.80600000  0.01300000  1.0 -0.1299146406
C  C333  1  0.58400000  0.74800000  0.03600000  1.0 -0.1777946891
C  C334  1  0.54900000  0.70900000  0.08000000  1.0 0.0705780282
C  C335  1  0.53300000  0.73100000  0.09800000  1.0 -0.171510775
C  C336  1  0.55300000  0.78900000  0.07600000  1.0 -0.0995465456
C  C337  1  0.53100000  0.64300000  0.09900000  1.0 0.051756797
C  C338  1  0.52100000  0.61500000  0.06200000  1.0 -0.1394370527
C  C339  1  0.50500000  0.55700000  0.08000000  1.0 -0.29108393
C  C340  1  0.49900000  0.52700000  0.13500000  1.0 0.2248654583
C  C341  1  0.50800000  0.55400000  0.17200000  1.0 -0.3682973093
C  C342  1  0.52500000  0.61100000  0.15400000  1.0 -0.1394370527
C  C343  1  0.48900000  0.44700000  0.18300000  1.0 0.088424126
C  C344  1  0.45700000  0.37900000  0.20600000  1.0 -0.29108393
C  C345  1  0.47900000  0.37300000  0.17200000  1.0 0.088424126
C  C346  1  0.62000000  0.20000000  0.68200000  1.0 0.4687443034
C  C347  1  0.60100000  0.22100000  0.62000000  1.0 -0.0026344189
C  C348  1  0.56100000  0.22700000  0.61000000  1.0 -0.1192833039
C  C349  1  0.55400000  0.26200000  0.55000000  1.0 -0.1498267184
C  C350  1  0.56100000  0.25900000  0.50900000  1.0 0.0705780282
C  C351  1  0.59200000  0.23600000  0.52300000  1.0 -0.1777946891
C  C352  1  0.61100000  0.21700000  0.58200000  1.0 -0.1192833039
C  C353  1  0.54100000  0.28100000  0.45200000  1.0 0.051756797
C  C354  1  0.48100000  0.24300000  0.42600000  1.0 -0.1192833039
C  C355  1  0.46100000  0.26100000  0.37000000  1.0 -0.2000988281
C  C356  1  0.50000000  0.31800000  0.34100000  1.0 0.1705471296
C  C357  1  0.56000000  0.35800000  0.36700000  1.0 -0.2369997154
C  C358  1  0.58100000  0.33900000  0.42200000  1.0 -0.1299146406
C  C359  1  0.50000000  0.38000000  0.26400000  1.0 -0.0515647269
C  C360  1  0.63200000  0.21400000  0.04700000  1.0 0.4687443034
C  C361  1  0.61400000  0.23400000  0.07200000  1.0 -0.0194377335
C  C362  1  0.62500000  0.23300000  0.12100000  1.0 -0.0995465456
C  C363  1  0.61000000  0.25400000  0.14400000  1.0 -0.1777946891
C  C364  1  0.57800000  0.27600000  0.10800000  1.0 0.0705780282
C  C365  1  0.56200000  0.27600000  0.05200000  1.0 -0.1394370527
C  C366  1  0.58500000  0.25900000  0.03300000  1.0 -0.1777946891
C  C367  1  0.55500000  0.29100000  0.13000000  1.0 0.051756797
C  C368  1  0.59900000  0.34100000  0.15500000  1.0 -0.1299146406
C  C369  1  0.58300000  0.36700000  0.16700000  1.0 -0.2112962596
C  C370  1  0.52200000  0.34200000  0.15400000  1.0 0.0995161779
C  C371  1  0.47800000  0.29200000  0.12900000  1.0 -0.2191937422
C  C372  1  0.49400000  0.26600000  0.11700000  1.0 -0.1394370527
N  N1  1  0.97500000  0.39100000  0.50700000  1.0 -0.2000988281
N  N2  1  0.91600000  0.36400000  0.49100000  1.0 -0.0395947514
N  N3  1  0.89900000  0.37900000  0.51500000  1.0 -0.2262209111
N  N4  1  0.77600000  0.25400000  0.51500000  1.0 -0.2191937422
N  N5  1  0.78900000  0.23900000  0.48600000  1.0 -0.029680519
N  N6  1  0.80100000  0.36500000  0.33200000  1.0 -0.2262209111
N  N7  1  0.81200000  0.34800000  0.38700000  1.0 -0.0105935242
N  N8  1  0.79700000  0.36100000  0.41700000  1.0 -0.3040226182
N  N9  1  0.78700000  0.26300000  0.31400000  1.0 -0.171510775
N  N10  1  0.79300000  0.24300000  0.36700000  1.0 -0.029680519
N  N11  1  0.95000000  0.28400000  0.49100000  1.0 -0.1899426801
N  N12  1  0.89300000  0.25300000  0.47600000  1.0 0.051756797
N  N13  1  0.85800000  0.19600000  0.48600000  1.0 -0.1777946891
N  N14  1  0.92000000  0.36600000  0.37700000  1.0 -0.0515647269
N  N15  1  0.98100000  0.39500000  0.39700000  1.0 -0.2369997154
N  N16  1  0.76200000  0.18200000  0.38300000  1.0 -0.2112962596
N  N17  1  0.91000000  0.38800000  0.32300000  1.0 -0.2112962596
N  N18  1  0.76000000  0.18000000  0.50100000  1.0 -0.1777946891
N  N19  1  0.39100000  0.97500000  0.99300000  1.0 -0.2000988281
N  N20  1  0.36400000  0.91600000  0.00900000  1.0 -0.0395947514
N  N21  1  0.37900000  0.89900000  0.98500000  1.0 -0.2262209111
N  N22  1  0.25400000  0.77600000  0.98500000  1.0 -0.2191937422
N  N23  1  0.23900000  0.78900000  0.01400000  1.0 -0.029680519
N  N24  1  0.36500000  0.80100000  0.16800000  1.0 -0.2262209111
N  N25  1  0.34800000  0.81200000  0.11300000  1.0 -0.0105935242
N  N26  1  0.36100000  0.79700000  0.08300000  1.0 -0.3040226182
N  N27  1  0.26300000  0.78700000  0.18600000  1.0 -0.171510775
N  N28  1  0.24300000  0.79300000  0.13300000  1.0 -0.029680519
N  N29  1  0.28400000  0.95000000  0.00900000  1.0 -0.1899426801
N  N30  1  0.25300000  0.89300000  0.02400000  1.0 0.051756797
N  N31  1  0.19600000  0.85800000  0.01400000  1.0 -0.1777946891
N  N32  1  0.36600000  0.92000000  0.12300000  1.0 -0.0515647269
N  N33  1  0.39500000  0.98100000  0.10300000  1.0 -0.2369997154
N  N34  1  0.18200000  0.76200000  0.11700000  1.0 -0.2112962596
N  N35  1  0.38800000  0.91000000  0.17700000  1.0 -0.2112962596
N  N36  1  0.18000000  0.76000000  0.99900000  1.0 -0.1777946891
N  N37  1  0.02500000  0.60900000  0.49300000  1.0 -0.2000988281
N  N38  1  0.08400000  0.63600000  0.50900000  1.0 -0.0395947514
N  N39  1  0.10100000  0.62100000  0.48500000  1.0 -0.2262209111
N  N40  1  0.22400000  0.74600000  0.48500000  1.0 -0.2191937422
N  N41  1  0.21100000  0.76100000  0.51400000  1.0 -0.029680519
N  N42  1  0.19900000  0.63500000  0.66800000  1.0 -0.2262209111
N  N43  1  0.18800000  0.65200000  0.61300000  1.0 -0.0105935242
N  N44  1  0.20300000  0.63900000  0.58300000  1.0 -0.3040226182
N  N45  1  0.21300000  0.73700000  0.68600000  1.0 -0.171510775
N  N46  1  0.20700000  0.75700000  0.63300000  1.0 -0.029680519
N  N47  1  0.05000000  0.71600000  0.50900000  1.0 -0.1899426801
N  N48  1  0.10700000  0.74700000  0.52400000  1.0 0.051756797
N  N49  1  0.14200000  0.80400000  0.51400000  1.0 -0.1777946891
N  N50  1  0.08000000  0.63400000  0.62300000  1.0 -0.0515647269
N  N51  1  0.01900000  0.60500000  0.60300000  1.0 -0.2369997154
N  N52  1  0.23800000  0.81800000  0.61700000  1.0 -0.2112962596
N  N53  1  0.09000000  0.61200000  0.67700000  1.0 -0.2112962596
N  N54  1  0.24000000  0.82000000  0.49900000  1.0 -0.1777946891
N  N55  1  0.60900000  0.02500000  0.00700000  1.0 -0.2000988281
N  N56  1  0.63600000  0.08400000  0.99100000  1.0 -0.0395947514
N  N57  1  0.62100000  0.10100000  0.01500000  1.0 -0.2262209111
N  N58  1  0.74600000  0.22400000  0.01500000  1.0 -0.2191937422
N  N59  1  0.76100000  0.21100000  0.98600000  1.0 -0.029680519
N  N60  1  0.63500000  0.19900000  0.83200000  1.0 -0.2262209111
N  N61  1  0.65200000  0.18800000  0.88700000  1.0 -0.0105935242
N  N62  1  0.63900000  0.20300000  0.91700000  1.0 -0.3040226182
N  N63  1  0.73700000  0.21300000  0.81400000  1.0 -0.171510775
N  N64  1  0.75700000  0.20700000  0.86700000  1.0 -0.029680519
N  N65  1  0.71600000  0.05000000  0.99100000  1.0 -0.1899426801
N  N66  1  0.74700000  0.10700000  0.97600000  1.0 0.051756797
N  N67  1  0.80400000  0.14200000  0.98600000  1.0 -0.1777946891
N  N68  1  0.63400000  0.08000000  0.87700000  1.0 -0.0515647269
N  N69  1  0.60500000  0.01900000  0.89700000  1.0 -0.2369997154
N  N70  1  0.81800000  0.23800000  0.88300000  1.0 -0.2112962596
N  N71  1  0.61200000  0.09000000  0.82300000  1.0 -0.2112962596
N  N72  1  0.82000000  0.24000000  0.00100000  1.0 -0.1777946891
O  O1  1  0.09500000  0.41100000  0.52900000  1.0 -0.4169042191
O  O2  1  0.08800000  0.38600000  0.46400000  1.0 -0.4084515726
O  O3  1  0.79200000  0.38000000  0.21300000  1.0 -0.2000988281
O  O4  1  0.82700000  0.36100000  0.19300000  1.0 -0.3682973093
O  O5  1  0.80600000  0.34400000  0.58000000  1.0 -0.3474605313
O  O6  1  0.78200000  0.37600000  0.50500000  1.0 -0.2262209111
O  O7  1  0.74700000  0.06100000  0.53500000  1.0 -0.5193383178
O  O8  1  0.75300000  0.06300000  0.44900000  1.0 -0.476433464
O  O9  1  0.53300000  0.52900000  0.63400000  1.0 -0.0194377335
O  O10  1  0.62000000  0.47000000  0.68900000  1.0 -0.0766646495
O  O11  1  0.62800000  0.62000000  0.63500000  1.0 -0.0515647269
O  O12  1  0.66600000  0.52200000  0.78500000  1.0 -0.1498267184
O  O13  1  0.52000000  0.50000000  0.67200000  1.0 -0.0865428509
O  O14  1  0.68000000  0.53400000  0.68900000  1.0 -0.1192833039
O  O15  1  0.62000000  0.62000000  0.66000000  1.0 -0.055267599
O  O16  1  0.41100000  0.09500000  0.97100000  1.0 -0.4169042191
O  O17  1  0.38600000  0.08800000  0.03600000  1.0 -0.4084515726
O  O18  1  0.38000000  0.79200000  0.28700000  1.0 -0.2000988281
O  O19  1  0.36100000  0.82700000  0.30700000  1.0 -0.3682973093
O  O20  1  0.34400000  0.80600000  0.92000000  1.0 -0.3474605313
O  O21  1  0.37600000  0.78200000  0.99500000  1.0 -0.2262209111
O  O22  1  0.06100000  0.74700000  0.96500000  1.0 -0.5193383178
O  O23  1  0.06300000  0.75300000  0.05100000  1.0 -0.4749944588
O  O24  1  0.52900000  0.53300000  0.86600000  1.0 -0.0194377335
O  O25  1  0.47000000  0.62000000  0.81100000  1.0 -0.0766646495
O  O26  1  0.62000000  0.62800000  0.86500000  1.0 -0.0515647269
O  O27  1  0.52200000  0.66600000  0.71500000  1.0 -0.1498267184
O  O28  1  0.50000000  0.52000000  0.82800000  1.0 -0.0865428509
O  O29  1  0.53400000  0.68000000  0.81100000  1.0 -0.1192833039
O  O30  1  0.62000000  0.62000000  0.84000000  1.0 -0.055267599
O  O31  1  0.90500000  0.58900000  0.47100000  1.0 -0.4169042191
O  O32  1  0.91200000  0.61400000  0.53600000  1.0 -0.4084515726
O  O33  1  0.20800000  0.62000000  0.78700000  1.0 -0.2000988281
O  O34  1  0.17300000  0.63900000  0.80700000  1.0 -0.3682973093
O  O35  1  0.19400000  0.65600000  0.42000000  1.0 -0.3474605313
O  O36  1  0.21800000  0.62400000  0.49500000  1.0 -0.2262209111
O  O37  1  0.25300000  0.93900000  0.46500000  1.0 -0.5193383178
O  O38  1  0.24700000  0.93700000  0.55100000  1.0 -0.476433464
O  O39  1  0.46700000  0.47100000  0.36600000  1.0 -0.0194377335
O  O40  1  0.38000000  0.53000000  0.31100000  1.0 -0.0766646495
O  O41  1  0.37200000  0.38000000  0.36500000  1.0 -0.0515647269
O  O42  1  0.33400000  0.47800000  0.21500000  1.0 -0.1498267184
O  O43  1  0.48000000  0.50000000  0.32800000  1.0 -0.0865428509
O  O44  1  0.32000000  0.46600000  0.31100000  1.0 -0.1192833039
O  O45  1  0.38000000  0.38000000  0.34000000  1.0 -0.055267599
O  O46  1  0.58900000  0.90500000  0.02900000  1.0 -0.4169042191
O  O47  1  0.61400000  0.91200000  0.96400000  1.0 -0.4084515726
O  O48  1  0.62000000  0.20800000  0.71300000  1.0 -0.2000988281
O  O49  1  0.63900000  0.17300000  0.69300000  1.0 -0.3682973093
O  O50  1  0.65600000  0.19400000  0.08000000  1.0 -0.3474605313
O  O51  1  0.62400000  0.21800000  0.00500000  1.0 -0.2191937422
O  O52  1  0.93900000  0.25300000  0.03500000  1.0 -0.5193383178
O  O53  1  0.93700000  0.24700000  0.94900000  1.0 -0.476433464
O  O54  1  0.47100000  0.46700000  0.13400000  1.0 -0.0194377335
O  O55  1  0.53000000  0.38000000  0.18900000  1.0 -0.0766646495
O  O56  1  0.38000000  0.37200000  0.13500000  1.0 -0.0515647269
O  O57  1  0.47800000  0.33400000  0.28500000  1.0 -0.1498267184
O  O58  1  0.50000000  0.48000000  0.17200000  1.0 -0.0865428509
O  O59  1  0.46600000  0.32000000  0.18900000  1.0 -0.1192833039
O  O60  1  0.38000000  0.38000000  0.16000000  1.0 -0.055267599
