# DDEC6 charges by PACMAN v1.1 (https://github.com/mtap-research/PACMAN-charge/)
data_FAYQED_FSR_pacman
_symmetry_space_group_name_H-M   'P 1'
_cell_length_a   26.01920000
_cell_length_b   26.01920000
_cell_length_c   24.78900000
_cell_angle_alpha   63.84090000
_cell_angle_beta   116.15900000
_cell_angle_gamma   83.95720000
_symmetry_Int_Tables_number   1
_chemical_formula_structural   Zn15H242C297(N3O2)18
_chemical_formula_sum   'Zn15 H242 C297 N54 O36'
_cell_volume   12550.44290884
_cell_formula_units_Z   1
loop_
 _symmetry_equiv_pos_site_id
 _symmetry_equiv_pos_as_xyz
  1  'x, y, z'
loop_
 _atom_site_type_symbol
 _atom_site_label
 _atom_site_symmetry_multiplicity
 _atom_site_fract_x
 _atom_site_fract_y
 _atom_site_fract_z
 _atom_site_occupancy
 _atom_site_charge
Zn  Zn1  1  0.28490000  0.28490000  0.50000000  1.0 0.4450366501
Zn  Zn2  1  0.11950000  0.34230000  0.39610000  1.0 0.6391493583
Zn  Zn3  1  0.34230000  0.11950000  0.60390000  1.0 0.6507452194
Zn  Zn4  1  0.33790000  0.33930000  0.61570000  1.0 0.6325477068
Zn  Zn5  1  0.33930000  0.33790000  0.38430000  1.0 0.6325477068
Zn  Zn6  1  0.43150000  0.95070000  0.33600000  1.0 0.4664313946
Zn  Zn7  1  0.59550000  0.89710000  0.44470000  1.0 0.6689980928
Zn  Zn8  1  0.37290000  0.11510000  0.21800000  1.0 0.6507452194
Zn  Zn9  1  0.38620000  0.88180000  0.23530000  1.0 0.6507452194
Zn  Zn10  1  0.37320000  0.90920000  0.44870000  1.0 0.6391493583
Zn  Zn11  1  0.95070000  0.43150000  0.66400000  1.0 0.4664313946
Zn  Zn12  1  0.89710000  0.59550000  0.55530000  1.0 0.6689980928
Zn  Zn13  1  0.11510000  0.37290000  0.78200000  1.0 0.6507452194
Zn  Zn14  1  0.88180000  0.38620000  0.76470000  1.0 0.6507452194
Zn  Zn15  1  0.90920000  0.37320000  0.55130000  1.0 0.6391493583
H  H1  1  0.05510000  0.23470000  0.41850000  1.0 0.1304615492
H  H2  1  0.23470000  0.05510000  0.58150000  1.0 0.1304615492
H  H3  1  0.01950000  0.49910000  0.51760000  1.0 0.1304615492
H  H4  1  0.49910000  0.01950000  0.48240000  1.0 0.1304615492
H  H5  1  0.99020000  0.51180000  0.44030000  1.0 0.1402316097
H  H6  1  0.51180000  0.99020000  0.55970000  1.0 0.1402316097
H  H7  1  0.00050000  0.44910000  0.50310000  1.0 0.1198843391
H  H8  1  0.44910000  0.00050000  0.49690000  1.0 0.1198843391
H  H9  1  0.99140000  0.17560000  0.43010000  1.0 0.1198843391
H  H10  1  0.17560000  0.99140000  0.56990000  1.0 0.1102485406
H  H11  1  0.01130000  0.11910000  0.42600000  1.0 0.1198843391
H  H12  1  0.11910000  0.01130000  0.57400000  1.0 0.1198843391
H  H13  1  0.02040000  0.10840000  0.49750000  1.0 0.1198843391
H  H14  1  0.10840000  0.02040000  0.50250000  1.0 0.1198843391
H  H15  1  0.71750000  0.47230000  0.17260000  1.0 0.1304615492
H  H16  1  0.47230000  0.71750000  0.82740000  1.0 0.1304615492
H  H17  1  0.55470000  0.46550000  0.00650000  1.0 0.1001592491
H  H18  1  0.46550000  0.55470000  0.99350000  1.0 0.1001592491
H  H19  1  0.56880000  0.51020000  0.95150000  1.0 0.1001592491
H  H20  1  0.51020000  0.56880000  0.04850000  1.0 0.1001592491
H  H21  1  0.93280000  0.44100000  0.19450000  1.0 0.1304615492
H  H22  1  0.44100000  0.93280000  0.80550000  1.0 0.1304615492
H  H23  1  0.91480000  0.37880000  0.36430000  1.0 0.1304615492
H  H24  1  0.37880000  0.91480000  0.63570000  1.0 0.1304615492
H  H25  1  0.61380000  0.54400000  0.08470000  1.0 0.1102485406
H  H26  1  0.54400000  0.61380000  0.91530000  1.0 0.1102485406
H  H27  1  0.62330000  0.47970000  0.09280000  1.0 0.1001592491
H  H28  1  0.47970000  0.62330000  0.90720000  1.0 0.1001592491
H  H29  1  0.33540000  0.53160000  0.72590000  1.0 0.1402316097
H  H30  1  0.53160000  0.33540000  0.27410000  1.0 0.1402316097
H  H31  1  0.73340000  0.52180000  0.00750000  1.0 0.1402316097
H  H32  1  0.52180000  0.73340000  0.99250000  1.0 0.1402316097
H  H33  1  0.81250000  0.42010000  0.30050000  1.0 0.1102485406
H  H34  1  0.42010000  0.81250000  0.69950000  1.0 0.1102485406
H  H35  1  0.83400000  0.50140000  0.07520000  1.0 0.1198843391
H  H36  1  0.50140000  0.83400000  0.92480000  1.0 0.1198843391
H  H37  1  0.38380000  0.55480000  0.82330000  1.0 0.1304615492
H  H38  1  0.55480000  0.38380000  0.17670000  1.0 0.1304615492
H  H39  1  0.55310000  0.43070000  0.93380000  1.0 0.1304615492
H  H40  1  0.43070000  0.55310000  0.06620000  1.0 0.1304615492
H  H41  1  0.08530000  0.50390000  0.58060000  1.0 0.1304615492
H  H42  1  0.50390000  0.08530000  0.41940000  1.0 0.1304615492
H  H43  1  0.15020000  0.45600000  0.64920000  1.0 0.1304615492
H  H44  1  0.45600000  0.15020000  0.35080000  1.0 0.1304615492
H  H45  1  0.14490000  0.51690000  0.58870000  1.0 0.1402316097
H  H46  1  0.51690000  0.14490000  0.41130000  1.0 0.1402316097
H  H47  1  0.49400000  0.02880000  0.95640000  1.0 0.0527665088
H  H48  1  0.02880000  0.49400000  0.04360000  1.0 0.0604073868
H  H49  1  0.44440000  0.00880000  0.91430000  1.0 0.1102485406
H  H50  1  0.00880000  0.44440000  0.08570000  1.0 0.1102485406
H  H51  1  0.50670000  0.99970000  0.91790000  1.0 0.1102485406
H  H52  1  0.99970000  0.50670000  0.08210000  1.0 0.1102485406
H  H53  1  0.48410000  0.07750000  0.95330000  1.0 0.0695399614
H  H54  1  0.07750000  0.48410000  0.04670000  1.0 0.0695399614
H  H55  1  0.49890000  0.13690000  0.94250000  1.0 0.1304615492
H  H56  1  0.13690000  0.49890000  0.05750000  1.0 0.1198843391
H  H57  1  0.43270000  0.13770000  0.92350000  1.0 0.1304615492
H  H58  1  0.13770000  0.43270000  0.07650000  1.0 0.1304615492
H  H59  1  0.22590000  0.42170000  0.61310000  1.0 0.14884427
H  H60  1  0.42170000  0.22590000  0.38690000  1.0 0.14884427
H  H61  1  0.05150000  0.42490000  0.43930000  1.0 0.1402316097
H  H62  1  0.42490000  0.05150000  0.56070000  1.0 0.1402316097
H  H63  1  0.41490000  0.05790000  0.78290000  1.0 0.14884427
H  H64  1  0.05790000  0.41490000  0.21710000  1.0 0.14884427
H  H65  1  0.42190000  0.23470000  0.78460000  1.0 0.14884427
H  H66  1  0.23470000  0.42190000  0.21540000  1.0 0.14884427
H  H67  1  0.47950000  0.37130000  0.63060000  1.0 0.1304615492
H  H68  1  0.37130000  0.47950000  0.36940000  1.0 0.1304615492
H  H69  1  0.44980000  0.39080000  0.42960000  1.0 0.1102485406
H  H70  1  0.39080000  0.44980000  0.57040000  1.0 0.1102485406
H  H71  1  0.53240000  0.45240000  0.43130000  1.0 0.1402316097
H  H72  1  0.45240000  0.53240000  0.56870000  1.0 0.1402316097
H  H73  1  0.51630000  0.48870000  0.46170000  1.0 0.1198843391
H  H74  1  0.48870000  0.51630000  0.53830000  1.0 0.1198843391
H  H75  1  0.58100000  0.43580000  0.50830000  1.0 0.1402316097
H  H76  1  0.43580000  0.58100000  0.49170000  1.0 0.1402316097
H  H77  1  0.35150000  0.45450000  0.70400000  1.0 0.1304615492
H  H78  1  0.45450000  0.35150000  0.29600000  1.0 0.1304615492
H  H79  1  0.55800000  0.36700000  0.88800000  1.0 0.1198843391
H  H80  1  0.36700000  0.55800000  0.11200000  1.0 0.1198843391
H  H81  1  0.52110000  0.32710000  0.81760000  1.0 0.1304615492
H  H82  1  0.32710000  0.52110000  0.18240000  1.0 0.1304615492
H  H83  1  0.17200000  0.76860000  0.76390000  1.0 0.1001592491
H  H84  1  0.14740000  0.72980000  0.73150000  1.0 0.1102485406
H  H85  1  0.23230000  0.60250000  0.87660000  1.0 0.1102485406
H  H86  1  0.16480000  0.61720000  0.81680000  1.0 0.1102485406
H  H87  1  0.09000000  0.76180000  0.78710000  1.0 0.1001592491
H  H88  1  0.09510000  0.69930000  0.84590000  1.0 0.1102485406
H  H89  1  0.23790000  0.09870000  0.44980000  1.0 0.1402316097
H  H90  1  0.25280000  0.15860000  0.43420000  1.0 0.1304615492
H  H91  1  0.19080000  0.16180000  0.37740000  1.0 0.1402316097
H  H92  1  0.36170000  0.76550000  0.62600000  1.0 0.1198843391
H  H93  1  0.18470000  0.80370000  0.67520000  1.0 0.1198843391
H  H94  1  0.47980000  0.82580000  0.62580000  1.0 0.1304615492
H  H95  1  0.65840000  0.82320000  0.62010000  1.0 0.1402316097
H  H96  1  0.22100000  0.24840000  0.32130000  1.0 0.1304615492
H  H97  1  0.27200000  0.25960000  0.30500000  1.0 0.1304615492
H  H98  1  0.20790000  0.26890000  0.24530000  1.0 0.14884427
H  H99  1  0.36960000  0.67940000  0.74130000  1.0 0.1102485406
H  H100  1  0.17810000  0.89150000  0.56880000  1.0 0.1304615492
H  H101  1  0.22100000  0.92580000  0.48850000  1.0 0.14884427
H  H102  1  0.33630000  0.64570000  0.81900000  1.0 0.1304615492
H  H103  1  0.99520000  0.78860000  0.74700000  1.0 0.1198843391
H  H104  1  0.20080000  0.41920000  0.90410000  1.0 0.1198843391
H  H105  1  0.79250000  0.79250000  0.55100000  1.0 0.1198843391
H  H106  1  0.68660000  0.14720000  0.36390000  1.0 0.1198843391
H  H107  1  0.70390000  0.09190000  0.43810000  1.0 0.14884427
H  H108  1  0.71840000  0.07940000  0.38910000  1.0 0.1304615492
H  H109  1  0.27330000  0.68870000  0.01120000  1.0 0.1102485406
H  H110  1  0.24650000  0.51090000  0.03340000  1.0 0.1402316097
H  H111  1  0.15860000  0.52420000  0.85100000  1.0 0.1304615492
H  H112  1  0.00050000  0.67870000  0.67150000  1.0 0.1402316097
H  H113  1  0.25140000  0.68020000  0.91580000  1.0 0.1102485406
H  H114  1  0.20260000  0.67280000  0.93690000  1.0 0.1102485406
H  H115  1  0.88810000  0.85130000  0.70770000  1.0 0.1198843391
H  H116  1  0.89570000  0.71910000  0.59680000  1.0 0.1198843391
H  H117  1  0.77530000  0.89970000  0.62220000  1.0 0.1304615492
H  H118  1  0.54090000  0.24690000  0.22810000  1.0 0.1304615492
H  H119  1  0.59700000  0.22320000  0.30490000  1.0 0.1402316097
H  H120  1  0.60790000  0.21490000  0.25140000  1.0 0.1304615492
H  H121  1  0.69110000  0.73350000  0.80130000  1.0 0.1102485406
H  H122  1  0.72210000  0.72390000  0.76300000  1.0 0.1102485406
H  H123  1  0.71380000  0.78360000  0.76470000  1.0 0.1198843391
H  H124  1  0.16780000  0.85360000  0.85040000  1.0 0.1402316097
H  H125  1  0.62900000  0.74120000  0.79770000  1.0 0.1001592491
H  H126  1  0.56540000  0.78700000  0.76900000  1.0 0.1198843391
H  H127  1  0.56930000  0.72650000  0.76910000  1.0 0.1198843391
H  H128  1  0.20290000  0.90110000  0.92400000  1.0 0.1198843391
H  H129  1  0.65840000  0.69060000  0.32920000  1.0 0.1102485406
H  H130  1  0.59960000  0.67480000  0.31890000  1.0 0.1304615492
H  H131  1  0.59560000  0.73080000  0.25450000  1.0 0.1304615492
H  H132  1  0.74020000  0.73540000  0.42490000  1.0 0.1198843391
H  H133  1  0.71890000  0.68150000  0.42400000  1.0 0.1304615492
H  H134  1  0.71230000  0.73430000  0.35520000  1.0 0.1304615492
H  H135  1  0.21000000  0.72080000  0.32180000  1.0 0.1102485406
H  H136  1  0.20050000  0.76710000  0.24790000  1.0 0.1102485406
H  H137  1  0.25850000  0.70550000  0.30460000  1.0 0.1198843391
H  H138  1  0.20670000  0.72730000  0.40170000  1.0 0.1102485406
H  H139  1  0.25340000  0.72640000  0.46940000  1.0 0.1198843391
H  H140  1  0.19380000  0.78540000  0.40550000  1.0 0.1198843391
H  H141  1  0.19840000  0.10660000  0.87580000  1.0 0.1304615492
H  H142  1  0.24770000  0.04110000  0.91580000  1.0 0.1198843391
H  H143  1  0.19360000  0.04780000  0.92770000  1.0 0.1198843391
H  H144  1  0.20190000  0.20090000  0.87480000  1.0 0.1304615492
H  H145  1  0.19320000  0.21780000  0.92440000  1.0 0.1304615492
H  H146  1  0.25220000  0.21740000  0.92160000  1.0 0.1198843391
H  H147  1  0.66650000  0.81010000  0.41740000  1.0 0.14884427
H  H148  1  0.50460000  0.77580000  0.27440000  1.0 0.1402316097
H  H149  1  0.28910000  0.81950000  0.43560000  1.0 0.1304615492
H  H150  1  0.29960000  0.79360000  0.26680000  1.0 0.1402316097
H  H151  1  0.27880000  0.16780000  0.04010000  1.0 0.1304615492
H  H152  1  0.30460000  0.98060000  0.05760000  1.0 0.1304615492
H  H153  1  0.29490000  0.03050000  0.43510000  1.0 0.14884427
H  H154  1  0.29020000  0.19700000  0.25120000  1.0 0.1402316097
H  H155  1  0.34770000  0.30010000  0.20730000  1.0 0.1304615492
H  H156  1  0.30830000  0.40670000  0.14790000  1.0 0.1198843391
H  H157  1  0.26840000  0.31480000  0.01790000  1.0 0.1304615492
H  H158  1  0.27410000  0.87970000  0.03620000  1.0 0.1304615492
H  H159  1  0.34840000  0.66820000  0.13990000  1.0 0.1102485406
H  H160  1  0.38740000  0.70880000  0.20930000  1.0 0.14884427
H  H161  1  0.48150000  0.18390000  0.22920000  1.0 0.1402316097
H  H162  1  0.65680000  0.00920000  0.42100000  1.0 0.14884427
H  H163  1  0.76860000  0.17200000  0.23610000  1.0 0.1001592491
H  H164  1  0.72980000  0.14740000  0.26850000  1.0 0.1102485406
H  H165  1  0.60250000  0.23230000  0.12340000  1.0 0.1102485406
H  H166  1  0.61720000  0.16480000  0.18320000  1.0 0.1102485406
H  H167  1  0.76180000  0.09000000  0.21290000  1.0 0.1001592491
H  H168  1  0.69930000  0.09510000  0.15410000  1.0 0.1102485406
H  H169  1  0.09870000  0.23790000  0.55020000  1.0 0.1402316097
H  H170  1  0.15860000  0.25280000  0.56580000  1.0 0.1304615492
H  H171  1  0.16180000  0.19080000  0.62260000  1.0 0.1402316097
H  H172  1  0.76550000  0.36170000  0.37400000  1.0 0.1198843391
H  H173  1  0.80370000  0.18470000  0.32480000  1.0 0.1198843391
H  H174  1  0.82580000  0.47980000  0.37420000  1.0 0.1304615492
H  H175  1  0.82320000  0.65840000  0.37990000  1.0 0.1402316097
H  H176  1  0.24840000  0.22100000  0.67870000  1.0 0.1304615492
H  H177  1  0.25960000  0.27200000  0.69500000  1.0 0.1304615492
H  H178  1  0.26890000  0.20790000  0.75470000  1.0 0.14884427
H  H179  1  0.67940000  0.36960000  0.25870000  1.0 0.1102485406
H  H180  1  0.89150000  0.17810000  0.43120000  1.0 0.1304615492
H  H181  1  0.92580000  0.22100000  0.51150000  1.0 0.14884427
H  H182  1  0.64570000  0.33630000  0.18100000  1.0 0.1304615492
H  H183  1  0.78860000  0.99520000  0.25300000  1.0 0.1198843391
H  H184  1  0.41920000  0.20080000  0.09590000  1.0 0.1198843391
H  H185  1  0.79250000  0.79250000  0.44900000  1.0 0.1198843391
H  H186  1  0.14720000  0.68660000  0.63610000  1.0 0.1198843391
H  H187  1  0.09190000  0.70390000  0.56190000  1.0 0.14884427
H  H188  1  0.07940000  0.71840000  0.61090000  1.0 0.1304615492
H  H189  1  0.68870000  0.27330000  0.98880000  1.0 0.1102485406
H  H190  1  0.51090000  0.24650000  0.96660000  1.0 0.1402316097
H  H191  1  0.52420000  0.15860000  0.14900000  1.0 0.1304615492
H  H192  1  0.67870000  0.00050000  0.32850000  1.0 0.1402316097
H  H193  1  0.68020000  0.25140000  0.08420000  1.0 0.1102485406
H  H194  1  0.67280000  0.20260000  0.06310000  1.0 0.1102485406
H  H195  1  0.85130000  0.88810000  0.29230000  1.0 0.1198843391
H  H196  1  0.71910000  0.89570000  0.40320000  1.0 0.1198843391
H  H197  1  0.89970000  0.77530000  0.37780000  1.0 0.1304615492
H  H198  1  0.24690000  0.54090000  0.77190000  1.0 0.1304615492
H  H199  1  0.22320000  0.59700000  0.69510000  1.0 0.1402316097
H  H200  1  0.21490000  0.60790000  0.74860000  1.0 0.1198843391
H  H201  1  0.73350000  0.69110000  0.19870000  1.0 0.1102485406
H  H202  1  0.72390000  0.72210000  0.23700000  1.0 0.1102485406
H  H203  1  0.78360000  0.71380000  0.23530000  1.0 0.1198843391
H  H204  1  0.85360000  0.16780000  0.14960000  1.0 0.1402316097
H  H205  1  0.74120000  0.62900000  0.20230000  1.0 0.0909485392
H  H206  1  0.78700000  0.56540000  0.23100000  1.0 0.1198843391
H  H207  1  0.72650000  0.56930000  0.23090000  1.0 0.1198843391
H  H208  1  0.90110000  0.20290000  0.07600000  1.0 0.1198843391
H  H209  1  0.69060000  0.65840000  0.67080000  1.0 0.1102485406
H  H210  1  0.67480000  0.59960000  0.68110000  1.0 0.1304615492
H  H211  1  0.73080000  0.59560000  0.74550000  1.0 0.1304615492
H  H212  1  0.73540000  0.74020000  0.57510000  1.0 0.1198843391
H  H213  1  0.68150000  0.71890000  0.57600000  1.0 0.1304615492
H  H214  1  0.73430000  0.71230000  0.64480000  1.0 0.1304615492
H  H215  1  0.72080000  0.21000000  0.67820000  1.0 0.1102485406
H  H216  1  0.76710000  0.20050000  0.75210000  1.0 0.1102485406
H  H217  1  0.70550000  0.25850000  0.69540000  1.0 0.1198843391
H  H218  1  0.72730000  0.20670000  0.59830000  1.0 0.1102485406
H  H219  1  0.72640000  0.25340000  0.53060000  1.0 0.1198843391
H  H220  1  0.78540000  0.19380000  0.59450000  1.0 0.1198843391
H  H221  1  0.10660000  0.19840000  0.12420000  1.0 0.1304615492
H  H222  1  0.04110000  0.24770000  0.08420000  1.0 0.1198843391
H  H223  1  0.04780000  0.19360000  0.07230000  1.0 0.1198843391
H  H224  1  0.20090000  0.20190000  0.12520000  1.0 0.1402316097
H  H225  1  0.21780000  0.19320000  0.07560000  1.0 0.1304615492
H  H226  1  0.21740000  0.25220000  0.07840000  1.0 0.1198843391
H  H227  1  0.81010000  0.66650000  0.58260000  1.0 0.14884427
H  H228  1  0.77580000  0.50460000  0.72560000  1.0 0.1402316097
H  H229  1  0.81950000  0.28910000  0.56440000  1.0 0.1304615492
H  H230  1  0.79360000  0.29960000  0.73320000  1.0 0.1402316097
H  H231  1  0.16780000  0.27880000  0.95990000  1.0 0.1304615492
H  H232  1  0.98060000  0.30460000  0.94240000  1.0 0.1304615492
H  H233  1  0.03050000  0.29490000  0.56490000  1.0 0.14884427
H  H234  1  0.19700000  0.29020000  0.74880000  1.0 0.1402316097
H  H235  1  0.30010000  0.34770000  0.79270000  1.0 0.1304615492
H  H236  1  0.40670000  0.30830000  0.85210000  1.0 0.1198843391
H  H237  1  0.31480000  0.26840000  0.98210000  1.0 0.1304615492
H  H238  1  0.87970000  0.27410000  0.96380000  1.0 0.1304615492
H  H239  1  0.66820000  0.34840000  0.86010000  1.0 0.1102485406
H  H240  1  0.70880000  0.38740000  0.79070000  1.0 0.14884427
H  H241  1  0.18390000  0.48150000  0.77080000  1.0 0.1402316097
H  H242  1  0.00920000  0.65680000  0.57900000  1.0 0.14884427
C  C1  1  0.09100000  0.19900000  0.45100000  1.0 -0.230391495
C  C2  1  0.19900000  0.09100000  0.54900000  1.0 -0.2203344484
C  C3  1  0.15200000  0.19800000  0.47800000  1.0 0.1198843391
C  C4  1  0.19800000  0.15200000  0.52200000  1.0 0.1198843391
C  C5  1  0.93700000  0.40300000  0.29200000  1.0 0.0016078101
C  C6  1  0.40300000  0.93700000  0.70800000  1.0 0.0016078101
C  C7  1  0.01700000  0.48100000  0.49100000  1.0 -0.4276235199
C  C8  1  0.48100000  0.01700000  0.50900000  1.0 -0.4276235199
C  C9  1  0.09000000  0.13800000  0.48200000  1.0 0.0810396613
C  C10  1  0.13800000  0.09000000  0.51800000  1.0 0.0810396613
C  C11  1  0.02100000  0.13500000  0.45600000  1.0 -0.420747464
C  C12  1  0.13500000  0.02100000  0.54400000  1.0 -0.420747464
C  C13  1  0.80400000  0.45400000  0.20000000  1.0 0.1198843391
C  C14  1  0.45400000  0.80400000  0.80000000  1.0 0.1198843391
C  C15  1  0.74200000  0.47800000  0.15400000  1.0 -0.2593273467
C  C16  1  0.47800000  0.74200000  0.84600000  1.0 -0.2593273467
C  C17  1  0.84400000  0.46400000  0.17000000  1.0 0.0604073868
C  C18  1  0.46400000  0.84400000  0.83000000  1.0 0.0604073868
C  C19  1  0.54200000  0.50800000  0.96900000  1.0 -0.052609521
C  C20  1  0.50800000  0.54200000  0.03100000  1.0 -0.052609521
C  C21  1  0.71400000  0.50600000  0.08500000  1.0 0.2317952964
C  C22  1  0.50600000  0.71400000  0.91500000  1.0 0.2317952964
C  C23  1  0.90900000  0.43700000  0.21400000  1.0 -0.1497075237
C  C24  1  0.43700000  0.90900000  0.78600000  1.0 -0.1497075237
C  C25  1  0.89600000  0.40000000  0.31500000  1.0 -0.1015018469
C  C26  1  0.40000000  0.89600000  0.68500000  1.0 -0.1015018469
C  C27  1  0.54800000  0.54800000  0.00000000  1.0 0.0695399614
C  C28  1  0.00600000  0.37600000  0.33900000  1.0 0.4923373167
C  C29  1  0.37600000  0.00600000  0.66100000  1.0 0.4923373167
C  C30  1  0.61100000  0.52300000  0.05900000  1.0 -0.1117714649
C  C31  1  0.52300000  0.61100000  0.94100000  1.0 -0.1117714649
C  C32  1  0.37600000  0.51000000  0.76600000  1.0 -0.1311388099
C  C33  1  0.51000000  0.37600000  0.23400000  1.0 -0.1311388099
C  C34  1  0.75100000  0.50900000  0.05500000  1.0 -0.1977253217
C  C35  1  0.50900000  0.75100000  0.94500000  1.0 -0.1977253217
C  C36  1  0.83400000  0.42400000  0.27800000  1.0 -0.1699990477
C  C37  1  0.42400000  0.83400000  0.72200000  1.0 -0.1699990477
C  C38  1  0.81200000  0.49200000  0.09700000  1.0 -0.1117714649
C  C39  1  0.49200000  0.81200000  0.90300000  1.0 -0.1117714649
C  C40  1  0.40800000  0.52600000  0.82400000  1.0 -0.1977253217
C  C41  1  0.52600000  0.40800000  0.17600000  1.0 -0.1977253217
C  C42  1  0.51200000  0.45000000  0.89500000  1.0 -0.3029326048
C  C43  1  0.45000000  0.51200000  0.10500000  1.0 -0.3029326048
C  C44  1  0.46600000  0.50000000  0.87200000  1.0 0.2018205863
C  C45  1  0.50000000  0.46600000  0.12800000  1.0 0.2018205863
C  C46  1  0.12800000  0.48600000  0.59800000  1.0 -0.4419893097
C  C47  1  0.48600000  0.12800000  0.40200000  1.0 -0.4419893097
C  C48  1  0.39700000  0.36900000  0.69400000  1.0 0.5019553755
C  C49  1  0.36900000  0.39700000  0.30600000  1.0 0.5019553755
C  C50  1  0.47600000  0.02600000  0.91500000  1.0 -0.3552724417
C  C51  1  0.02600000  0.47600000  0.08500000  1.0 -0.3552724417
C  C52  1  0.46800000  0.12200000  0.92400000  1.0 -0.4089820977
C  C53  1  0.12200000  0.46800000  0.07600000  1.0 -0.4089820977
C  C54  1  0.13200000  0.45200000  0.56000000  1.0 0.1402316097
C  C55  1  0.45200000  0.13200000  0.44000000  1.0 0.1402316097
C  C56  1  0.19070000  0.42270000  0.57800000  1.0 -0.230391495
C  C57  1  0.42270000  0.19070000  0.42200000  1.0 -0.2411758048
C  C58  1  0.19700000  0.39300000  0.54400000  1.0 0.1402316097
C  C59  1  0.39300000  0.19700000  0.45600000  1.0 0.1402316097
C  C60  1  0.14500000  0.39500000  0.49200000  1.0 0.1102485406
C  C61  1  0.39500000  0.14500000  0.50800000  1.0 0.1102485406
C  C62  1  0.08640000  0.42440000  0.47400000  1.0 -0.2203344484
C  C63  1  0.42440000  0.08640000  0.52600000  1.0 -0.2203344484
C  C64  1  0.08100000  0.45300000  0.50800000  1.0 0.1102485406
C  C65  1  0.45300000  0.08100000  0.49200000  1.0 0.1102485406
C  C66  1  0.39000000  0.20400000  0.71900000  1.0 0.1725005809
C  C67  1  0.20400000  0.39000000  0.28100000  1.0 0.1725005809
C  C68  1  0.38800000  0.15000000  0.71900000  1.0 0.1102485406
C  C69  1  0.15000000  0.38800000  0.28100000  1.0 0.1102485406
C  C70  1  0.41600000  0.09400000  0.78300000  1.0 -0.230391495
C  C71  1  0.09400000  0.41600000  0.21700000  1.0 -0.230391495
C  C72  1  0.44700000  0.08900000  0.84800000  1.0 0.0810396613
C  C73  1  0.08900000  0.44700000  0.15200000  1.0 0.0810396613
C  C74  1  0.44900000  0.14300000  0.84900000  1.0 0.1198843391
C  C75  1  0.14300000  0.44900000  0.15100000  1.0 0.1198843391
C  C76  1  0.42100000  0.19900000  0.78400000  1.0 -0.2487943496
C  C77  1  0.19900000  0.42100000  0.21600000  1.0 -0.2487943496
C  C78  1  0.42100000  0.35500000  0.55800000  1.0 0.1001592491
C  C79  1  0.35500000  0.42100000  0.44200000  1.0 0.1001592491
C  C80  1  0.47300000  0.37300000  0.59000000  1.0 -0.1596992068
C  C81  1  0.37300000  0.47300000  0.41000000  1.0 -0.1596992068
C  C82  1  0.51800000  0.39400000  0.57000000  1.0 -0.1793731332
C  C83  1  0.39400000  0.51800000  0.43000000  1.0 -0.1888922432
C  C84  1  0.51300000  0.40300000  0.51000000  1.0 0.1402316097
C  C85  1  0.40300000  0.51300000  0.49000000  1.0 0.1402316097
C  C86  1  0.45800000  0.38600000  0.47300000  1.0 -0.230391495
C  C87  1  0.38600000  0.45800000  0.52700000  1.0 -0.230391495
C  C88  1  0.41500000  0.36100000  0.49200000  1.0 0.1304615492
C  C89  1  0.36100000  0.41500000  0.50800000  1.0 0.1304615492
C  C90  1  0.53800000  0.45000000  0.47000000  1.0 -0.4089820977
C  C91  1  0.45000000  0.53800000  0.53000000  1.0 -0.4089820977
C  C92  1  0.39300000  0.43700000  0.74100000  1.0 -0.1793731332
C  C93  1  0.43700000  0.39300000  0.25900000  1.0 -0.1793731332
C  C94  1  0.41500000  0.46100000  0.78300000  1.0 0.0604073868
C  C95  1  0.46100000  0.41500000  0.21700000  1.0 0.0604073868
C  C96  1  0.47700000  0.43500000  0.83800000  1.0 0.0695399614
C  C97  1  0.43500000  0.47700000  0.16200000  1.0 0.0695399614
C  C98  1  0.51700000  0.38500000  0.85100000  1.0 -0.1699990477
C  C99  1  0.38500000  0.51700000  0.14900000  1.0 -0.1699990477
C  C100  1  0.49500000  0.36100000  0.80900000  1.0 -0.1015018469
C  C101  1  0.36100000  0.49500000  0.19100000  1.0 -0.1015018469
C  C102  1  0.43300000  0.38700000  0.75400000  1.0 0.0081318543
C  C103  1  0.38700000  0.43300000  0.24600000  1.0 0.0081318543
C  C104  1  0.17000000  0.69000000  0.83600000  1.0 0.0604073868
C  C105  1  0.87700000  0.78100000  0.62100000  1.0 0.0527665088
C  C106  1  0.17700000  0.72700000  0.77400000  1.0 -0.08799214
C  C107  1  0.18900000  0.61900000  0.85800000  1.0 -0.052609521
C  C108  1  0.10200000  0.71800000  0.80800000  1.0 -0.08799214
C  C109  1  0.29800000  0.85200000  0.55600000  1.0 -0.043027259
C  C110  1  0.56800000  0.84800000  0.56400000  1.0 0.0909485392
C  C111  1  0.23300000  0.13700000  0.41300000  1.0 -0.4496277776
C  C112  1  0.32700000  0.79100000  0.61600000  1.0 -0.1193988822
C  C113  1  0.22200000  0.78000000  0.68700000  1.0 -0.2593273467
C  C114  1  0.51600000  0.82400000  0.62700000  1.0 -0.2487943496
C  C115  1  0.62400000  0.82000000  0.62300000  1.0 -0.2411758048
C  C116  1  0.51900000  0.85100000  0.56600000  1.0 0.0810396613
C  C117  1  0.23900000  0.24500000  0.29600000  1.0 -0.4694968905
C  C118  1  0.33400000  0.70600000  0.72900000  1.0 -0.1596992068
C  C119  1  0.24700000  0.80500000  0.64300000  1.0 0.1001592491
C  C120  1  0.21400000  0.86600000  0.58100000  1.0 -0.1888922432
C  C121  1  0.24200000  0.88800000  0.53200000  1.0 -0.0808520104
C  C122  1  0.25500000  0.72500000  0.74500000  1.0 0.2317952964
C  C123  1  0.31500000  0.68300000  0.77500000  1.0 -0.2203344484
C  C124  1  0.00500000  0.73300000  0.70900000  1.0 0.2552963201
C  C125  1  0.90500000  0.79700000  0.67300000  1.0 0.1001592491
C  C126  1  0.97400000  0.77600000  0.71700000  1.0 -0.3106919076
C  C127  1  0.20100000  0.52500000  0.94100000  1.0 0.2111659799
C  C128  1  0.21000000  0.43600000  0.93200000  1.0 -0.1117714649
C  C129  1  0.81200000  0.80600000  0.58100000  1.0 -0.135986894
C  C130  1  0.77700000  0.84700000  0.58000000  1.0 -0.0111124592
C  C131  1  0.69000000  0.10600000  0.38900000  1.0 -0.4419893097
C  C132  1  0.26000000  0.73000000  0.99400000  1.0 -0.2879423644
C  C133  1  0.23800000  0.49200000  0.00800000  1.0 -0.2487943496
C  C134  1  0.22000000  0.76800000  0.92700000  1.0 0.2018205863
C  C135  1  0.18600000  0.49800000  0.90100000  1.0 -0.2203344484
C  C136  1  0.30500000  0.76300000  0.66700000  1.0 0.0695399614
C  C137  1  0.34200000  0.22400000  0.15800000  1.0 0.4820773307
C  C138  1  0.97700000  0.71100000  0.66900000  1.0 -0.230391495
C  C139  1  0.20800000  0.69600000  0.89800000  1.0 -0.052609521
C  C140  1  0.36300000  0.82500000  0.18000000  1.0 0.5019553755
C  C141  1  0.57300000  0.79300000  0.68800000  1.0 0.1304615492
C  C142  1  0.86900000  0.84100000  0.67500000  1.0 -0.1793731332
C  C143  1  0.91400000  0.73400000  0.62500000  1.0 -0.1117714649
C  C144  1  0.80000000  0.87000000  0.62400000  1.0 -0.0808520104
C  C145  1  0.58100000  0.21500000  0.26800000  1.0 -0.4496277776
C  C146  1  0.69600000  0.75400000  0.76200000  1.0 -0.420747464
C  C147  1  0.63300000  0.78700000  0.69100000  1.0 0.14884427
C  C148  1  0.19800000  0.82800000  0.89900000  1.0 -0.2654209431
C  C149  1  0.58500000  0.75900000  0.76300000  1.0 -0.420747464
C  C150  1  0.21900000  0.85900000  0.94300000  1.0 -0.1193988822
C  C151  1  0.61400000  0.70800000  0.30500000  1.0 -0.420747464
C  C152  1  0.71100000  0.72500000  0.39600000  1.0 -0.4419893097
C  C153  1  0.23000000  0.73800000  0.29800000  1.0 -0.4089820977
C  C154  1  0.22500000  0.75100000  0.41800000  1.0 -0.420747464
C  C155  1  0.22200000  0.06600000  0.92000000  1.0 -0.4276235199
C  C156  1  0.22200000  0.19800000  0.92000000  1.0 -0.4496277776
C  C157  1  0.52600000  0.82400000  0.32100000  1.0 0.1304615492
C  C158  1  0.57400000  0.83400000  0.36400000  1.0 0.14884427
C  C159  1  0.63370000  0.80370000  0.38900000  1.0 -0.2411758048
C  C160  1  0.64600000  0.76200000  0.37100000  1.0 0.1402316097
C  C161  1  0.59700000  0.75100000  0.32800000  1.0 0.1304615492
C  C162  1  0.53700000  0.78300000  0.30300000  1.0 -0.2411758048
C  C163  1  0.32300000  0.84300000  0.37200000  1.0 0.1304615492
C  C164  1  0.29100000  0.81500000  0.40200000  1.0 -0.2487943496
C  C165  1  0.26300000  0.77900000  0.38100000  1.0 0.1102485406
C  C166  1  0.26600000  0.77000000  0.33000000  1.0 0.0909485392
C  C167  1  0.29700000  0.79900000  0.30100000  1.0 -0.2203344484
C  C168  1  0.32500000  0.83500000  0.32100000  1.0 0.1198843391
C  C169  1  0.31900000  0.07500000  0.11100000  1.0 0.1304615492
C  C170  1  0.28400000  0.13000000  0.04400000  1.0 -0.2411758048
C  C171  1  0.25700000  0.12900000  0.98200000  1.0 0.1198843391
C  C172  1  0.26500000  0.07300000  0.98700000  1.0 0.1198843391
C  C173  1  0.30000000  0.01800000  0.05400000  1.0 -0.2593273467
C  C174  1  0.32700000  0.01900000  0.11600000  1.0 0.14884427
C  C175  1  0.70600000  0.87200000  0.53300000  1.0 0.5423000757
C  C176  1  0.31900000  0.10300000  0.30900000  1.0 0.1402316097
C  C177  1  0.32000000  0.05400000  0.36400000  1.0 0.0909485392
C  C178  1  0.29400000  0.06400000  0.39800000  1.0 -0.2203344484
C  C179  1  0.26600000  0.12400000  0.37700000  1.0 0.1402316097
C  C180  1  0.26500000  0.17300000  0.32200000  1.0 0.1102485406
C  C181  1  0.29140000  0.16340000  0.28800000  1.0 -0.230391495
C  C182  1  0.31200000  0.29600000  0.11900000  1.0 0.0081318543
C  C183  1  0.32400000  0.32400000  0.15700000  1.0 -0.1015018469
C  C184  1  0.30000000  0.38800000  0.12200000  1.0 -0.1497075237
C  C185  1  0.26500000  0.42500000  0.04700000  1.0 0.1001592491
C  C186  1  0.25300000  0.39700000  0.00800000  1.0 0.0604073868
C  C187  1  0.27700000  0.33300000  0.04400000  1.0 -0.1596992068
C  C188  1  0.33400000  0.79800000  0.13000000  1.0 0.0081318543
C  C189  1  0.28900000  0.83700000  0.05700000  1.0 -0.1596992068
C  C190  1  0.26500000  0.81300000  0.01500000  1.0 0.0604073868
C  C191  1  0.28800000  0.75000000  0.04600000  1.0 0.0909485392
C  C192  1  0.33300000  0.71100000  0.11900000  1.0 -0.1699990477
C  C193  1  0.35700000  0.73500000  0.16100000  1.0 -0.08799214
C  C194  1  0.33300000  0.87500000  0.52000000  1.0 0.5137352649
C  C195  1  0.51170000  0.09170000  0.29700000  1.0 0.0909485392
C  C196  1  0.51700000  0.14900000  0.26800000  1.0 -0.2203344484
C  C197  1  0.57390000  0.15390000  0.29600000  1.0 0.0909485392
C  C198  1  0.62600000  0.10200000  0.35300000  1.0 0.1198843391
C  C199  1  0.62200000  0.04400000  0.38300000  1.0 -0.230391495
C  C200  1  0.56480000  0.03880000  0.35400000  1.0 0.1102485406
C  C201  1  0.69000000  0.17000000  0.16400000  1.0 0.0604073868
C  C202  1  0.78100000  0.87700000  0.37900000  1.0 0.0527665088
C  C203  1  0.72700000  0.17700000  0.22600000  1.0 -0.08799214
C  C204  1  0.61900000  0.18900000  0.14200000  1.0 -0.052609521
C  C205  1  0.71800000  0.10200000  0.19200000  1.0 -0.08799214
C  C206  1  0.85200000  0.29800000  0.44400000  1.0 -0.043027259
C  C207  1  0.84800000  0.56800000  0.43600000  1.0 0.0909485392
C  C208  1  0.13700000  0.23300000  0.58700000  1.0 -0.4496277776
C  C209  1  0.79100000  0.32700000  0.38400000  1.0 -0.1193988822
C  C210  1  0.78000000  0.22200000  0.31300000  1.0 -0.2593273467
C  C211  1  0.82400000  0.51600000  0.37300000  1.0 -0.2487943496
C  C212  1  0.82000000  0.62400000  0.37700000  1.0 -0.2411758048
C  C213  1  0.85100000  0.51900000  0.43400000  1.0 0.0810396613
C  C214  1  0.24500000  0.23900000  0.70400000  1.0 -0.4694968905
C  C215  1  0.70600000  0.33400000  0.27100000  1.0 -0.1596992068
C  C216  1  0.80500000  0.24700000  0.35700000  1.0 0.1001592491
C  C217  1  0.86600000  0.21400000  0.41900000  1.0 -0.1888922432
C  C218  1  0.88800000  0.24200000  0.46800000  1.0 -0.0808520104
C  C219  1  0.72500000  0.25500000  0.25500000  1.0 0.2317952964
C  C220  1  0.68300000  0.31500000  0.22500000  1.0 -0.2203344484
C  C221  1  0.73300000  0.00500000  0.29100000  1.0 0.2544845347
C  C222  1  0.79700000  0.90500000  0.32700000  1.0 0.1001592491
C  C223  1  0.77600000  0.97400000  0.28300000  1.0 -0.3106919076
C  C224  1  0.52500000  0.20100000  0.05900000  1.0 0.2111659799
C  C225  1  0.43600000  0.21000000  0.06800000  1.0 -0.1117714649
C  C226  1  0.80600000  0.81200000  0.41900000  1.0 -0.135986894
C  C227  1  0.84700000  0.77700000  0.42000000  1.0 -0.0111124592
C  C228  1  0.10600000  0.69000000  0.61100000  1.0 -0.4419893097
C  C229  1  0.73000000  0.26000000  0.00600000  1.0 -0.2879423644
C  C230  1  0.49200000  0.23800000  0.99200000  1.0 -0.2487943496
C  C231  1  0.76800000  0.22000000  0.07300000  1.0 0.2018205863
C  C232  1  0.49800000  0.18600000  0.09900000  1.0 -0.2203344484
C  C233  1  0.76300000  0.30500000  0.33300000  1.0 0.0695399614
C  C234  1  0.22400000  0.34200000  0.84200000  1.0 0.4820773307
C  C235  1  0.71100000  0.97700000  0.33100000  1.0 -0.230391495
C  C236  1  0.69600000  0.20800000  0.10200000  1.0 -0.052609521
C  C237  1  0.82500000  0.36300000  0.82000000  1.0 0.5019553755
C  C238  1  0.79300000  0.57300000  0.31200000  1.0 0.1304615492
C  C239  1  0.84100000  0.86900000  0.32500000  1.0 -0.1793731332
C  C240  1  0.73400000  0.91400000  0.37500000  1.0 -0.1117714649
C  C241  1  0.87000000  0.80000000  0.37600000  1.0 -0.0808520104
C  C242  1  0.21500000  0.58100000  0.73200000  1.0 -0.4496277776
C  C243  1  0.75400000  0.69600000  0.23800000  1.0 -0.420747464
C  C244  1  0.78700000  0.63300000  0.30900000  1.0 0.14884427
C  C245  1  0.82800000  0.19800000  0.10100000  1.0 -0.2654209431
C  C246  1  0.75900000  0.58500000  0.23700000  1.0 -0.420747464
C  C247  1  0.85900000  0.21900000  0.05700000  1.0 -0.1193988822
C  C248  1  0.70800000  0.61400000  0.69500000  1.0 -0.420747464
C  C249  1  0.72500000  0.71100000  0.60400000  1.0 -0.4419893097
C  C250  1  0.73800000  0.23000000  0.70200000  1.0 -0.4089820977
C  C251  1  0.75100000  0.22500000  0.58200000  1.0 -0.420747464
C  C252  1  0.06600000  0.22200000  0.08000000  1.0 -0.420747464
C  C253  1  0.19800000  0.22200000  0.08000000  1.0 -0.4496277776
C  C254  1  0.82400000  0.52600000  0.67900000  1.0 0.1304615492
C  C255  1  0.83400000  0.57400000  0.63600000  1.0 0.14884427
C  C256  1  0.80370000  0.63370000  0.61100000  1.0 -0.2411758048
C  C257  1  0.76200000  0.64600000  0.62900000  1.0 0.1402316097
C  C258  1  0.75100000  0.59700000  0.67200000  1.0 0.1304615492
C  C259  1  0.78300000  0.53700000  0.69700000  1.0 -0.2411758048
C  C260  1  0.84300000  0.32300000  0.62800000  1.0 0.1304615492
C  C261  1  0.81500000  0.29100000  0.59800000  1.0 -0.2487943496
C  C262  1  0.77900000  0.26300000  0.61900000  1.0 0.1102485406
C  C263  1  0.77000000  0.26600000  0.67000000  1.0 0.0909485392
C  C264  1  0.79900000  0.29700000  0.69900000  1.0 -0.2203344484
C  C265  1  0.83500000  0.32500000  0.67900000  1.0 0.1198843391
C  C266  1  0.07500000  0.31900000  0.88900000  1.0 0.1304615492
C  C267  1  0.13000000  0.28400000  0.95600000  1.0 -0.2411758048
C  C268  1  0.12900000  0.25700000  0.01800000  1.0 0.1304615492
C  C269  1  0.07300000  0.26500000  0.01300000  1.0 0.1198843391
C  C270  1  0.01800000  0.30000000  0.94600000  1.0 -0.2593273467
C  C271  1  0.01900000  0.32700000  0.88400000  1.0 0.14884427
C  C272  1  0.87200000  0.70600000  0.46700000  1.0 0.5423000757
C  C273  1  0.10300000  0.31900000  0.69100000  1.0 0.1402316097
C  C274  1  0.05400000  0.32000000  0.63600000  1.0 0.0909485392
C  C275  1  0.06400000  0.29400000  0.60200000  1.0 -0.2203344484
C  C276  1  0.12400000  0.26600000  0.62300000  1.0 0.1402316097
C  C277  1  0.17300000  0.26500000  0.67800000  1.0 0.1198843391
C  C278  1  0.16340000  0.29140000  0.71200000  1.0 -0.230391495
C  C279  1  0.29600000  0.31200000  0.88100000  1.0 0.0081318543
C  C280  1  0.32400000  0.32400000  0.84300000  1.0 -0.1015018469
C  C281  1  0.38800000  0.30000000  0.87800000  1.0 -0.1497075237
C  C282  1  0.42500000  0.26500000  0.95300000  1.0 0.1001592491
C  C283  1  0.39700000  0.25300000  0.99200000  1.0 0.0604073868
C  C284  1  0.33300000  0.27700000  0.95600000  1.0 -0.1596992068
C  C285  1  0.79800000  0.33400000  0.87000000  1.0 0.0081318543
C  C286  1  0.83700000  0.28900000  0.94300000  1.0 -0.1596992068
C  C287  1  0.81300000  0.26500000  0.98500000  1.0 0.0527665088
C  C288  1  0.75000000  0.28800000  0.95400000  1.0 0.1001592491
C  C289  1  0.71100000  0.33300000  0.88100000  1.0 -0.1699990477
C  C290  1  0.73500000  0.35700000  0.83900000  1.0 -0.08799214
C  C291  1  0.87500000  0.33300000  0.48000000  1.0 0.5137352649
C  C292  1  0.09170000  0.51170000  0.70300000  1.0 0.0909485392
C  C293  1  0.14900000  0.51700000  0.73200000  1.0 -0.2203344484
C  C294  1  0.15390000  0.57390000  0.70400000  1.0 0.0909485392
C  C295  1  0.10200000  0.62600000  0.64700000  1.0 0.1198843391
C  C296  1  0.04400000  0.62200000  0.61700000  1.0 -0.230391495
C  C297  1  0.03880000  0.56480000  0.64600000  1.0 0.1102485406
N  N1  1  0.34000000  0.34000000  0.50000000  1.0 -0.0808520104
N  N2  1  0.35500000  0.36100000  0.54300000  1.0 -0.1497075237
N  N3  1  0.36100000  0.35500000  0.45700000  1.0 -0.1497075237
N  N4  1  0.16400000  0.36600000  0.46800000  1.0 -0.1699990477
N  N5  1  0.36600000  0.16400000  0.53200000  1.0 -0.1699990477
N  N6  1  0.22400000  0.34600000  0.50400000  1.0 -0.052609521
N  N7  1  0.34600000  0.22400000  0.49600000  1.0 -0.052609521
N  N8  1  0.24500000  0.36500000  0.55100000  1.0 -0.2203344484
N  N9  1  0.36500000  0.24500000  0.44900000  1.0 -0.2203344484
N  N10  1  0.36000000  0.24800000  0.66100000  1.0 -0.1793731332
N  N11  1  0.24800000  0.36000000  0.33900000  1.0 -0.1793731332
N  N12  1  0.34200000  0.22800000  0.61600000  1.0 -0.0282463092
N  N13  1  0.22800000  0.34200000  0.38400000  1.0 -0.0282463092
N  N14  1  0.22500000  0.22500000  0.50000000  1.0 -0.0181706019
N  N15  1  0.16500000  0.24900000  0.45800000  1.0 -0.1793731332
N  N16  1  0.24900000  0.16500000  0.54200000  1.0 -0.1793731332
N  N17  1  0.35900000  0.17100000  0.65200000  1.0 -0.1311388099
N  N18  1  0.17100000  0.35900000  0.34800000  1.0 -0.1311388099
N  N19  1  0.37700000  0.89300000  0.34300000  1.0 -0.0111124592
N  N20  1  0.37000000  0.01600000  0.33400000  1.0 -0.0111124592
N  N21  1  0.35000000  0.07800000  0.29100000  1.0 -0.2085377138
N  N22  1  0.35300000  0.06700000  0.17700000  1.0 -0.230391495
N  N23  1  0.37500000  0.00500000  0.21700000  1.0 -0.0181706019
N  N24  1  0.49200000  0.00600000  0.33200000  1.0 0.0285205659
N  N25  1  0.55400000  0.98400000  0.37700000  1.0 -0.2487943496
N  N26  1  0.55500000  0.86700000  0.37900000  1.0 -0.1888922432
N  N27  1  0.49200000  0.89000000  0.33800000  1.0 -0.0690367963
N  N28  1  0.55200000  0.87800000  0.49400000  1.0 -0.2085377138
N  N29  1  0.49100000  0.89900000  0.45600000  1.0 -0.0111124592
N  N30  1  0.35300000  0.99900000  0.37900000  1.0 -0.1793731332
N  N31  1  0.47500000  0.86100000  0.30100000  1.0 -0.2085377138
N  N32  1  0.36200000  0.86600000  0.30400000  1.0 -0.2411758048
N  N33  1  0.35100000  0.88300000  0.38100000  1.0 -0.2203344484
N  N34  1  0.46500000  0.88300000  0.49400000  1.0 -0.230391495
N  N35  1  0.36000000  0.97200000  0.18400000  1.0 -0.2411758048
N  N36  1  0.47000000  0.06000000  0.28400000  1.0 -0.1311388099
N  N37  1  0.89300000  0.37700000  0.65700000  1.0 -0.0111124592
N  N38  1  0.01600000  0.37000000  0.66600000  1.0 -0.0111124592
N  N39  1  0.07800000  0.35000000  0.70900000  1.0 -0.2085377138
N  N40  1  0.06700000  0.35300000  0.82300000  1.0 -0.230391495
N  N41  1  0.00500000  0.37500000  0.78300000  1.0 -0.0181706019
N  N42  1  0.00600000  0.49200000  0.66800000  1.0 0.0285205659
N  N43  1  0.98400000  0.55400000  0.62300000  1.0 -0.2487943496
N  N44  1  0.86700000  0.55500000  0.62100000  1.0 -0.1888922432
N  N45  1  0.89000000  0.49200000  0.66200000  1.0 -0.0690367963
N  N46  1  0.87800000  0.55200000  0.50600000  1.0 -0.2085377138
N  N47  1  0.89900000  0.49100000  0.54400000  1.0 -0.0111124592
N  N48  1  0.99900000  0.35300000  0.62100000  1.0 -0.1793731332
N  N49  1  0.86100000  0.47500000  0.69900000  1.0 -0.2085377138
N  N50  1  0.86600000  0.36200000  0.69600000  1.0 -0.2411758048
N  N51  1  0.88300000  0.35100000  0.61900000  1.0 -0.2203344484
N  N52  1  0.88300000  0.46500000  0.50600000  1.0 -0.2203344484
N  N53  1  0.97200000  0.36000000  0.81600000  1.0 -0.2411758048
N  N54  1  0.06000000  0.47000000  0.71600000  1.0 -0.1311388099
O  O1  1  0.03500000  0.38700000  0.31200000  1.0 -0.4496277776
O  O2  1  0.38700000  0.03500000  0.68800000  1.0 -0.4496277776
O  O3  1  0.03200000  0.34600000  0.40300000  1.0 -0.4694968905
O  O4  1  0.34600000  0.03200000  0.59700000  1.0 -0.4694968905
O  O5  1  0.44000000  0.32600000  0.71500000  1.0 -0.4960745122
O  O6  1  0.32600000  0.44000000  0.28500000  1.0 -0.4960745122
O  O7  1  0.65200000  0.53400000  0.03200000  1.0 -0.1888922432
O  O8  1  0.53400000  0.65200000  0.96800000  1.0 -0.1888922432
O  O9  1  0.48200000  0.53000000  0.91400000  1.0 -0.2085377138
O  O10  1  0.53000000  0.48200000  0.08600000  1.0 -0.2085377138
O  O11  1  0.34300000  0.38700000  0.66000000  1.0 -0.4496277776
O  O12  1  0.38700000  0.34300000  0.34000000  1.0 -0.4496277776
O  O13  1  0.17700000  0.58900000  0.90900000  1.0 -0.1793731332
O  O14  1  0.06800000  0.70600000  0.75500000  1.0 -0.1888922432
O  O15  1  0.23600000  0.69800000  0.79400000  1.0 -0.2085377138
O  O16  1  0.37600000  0.84000000  0.54200000  1.0 -0.3877901729
O  O17  1  0.37200000  0.20000000  0.22200000  1.0 -0.477548569
O  O18  1  0.32900000  0.20100000  0.12400000  1.0 -0.457300752
O  O19  1  0.34300000  0.87100000  0.15900000  1.0 -0.3720550533
O  O20  1  0.40000000  0.77400000  0.25000000  1.0 -0.577214032
O  O21  1  0.19100000  0.75500000  0.87700000  1.0 -0.1497075237
O  O22  1  0.29500000  0.92300000  0.46400000  1.0 -0.4419893097
O  O23  1  0.67600000  0.91000000  0.53700000  1.0 -0.5390164848
O  O24  1  0.68400000  0.85800000  0.48600000  1.0 -0.5476458367
O  O25  1  0.58900000  0.17700000  0.09100000  1.0 -0.1793731332
O  O26  1  0.70600000  0.06800000  0.24500000  1.0 -0.1888922432
O  O27  1  0.69800000  0.23600000  0.20600000  1.0 -0.2085377138
O  O28  1  0.84000000  0.37600000  0.45800000  1.0 -0.3877901729
O  O29  1  0.20000000  0.37200000  0.77800000  1.0 -0.477548569
O  O30  1  0.20100000  0.32900000  0.87600000  1.0 -0.457300752
O  O31  1  0.87100000  0.34300000  0.84100000  1.0 -0.3720550533
O  O32  1  0.77400000  0.40000000  0.75000000  1.0 -0.577214032
O  O33  1  0.75500000  0.19100000  0.12300000  1.0 -0.1497075237
O  O34  1  0.92300000  0.29500000  0.53600000  1.0 -0.4419893097
O  O35  1  0.91000000  0.67600000  0.46300000  1.0 -0.5390164848
O  O36  1  0.85800000  0.68400000  0.51400000  1.0 -0.5476458367
