# DDEC6 charges by PACMAN v1.1 (https://github.com/mtap-research/PACMAN-charge/)
data_FEBPUY_ASR_pacman
_symmetry_space_group_name_H-M   'P 1'
_cell_length_a   13.66800000
_cell_length_b   17.52500000
_cell_length_c   19.05900000
_cell_angle_alpha   90.00000000
_cell_angle_beta   90.00000000
_cell_angle_gamma   90.00000000
_symmetry_Int_Tables_number   1
_chemical_formula_structural   Cu3H12C28(NO4)4
_chemical_formula_sum   'Cu12 H48 C112 N16 O64'
_cell_volume   4565.23467030
_cell_formula_units_Z   4
loop_
 _symmetry_equiv_pos_site_id
 _symmetry_equiv_pos_as_xyz
  1  'x, y, z'
loop_
 _atom_site_type_symbol
 _atom_site_label
 _atom_site_symmetry_multiplicity
 _atom_site_fract_x
 _atom_site_fract_y
 _atom_site_fract_z
 _atom_site_occupancy
 _atom_site_charge
Cu  Cu1  1  0.43001000  0.13977000  0.60977000  1.0 0.7639135062
Cu  Cu2  1  0.06999000  0.86023000  0.10977000  1.0 0.7639135062
Cu  Cu3  1  0.56999000  0.63977000  0.89023000  1.0 0.7639135062
Cu  Cu4  1  0.93001000  0.36023000  0.39023000  1.0 0.7652772095
Cu  Cu5  1  0.56999000  0.86023000  0.39023000  1.0 0.7639135062
Cu  Cu6  1  0.93001000  0.13977000  0.89023000  1.0 0.7639135062
Cu  Cu7  1  0.43001000  0.36023000  0.10977000  1.0 0.7639135062
Cu  Cu8  1  0.06999000  0.63977000  0.60977000  1.0 0.7639135062
Cu  Cu9  1  0.50000000  0.00000000  0.00000000  1.0 0.9471611406
Cu  Cu10  1  0.00000000  0.00000000  0.50000000  1.0 0.9471611406
Cu  Cu11  1  0.50000000  0.50000000  0.50000000  1.0 0.9471611406
Cu  Cu12  1  0.00000000  0.50000000  0.00000000  1.0 0.9471611406
H  H1  1  0.73280000  0.07760000  0.90460000  1.0 0.1311834909
H  H2  1  0.76720000  0.92240000  0.40460000  1.0 0.1311834909
H  H3  1  0.26720000  0.57760000  0.59540000  1.0 0.1311834909
H  H4  1  0.23280000  0.42240000  0.09540000  1.0 0.1311834909
H  H5  1  0.26720000  0.92240000  0.09540000  1.0 0.1311834909
H  H6  1  0.23280000  0.07760000  0.59540000  1.0 0.1311834909
H  H7  1  0.73280000  0.42240000  0.40460000  1.0 0.1311834909
H  H8  1  0.76720000  0.57760000  0.90460000  1.0 0.1311834909
H  H9  1  0.75320000  0.09120000  0.66666667  1.0 0.1508326574
H  H10  1  0.74680000  0.90880000  0.16667000  1.0 0.1508326574
H  H11  1  0.24680000  0.59120000  0.83333000  1.0 0.1508326574
H  H12  1  0.25320000  0.40880000  0.33333333  1.0 0.1508326574
H  H13  1  0.24680000  0.90880000  0.33333333  1.0 0.1508326574
H  H14  1  0.25320000  0.09120000  0.83333000  1.0 0.1508326574
H  H15  1  0.75320000  0.40880000  0.16667000  1.0 0.1508326574
H  H16  1  0.74680000  0.59120000  0.66666667  1.0 0.1508326574
H  H17  1  0.88320000  0.12400000  0.73590000  1.0 0.1311834909
H  H18  1  0.61680000  0.87600000  0.23590000  1.0 0.1311834909
H  H19  1  0.11680000  0.62400000  0.76410000  1.0 0.1311834909
H  H20  1  0.38320000  0.37600000  0.26410000  1.0 0.1311834909
H  H21  1  0.11680000  0.87600000  0.26410000  1.0 0.1311834909
H  H22  1  0.38320000  0.12400000  0.76410000  1.0 0.1311834909
H  H23  1  0.88320000  0.37600000  0.23590000  1.0 0.1311834909
H  H24  1  0.61680000  0.62400000  0.73590000  1.0 0.1311834909
H  H25  1  0.11360000  0.08320000  0.93990000  1.0 0.1196525793
H  H26  1  0.38640000  0.91680000  0.43990000  1.0 0.1196525793
H  H27  1  0.88640000  0.58320000  0.56010000  1.0 0.1196525793
H  H28  1  0.61360000  0.41680000  0.06010000  1.0 0.1196525793
H  H29  1  0.88640000  0.91680000  0.06010000  1.0 0.1196525793
H  H30  1  0.61360000  0.08320000  0.56010000  1.0 0.1196525793
H  H31  1  0.11360000  0.41680000  0.43990000  1.0 0.1196525793
H  H32  1  0.38640000  0.58320000  0.93990000  1.0 0.1196525793
H  H33  1  0.13580000  0.32490000  0.02640000  1.0 0.1508326574
H  H34  1  0.36420000  0.67510000  0.52640000  1.0 0.1508326574
H  H35  1  0.86420000  0.82490000  0.47360000  1.0 0.1508326574
H  H36  1  0.63580000  0.17510000  0.97360000  1.0 0.1508326574
H  H37  1  0.86420000  0.67510000  0.97360000  1.0 0.1508326574
H  H38  1  0.63580000  0.32490000  0.47360000  1.0 0.1508326574
H  H39  1  0.13580000  0.17510000  0.52640000  1.0 0.1508326574
H  H40  1  0.36420000  0.82490000  0.02640000  1.0 0.1508326574
H  H41  1  0.99930000  0.28490000  0.96790000  1.0 0.1423635024
H  H42  1  0.50070000  0.71510000  0.46790000  1.0 0.1423635024
H  H43  1  0.00070000  0.78490000  0.53210000  1.0 0.1423635024
H  H44  1  0.49930000  0.21510000  0.03210000  1.0 0.1423635024
H  H45  1  0.00070000  0.71510000  0.03210000  1.0 0.1423635024
H  H46  1  0.49930000  0.28490000  0.53210000  1.0 0.1423635024
H  H47  1  0.99930000  0.21510000  0.46790000  1.0 0.1423635024
H  H48  1  0.50070000  0.78490000  0.96790000  1.0 0.1423635024
C  C1  1  0.73560000  0.08211000  0.85602000  1.0 0.0875265726
C  C2  1  0.76440000  0.91789000  0.35602000  1.0 0.0875265726
C  C3  1  0.26440000  0.58211000  0.64398000  1.0 0.0875265726
C  C4  1  0.23560000  0.41789000  0.14398000  1.0 0.0875265726
C  C5  1  0.26440000  0.91789000  0.14398000  1.0 0.0875265726
C  C6  1  0.23560000  0.08211000  0.64398000  1.0 0.0875265726
C  C7  1  0.73560000  0.41789000  0.35602000  1.0 0.0875265726
C  C8  1  0.76440000  0.58211000  0.85602000  1.0 0.0875265726
C  C9  1  0.65250000  0.06405000  0.81799000  1.0 -0.0672459875
C  C10  1  0.84750000  0.93595000  0.31799000  1.0 -0.0672459875
C  C11  1  0.34750000  0.56405000  0.68201000  1.0 -0.0672459875
C  C12  1  0.15250000  0.43595000  0.18201000  1.0 -0.0672459875
C  C13  1  0.34750000  0.93595000  0.18201000  1.0 -0.0672459875
C  C14  1  0.15250000  0.06405000  0.68201000  1.0 -0.0672459875
C  C15  1  0.65250000  0.43595000  0.31799000  1.0 -0.0672459875
C  C16  1  0.84750000  0.56405000  0.81799000  1.0 -0.0672459875
C  C17  1  0.56180000  0.04040000  0.85782000  1.0 0.5811396565
C  C18  1  0.93820000  0.95960000  0.35782000  1.0 0.5811396565
C  C19  1  0.43820000  0.54040000  0.64218000  1.0 0.5811396565
C  C20  1  0.06180000  0.45960000  0.14218000  1.0 0.5811396565
C  C21  1  0.43820000  0.95960000  0.14218000  1.0 0.5811396565
C  C22  1  0.06180000  0.04040000  0.64218000  1.0 0.5811396565
C  C23  1  0.56180000  0.45960000  0.35782000  1.0 0.5811396565
C  C24  1  0.93820000  0.54040000  0.85782000  1.0 0.5811396565
C  C25  1  0.65760000  0.06804000  0.74465000  1.0 0.0484346102
C  C26  1  0.84240000  0.93196000  0.24465000  1.0 0.0484346102
C  C27  1  0.34240000  0.56804000  0.75535000  1.0 0.0484346102
C  C28  1  0.15760000  0.43196000  0.25535000  1.0 0.0484346102
C  C29  1  0.34240000  0.93196000  0.25535000  1.0 0.0484346102
C  C30  1  0.15760000  0.06804000  0.75535000  1.0 0.0484346102
C  C31  1  0.65760000  0.43196000  0.24465000  1.0 0.0484346102
C  C32  1  0.84240000  0.56804000  0.74465000  1.0 0.0484346102
C  C33  1  0.57230000  0.05680000  0.69495000  1.0 0.5513391297
C  C34  1  0.92770000  0.94320000  0.19495000  1.0 0.5513391297
C  C35  1  0.42770000  0.55680000  0.80505000  1.0 0.5513391297
C  C36  1  0.07230000  0.44320000  0.30505000  1.0 0.5513391297
C  C37  1  0.42770000  0.94320000  0.30505000  1.0 0.5513391297
C  C38  1  0.07230000  0.05680000  0.80505000  1.0 0.5513391297
C  C39  1  0.57230000  0.44320000  0.19495000  1.0 0.5513391297
C  C40  1  0.92770000  0.55680000  0.69495000  1.0 0.5513391297
C  C41  1  0.74660000  0.08960000  0.71525000  1.0 -0.1280137424
C  C42  1  0.75340000  0.91040000  0.21525000  1.0 -0.1280137424
C  C43  1  0.25340000  0.58960000  0.78475000  1.0 -0.1280137424
C  C44  1  0.24660000  0.41040000  0.28475000  1.0 -0.1280137424
C  C45  1  0.25340000  0.91040000  0.28475000  1.0 -0.1280137424
C  C46  1  0.24660000  0.08960000  0.78475000  1.0 -0.1280137424
C  C47  1  0.74660000  0.41040000  0.21525000  1.0 -0.1280137424
C  C48  1  0.75340000  0.58960000  0.71525000  1.0 -0.1280137424
C  C49  1  0.82500000  0.10870000  0.75688000  1.0 0.1078185316
C  C50  1  0.67500000  0.89130000  0.25688000  1.0 0.1078185316
C  C51  1  0.17500000  0.60870000  0.74312000  1.0 0.1078185316
C  C52  1  0.32500000  0.39130000  0.24312000  1.0 0.1078185316
C  C53  1  0.17500000  0.89130000  0.24312000  1.0 0.1078185316
C  C54  1  0.32500000  0.10870000  0.74312000  1.0 0.1078185316
C  C55  1  0.82500000  0.39130000  0.25688000  1.0 0.1078185316
C  C56  1  0.67500000  0.60870000  0.75688000  1.0 0.1078185316
C  C57  1  0.11870000  0.13250000  0.95771000  1.0 0.0588347495
C  C58  1  0.38130000  0.86750000  0.45771000  1.0 0.0588347495
C  C59  1  0.88130000  0.63250000  0.54229000  1.0 0.0588347495
C  C60  1  0.61870000  0.36750000  0.04229000  1.0 0.0588347495
C  C61  1  0.88130000  0.86750000  0.04229000  1.0 0.0588347495
C  C62  1  0.61870000  0.13250000  0.54229000  1.0 0.0588347495
C  C63  1  0.11870000  0.36750000  0.45771000  1.0 0.0588347495
C  C64  1  0.38130000  0.63250000  0.95771000  1.0 0.0588347495
C  C65  1  0.20360000  0.15170000  0.99374000  1.0 -0.0386336625
C  C66  1  0.29640000  0.84830000  0.49374000  1.0 -0.0386336625
C  C67  1  0.79640000  0.65170000  0.50626000  1.0 -0.0386336625
C  C68  1  0.70360000  0.34830000  0.00626000  1.0 -0.0386336625
C  C69  1  0.79640000  0.84830000  0.00626000  1.0 -0.0386336625
C  C70  1  0.70360000  0.15170000  0.50626000  1.0 -0.0386336625
C  C71  1  0.20360000  0.34830000  0.49374000  1.0 -0.0386336625
C  C72  1  0.29640000  0.65170000  0.99374000  1.0 -0.0386336625
C  C73  1  0.28310000  0.09120000  0.99696000  1.0 0.5618338089
C  C74  1  0.21690000  0.90880000  0.49696000  1.0 0.5618338089
C  C75  1  0.71690000  0.59120000  0.50304000  1.0 0.5618338089
C  C76  1  0.78310000  0.40880000  0.00304000  1.0 0.5618338089
C  C77  1  0.71690000  0.90880000  0.00304000  1.0 0.5618338089
C  C78  1  0.78310000  0.09120000  0.50304000  1.0 0.5618338089
C  C79  1  0.28310000  0.40880000  0.49696000  1.0 0.5618338089
C  C80  1  0.21690000  0.59120000  0.99696000  1.0 0.5618338089
C  C81  1  0.21100000  0.22580000  0.02048000  1.0 0.0358979951
C  C82  1  0.28900000  0.77420000  0.52048000  1.0 0.0358979951
C  C83  1  0.78900000  0.72580000  0.47952000  1.0 0.0358979951
C  C84  1  0.71100000  0.27420000  0.97952000  1.0 0.0348281662
C  C85  1  0.78900000  0.77420000  0.97952000  1.0 0.0358979951
C  C86  1  0.71100000  0.22580000  0.47952000  1.0 0.0358979951
C  C87  1  0.21100000  0.27420000  0.52048000  1.0 0.0348281662
C  C88  1  0.28900000  0.72580000  0.02048000  1.0 0.0358979951
C  C89  1  0.29660000  0.25240000  0.06544000  1.0 0.5513391297
C  C90  1  0.20340000  0.74760000  0.56544000  1.0 0.5513391297
C  C91  1  0.70340000  0.75240000  0.43456000  1.0 0.5513391297
C  C92  1  0.79660000  0.24760000  0.93456000  1.0 0.5513391297
C  C93  1  0.70340000  0.74760000  0.93456000  1.0 0.5513391297
C  C94  1  0.79660000  0.25240000  0.43456000  1.0 0.5513391297
C  C95  1  0.29660000  0.24760000  0.56544000  1.0 0.5513391297
C  C96  1  0.20340000  0.75240000  0.06544000  1.0 0.5513391297
C  C97  1  0.13280000  0.27520000  0.00949000  1.0 -0.1280137424
C  C98  1  0.36720000  0.72480000  0.50949000  1.0 -0.1280137424
C  C99  1  0.86720000  0.77520000  0.49051000  1.0 -0.1280137424
C  C100  1  0.63280000  0.22480000  0.99051000  1.0 -0.1280137424
C  C101  1  0.86720000  0.72480000  0.99051000  1.0 -0.1280137424
C  C102  1  0.63280000  0.27520000  0.49051000  1.0 -0.1280137424
C  C103  1  0.13280000  0.22480000  0.50949000  1.0 -0.1280137424
C  C104  1  0.36720000  0.77520000  0.00949000  1.0 -0.1280137424
C  C105  1  0.05111000  0.25105000  0.97374000  1.0 0.0972424306
C  C106  1  0.44889000  0.74895000  0.47374000  1.0 0.0972424306
C  C107  1  0.94889000  0.75105000  0.52626000  1.0 0.0972424306
C  C108  1  0.55111000  0.24895000  0.02626000  1.0 0.0972424306
C  C109  1  0.94889000  0.74895000  0.02626000  1.0 0.0972424306
C  C110  1  0.55111000  0.25105000  0.52626000  1.0 0.0972424306
C  C111  1  0.05111000  0.24895000  0.47374000  1.0 0.0972424306
C  C112  1  0.44889000  0.75105000  0.97374000  1.0 0.0972424306
N  N1  1  0.81960000  0.10564000  0.82728000  1.0 -0.2059845843
N  N2  1  0.68040000  0.89436000  0.32728000  1.0 -0.2059845843
N  N3  1  0.18040000  0.60564000  0.67272000  1.0 -0.2059845843
N  N4  1  0.31960000  0.39436000  0.17272000  1.0 -0.2059845843
N  N5  1  0.18040000  0.89436000  0.17272000  1.0 -0.2059845843
N  N6  1  0.31960000  0.10564000  0.67272000  1.0 -0.2059845843
N  N7  1  0.81960000  0.39436000  0.32728000  1.0 -0.2059845843
N  N8  1  0.68040000  0.60564000  0.82728000  1.0 -0.2059845843
N  N9  1  0.04340000  0.18052000  0.94702000  1.0 -0.1997025956
N  N10  1  0.45660000  0.81948000  0.44702000  1.0 -0.1997025956
N  N11  1  0.95660000  0.68052000  0.55298000  1.0 -0.1997025956
N  N12  1  0.54340000  0.31948000  0.05298000  1.0 -0.1997025956
N  N13  1  0.95660000  0.81948000  0.05298000  1.0 -0.1997025956
N  N14  1  0.54340000  0.18052000  0.55298000  1.0 -0.1997025956
N  N15  1  0.04340000  0.31948000  0.44702000  1.0 -0.1997025956
N  N16  1  0.45660000  0.68052000  0.94702000  1.0 -0.1997025956
O  O1  1  0.52401000  0.11773000  0.68530000  1.0 -0.5218827848
O  O2  1  0.97599000  0.88227000  0.18530000  1.0 -0.5218827848
O  O3  1  0.47599000  0.61773000  0.81470000  1.0 -0.5218827848
O  O4  1  0.02401000  0.38227000  0.31470000  1.0 -0.5218827848
O  O5  1  0.47599000  0.88227000  0.31470000  1.0 -0.5218827848
O  O6  1  0.02401000  0.11773000  0.81470000  1.0 -0.5218827848
O  O7  1  0.52401000  0.38227000  0.18530000  1.0 -0.5218827848
O  O8  1  0.97599000  0.61773000  0.68530000  1.0 -0.5218827848
O  O9  1  0.56210000  0.99570000  0.66380000  1.0 -0.4715052562
O  O10  1  0.93790000  0.00430000  0.16380000  1.0 -0.4715052562
O  O11  1  0.43790000  0.49570000  0.83620000  1.0 -0.4715052562
O  O12  1  0.06210000  0.50430000  0.33620000  1.0 -0.4715052562
O  O13  1  0.43790000  0.00430000  0.33620000  1.0 -0.4715052562
O  O14  1  0.06210000  0.99570000  0.83620000  1.0 -0.4715052562
O  O15  1  0.56210000  0.50430000  0.16380000  1.0 -0.4715052562
O  O16  1  0.93790000  0.49570000  0.66380000  1.0 -0.4715052562
O  O17  1  0.56942000  0.04848000  0.92371000  1.0 -0.5355892454
O  O18  1  0.93058000  0.95152000  0.42371000  1.0 -0.5343071197
O  O19  1  0.43058000  0.54848000  0.57629000  1.0 -0.5343071197
O  O20  1  0.06942000  0.45152000  0.07629000  1.0 -0.5343071197
O  O21  1  0.43058000  0.95152000  0.07629000  1.0 -0.5343071197
O  O22  1  0.06942000  0.04848000  0.57629000  1.0 -0.5355892454
O  O23  1  0.56942000  0.45152000  0.42371000  1.0 -0.5343071197
O  O24  1  0.93058000  0.54848000  0.92371000  1.0 -0.5343071197
O  O25  1  0.49020000  0.01612000  0.82526000  1.0 -0.4510932241
O  O26  1  0.00980000  0.98388000  0.32526000  1.0 -0.4510932241
O  O27  1  0.50980000  0.51612000  0.67474000  1.0 -0.4510932241
O  O28  1  0.99020000  0.48388000  0.17474000  1.0 -0.4510932241
O  O29  1  0.50980000  0.98388000  0.17474000  1.0 -0.4510932241
O  O30  1  0.99020000  0.01612000  0.67474000  1.0 -0.4510932241
O  O31  1  0.49020000  0.48388000  0.32526000  1.0 -0.4510932241
O  O32  1  0.00980000  0.51612000  0.82526000  1.0 -0.4510932241
O  O33  1  0.33732000  0.31384000  0.04337000  1.0 -0.5017785069
O  O34  1  0.16268000  0.68616000  0.54337000  1.0 -0.5017785069
O  O35  1  0.66268000  0.81384000  0.45663000  1.0 -0.5017785069
O  O36  1  0.83732000  0.18616000  0.95663000  1.0 -0.5017785069
O  O37  1  0.66268000  0.68616000  0.95663000  1.0 -0.5017785069
O  O38  1  0.83732000  0.31384000  0.45663000  1.0 -0.5017785069
O  O39  1  0.33732000  0.18616000  0.54337000  1.0 -0.5017785069
O  O40  1  0.16268000  0.81384000  0.04337000  1.0 -0.5017785069
O  O41  1  0.31640000  0.21848000  0.11941000  1.0 -0.4715052562
O  O42  1  0.18360000  0.78152000  0.61941000  1.0 -0.4715052562
O  O43  1  0.68360000  0.71848000  0.38059000  1.0 -0.4763204132
O  O44  1  0.81640000  0.28152000  0.88059000  1.0 -0.4715052562
O  O45  1  0.68360000  0.78152000  0.88059000  1.0 -0.4715052562
O  O46  1  0.81640000  0.21848000  0.38059000  1.0 -0.4715052562
O  O47  1  0.31640000  0.28152000  0.61941000  1.0 -0.4715052562
O  O48  1  0.18360000  0.71848000  0.11941000  1.0 -0.4763204132
O  O49  1  0.25270000  0.02286000  0.99433000  1.0 -0.5017785069
O  O50  1  0.24730000  0.97714000  0.49433000  1.0 -0.5017785069
O  O51  1  0.74730000  0.52286000  0.50567000  1.0 -0.5017785069
O  O52  1  0.75270000  0.47714000  0.00567000  1.0 -0.5017785069
O  O53  1  0.74730000  0.97714000  0.00567000  1.0 -0.5017785069
O  O54  1  0.75270000  0.02286000  0.50567000  1.0 -0.5017785069
O  O55  1  0.25270000  0.47714000  0.49433000  1.0 -0.5017785069
O  O56  1  0.24730000  0.52286000  0.99433000  1.0 -0.5017785069
O  O57  1  0.36970000  0.11169000  0.99723000  1.0 -0.5218827848
O  O58  1  0.13030000  0.88831000  0.49723000  1.0 -0.5218827848
O  O59  1  0.63030000  0.61169000  0.50277000  1.0 -0.5218827848
O  O60  1  0.86970000  0.38831000  0.00277000  1.0 -0.5218827848
O  O61  1  0.63030000  0.88831000  0.00277000  1.0 -0.5218827848
O  O62  1  0.86970000  0.11169000  0.50277000  1.0 -0.5218827848
O  O63  1  0.36970000  0.38831000  0.49723000  1.0 -0.5218827848
O  O64  1  0.13030000  0.61169000  0.99723000  1.0 -0.5218827848
