# DDEC6 charges by PACMAN v1.1 (https://github.com/mtap-research/PACMAN-charge/)
data_FEBXER_ASR_pacman
_symmetry_space_group_name_H-M   'P 1'
_cell_length_a   17.52570000
_cell_length_b   17.52570000
_cell_length_c   49.18180000
_cell_angle_alpha   90.00000000
_cell_angle_beta   90.00000000
_cell_angle_gamma   119.97300000
_symmetry_Int_Tables_number   1
_chemical_formula_structural   CuP(C17O4)2
_chemical_formula_sum   'Cu6 P6 C204 O48'
_cell_volume   13085.90887880
_cell_formula_units_Z   6
loop_
 _symmetry_equiv_pos_site_id
 _symmetry_equiv_pos_as_xyz
  1  'x, y, z'
loop_
 _atom_site_type_symbol
 _atom_site_label
 _atom_site_symmetry_multiplicity
 _atom_site_fract_x
 _atom_site_fract_y
 _atom_site_fract_z
 _atom_site_occupancy
 _atom_site_charge
Cu  Cu1  1  0.45692000  0.91312000  0.66666667  1.0 0.8203581686
Cu  Cu2  1  0.54308000  0.08688000  0.66666667  1.0 0.8203581686
Cu  Cu3  1  0.08688000  0.54308000  0.33333333  1.0 0.7987005031
Cu  Cu4  1  0.91312000  0.45692000  0.33333333  1.0 0.8203581686
Cu  Cu5  1  0.54372000  0.45628000  0.00000000  1.0 0.8536828673
Cu  Cu6  1  0.45628000  0.54372000  0.00000000  1.0 0.8441337859
P  P1  1  0.00000000  0.00000000  0.59180000  1.0 1.4205933129
P  P2  1  0.00000000  0.00000000  0.40820000  1.0 1.4205933129
P  P3  1  0.00000000  0.00000000  0.74451000  1.0 1.2922678506
P  P4  1  0.00000000  0.00000000  0.25549000  1.0 1.2922678506
P  P5  1  0.00000000  0.00000000  0.07770000  1.0 1.3024997627
P  P6  1  0.00000000  0.00000000  0.92230000  1.0 1.3024997627
C  C1  1  0.33440000  0.98980000  0.60994000  1.0 -0.0412651167
C  C2  1  0.66560000  0.01020000  0.60994000  1.0 -0.0487176878
C  C3  1  0.01020000  0.66560000  0.39006000  1.0 -0.0487176878
C  C4  1  0.98980000  0.33440000  0.39006000  1.0 -0.0412651167
C  C5  1  0.27640000  0.90860000  0.59840000  1.0 0.0893751448
C  C6  1  0.72360000  0.09140000  0.59840000  1.0 0.0893751448
C  C7  1  0.09140000  0.72360000  0.40160000  1.0 0.0893751448
C  C8  1  0.90860000  0.27640000  0.40160000  1.0 0.0893751448
C  C9  1  0.22370000  0.90390000  0.57660000  1.0 -0.1620968416
C  C10  1  0.77630000  0.09610000  0.57660000  1.0 -0.1620968416
C  C11  1  0.09610000  0.77630000  0.42340000  1.0 -0.1660280908
C  C12  1  0.90390000  0.22370000  0.42340000  1.0 -0.1620968416
C  C13  1  0.22910000  0.98030000  0.56631000  1.0 0.0705135831
C  C14  1  0.77090000  0.01970000  0.56631000  1.0 0.0705135831
C  C15  1  0.01970000  0.77090000  0.43369000  1.0 0.0705135831
C  C16  1  0.98030000  0.22910000  0.43369000  1.0 0.0705135831
C  C17  1  0.28710000  0.06150000  0.57780000  1.0 -0.1417108063
C  C18  1  0.71290000  0.93850000  0.57780000  1.0 -0.1349722231
C  C19  1  0.93850000  0.71290000  0.42220000  1.0 -0.1417108063
C  C20  1  0.06150000  0.28710000  0.42220000  1.0 -0.1417108063
C  C21  1  0.33980000  0.06620000  0.59960000  1.0 0.0893751448
C  C22  1  0.66020000  0.93380000  0.59960000  1.0 0.0893751448
C  C23  1  0.93380000  0.66020000  0.40040000  1.0 0.0893751448
C  C24  1  0.06620000  0.33980000  0.40040000  1.0 0.0893751448
C  C25  1  0.35020000  0.34080000  0.94151000  1.0 -0.0299605345
C  C26  1  0.64980000  0.65920000  0.94151000  1.0 -0.0299605345
C  C27  1  0.65920000  0.64980000  0.05849000  1.0 -0.0299605345
C  C28  1  0.34080000  0.35020000  0.05849000  1.0 -0.0299605345
C  C29  1  0.36980000  0.27800000  0.93183000  1.0 0.07819018
C  C30  1  0.63020000  0.72200000  0.93183000  1.0 0.07819018
C  C31  1  0.72200000  0.63020000  0.06817000  1.0 0.0705135831
C  C32  1  0.27800000  0.36980000  0.06817000  1.0 0.0705135831
C  C33  1  0.31760000  0.21920000  0.91173000  1.0 -0.0905266876
C  C34  1  0.68240000  0.78080000  0.91173000  1.0 -0.0905266876
C  C35  1  0.78080000  0.68240000  0.08827000  1.0 -0.0905266876
C  C36  1  0.21920000  0.31760000  0.08827000  1.0 -0.0905266876
C  C37  1  0.24610000  0.22330000  0.90131000  1.0 0.0492802498
C  C38  1  0.75390000  0.77670000  0.90131000  1.0 0.0587269221
C  C39  1  0.77670000  0.75390000  0.09869000  1.0 0.0492802498
C  C40  1  0.22330000  0.24610000  0.09869000  1.0 0.0492802498
C  C41  1  0.22650000  0.28610000  0.91100000  1.0 -0.0487176878
C  C42  1  0.77350000  0.71390000  0.91100000  1.0 -0.0487176878
C  C43  1  0.71390000  0.77350000  0.08900000  1.0 -0.0487176878
C  C44  1  0.28610000  0.22650000  0.08900000  1.0 -0.0487176878
C  C45  1  0.27860000  0.34500000  0.93110000  1.0 0.07819018
C  C46  1  0.72140000  0.65500000  0.93110000  1.0 0.07819018
C  C47  1  0.65500000  0.72140000  0.06890000  1.0 0.07819018
C  C48  1  0.34500000  0.27860000  0.06890000  1.0 0.07819018
C  C49  1  0.34530000  0.01070000  0.72494000  1.0 -0.0299605345
C  C50  1  0.65470000  0.98930000  0.72494000  1.0 -0.0299605345
C  C51  1  0.98930000  0.65470000  0.27506000  1.0 -0.0299605345
C  C52  1  0.01070000  0.34530000  0.27506000  1.0 -0.0299605345
C  C53  1  0.36560000  0.09260000  0.73520000  1.0 0.0587269221
C  C54  1  0.63440000  0.90740000  0.73520000  1.0 0.0705135831
C  C55  1  0.90740000  0.63440000  0.26480000  1.0 0.0705135831
C  C56  1  0.09260000  0.36560000  0.26480000  1.0 0.0705135831
C  C57  1  0.31450000  0.09870000  0.75570000  1.0 -0.0905266876
C  C58  1  0.68550000  0.90130000  0.75570000  1.0 -0.1020910228
C  C59  1  0.90130000  0.68550000  0.24430000  1.0 -0.1020910228
C  C60  1  0.09870000  0.31450000  0.24430000  1.0 -0.1020910228
C  C61  1  0.24310000  0.02270000  0.76609000  1.0 0.07819018
C  C62  1  0.75690000  0.97730000  0.76609000  1.0 0.0893751448
C  C63  1  0.97730000  0.75690000  0.23391000  1.0 0.0893751448
C  C64  1  0.02270000  0.24310000  0.23391000  1.0 0.07819018
C  C65  1  0.22280000  0.94080000  0.75590000  1.0 -0.0779329448
C  C66  1  0.77720000  0.05920000  0.75590000  1.0 -0.0779329448
C  C67  1  0.05920000  0.77720000  0.24410000  1.0 -0.0779329448
C  C68  1  0.94080000  0.22280000  0.24410000  1.0 -0.0696316147
C  C69  1  0.27390000  0.93470000  0.73530000  1.0 0.07819018
C  C70  1  0.72610000  0.06530000  0.73530000  1.0 0.0705135831
C  C71  1  0.06530000  0.72610000  0.26470000  1.0 0.0705135831
C  C72  1  0.93470000  0.27390000  0.26470000  1.0 0.0705135831
C  C73  1  0.09540000  0.99700000  0.54570000  1.0 0.1777943624
C  C74  1  0.90460000  0.00300000  0.54570000  1.0 0.1777943624
C  C75  1  0.00300000  0.90460000  0.45430000  1.0 0.1777943624
C  C76  1  0.99700000  0.09540000  0.45430000  1.0 0.1777943624
C  C77  1  0.03700000  0.98360000  0.52470000  1.0 -0.0071355957
C  C78  1  0.96300000  0.01640000  0.52470000  1.0 -0.0071355957
C  C79  1  0.01640000  0.96300000  0.47530000  1.0 -0.0071355957
C  C80  1  0.98360000  0.03700000  0.47530000  1.0 -0.0071355957
C  C81  1  0.02810000  0.92810000  0.50320000  1.0 0.0389435116
C  C82  1  0.97190000  0.07190000  0.50320000  1.0 0.0389435116
C  C83  1  0.07190000  0.97190000  0.49680000  1.0 0.0389435116
C  C84  1  0.92810000  0.02810000  0.49680000  1.0 0.0389435116
C  C85  1  0.07740000  0.88600000  0.50280000  1.0 0.0296667136
C  C86  1  0.92260000  0.11400000  0.50280000  1.0 0.0296667136
C  C87  1  0.11400000  0.92260000  0.49720000  1.0 0.0205263308
C  C88  1  0.88600000  0.07740000  0.49720000  1.0 0.0205263308
C  C89  1  0.16950000  0.93150000  0.51870000  1.0 -0.0071355957
C  C90  1  0.83050000  0.06850000  0.51870000  1.0 -0.0025335615
C  C91  1  0.06850000  0.83050000  0.48130000  1.0 -0.0071355957
C  C92  1  0.93150000  0.16950000  0.48130000  1.0 -0.0071355957
C  C93  1  0.18280000  0.98980000  0.53970000  1.0 0.0492802498
C  C94  1  0.81720000  0.01020000  0.53970000  1.0 0.0492802498
C  C95  1  0.01020000  0.81720000  0.46030000  1.0 0.0492802498
C  C96  1  0.98980000  0.18280000  0.46030000  1.0 0.0492802498
C  C97  1  0.40960000  0.00100000  0.63510000  1.0 0.5986625617
C  C98  1  0.59040000  0.99900000  0.63510000  1.0 0.5986625617
C  C99  1  0.99900000  0.59040000  0.36490000  1.0 0.5986625617
C  C100  1  0.00100000  0.40960000  0.36490000  1.0 0.5986625617
C  C101  1  0.40540000  0.00180000  0.70100000  1.0 0.5639966762
C  C102  1  0.59460000  0.99820000  0.70100000  1.0 0.5713445461
C  C103  1  0.99820000  0.59460000  0.29900000  1.0 0.5639966762
C  C104  1  0.00180000  0.40540000  0.29900000  1.0 0.5713445461
C  C105  1  0.40520000  0.40480000  0.96707000  1.0 0.5713445461
C  C106  1  0.59480000  0.59520000  0.96707000  1.0 0.5639966762
C  C107  1  0.59520000  0.59480000  0.03293000  1.0 0.5639966762
C  C108  1  0.40480000  0.40520000  0.03293000  1.0 0.5639966762
C  C109  1  0.23850000  0.17450000  0.85143000  1.0 0.0074016242
C  C110  1  0.76150000  0.82550000  0.85143000  1.0 0.0074016242
C  C111  1  0.82550000  0.76150000  0.14857000  1.0 0.0032635764
C  C112  1  0.17450000  0.23850000  0.14857000  1.0 0.0074016242
C  C113  1  0.19500000  0.18660000  0.87314000  1.0 0.0389435116
C  C114  1  0.80500000  0.81340000  0.87314000  1.0 0.0389435116
C  C115  1  0.81340000  0.80500000  0.12686000  1.0 0.0389435116
C  C116  1  0.18660000  0.19500000  0.12686000  1.0 0.0389435116
C  C117  1  0.10350000  0.14570000  0.87311000  1.0 0.0389435116
C  C118  1  0.89650000  0.85430000  0.87311000  1.0 0.0389435116
C  C119  1  0.85430000  0.89650000  0.12689000  1.0 0.0389435116
C  C120  1  0.14570000  0.10350000  0.12689000  1.0 0.0389435116
C  C121  1  0.05580000  0.09260000  0.85136000  1.0 -0.016783732
C  C122  1  0.94420000  0.90740000  0.85136000  1.0 -0.016783732
C  C123  1  0.90740000  0.94420000  0.14864000  1.0 -0.016783732
C  C124  1  0.09260000  0.05580000  0.14864000  1.0 -0.0071355957
C  C125  1  0.09940000  0.08040000  0.82965000  1.0 0.0205263308
C  C126  1  0.90060000  0.91960000  0.82965000  1.0 0.0205263308
C  C127  1  0.91960000  0.90060000  0.17035000  1.0 0.0205263308
C  C128  1  0.08040000  0.09940000  0.17035000  1.0 0.0205263308
C  C129  1  0.19080000  0.12140000  0.82968000  1.0 0.0389435116
C  C130  1  0.80920000  0.87860000  0.82968000  1.0 0.0389435116
C  C131  1  0.87860000  0.80920000  0.17032000  1.0 0.0389435116
C  C132  1  0.12140000  0.19080000  0.17032000  1.0 0.0389435116
C  C133  1  0.23440000  0.10920000  0.80797000  1.0 0.0296667136
C  C134  1  0.76560000  0.89080000  0.80797000  1.0 0.0296667136
C  C135  1  0.89080000  0.76560000  0.19203000  1.0 0.0296667136
C  C136  1  0.10920000  0.23440000  0.19203000  1.0 0.0296667136
C  C137  1  0.18660000  0.05620000  0.78623000  1.0 0.0587269221
C  C138  1  0.81340000  0.94380000  0.78623000  1.0 0.0587269221
C  C139  1  0.94380000  0.81340000  0.21377000  1.0 0.0587269221
C  C140  1  0.05620000  0.18660000  0.21377000  1.0 0.0587269221
C  C141  1  0.09520000  0.01520000  0.78619000  1.0 0.1302422071
C  C142  1  0.90480000  0.98480000  0.78619000  1.0 0.1302422071
C  C143  1  0.98480000  0.90480000  0.21381000  1.0 0.1302422071
C  C144  1  0.01520000  0.09520000  0.21381000  1.0 0.1302422071
C  C145  1  0.05160000  0.02740000  0.80790000  1.0 0.0205263308
C  C146  1  0.94840000  0.97260000  0.80790000  1.0 0.0296667136
C  C147  1  0.97260000  0.94840000  0.19210000  1.0 0.0205263308
C  C148  1  0.02740000  0.05160000  0.19210000  1.0 0.0205263308
C  C149  1  0.13580000  0.89940000  0.52380000  1.0 -0.0071355957
C  C150  1  0.86420000  0.10060000  0.52380000  1.0 -0.0025335615
C  C151  1  0.10060000  0.86420000  0.47620000  1.0 -0.0071355957
C  C152  1  0.89940000  0.13580000  0.47620000  1.0 -0.0071355957
C  C153  1  0.14480000  0.95480000  0.54530000  1.0 0.0492802498
C  C154  1  0.85520000  0.04520000  0.54530000  1.0 0.0492802498
C  C155  1  0.04520000  0.85520000  0.45470000  1.0 0.0492802498
C  C156  1  0.95480000  0.14480000  0.45470000  1.0 0.0492802498
C  C157  1  0.14080000  0.03920000  0.53930000  1.0 0.1026085811
C  C158  1  0.85920000  0.96080000  0.53930000  1.0 0.1026085811
C  C159  1  0.96080000  0.85920000  0.46070000  1.0 0.1026085811
C  C160  1  0.03920000  0.14080000  0.46070000  1.0 0.1026085811
C  C161  1  0.08520000  0.03020000  0.51780000  1.0 -0.0412651167
C  C162  1  0.91480000  0.96980000  0.51780000  1.0 -0.0412651167
C  C163  1  0.96980000  0.91480000  0.48220000  1.0 -0.0412651167
C  C164  1  0.03020000  0.08520000  0.48220000  1.0 -0.0412651167
C  C165  1  0.88150000  0.76770000  0.14120000  1.0 0.0389435116
C  C166  1  0.11850000  0.23230000  0.14120000  1.0 0.0389435116
C  C167  1  0.23230000  0.11850000  0.85880000  1.0 0.0296667136
C  C168  1  0.76770000  0.88150000  0.85880000  1.0 0.0389435116
C  C169  1  0.87780000  0.81620000  0.11937000  1.0 0.0492802498
C  C170  1  0.12220000  0.18380000  0.11937000  1.0 0.0587269221
C  C171  1  0.18380000  0.12220000  0.88063000  1.0 0.0587269221
C  C172  1  0.81620000  0.87780000  0.88063000  1.0 0.0492802498
C  C173  1  0.92930000  0.90750000  0.11941000  1.0 0.1097580502
C  C174  1  0.07070000  0.09250000  0.11941000  1.0 0.1097580502
C  C175  1  0.09250000  0.07070000  0.88059000  1.0 0.1097580502
C  C176  1  0.90750000  0.92930000  0.88059000  1.0 0.1097580502
C  C177  1  0.98470000  0.95030000  0.14126000  1.0 0.0296667136
C  C178  1  0.01530000  0.04970000  0.14126000  1.0 0.0205263308
C  C179  1  0.04970000  0.01530000  0.85874000  1.0 0.0205263308
C  C180  1  0.95030000  0.98470000  0.85874000  1.0 0.0296667136
C  C181  1  0.98850000  0.90190000  0.16306000  1.0 0.0205263308
C  C182  1  0.01150000  0.09810000  0.16306000  1.0 0.0205263308
C  C183  1  0.09810000  0.01150000  0.83694000  1.0 0.0205263308
C  C184  1  0.90190000  0.98850000  0.83694000  1.0 0.0205263308
C  C185  1  0.93700000  0.81060000  0.16302000  1.0 0.0389435116
C  C186  1  0.06300000  0.18940000  0.16302000  1.0 0.0389435116
C  C187  1  0.18940000  0.06300000  0.83698000  1.0 0.0389435116
C  C188  1  0.81060000  0.93700000  0.83698000  1.0 0.0389435116
C  C189  1  0.94070000  0.76210000  0.18480000  1.0 0.0205263308
C  C190  1  0.05930000  0.23790000  0.18480000  1.0 0.0205263308
C  C191  1  0.23790000  0.05930000  0.81520000  1.0 0.0205263308
C  C192  1  0.76210000  0.94070000  0.81520000  1.0 0.0205263308
C  C193  1  0.99600000  0.80500000  0.20667000  1.0 0.0389435116
C  C194  1  0.00400000  0.19500000  0.20667000  1.0 0.0389435116
C  C195  1  0.19500000  0.00400000  0.79333000  1.0 0.0389435116
C  C196  1  0.80500000  0.99600000  0.79333000  1.0 0.0389435116
C  C197  1  0.04770000  0.89630000  0.20671000  1.0 0.0389435116
C  C198  1  0.95230000  0.10370000  0.20671000  1.0 0.0492802498
C  C199  1  0.10370000  0.95230000  0.79329000  1.0 0.0389435116
C  C200  1  0.89630000  0.04770000  0.79329000  1.0 0.0389435116
C  C201  1  0.04390000  0.94470000  0.18490000  1.0 -0.0696316147
C  C202  1  0.95610000  0.05530000  0.18490000  1.0 -0.0623313471
C  C203  1  0.05530000  0.95610000  0.81510000  1.0 -0.0623313471
C  C204  1  0.94470000  0.04390000  0.81510000  1.0 -0.0623313471
O  O1  1  0.08380000  0.04380000  0.56440000  1.0 -0.3436910395
O  O2  1  0.91620000  0.95620000  0.56440000  1.0 -0.3465881729
O  O3  1  0.95620000  0.91620000  0.43560000  1.0 -0.3436910395
O  O4  1  0.04380000  0.08380000  0.43560000  1.0 -0.3436910395
O  O5  1  0.96630000  0.90090000  0.60210000  1.0 -0.6706311361
O  O6  1  0.03370000  0.09910000  0.60210000  1.0 -0.6706311361
O  O7  1  0.09910000  0.03370000  0.39790000  1.0 -0.6634640181
O  O8  1  0.90090000  0.96630000  0.39790000  1.0 -0.6706311361
O  O9  1  0.46710000  0.39050000  0.97115000  1.0 -0.5127248848
O  O10  1  0.53290000  0.60950000  0.97115000  1.0 -0.5167769277
O  O11  1  0.60950000  0.53290000  0.02885000  1.0 -0.5127248848
O  O12  1  0.39050000  0.46710000  0.02885000  1.0 -0.5167769277
O  O13  1  0.38280000  0.92880000  0.69505000  1.0 -0.4466911142
O  O14  1  0.61720000  0.07120000  0.69505000  1.0 -0.4466911142
O  O15  1  0.07120000  0.61720000  0.30495000  1.0 -0.4466911142
O  O16  1  0.92880000  0.38280000  0.30495000  1.0 -0.4412710154
O  O17  1  0.38900000  0.91880000  0.63831000  1.0 -0.5496364831
O  O18  1  0.61100000  0.08120000  0.63831000  1.0 -0.5496364831
O  O19  1  0.08120000  0.61100000  0.36169000  1.0 -0.5496364831
O  O20  1  0.91880000  0.38900000  0.36169000  1.0 -0.5449104989
O  O21  1  0.45950000  0.07410000  0.63969000  1.0 -0.4016294265
O  O22  1  0.54050000  0.92590000  0.63969000  1.0 -0.4016294265
O  O23  1  0.92590000  0.54050000  0.36031000  1.0 -0.4016294265
O  O24  1  0.07410000  0.45950000  0.36031000  1.0 -0.4016294265
O  O25  1  0.53283000  0.91617000  0.69532000  1.0 -0.5496364831
O  O26  1  0.46717000  0.08383000  0.69532000  1.0 -0.5496364831
O  O27  1  0.08383000  0.46717000  0.30468000  1.0 -0.5496364831
O  O28  1  0.91617000  0.53283000  0.30468000  1.0 -0.5496364831
O  O29  1  0.38120000  0.45680000  0.97178000  1.0 -0.4623279258
O  O30  1  0.61880000  0.54320000  0.97178000  1.0 -0.4623279258
O  O31  1  0.54320000  0.61880000  0.02822000  1.0 -0.4623279258
O  O32  1  0.45680000  0.38120000  0.02822000  1.0 -0.4650570834
O  O33  1  0.04390000  0.96050000  0.76590000  1.0 -0.3593740994
O  O34  1  0.95610000  0.03950000  0.76590000  1.0 -0.3593740994
O  O35  1  0.03950000  0.95610000  0.23410000  1.0 -0.3593740994
O  O36  1  0.96050000  0.04390000  0.23410000  1.0 -0.3593740994
O  O37  1  0.05880000  0.07880000  0.73200000  1.0 -0.6508084321
O  O38  1  0.94120000  0.92120000  0.73200000  1.0 -0.6508084321
O  O39  1  0.92120000  0.94120000  0.26800000  1.0 -0.6508084321
O  O40  1  0.07880000  0.05880000  0.26800000  1.0 -0.6508084321
O  O41  1  0.02030000  0.93930000  0.06490000  1.0 -0.6706311361
O  O42  1  0.97970000  0.06070000  0.06490000  1.0 -0.6706311361
O  O43  1  0.06070000  0.97970000  0.93510000  1.0 -0.6706311361
O  O44  1  0.93930000  0.02030000  0.93510000  1.0 -0.6706311361
O  O45  1  0.95690000  0.91930000  0.90380000  1.0 -0.3924942696
O  O46  1  0.04310000  0.08070000  0.90380000  1.0 -0.3924942696
O  O47  1  0.08070000  0.04310000  0.09620000  1.0 -0.3924942696
O  O48  1  0.91930000  0.95690000  0.09620000  1.0 -0.3924942696
