# DDEC6 charges by PACMAN v1.1 (https://github.com/mtap-research/PACMAN-charge/)
data_FECJUT_ASR_pacman
_symmetry_space_group_name_H-M   'P 1'
_cell_length_a   25.58890000
_cell_length_b   25.58890000
_cell_length_c   25.68000000
_cell_angle_alpha   86.29650000
_cell_angle_beta   93.70350000
_cell_angle_gamma   79.62490000
_symmetry_Int_Tables_number   1
_chemical_formula_structural   Zn8HC228Cl17O38
_chemical_formula_sum   'Zn16 H2 C456 Cl34 O76'
_cell_volume   16455.74106840
_cell_formula_units_Z   2
loop_
 _symmetry_equiv_pos_site_id
 _symmetry_equiv_pos_as_xyz
  1  'x, y, z'
loop_
 _atom_site_type_symbol
 _atom_site_label
 _atom_site_symmetry_multiplicity
 _atom_site_fract_x
 _atom_site_fract_y
 _atom_site_fract_z
 _atom_site_occupancy
 _atom_site_charge
Zn  Zn1  1  0.47611000  0.82189000  0.67217000  1.0 0.9529677319
Zn  Zn2  1  0.57340000  0.72670000  0.68175000  1.0 0.9388686406
Zn  Zn3  1  0.47856000  0.73468000  0.59459000  1.0 0.9388686406
Zn  Zn4  1  0.56223000  0.81329000  0.58439000  1.0 1.0092029261
Zn  Zn5  1  0.82189000  0.47611000  0.32783000  1.0 0.9529677319
Zn  Zn6  1  0.72670000  0.57340000  0.31825000  1.0 0.9388686406
Zn  Zn7  1  0.73468000  0.47856000  0.40541000  1.0 0.9388686406
Zn  Zn8  1  0.81329000  0.56223000  0.41561000  1.0 1.0092029261
Zn  Zn9  1  0.37913000  0.18545000  0.88821000  1.0 0.9529677319
Zn  Zn10  1  0.29989000  0.18311000  0.78951000  1.0 0.9529677319
Zn  Zn11  1  0.30377000  0.10163000  0.88716000  1.0 0.9388686406
Zn  Zn12  1  0.40450000  0.09036000  0.81754000  1.0 0.9684470284
Zn  Zn13  1  0.18545000  0.37913000  0.11179000  1.0 0.9529677319
Zn  Zn14  1  0.18311000  0.29989000  0.21049000  1.0 0.9529677319
Zn  Zn15  1  0.10163000  0.30377000  0.11284000  1.0 0.9388686406
Zn  Zn16  1  0.09036000  0.40450000  0.18246000  1.0 0.9684470284
H  H1  1  0.08990000  0.84830000  0.79910000  1.0 0.1271289276
H  H2  1  0.84830000  0.08990000  0.20090000  1.0 0.1271289276
C  C1  1  0.49020000  0.76720000  0.10180000  1.0 0.0404393944
C  C2  1  0.46280000  0.73360000  0.07530000  1.0 0.2186669248
C  C3  1  0.46460000  0.73180000  0.02140000  1.0 -0.1096948364
C  C4  1  0.49390000  0.76370000  0.99410000  1.0 0.0791966977
C  C5  1  0.52130000  0.79730000  0.02070000  1.0 0.0210729427
C  C6  1  0.51950000  0.79910000  0.07450000  1.0 0.03060787
C  C7  1  0.54700000  0.83280000  0.10110000  1.0 -0.0414959918
C  C8  1  0.57620000  0.86460000  0.07380000  1.0 -0.1006678372
C  C9  1  0.57810000  0.86290000  0.01990000  1.0 0.1163968506
C  C10  1  0.55060000  0.82920000  0.99340000  1.0 -0.0808364799
C  C11  1  0.41650000  0.65570000  0.08320000  1.0 0.4692034262
C  C12  1  0.42150000  0.60550000  0.12300000  1.0 -0.3465376509
C  C13  1  0.49840000  0.75820000  0.93350000  1.0 0.0791966977
C  C14  1  0.54300000  0.73960000  0.91360000  1.0 -0.0615204358
C  C15  1  0.54800000  0.73440000  0.86540000  1.0 0.009974552
C  C16  1  0.50740000  0.75220000  0.82700000  1.0 -0.0919569688
C  C17  1  0.45670000  0.76650000  0.85060000  1.0 0.0685671105
C  C18  1  0.45360000  0.77240000  0.90250000  1.0 -0.0301921462
C  C19  1  0.50960000  0.75620000  0.77050000  1.0 0.6201504605
C  C20  1  0.48190000  0.77010000  0.16180000  1.0 0.0026028011
C  C21  1  0.50910000  0.72730000  0.19170000  1.0 0.200903921
C  C22  1  0.50970000  0.73410000  0.24900000  1.0 -0.1595391942
C  C23  1  0.47660000  0.77540000  0.26790000  1.0 0.0685671105
C  C24  1  0.40710000  0.85090000  0.25800000  1.0 -0.1096948364
C  C25  1  0.37230000  0.88690000  0.22420000  1.0 0.1412391888
C  C26  1  0.37740000  0.88300000  0.16190000  1.0 -0.0502906122
C  C27  1  0.40850000  0.84490000  0.14510000  1.0 -0.0697769799
C  C28  1  0.44440000  0.80560000  0.18030000  1.0 0.0685671105
C  C29  1  0.44670000  0.80810000  0.23610000  1.0 0.0404393944
C  C30  1  0.56700000  0.64380000  0.20800000  1.0 0.4419056462
C  C31  1  0.58560000  0.59820000  0.17400000  1.0 -0.2665900452
C  C32  1  0.48390000  0.77750000  0.32550000  1.0 0.0791966977
C  C33  1  0.45940000  0.74500000  0.35960000  1.0 -0.0101139398
C  C34  1  0.46330000  0.74210000  0.41460000  1.0 0.03060787
C  C35  1  0.48960000  0.77920000  0.43810000  1.0 -0.1317515882
C  C36  1  0.51400000  0.81280000  0.40540000  1.0 0.059102878
C  C37  1  0.50920000  0.81520000  0.35030000  1.0 -0.0615204358
C  C38  1  0.50020000  0.77640000  0.49350000  1.0 0.6307296919
C  C39  1  0.55400000  0.29380000  0.65100000  1.0 -0.020048679
C  C40  1  0.53610000  0.32690000  0.68940000  1.0 0.200903921
C  C41  1  0.53290000  0.38270000  0.68760000  1.0 -0.1687643578
C  C42  1  0.55480000  0.40660000  0.64470000  1.0 0.0685671105
C  C43  1  0.59990000  0.39710000  0.56230000  1.0 -0.1687643578
C  C44  1  0.62090000  0.36870000  0.52460000  1.0 0.0923018354
C  C45  1  0.61890000  0.31330000  0.52500000  1.0 -0.1209330758
C  C46  1  0.60400000  0.28700000  0.56760000  1.0 0.0404393944
C  C47  1  0.57500000  0.32040000  0.60970000  1.0 0.0496216905
C  C48  1  0.57930000  0.37490000  0.60660000  1.0 0.03060787
C  C49  1  0.48410000  0.33130000  0.76630000  1.0 0.4482482858
C  C50  1  0.44660000  0.30180000  0.79680000  1.0 -0.3391637815
C  C51  1  0.55070000  0.46430000  0.64390000  1.0 0.0496216905
C  C52  1  0.59040000  0.48580000  0.65370000  1.0 -0.0502906122
C  C53  1  0.58480000  0.54460000  0.65340000  1.0 0.0210729427
C  C54  1  0.54190000  0.57310000  0.64490000  1.0 -0.0697769799
C  C55  1  0.50100000  0.55580000  0.63160000  1.0 0.03060787
C  C56  1  0.50680000  0.49400000  0.63350000  1.0 -0.0301921462
C  C57  1  0.53650000  0.63070000  0.64640000  1.0 0.6389360832
C  C58  1  0.55920000  0.23640000  0.65740000  1.0 -0.0101139398
C  C59  1  0.50990000  0.21870000  0.64740000  1.0 0.2393690335
C  C60  1  0.50660000  0.16300000  0.64760000  1.0 -0.2008671431
C  C61  1  0.54990000  0.12630000  0.65790000  1.0 0.0791966977
C  C62  1  0.64560000  0.10740000  0.67640000  1.0 -0.1317515882
C  C63  1  0.69680000  0.12340000  0.68750000  1.0 0.0685671105
C  C64  1  0.69830000  0.17470000  0.68870000  1.0 -0.1317515882
C  C65  1  0.65170000  0.21450000  0.67780000  1.0 0.009974552
C  C66  1  0.60280000  0.19980000  0.66320000  1.0 0.0496216905
C  C67  1  0.60450000  0.14250000  0.66780000  1.0 0.059102878
C  C68  1  0.41090000  0.24470000  0.64260000  1.0 0.4555587532
C  C69  1  0.37530000  0.29550000  0.65950000  1.0 -0.2961366189
C  C70  1  0.54590000  0.07010000  0.65250000  1.0 0.0685671105
C  C71  1  0.55850000  0.04370000  0.60740000  1.0 -0.0697769799
C  C72  1  0.54800000  0.99200000  0.60550000  1.0 0.0685671105
C  C73  1  0.52710000  0.96350000  0.64520000  1.0 -0.1595391942
C  C74  1  0.51530000  0.99130000  0.68970000  1.0 0.0685671105
C  C75  1  0.52350000  0.04390000  0.69190000  1.0 -0.0301921462
C  C76  1  0.51880000  0.91220000  0.63830000  1.0 0.6026984639
C  C77  1  0.04300000  0.81060000  0.64630000  1.0 -0.0025479847
C  C78  1  0.07890000  0.80870000  0.68970000  1.0 0.1899004566
C  C79  1  0.13250000  0.80830000  0.68310000  1.0 -0.1423130712
C  C80  1  0.15020000  0.80980000  0.63310000  1.0 0.0496216905
C  C81  1  0.11430000  0.81170000  0.58970000  1.0 0.0404393944
C  C82  1  0.06070000  0.81210000  0.59630000  1.0 0.009974552
C  C83  1  0.02490000  0.81390000  0.55290000  1.0 0.0026028011
C  C84  1  0.04250000  0.81550000  0.50280000  1.0 -0.0101139398
C  C85  1  0.09610000  0.81510000  0.49620000  1.0 0.1271289276
C  C86  1  0.13200000  0.81320000  0.53960000  1.0 -0.0919569688
C  C87  1  0.07700000  0.85700000  0.76300000  1.0 0.0791966977
C  C88  1  0.11200000  0.89400000  0.74100000  1.0 -0.2256445301
C  C89  1  0.20750000  0.80790000  0.62880000  1.0 0.0685671105
C  C90  1  0.23740000  0.76080000  0.61240000  1.0 -0.0615204358
C  C91  1  0.29290000  0.75970000  0.61430000  1.0 0.03060787
C  C92  1  0.32090000  0.79890000  0.63020000  1.0 -0.1096948364
C  C93  1  0.28940000  0.84260000  0.64500000  1.0 0.0404393944
C  C94  1  0.23400000  0.84760000  0.64650000  1.0 -0.0101139398
C  C95  1  0.37780000  0.79340000  0.62850000  1.0 0.6389360832
C  C96  1  0.98550000  0.80430000  0.65860000  1.0 0.0026028011
C  C97  1  0.94700000  0.84940000  0.66260000  1.0 0.200903921
C  C98  1  0.89440000  0.84440000  0.66820000  1.0 -0.1423130712
C  C99  1  0.88030000  0.79430000  0.66980000  1.0 0.0685671105
C  C100  1  0.91890000  0.74930000  0.66580000  1.0 0.03060787
C  C101  1  0.97140000  0.75420000  0.66020000  1.0 0.03060787
C  C102  1  0.01000000  0.70920000  0.65620000  1.0 0.0210729427
C  C103  1  0.99590000  0.65910000  0.65780000  1.0 -0.1423130712
C  C104  1  0.94330000  0.65410000  0.66350000  1.0 0.1088537412
C  C105  1  0.90480000  0.69920000  0.66750000  1.0 -0.1595391942
C  C106  1  0.95220000  0.92420000  0.59700000  1.0 0.4482482858
C  C107  1  0.90000000  0.96600000  0.59100000  1.0 -0.4031780176
C  C108  1  0.82020000  0.79280000  0.65700000  1.0 0.0791966977
C  C109  1  0.78380000  0.81140000  0.61440000  1.0 -0.0414959918
C  C110  1  0.73100000  0.80540000  0.61610000  1.0 0.0210729427
C  C111  1  0.71460000  0.78060000  0.66030000  1.0 -0.0414959918
C  C112  1  0.75110000  0.76190000  0.70290000  1.0 -0.020048679
C  C113  1  0.80380000  0.76800000  0.70120000  1.0 -0.0502906122
C  C114  1  0.65680000  0.77540000  0.67040000  1.0 0.6201504605
C  C115  1  0.76720000  0.49020000  0.89820000  1.0 0.03060787
C  C116  1  0.73360000  0.46280000  0.92470000  1.0 0.2186669248
C  C117  1  0.73180000  0.46460000  0.97860000  1.0 -0.1096948364
C  C118  1  0.76370000  0.49390000  0.00590000  1.0 0.0791966977
C  C119  1  0.79730000  0.52130000  0.97930000  1.0 0.0210729427
C  C120  1  0.79910000  0.51950000  0.92550000  1.0 0.03060787
C  C121  1  0.83280000  0.54700000  0.89890000  1.0 -0.0414959918
C  C122  1  0.86460000  0.57620000  0.92620000  1.0 -0.1006678372
C  C123  1  0.86290000  0.57810000  0.98010000  1.0 0.1163968506
C  C124  1  0.82920000  0.55060000  0.00660000  1.0 -0.0697769799
C  C125  1  0.65570000  0.41650000  0.91680000  1.0 0.4692034262
C  C126  1  0.60550000  0.42150000  0.87700000  1.0 -0.359603138
C  C127  1  0.75820000  0.49840000  0.06650000  1.0 0.0791966977
C  C128  1  0.73960000  0.54300000  0.08640000  1.0 -0.0615204358
C  C129  1  0.73440000  0.54800000  0.13460000  1.0 0.009974552
C  C130  1  0.75220000  0.50740000  0.17300000  1.0 -0.0919569688
C  C131  1  0.76650000  0.45670000  0.14940000  1.0 0.0685671105
C  C132  1  0.77240000  0.45360000  0.09750000  1.0 -0.0301921462
C  C133  1  0.75620000  0.50960000  0.22950000  1.0 0.6201504605
C  C134  1  0.77010000  0.48190000  0.83820000  1.0 0.0026028011
C  C135  1  0.72730000  0.50910000  0.80830000  1.0 0.200903921
C  C136  1  0.73410000  0.50970000  0.75100000  1.0 -0.1595391942
C  C137  1  0.77540000  0.47660000  0.73210000  1.0 0.0685671105
C  C138  1  0.85090000  0.40710000  0.74200000  1.0 -0.1096948364
C  C139  1  0.88690000  0.37230000  0.77580000  1.0 0.1472245174
C  C140  1  0.88300000  0.37740000  0.83810000  1.0 -0.0502906122
C  C141  1  0.84490000  0.40850000  0.85490000  1.0 -0.0697769799
C  C142  1  0.80560000  0.44440000  0.81970000  1.0 0.0685671105
C  C143  1  0.80810000  0.44670000  0.76390000  1.0 0.0404393944
C  C144  1  0.64380000  0.56700000  0.79200000  1.0 0.4419056462
C  C145  1  0.59820000  0.58560000  0.82600000  1.0 -0.2665900452
C  C146  1  0.77750000  0.48390000  0.67450000  1.0 0.0791966977
C  C147  1  0.74500000  0.45940000  0.64040000  1.0 -0.0101139398
C  C148  1  0.74210000  0.46330000  0.58540000  1.0 0.03060787
C  C149  1  0.77920000  0.48960000  0.56190000  1.0 -0.1317515882
C  C150  1  0.81280000  0.51400000  0.59460000  1.0 0.059102878
C  C151  1  0.81520000  0.50920000  0.64970000  1.0 -0.0615204358
C  C152  1  0.77640000  0.50020000  0.50650000  1.0 0.6307296919
C  C153  1  0.29380000  0.55400000  0.34900000  1.0 -0.020048679
C  C154  1  0.32690000  0.53610000  0.31060000  1.0 0.200903921
C  C155  1  0.38270000  0.53290000  0.31240000  1.0 -0.1687643578
C  C156  1  0.40660000  0.55480000  0.35530000  1.0 0.0685671105
C  C157  1  0.39710000  0.59990000  0.43770000  1.0 -0.1687643578
C  C158  1  0.36870000  0.62090000  0.47540000  1.0 0.0923018354
C  C159  1  0.31330000  0.61890000  0.47500000  1.0 -0.1209330758
C  C160  1  0.28700000  0.60400000  0.43240000  1.0 0.0404393944
C  C161  1  0.32040000  0.57500000  0.39030000  1.0 0.0496216905
C  C162  1  0.37490000  0.57930000  0.39340000  1.0 0.03060787
C  C163  1  0.33130000  0.48410000  0.23370000  1.0 0.4482482858
C  C164  1  0.30180000  0.44660000  0.20320000  1.0 -0.3304568542
C  C165  1  0.46430000  0.55070000  0.35610000  1.0 0.0496216905
C  C166  1  0.48580000  0.59040000  0.34630000  1.0 -0.0502906122
C  C167  1  0.54460000  0.58480000  0.34660000  1.0 0.0210729427
C  C168  1  0.57310000  0.54190000  0.35510000  1.0 -0.0697769799
C  C169  1  0.55580000  0.50100000  0.36840000  1.0 0.03060787
C  C170  1  0.49400000  0.50680000  0.36650000  1.0 -0.0301921462
C  C171  1  0.63070000  0.53650000  0.35360000  1.0 0.6307296919
C  C172  1  0.23640000  0.55920000  0.34260000  1.0 -0.0101139398
C  C173  1  0.21870000  0.50990000  0.35260000  1.0 0.2393690335
C  C174  1  0.16300000  0.50660000  0.35240000  1.0 -0.2008671431
C  C175  1  0.12630000  0.54990000  0.34210000  1.0 0.0791966977
C  C176  1  0.10740000  0.64560000  0.32360000  1.0 -0.1317515882
C  C177  1  0.12340000  0.69680000  0.31250000  1.0 0.0685671105
C  C178  1  0.17470000  0.69830000  0.31130000  1.0 -0.1317515882
C  C179  1  0.21450000  0.65170000  0.32220000  1.0 0.0210729427
C  C180  1  0.19980000  0.60280000  0.33680000  1.0 0.0496216905
C  C181  1  0.14250000  0.60450000  0.33220000  1.0 0.059102878
C  C182  1  0.24470000  0.41090000  0.35740000  1.0 0.4482482858
C  C183  1  0.29550000  0.37530000  0.34050000  1.0 -0.2961366189
C  C184  1  0.07010000  0.54590000  0.34750000  1.0 0.0685671105
C  C185  1  0.04370000  0.55850000  0.39260000  1.0 -0.0697769799
C  C186  1  0.99200000  0.54800000  0.39450000  1.0 0.0685671105
C  C187  1  0.96350000  0.52710000  0.35480000  1.0 -0.1595391942
C  C188  1  0.99130000  0.51530000  0.31030000  1.0 0.0685671105
C  C189  1  0.04390000  0.52350000  0.30810000  1.0 -0.0301921462
C  C190  1  0.91220000  0.51880000  0.36170000  1.0 0.6026984639
C  C191  1  0.81060000  0.04300000  0.35370000  1.0 -0.0025479847
C  C192  1  0.80870000  0.07890000  0.31030000  1.0 0.1899004566
C  C193  1  0.80830000  0.13250000  0.31690000  1.0 -0.1423130712
C  C194  1  0.80980000  0.15020000  0.36690000  1.0 0.0496216905
C  C195  1  0.81170000  0.11430000  0.41030000  1.0 0.0404393944
C  C196  1  0.81210000  0.06070000  0.40370000  1.0 0.009974552
C  C197  1  0.81390000  0.02490000  0.44710000  1.0 0.009974552
C  C198  1  0.81550000  0.04250000  0.49720000  1.0 -0.0101139398
C  C199  1  0.81510000  0.09610000  0.50380000  1.0 0.1271289276
C  C200  1  0.81320000  0.13200000  0.46040000  1.0 -0.0919569688
C  C201  1  0.85700000  0.07700000  0.23700000  1.0 0.0791966977
C  C202  1  0.89400000  0.11200000  0.25900000  1.0 -0.2200012965
C  C203  1  0.80790000  0.20750000  0.37120000  1.0 0.0685671105
C  C204  1  0.76080000  0.23740000  0.38760000  1.0 -0.0615204358
C  C205  1  0.75970000  0.29290000  0.38570000  1.0 0.03060787
C  C206  1  0.79890000  0.32090000  0.36980000  1.0 -0.1096948364
C  C207  1  0.84260000  0.28940000  0.35500000  1.0 0.0404393944
C  C208  1  0.84760000  0.23400000  0.35350000  1.0 -0.0101139398
C  C209  1  0.79340000  0.37780000  0.37150000  1.0 0.6389360832
C  C210  1  0.80430000  0.98550000  0.34140000  1.0 0.0026028011
C  C211  1  0.84940000  0.94700000  0.33740000  1.0 0.200903921
C  C212  1  0.84440000  0.89440000  0.33180000  1.0 -0.1423130712
C  C213  1  0.79430000  0.88030000  0.33020000  1.0 0.0685671105
C  C214  1  0.74930000  0.91890000  0.33420000  1.0 0.0404393944
C  C215  1  0.75420000  0.97140000  0.33980000  1.0 0.03060787
C  C216  1  0.70920000  0.01000000  0.34380000  1.0 0.0210729427
C  C217  1  0.65910000  0.99590000  0.34220000  1.0 -0.1423130712
C  C218  1  0.65410000  0.94330000  0.33650000  1.0 0.1088537412
C  C219  1  0.69920000  0.90480000  0.33250000  1.0 -0.1595391942
C  C220  1  0.92420000  0.95220000  0.40300000  1.0 0.4482482858
C  C221  1  0.96600000  0.90000000  0.40900000  1.0 -0.4031780176
C  C222  1  0.79280000  0.82020000  0.34300000  1.0 0.0791966977
C  C223  1  0.81140000  0.78380000  0.38560000  1.0 -0.0414959918
C  C224  1  0.80540000  0.73100000  0.38390000  1.0 0.0210729427
C  C225  1  0.78060000  0.71460000  0.33970000  1.0 -0.0414959918
C  C226  1  0.76190000  0.75110000  0.29710000  1.0 -0.020048679
C  C227  1  0.76800000  0.80380000  0.29880000  1.0 -0.0502906122
C  C228  1  0.77540000  0.65680000  0.32960000  1.0 0.6201504605
C  C229  1  0.37720000  0.10380000  0.31930000  1.0 -0.0101139398
C  C230  1  0.35240000  0.14920000  0.29120000  1.0 0.1761004912
C  C231  1  0.34500000  0.15500000  0.23930000  1.0 -0.1687643578
C  C232  1  0.37000000  0.11100000  0.21090000  1.0 0.059102878
C  C233  1  0.43380000  0.02420000  0.21010000  1.0 -0.0808364799
C  C234  1  0.46380000  0.98000000  0.23660000  1.0 0.1271289276
C  C235  1  0.46100000  0.97400000  0.29310000  1.0 -0.1096948364
C  C236  1  0.43550000  0.01410000  0.31840000  1.0 0.009974552
C  C237  1  0.40290000  0.06330000  0.29350000  1.0 0.059102878
C  C238  1  0.39740000  0.07080000  0.23580000  1.0 0.0496216905
C  C239  1  0.27230000  0.21150000  0.31240000  1.0 0.3837088185
C  C240  1  0.24280000  0.18100000  0.33940000  1.0 -0.4717557741
C  C241  1  0.36490000  0.11910000  0.15150000  1.0 0.0791966977
C  C242  1  0.34360000  0.08620000  0.12310000  1.0 -0.0615204358
C  C243  1  0.33670000  0.09290000  0.06880000  1.0 0.0026028011
C  C244  1  0.35070000  0.13430000  0.04340000  1.0 -0.0502906122
C  C245  1  0.37600000  0.16700000  0.07190000  1.0 0.009974552
C  C246  1  0.38220000  0.16280000  0.12650000  1.0 -0.020048679
C  C247  1  0.34970000  0.14110000  0.98560000  1.0 0.6307296919
C  C248  1  0.37930000  0.10130000  0.37840000  1.0 0.0210729427
C  C249  1  0.34130000  0.07750000  0.40540000  1.0 0.2133084523
C  C250  1  0.33910000  0.07890000  0.45930000  1.0 -0.1595391942
C  C251  1  0.37160000  0.10180000  0.48700000  1.0 0.059102878
C  C252  1  0.44910000  0.14930000  0.49400000  1.0 -0.1595391942
C  C253  1  0.49030000  0.16770000  0.46820000  1.0 0.1472245174
C  C254  1  0.49410000  0.16310000  0.41460000  1.0 -0.0414959918
C  C255  1  0.45500000  0.14000000  0.38670000  1.0 -0.0301921462
C  C256  1  0.41760000  0.12580000  0.40900000  1.0 0.03060787
C  C257  1  0.41430000  0.12350000  0.46680000  1.0 0.0404393944
C  C258  1  0.26470000  0.03210000  0.39480000  1.0 0.4555587532
C  C259  1  0.23230000  0.01330000  0.35220000  1.0 -0.4031780176
C  C260  1  0.36530000  0.10530000  0.54510000  1.0 0.0791966977
C  C261  1  0.32370000  0.14130000  0.56040000  1.0 -0.0101139398
C  C262  1  0.31660000  0.15040000  0.61340000  1.0 0.0404393944
C  C263  1  0.35070000  0.12190000  0.65060000  1.0 -0.1006678372
C  C264  1  0.39580000  0.08420000  0.63600000  1.0 0.059102878
C  C265  1  0.40060000  0.07720000  0.58350000  1.0 -0.0697769799
C  C266  1  0.34710000  0.12990000  0.70550000  1.0 0.6389360832
C  C267  1  0.86570000  0.20010000  0.83940000  1.0 0.0026028011
C  C268  1  0.89550000  0.17550000  0.80150000  1.0 0.200903921
C  C269  1  0.94970000  0.17650000  0.80170000  1.0 -0.0808364799
C  C270  1  0.97390000  0.20230000  0.83990000  1.0 0.059102878
C  C271  1  0.94410000  0.22690000  0.87780000  1.0 0.0404393944
C  C272  1  0.88990000  0.22590000  0.87760000  1.0 0.03060787
C  C273  1  0.86000000  0.25040000  0.91550000  1.0 0.0210729427
C  C274  1  0.88420000  0.27620000  0.95370000  1.0 -0.0502906122
C  C275  1  0.93830000  0.27730000  0.95400000  1.0 0.1412391888
C  C276  1  0.96830000  0.25270000  0.91600000  1.0 -0.1423130712
C  C277  1  0.88050000  0.17330000  0.70160000  1.0 0.4555587532
C  C278  1  0.91540000  0.11640000  0.71200000  1.0 -0.3711735222
C  C279  1  0.03660000  0.19620000  0.84180000  1.0 0.0791966977
C  C280  1  0.06570000  0.17190000  0.88340000  1.0 -0.0919569688
C  C281  1  0.12150000  0.16130000  0.88010000  1.0 0.03060787
C  C282  1  0.14730000  0.18110000  0.83840000  1.0 -0.1209330758
C  C283  1  0.11460000  0.20640000  0.79860000  1.0 0.0685671105
C  C284  1  0.05850000  0.21970000  0.79930000  1.0 0.0210729427
C  C285  1  0.20220000  0.16940000  0.83880000  1.0 0.6026984639
C  C286  1  0.80640000  0.19480000  0.83790000  1.0 -0.0025479847
C  C287  1  0.78980000  0.15120000  0.86240000  1.0 0.200903921
C  C288  1  0.73570000  0.15010000  0.86320000  1.0 -0.1423130712
C  C289  1  0.69830000  0.19250000  0.83960000  1.0 0.059102878
C  C290  1  0.71470000  0.23610000  0.81520000  1.0 0.059102878
C  C291  1  0.76880000  0.23720000  0.81430000  1.0 0.0496216905
C  C292  1  0.78540000  0.28080000  0.78990000  1.0 0.0210729427
C  C293  1  0.74790000  0.32330000  0.76630000  1.0 -0.0919569688
C  C294  1  0.69390000  0.32210000  0.76710000  1.0 0.1623468535
C  C295  1  0.67730000  0.27850000  0.79160000  1.0 -0.1423130712
C  C296  1  0.79650000  0.07250000  0.91400000  1.0 0.4161232399
C  C297  1  0.74900000  0.04700000  0.90000000  1.0 -0.5009303888
C  C298  1  0.64300000  0.18460000  0.83990000  1.0 0.0685671105
C  C299  1  0.61200000  0.19980000  0.87970000  1.0 -0.0101139398
C  C300  1  0.55990000  0.19370000  0.88410000  1.0 0.0496216905
C  C301  1  0.53860000  0.16940000  0.84430000  1.0 -0.0502906122
C  C302  1  0.56630000  0.15410000  0.80310000  1.0 -0.020048679
C  C303  1  0.61730000  0.16110000  0.80200000  1.0 -0.0502906122
C  C304  1  0.48160000  0.16080000  0.84580000  1.0 0.6481680857
C  C305  1  0.27360000  0.62500000  0.80660000  1.0 -0.0101139398
C  C306  1  0.31340000  0.59120000  0.83820000  1.0 0.200903921
C  C307  1  0.31740000  0.53460000  0.83940000  1.0 -0.1595391942
C  C308  1  0.28040000  0.51480000  0.81530000  1.0 0.0791966977
C  C309  1  0.18800000  0.52700000  0.76610000  1.0 -0.1595391942
C  C310  1  0.14290000  0.56410000  0.73940000  1.0 0.1623468535
C  C311  1  0.14270000  0.61870000  0.73810000  1.0 -0.1006678372
C  C312  1  0.18430000  0.63630000  0.75530000  1.0 0.009974552
C  C313  1  0.23390000  0.60510000  0.78720000  1.0 0.0496216905
C  C314  1  0.23180000  0.54620000  0.78850000  1.0 0.0404393944
C  C315  1  0.40130000  0.58230000  0.88680000  1.0 0.4692034262
C  C316  1  0.43780000  0.61800000  0.90050000  1.0 -0.3391637815
C  C317  1  0.28650000  0.45190000  0.81860000  1.0 0.1023537578
C  C318  1  0.28320000  0.42460000  0.77250000  1.0 -0.0101139398
C  C319  1  0.29270000  0.36950000  0.77660000  1.0 0.0685671105
C  C320  1  0.30720000  0.34040000  0.82300000  1.0 -0.1096948364
C  C321  1  0.30820000  0.37300000  0.86960000  1.0 0.059102878
C  C322  1  0.29850000  0.42530000  0.86400000  1.0 -0.1006678372
C  C323  1  0.31860000  0.28460000  0.82690000  1.0 0.6026984639
C  C324  1  0.26750000  0.68730000  0.81400000  1.0 0.009974552
C  C325  1  0.30120000  0.71080000  0.78350000  1.0 0.200903921
C  C326  1  0.30290000  0.76450000  0.78590000  1.0 -0.2008671431
C  C327  1  0.27100000  0.79480000  0.81890000  1.0 0.0791966977
C  C328  1  0.23750000  0.77130000  0.84950000  1.0 0.0496216905
C  C329  1  0.23570000  0.71750000  0.84710000  1.0 0.0404393944
C  C330  1  0.20200000  0.69400000  0.87770000  1.0 0.03060787
C  C331  1  0.17010000  0.72430000  0.91070000  1.0 -0.1006678372
C  C332  1  0.17190000  0.77810000  0.91310000  1.0 0.0923018354
C  C333  1  0.20560000  0.80160000  0.88250000  1.0 -0.1499804867
C  C334  1  0.38630000  0.69350000  0.74300000  1.0 0.4161232399
C  C335  1  0.42360000  0.64220000  0.72800000  1.0 -0.3711735222
C  C336  1  0.28040000  0.85080000  0.82050000  1.0 0.0791966977
C  C337  1  0.25530000  0.89030000  0.78280000  1.0 -0.020048679
C  C338  1  0.25630000  0.94350000  0.78980000  1.0 0.0496216905
C  C339  1  0.28240000  0.95720000  0.83470000  1.0 -0.0502906122
C  C340  1  0.30750000  0.91770000  0.87240000  1.0 0.0404393944
C  C341  1  0.30650000  0.86450000  0.86540000  1.0 -0.0414959918
C  C342  1  0.29660000  0.01760000  0.83700000  1.0 0.5860464262
C  C343  1  0.10380000  0.37720000  0.68070000  1.0 -0.0101139398
C  C344  1  0.14920000  0.35240000  0.70880000  1.0 0.1761004912
C  C345  1  0.15500000  0.34500000  0.76070000  1.0 -0.1687643578
C  C346  1  0.11100000  0.37000000  0.78910000  1.0 0.059102878
C  C347  1  0.02420000  0.43380000  0.78990000  1.0 -0.0808364799
C  C348  1  0.98000000  0.46380000  0.76340000  1.0 0.1271289276
C  C349  1  0.97400000  0.46100000  0.70690000  1.0 -0.1096948364
C  C350  1  0.01410000  0.43550000  0.68160000  1.0 0.009974552
C  C351  1  0.06330000  0.40290000  0.70650000  1.0 0.059102878
C  C352  1  0.07080000  0.39740000  0.76420000  1.0 0.0496216905
C  C353  1  0.21150000  0.27230000  0.68760000  1.0 0.3837088185
C  C354  1  0.18100000  0.24280000  0.66060000  1.0 -0.4717557741
C  C355  1  0.11910000  0.36490000  0.84850000  1.0 0.0791966977
C  C356  1  0.08620000  0.34360000  0.87690000  1.0 -0.0615204358
C  C357  1  0.09290000  0.33670000  0.93120000  1.0 0.0026028011
C  C358  1  0.13430000  0.35070000  0.95660000  1.0 -0.0502906122
C  C359  1  0.16700000  0.37600000  0.92810000  1.0 0.0210729427
C  C360  1  0.16280000  0.38220000  0.87350000  1.0 -0.020048679
C  C361  1  0.14110000  0.34970000  0.01440000  1.0 0.6307296919
C  C362  1  0.10130000  0.37930000  0.62160000  1.0 0.0210729427
C  C363  1  0.07750000  0.34130000  0.59460000  1.0 0.2133084523
C  C364  1  0.07890000  0.33910000  0.54070000  1.0 -0.1595391942
C  C365  1  0.10180000  0.37160000  0.51300000  1.0 0.059102878
C  C366  1  0.14930000  0.44910000  0.50600000  1.0 -0.1595391942
C  C367  1  0.16770000  0.49030000  0.53180000  1.0 0.1472245174
C  C368  1  0.16310000  0.49410000  0.58540000  1.0 -0.0301921462
C  C369  1  0.14000000  0.45500000  0.61330000  1.0 -0.0414959918
C  C370  1  0.12580000  0.41760000  0.59100000  1.0 0.03060787
C  C371  1  0.12350000  0.41430000  0.53320000  1.0 0.0404393944
C  C372  1  0.03210000  0.26470000  0.60520000  1.0 0.4555587532
C  C373  1  0.01330000  0.23230000  0.64780000  1.0 -0.3822956992
C  C374  1  0.10530000  0.36530000  0.45490000  1.0 0.0791966977
C  C375  1  0.14130000  0.32370000  0.43960000  1.0 -0.0101139398
C  C376  1  0.15040000  0.31660000  0.38660000  1.0 0.0404393944
C  C377  1  0.12190000  0.35070000  0.34940000  1.0 -0.1006678372
C  C378  1  0.08420000  0.39580000  0.36400000  1.0 0.059102878
C  C379  1  0.07720000  0.40060000  0.41650000  1.0 -0.0697769799
C  C380  1  0.12990000  0.34710000  0.29450000  1.0 0.6389360832
C  C381  1  0.20010000  0.86570000  0.16060000  1.0 0.0026028011
C  C382  1  0.17550000  0.89550000  0.19850000  1.0 0.200903921
C  C383  1  0.17650000  0.94970000  0.19830000  1.0 -0.0808364799
C  C384  1  0.20230000  0.97390000  0.16010000  1.0 0.059102878
C  C385  1  0.22690000  0.94410000  0.12220000  1.0 0.0404393944
C  C386  1  0.22590000  0.88990000  0.12240000  1.0 0.03060787
C  C387  1  0.25040000  0.86000000  0.08450000  1.0 0.009974552
C  C388  1  0.27620000  0.88420000  0.04630000  1.0 -0.0615204358
C  C389  1  0.27730000  0.93830000  0.04600000  1.0 0.1412391888
C  C390  1  0.25270000  0.96830000  0.08400000  1.0 -0.1423130712
C  C391  1  0.17330000  0.88050000  0.29840000  1.0 0.4482482858
C  C392  1  0.11640000  0.91540000  0.28800000  1.0 -0.359603138
C  C393  1  0.19620000  0.03660000  0.15820000  1.0 0.0791966977
C  C394  1  0.17190000  0.06570000  0.11660000  1.0 -0.0919569688
C  C395  1  0.16130000  0.12150000  0.11990000  1.0 0.03060787
C  C396  1  0.18110000  0.14730000  0.16160000  1.0 -0.1209330758
C  C397  1  0.20640000  0.11460000  0.20140000  1.0 0.0685671105
C  C398  1  0.21970000  0.05850000  0.20070000  1.0 0.03060787
C  C399  1  0.16940000  0.20220000  0.16120000  1.0 0.6026984639
C  C400  1  0.19480000  0.80640000  0.16210000  1.0 -0.0025479847
C  C401  1  0.15120000  0.78980000  0.13760000  1.0 0.200903921
C  C402  1  0.15010000  0.73570000  0.13680000  1.0 -0.1423130712
C  C403  1  0.19250000  0.69830000  0.16040000  1.0 0.059102878
C  C404  1  0.23610000  0.71470000  0.18480000  1.0 0.059102878
C  C405  1  0.23720000  0.76880000  0.18570000  1.0 0.0496216905
C  C406  1  0.28080000  0.78540000  0.21010000  1.0 0.0210729427
C  C407  1  0.32330000  0.74790000  0.23370000  1.0 -0.0919569688
C  C408  1  0.32210000  0.69390000  0.23290000  1.0 0.1623468535
C  C409  1  0.27850000  0.67730000  0.20840000  1.0 -0.1499804867
C  C410  1  0.07250000  0.79650000  0.08600000  1.0 0.4161232399
C  C411  1  0.04700000  0.74900000  0.10000000  1.0 -0.5009303888
C  C412  1  0.18460000  0.64300000  0.16010000  1.0 0.0685671105
C  C413  1  0.19980000  0.61200000  0.12030000  1.0 -0.0101139398
C  C414  1  0.19370000  0.55990000  0.11590000  1.0 0.0496216905
C  C415  1  0.16940000  0.53860000  0.15570000  1.0 -0.0502906122
C  C416  1  0.15410000  0.56630000  0.19690000  1.0 -0.020048679
C  C417  1  0.16110000  0.61730000  0.19800000  1.0 -0.0502906122
C  C418  1  0.16080000  0.48160000  0.15420000  1.0 0.6481680857
C  C419  1  0.62500000  0.27360000  0.19340000  1.0 -0.0101139398
C  C420  1  0.59120000  0.31340000  0.16180000  1.0 0.200903921
C  C421  1  0.53460000  0.31740000  0.16060000  1.0 -0.1499804867
C  C422  1  0.51480000  0.28040000  0.18470000  1.0 0.0791966977
C  C423  1  0.52700000  0.18800000  0.23390000  1.0 -0.1499804867
C  C424  1  0.56410000  0.14290000  0.26060000  1.0 0.1623468535
C  C425  1  0.61870000  0.14270000  0.26190000  1.0 -0.1006678372
C  C426  1  0.63630000  0.18430000  0.24470000  1.0 0.009974552
C  C427  1  0.60510000  0.23390000  0.21280000  1.0 0.0496216905
C  C428  1  0.54620000  0.23180000  0.21150000  1.0 0.0404393944
C  C429  1  0.58230000  0.40130000  0.11320000  1.0 0.4692034262
C  C430  1  0.61800000  0.43780000  0.09950000  1.0 -0.3391637815
C  C431  1  0.45190000  0.28650000  0.18140000  1.0 0.1023537578
C  C432  1  0.42460000  0.28320000  0.22750000  1.0 -0.0101139398
C  C433  1  0.36950000  0.29270000  0.22340000  1.0 0.0685671105
C  C434  1  0.34040000  0.30720000  0.17700000  1.0 -0.1096948364
C  C435  1  0.37300000  0.30820000  0.13040000  1.0 0.059102878
C  C436  1  0.42530000  0.29850000  0.13600000  1.0 -0.1006678372
C  C437  1  0.28460000  0.31860000  0.17310000  1.0 0.6026984639
C  C438  1  0.68730000  0.26750000  0.18600000  1.0 0.009974552
C  C439  1  0.71080000  0.30120000  0.21650000  1.0 0.200903921
C  C440  1  0.76450000  0.30290000  0.21410000  1.0 -0.2008671431
C  C441  1  0.79480000  0.27100000  0.18110000  1.0 0.0791966977
C  C442  1  0.77130000  0.23750000  0.15050000  1.0 0.0496216905
C  C443  1  0.71750000  0.23570000  0.15290000  1.0 0.0404393944
C  C444  1  0.69400000  0.20200000  0.12230000  1.0 0.03060787
C  C445  1  0.72430000  0.17010000  0.08930000  1.0 -0.1096948364
C  C446  1  0.77810000  0.17190000  0.08690000  1.0 0.0923018354
C  C447  1  0.80160000  0.20560000  0.11750000  1.0 -0.1499804867
C  C448  1  0.69350000  0.38630000  0.25700000  1.0 0.4161232399
C  C449  1  0.64220000  0.42360000  0.27200000  1.0 -0.3711735222
C  C450  1  0.85080000  0.28040000  0.17950000  1.0 0.0791966977
C  C451  1  0.89030000  0.25530000  0.21720000  1.0 -0.020048679
C  C452  1  0.94350000  0.25630000  0.21020000  1.0 0.0496216905
C  C453  1  0.95720000  0.28240000  0.16530000  1.0 -0.0502906122
C  C454  1  0.91770000  0.30750000  0.12760000  1.0 0.0404393944
C  C455  1  0.86450000  0.30650000  0.13460000  1.0 -0.0414959918
C  C456  1  0.01760000  0.29660000  0.16300000  1.0 0.5860464262
Cl  Cl1  1  0.63570000  0.87970000  0.99950000  1.0 -0.1006678372
Cl  Cl2  1  0.32860000  0.94040000  0.24440000  1.0 -0.1006678372
Cl  Cl3  1  0.66190000  0.38950000  0.48040000  1.0 0.1412391888
Cl  Cl4  1  0.75150000  0.07370000  0.68810000  1.0 0.1088537412
Cl  Cl5  1  0.11880000  0.81040000  0.43420000  1.0 -0.0697769799
Cl  Cl6  1  0.92890000  0.60250000  0.70300000  1.0 -0.0101139398
Cl  Cl7  1  0.59480000  0.91880000  0.98760000  1.0 -0.1006678372
Cl  Cl8  1  0.63480000  0.40060000  0.46670000  1.0 0.1472245174
Cl  Cl9  1  0.75470000  0.07750000  0.71360000  1.0 0.0791966977
Cl  Cl10  1  0.93020000  0.59280000  0.64680000  1.0 0.03060787
Cl  Cl11  1  0.87970000  0.63570000  0.00050000  1.0 -0.1006678372
Cl  Cl12  1  0.94040000  0.32860000  0.75560000  1.0 -0.0808364799
Cl  Cl13  1  0.38950000  0.66190000  0.51960000  1.0 0.1412391888
Cl  Cl14  1  0.07370000  0.75150000  0.31190000  1.0 0.1088537412
Cl  Cl15  1  0.81040000  0.11880000  0.56580000  1.0 -0.0615204358
Cl  Cl16  1  0.60250000  0.92890000  0.29700000  1.0 -0.0101139398
Cl  Cl17  1  0.91880000  0.59480000  0.01240000  1.0 -0.1006678372
Cl  Cl18  1  0.40060000  0.63480000  0.53330000  1.0 0.1472245174
Cl  Cl19  1  0.07750000  0.75470000  0.28640000  1.0 0.0923018354
Cl  Cl20  1  0.59280000  0.93020000  0.35320000  1.0 0.0404393944
Cl  Cl21  1  0.49830000  0.93350000  0.20400000  1.0 -0.0414959918
Cl  Cl22  1  0.53560000  0.19620000  0.50540000  1.0 -0.0414959918
Cl  Cl23  1  0.96640000  0.31040000  0.00110000  1.0 0.009974552
Cl  Cl24  1  0.65270000  0.36210000  0.72840000  1.0 -0.0101139398
Cl  Cl25  1  0.08950000  0.53850000  0.71680000  1.0 -0.0697769799
Cl  Cl26  1  0.14710000  0.80390000  0.96870000  1.0 -0.0697769799
Cl  Cl27  1  0.11540000  0.82220000  0.92500000  1.0 -0.0025479847
Cl  Cl28  1  0.93350000  0.49830000  0.79600000  1.0 -0.0414959918
Cl  Cl29  1  0.19620000  0.53560000  0.49460000  1.0 -0.0414959918
Cl  Cl30  1  0.31040000  0.96640000  0.99890000  1.0 0.0026028011
Cl  Cl31  1  0.36210000  0.65270000  0.27160000  1.0 -0.0101139398
Cl  Cl32  1  0.53850000  0.08950000  0.28320000  1.0 -0.0615204358
Cl  Cl33  1  0.80390000  0.14710000  0.03130000  1.0 -0.0697769799
Cl  Cl34  1  0.82220000  0.11540000  0.07500000  1.0 -0.0025479847
O  O1  1  0.52380000  0.77420000  0.63430000  1.0 -1.0192316485
O  O2  1  0.47430000  0.78610000  0.74380000  1.0 -0.5095515636
O  O3  1  0.54930000  0.73110000  0.75430000  1.0 -0.4531696749
O  O4  1  0.43340000  0.70180000  0.10300000  1.0 -0.2008671431
O  O5  1  0.52750000  0.80790000  0.51320000  1.0 -0.5416364384
O  O6  1  0.47910000  0.74250000  0.52080000  1.0 -0.5605137658
O  O7  1  0.55110000  0.69130000  0.17190000  1.0 -0.1790857507
O  O8  1  0.57200000  0.65080000  0.66790000  1.0 -0.4889716519
O  O9  1  0.49890000  0.65810000  0.61930000  1.0 -0.5095515636
O  O10  1  0.51460000  0.30080000  0.73090000  1.0 -0.2082599891
O  O11  1  0.49590000  0.88910000  0.67420000  1.0 -0.527706155
O  O12  1  0.53120000  0.88900000  0.59670000  1.0 -0.527706155
O  O13  1  0.46220000  0.25800000  0.63930000  1.0 -0.1790857507
O  O14  1  0.40100000  0.82880000  0.64990000  1.0 -0.5416364384
O  O15  1  0.40560000  0.75400000  0.60830000  1.0 -0.5670399381
O  O16  1  0.06800000  0.80620000  0.74420000  1.0 -0.2082599891
O  O17  1  0.64460000  0.73500000  0.69260000  1.0 -0.5009303888
O  O18  1  0.62500000  0.81460000  0.64200000  1.0 -0.5882472706
O  O19  1  0.96230000  0.89970000  0.64960000  1.0 -0.1790857507
O  O20  1  0.77420000  0.52380000  0.36570000  1.0 -1.0192316485
O  O21  1  0.78610000  0.47430000  0.25620000  1.0 -0.5009303888
O  O22  1  0.73110000  0.54930000  0.24570000  1.0 -0.4531696749
O  O23  1  0.70180000  0.43340000  0.89700000  1.0 -0.2008671431
O  O24  1  0.80790000  0.52750000  0.48680000  1.0 -0.5416364384
O  O25  1  0.74250000  0.47910000  0.47920000  1.0 -0.5605137658
O  O26  1  0.69130000  0.55110000  0.82810000  1.0 -0.1790857507
O  O27  1  0.65080000  0.57200000  0.33210000  1.0 -0.4889716519
O  O28  1  0.65810000  0.49890000  0.38070000  1.0 -0.5095515636
O  O29  1  0.30080000  0.51460000  0.26910000  1.0 -0.2082599891
O  O30  1  0.88910000  0.49590000  0.32580000  1.0 -0.527706155
O  O31  1  0.88900000  0.53120000  0.40330000  1.0 -0.527706155
O  O32  1  0.25800000  0.46220000  0.36070000  1.0 -0.1790857507
O  O33  1  0.82880000  0.40100000  0.35010000  1.0 -0.5416364384
O  O34  1  0.75400000  0.40560000  0.39170000  1.0 -0.5670399381
O  O35  1  0.80620000  0.06800000  0.25580000  1.0 -0.2082599891
O  O36  1  0.73500000  0.64460000  0.30740000  1.0 -0.5009303888
O  O37  1  0.81460000  0.62500000  0.35800000  1.0 -0.5882472706
O  O38  1  0.89970000  0.96230000  0.35040000  1.0 -0.185521738
O  O39  1  0.34630000  0.13790000  0.84430000  1.0 -1.0137386037
O  O40  1  0.36960000  0.17500000  0.96130000  1.0 -0.5095515636
O  O41  1  0.32100000  0.10960000  0.96300000  1.0 -0.5605137658
O  O42  1  0.32860000  0.19100000  0.32200000  1.0 -0.1687643578
O  O43  1  0.30800000  0.16200000  0.71930000  1.0 -0.4889716519
O  O44  1  0.38260000  0.10540000  0.73890000  1.0 -0.5502751582
O  O45  1  0.30780000  0.05380000  0.37240000  1.0 -0.2008671431
O  O46  1  0.22500000  0.18820000  0.80100000  1.0 -0.5095515636
O  O47  1  0.22770000  0.14110000  0.87690000  1.0 -0.5009303888
O  O48  1  0.86150000  0.17250000  0.75190000  1.0 -0.2358611462
O  O49  1  0.46650000  0.12850000  0.81570000  1.0 -0.5502751582
O  O50  1  0.45400000  0.18440000  0.87990000  1.0 -0.527706155
O  O51  1  0.82240000  0.11660000  0.90280000  1.0 -0.2008671431
O  O52  1  0.34630000  0.26090000  0.86950000  1.0 -0.527706155
O  O53  1  0.30670000  0.25930000  0.78870000  1.0 -0.5095515636
O  O54  1  0.35370000  0.61550000  0.86150000  1.0 -0.2082599891
O  O55  1  0.28090000  0.05010000  0.80040000  1.0 -0.4633391214
O  O56  1  0.30590000  0.02450000  0.88260000  1.0 -0.4889716519
O  O57  1  0.33480000  0.67860000  0.75190000  1.0 -0.1595391942
O  O58  1  0.13790000  0.34630000  0.15570000  1.0 -1.0192316485
O  O59  1  0.17500000  0.36960000  0.03870000  1.0 -0.5095515636
O  O60  1  0.10960000  0.32100000  0.03700000  1.0 -0.5605137658
O  O61  1  0.19100000  0.32860000  0.67800000  1.0 -0.1687643578
O  O62  1  0.16200000  0.30800000  0.28070000  1.0 -0.4889716519
O  O63  1  0.10540000  0.38260000  0.26110000  1.0 -0.5416364384
O  O64  1  0.05380000  0.30780000  0.62760000  1.0 -0.2008671431
O  O65  1  0.18820000  0.22500000  0.19900000  1.0 -0.5095515636
O  O66  1  0.14110000  0.22770000  0.12310000  1.0 -0.5009303888
O  O67  1  0.17250000  0.86150000  0.24810000  1.0 -0.2358611462
O  O68  1  0.12850000  0.46650000  0.18430000  1.0 -0.5502751582
O  O69  1  0.18440000  0.45400000  0.12010000  1.0 -0.527706155
O  O70  1  0.11660000  0.82240000  0.09720000  1.0 -0.2008671431
O  O71  1  0.26090000  0.34630000  0.13050000  1.0 -0.527706155
O  O72  1  0.25930000  0.30670000  0.21130000  1.0 -0.5009303888
O  O73  1  0.61550000  0.35370000  0.13850000  1.0 -0.2200012965
O  O74  1  0.05010000  0.28090000  0.19960000  1.0 -0.4633391214
O  O75  1  0.02450000  0.30590000  0.11740000  1.0 -0.4834251417
O  O76  1  0.67860000  0.33480000  0.24810000  1.0 -0.1595391942
