# DDEC6 charges by PACMAN v1.1 (https://github.com/mtap-research/PACMAN-charge/)
data_FECKAA_ASR_pacman
_symmetry_space_group_name_H-M   'P 1'
_cell_length_a   10.91750000
_cell_length_b   36.64880000
_cell_length_c   36.64880000
_cell_angle_alpha   120.00000000
_cell_angle_beta   90.00000000
_cell_angle_gamma   90.00000000
_symmetry_Int_Tables_number   1
_chemical_formula_structural   Zn12H270C506(Cl6O19)3
_chemical_formula_sum   'Zn12 H270 C506 Cl18 O57'
_cell_volume   12699.11190719
_cell_formula_units_Z   1
loop_
 _symmetry_equiv_pos_site_id
 _symmetry_equiv_pos_as_xyz
  1  'x, y, z'
loop_
 _atom_site_type_symbol
 _atom_site_label
 _atom_site_symmetry_multiplicity
 _atom_site_fract_x
 _atom_site_fract_y
 _atom_site_fract_z
 _atom_site_occupancy
 _atom_site_charge
Zn  Zn1  1  0.36170000  0.72420000  0.36218000  1.0 0.9171279815
Zn  Zn2  1  0.36170000  0.63782000  0.36202000  1.0 0.9171279815
Zn  Zn3  1  0.36170000  0.63798000  0.27580000  1.0 0.9171279815
Zn  Zn4  1  0.69503000  0.05753000  0.02885000  1.0 0.9171279815
Zn  Zn5  1  0.69503000  0.97115000  0.02869000  1.0 0.9171279815
Zn  Zn6  1  0.69503000  0.97131000  0.94247000  1.0 0.9171279815
Zn  Zn7  1  0.02837000  0.39087000  0.69551000  1.0 0.9171279815
Zn  Zn8  1  0.02837000  0.30449000  0.69535000  1.0 0.9171279815
Zn  Zn9  1  0.02837000  0.30465000  0.60913000  1.0 0.9171279815
Zn  Zn10  1  0.12740000  0.66666667  0.33333333  1.0 0.9263506943
Zn  Zn11  1  0.46073000  0.00003000  0.99997000  1.0 0.9263506943
Zn  Zn12  1  0.79407000  0.33333333  0.66666667  1.0 0.9263506943
H  H1  1  0.74340000  0.82900000  0.41450000  1.0 0.1404114959
H  H2  1  0.74340000  0.58550000  0.41450000  1.0 0.1404114959
H  H3  1  0.74340000  0.58550000  0.17100000  1.0 0.1404114959
H  H4  1  0.07673000  0.16233000  0.08117000  1.0 0.1404114959
H  H5  1  0.07673000  0.91883000  0.08117000  1.0 0.1404114959
H  H6  1  0.07673000  0.91883000  0.83767000  1.0 0.1404114959
H  H7  1  0.41007000  0.49567000  0.74783000  1.0 0.1404114959
H  H8  1  0.41007000  0.25217000  0.74783000  1.0 0.1404114959
H  H9  1  0.41007000  0.25217000  0.50433000  1.0 0.1404114959
H  H10  1  0.06090000  0.89510000  0.44430000  1.0 0.0989577988
H  H11  1  0.06090000  0.55570000  0.45080000  1.0 0.0989577988
H  H12  1  0.06090000  0.54920000  0.10490000  1.0 0.0897709763
H  H13  1  0.39423000  0.22843000  0.11097000  1.0 0.0989577988
H  H14  1  0.39423000  0.88903000  0.11747000  1.0 0.0989577988
H  H15  1  0.39423000  0.88253000  0.77157000  1.0 0.0897709763
H  H16  1  0.72757000  0.56177000  0.77763000  1.0 0.0989577988
H  H17  1  0.72757000  0.22237000  0.78413000  1.0 0.0897709763
H  H18  1  0.72757000  0.21587000  0.43823000  1.0 0.0989577988
H  H19  1  0.17200000  0.83220000  0.41590000  1.0 0.1493780428
H  H20  1  0.17200000  0.58410000  0.41630000  1.0 0.1493780428
H  H21  1  0.17200000  0.58370000  0.16780000  1.0 0.1404114959
H  H22  1  0.50533000  0.16553000  0.08257000  1.0 0.1493780428
H  H23  1  0.50533000  0.91743000  0.08297000  1.0 0.1493780428
H  H24  1  0.50533000  0.91703000  0.83447000  1.0 0.1404114959
H  H25  1  0.83867000  0.49887000  0.74923000  1.0 0.1493780428
H  H26  1  0.83867000  0.25077000  0.74963000  1.0 0.1404114959
H  H27  1  0.83867000  0.25037000  0.50113000  1.0 0.1493780428
H  H28  1  0.85460000  0.76610000  0.38620000  1.0 0.1404114959
H  H29  1  0.85460000  0.61380000  0.37990000  1.0 0.1404114959
H  H30  1  0.85460000  0.62010000  0.23390000  1.0 0.1404114959
H  H31  1  0.18793000  0.09943000  0.05287000  1.0 0.1404114959
H  H32  1  0.18793000  0.94713000  0.04657000  1.0 0.1404114959
H  H33  1  0.18793000  0.95343000  0.90057000  1.0 0.1404114959
H  H34  1  0.52127000  0.43277000  0.71953000  1.0 0.1404114959
H  H35  1  0.52127000  0.28047000  0.71323000  1.0 0.1404114959
H  H36  1  0.52127000  0.28677000  0.56723000  1.0 0.1404114959
H  H37  1  0.80230000  0.91690000  0.40660000  1.0 0.1772006044
H  H38  1  0.80230000  0.59340000  0.51030000  1.0 0.1728878035
H  H39  1  0.80230000  0.48970000  0.08310000  1.0 0.1772006044
H  H40  1  0.13563000  0.25023000  0.07327000  1.0 0.1728878035
H  H41  1  0.13563000  0.92673000  0.17697000  1.0 0.1772006044
H  H42  1  0.13563000  0.82303000  0.74977000  1.0 0.1772006044
H  H43  1  0.46897000  0.58357000  0.73993000  1.0 0.1728878035
H  H44  1  0.46897000  0.26007000  0.84363000  1.0 0.1772006044
H  H45  1  0.46897000  0.15637000  0.41643000  1.0 0.1772006044
H  H46  1  0.58960000  0.00790000  0.56860000  1.0 0.1198401166
H  H47  1  0.58960000  0.43140000  0.43930000  1.0 0.1198401166
H  H48  1  0.58960000  0.56070000  0.99210000  1.0 0.1198401166
H  H49  1  0.92293000  0.34123000  0.23527000  1.0 0.1198401166
H  H50  1  0.92293000  0.76473000  0.10597000  1.0 0.1198401166
H  H51  1  0.92293000  0.89403000  0.65877000  1.0 0.1198401166
H  H52  1  0.25627000  0.67457000  0.90193000  1.0 0.1198401166
H  H53  1  0.25627000  0.09807000  0.77263000  1.0 0.1198401166
H  H54  1  0.25627000  0.22737000  0.32543000  1.0 0.1198401166
H  H55  1  0.64240000  0.97900000  0.61080000  1.0 0.1404114959
H  H56  1  0.64240000  0.38920000  0.36820000  1.0 0.1493780428
H  H57  1  0.64240000  0.63180000  0.02100000  1.0 0.1493780428
H  H58  1  0.97573000  0.31233000  0.27747000  1.0 0.1493780428
H  H59  1  0.97573000  0.72253000  0.03487000  1.0 0.1493780428
H  H60  1  0.97573000  0.96513000  0.68767000  1.0 0.1493780428
H  H61  1  0.30907000  0.64567000  0.94413000  1.0 0.1493780428
H  H62  1  0.30907000  0.05587000  0.70153000  1.0 0.1493780428
H  H63  1  0.30907000  0.29847000  0.35433000  1.0 0.1493780428
H  H64  1  0.84270000  0.88900000  0.51480000  1.0 0.1493780428
H  H65  1  0.84270000  0.48520000  0.37420000  1.0 0.1493780428
H  H66  1  0.84270000  0.62580000  0.11100000  1.0 0.1493780428
H  H67  1  0.17603000  0.22233000  0.18147000  1.0 0.1493780428
H  H68  1  0.17603000  0.81853000  0.04087000  1.0 0.1493780428
H  H69  1  0.17603000  0.95913000  0.77767000  1.0 0.1493780428
H  H70  1  0.50937000  0.55567000  0.84813000  1.0 0.1493780428
H  H71  1  0.50937000  0.15187000  0.70753000  1.0 0.1493780428
H  H72  1  0.50937000  0.29247000  0.44433000  1.0 0.1493780428
H  H73  1  0.29810000  0.04660000  0.52240000  1.0 0.1493780428
H  H74  1  0.29810000  0.47760000  0.52420000  1.0 0.1493780428
H  H75  1  0.29810000  0.47580000  0.95340000  1.0 0.1493780428
H  H76  1  0.63143000  0.37993000  0.18907000  1.0 0.1493780428
H  H77  1  0.63143000  0.81093000  0.19087000  1.0 0.1493780428
H  H78  1  0.63143000  0.80913000  0.62007000  1.0 0.1493780428
H  H79  1  0.96477000  0.71327000  0.85573000  1.0 0.1493780428
H  H80  1  0.96477000  0.14427000  0.85753000  1.0 0.1493780428
H  H81  1  0.96477000  0.14247000  0.28673000  1.0 0.1493780428
H  H82  1  0.81550000  0.04090000  0.52510000  1.0 0.1312775665
H  H83  1  0.81550000  0.47490000  0.51580000  1.0 0.1312775665
H  H84  1  0.81550000  0.48420000  0.95910000  1.0 0.1312775665
H  H85  1  0.14883000  0.37423000  0.19177000  1.0 0.1312775665
H  H86  1  0.14883000  0.80823000  0.18247000  1.0 0.1312775665
H  H87  1  0.14883000  0.81753000  0.62577000  1.0 0.1312775665
H  H88  1  0.48217000  0.70757000  0.85843000  1.0 0.1312775665
H  H89  1  0.48217000  0.14157000  0.84913000  1.0 0.1198401166
H  H90  1  0.48217000  0.15087000  0.29243000  1.0 0.1312775665
H  H91  1  0.90070000  0.10860000  0.56000000  1.0 0.1404114959
H  H92  1  0.90070000  0.44000000  0.54860000  1.0 0.1404114959
H  H93  1  0.90070000  0.45140000  0.89140000  1.0 0.1404114959
H  H94  1  0.23403000  0.44193000  0.22667000  1.0 0.1404114959
H  H95  1  0.23403000  0.77333000  0.21527000  1.0 0.1404114959
H  H96  1  0.23403000  0.78473000  0.55807000  1.0 0.1404114959
H  H97  1  0.56737000  0.77527000  0.89333000  1.0 0.1404114959
H  H98  1  0.56737000  0.10667000  0.88193000  1.0 0.1404114959
H  H99  1  0.56737000  0.11807000  0.22473000  1.0 0.1404114959
H  H100  1  0.56040000  0.15940000  0.58200000  1.0 0.1312775665
H  H101  1  0.56040000  0.41800000  0.57740000  1.0 0.1312775665
H  H102  1  0.56040000  0.42260000  0.84060000  1.0 0.1312775665
H  H103  1  0.89373000  0.49273000  0.24867000  1.0 0.1312775665
H  H104  1  0.89373000  0.75133000  0.24407000  1.0 0.1312775665
H  H105  1  0.89373000  0.75593000  0.50727000  1.0 0.1404114959
H  H106  1  0.22707000  0.82607000  0.91533000  1.0 0.1312775665
H  H107  1  0.22707000  0.08467000  0.91073000  1.0 0.1312775665
H  H108  1  0.22707000  0.08927000  0.17393000  1.0 0.1312775665
H  H109  1  0.34760000  0.13350000  0.51080000  1.0 0.1312775665
H  H110  1  0.34760000  0.48920000  0.62270000  1.0 0.1198401166
H  H111  1  0.34760000  0.37730000  0.86650000  1.0 0.1312775665
H  H112  1  0.68093000  0.46683000  0.17747000  1.0 0.1312775665
H  H113  1  0.68093000  0.82253000  0.28937000  1.0 0.1312775665
H  H114  1  0.68093000  0.71063000  0.53317000  1.0 0.1312775665
H  H115  1  0.01427000  0.80017000  0.84413000  1.0 0.1312775665
H  H116  1  0.01427000  0.15587000  0.95603000  1.0 0.1312775665
H  H117  1  0.01427000  0.04397000  0.19983000  1.0 0.1312775665
H  H118  1  0.33660000  0.13070000  0.61990000  1.0 0.1312775665
H  H119  1  0.33660000  0.38010000  0.51080000  1.0 0.1312775665
H  H120  1  0.33660000  0.48920000  0.86930000  1.0 0.1312775665
H  H121  1  0.66993000  0.46403000  0.28657000  1.0 0.1312775665
H  H122  1  0.66993000  0.71343000  0.17747000  1.0 0.1312775665
H  H123  1  0.66993000  0.82253000  0.53597000  1.0 0.1312775665
H  H124  1  0.00327000  0.79737000  0.95323000  1.0 0.1312775665
H  H125  1  0.00327000  0.04677000  0.84413000  1.0 0.1312775665
H  H126  1  0.00327000  0.15587000  0.20263000  1.0 0.1312775665
H  H127  1  0.20730000  0.18960000  0.64930000  1.0 0.1103531904
H  H128  1  0.20730000  0.35070000  0.54030000  1.0 0.1103531904
H  H129  1  0.20730000  0.45970000  0.81040000  1.0 0.1103531904
H  H130  1  0.54063000  0.52293000  0.31597000  1.0 0.1103531904
H  H131  1  0.54063000  0.68403000  0.20697000  1.0 0.1103531904
H  H132  1  0.54063000  0.79303000  0.47707000  1.0 0.1103531904
H  H133  1  0.87397000  0.85627000  0.98263000  1.0 0.1103531904
H  H134  1  0.87397000  0.01737000  0.87363000  1.0 0.1103531904
H  H135  1  0.87397000  0.12637000  0.14373000  1.0 0.1103531904
H  H136  1  0.21830000  0.19230000  0.54020000  1.0 0.1103531904
H  H137  1  0.21830000  0.45980000  0.65210000  1.0 0.1103531904
H  H138  1  0.21830000  0.34790000  0.80770000  1.0 0.1103531904
H  H139  1  0.55163000  0.52563000  0.20687000  1.0 0.1103531904
H  H140  1  0.55163000  0.79313000  0.31877000  1.0 0.1103531904
H  H141  1  0.55163000  0.68123000  0.47437000  1.0 0.1103531904
H  H142  1  0.88497000  0.85897000  0.87353000  1.0 0.1103531904
H  H143  1  0.88497000  0.12647000  0.98543000  1.0 0.1103531904
H  H144  1  0.88497000  0.01457000  0.14103000  1.0 0.1103531904
H  H145  1  0.30320000  0.93370000  0.47160000  1.0 0.1198401166
H  H146  1  0.30320000  0.52840000  0.46210000  1.0 0.1198401166
H  H147  1  0.30320000  0.53790000  0.06630000  1.0 0.1198401166
H  H148  1  0.63653000  0.26703000  0.13827000  1.0 0.1198401166
H  H149  1  0.63653000  0.86173000  0.12877000  1.0 0.1198401166
H  H150  1  0.63653000  0.87123000  0.73297000  1.0 0.1198401166
H  H151  1  0.96987000  0.60037000  0.80493000  1.0 0.1198401166
H  H152  1  0.96987000  0.19507000  0.79543000  1.0 0.1198401166
H  H153  1  0.96987000  0.20457000  0.39963000  1.0 0.1198401166
H  H154  1  0.31020000  0.96510000  0.45240000  1.0 0.1404114959
H  H155  1  0.31020000  0.54760000  0.51270000  1.0 0.1312775665
H  H156  1  0.31020000  0.48730000  0.03490000  1.0 0.1312775665
H  H157  1  0.64353000  0.29843000  0.11907000  1.0 0.1312775665
H  H158  1  0.64353000  0.88093000  0.17937000  1.0 0.1404114959
H  H159  1  0.64353000  0.82063000  0.70157000  1.0 0.1312775665
H  H160  1  0.97687000  0.63177000  0.78573000  1.0 0.1312775665
H  H161  1  0.97687000  0.21427000  0.84603000  1.0 0.1312775665
H  H162  1  0.97687000  0.15397000  0.36823000  1.0 0.1404114959
H  H163  1  0.96950000  0.92060000  0.44800000  1.0 0.0587216491
H  H164  1  0.96950000  0.55200000  0.47260000  1.0 0.0662879424
H  H165  1  0.96950000  0.52740000  0.07940000  1.0 0.0662879424
H  H166  1  0.30283000  0.25393000  0.11467000  1.0 0.0662879424
H  H167  1  0.30283000  0.88533000  0.13927000  1.0 0.0587216491
H  H168  1  0.30283000  0.86073000  0.74607000  1.0 0.0662879424
H  H169  1  0.63617000  0.58727000  0.78133000  1.0 0.0662879424
H  H170  1  0.63617000  0.21867000  0.80593000  1.0 0.0662879424
H  H171  1  0.63617000  0.19407000  0.41273000  1.0 0.0662879424
H  H172  1  0.06850000  0.91110000  0.49930000  1.0 0.1198401166
H  H173  1  0.06850000  0.50070000  0.41180000  1.0 0.1198401166
H  H174  1  0.06850000  0.58820000  0.08890000  1.0 0.1103531904
H  H175  1  0.40183000  0.24443000  0.16597000  1.0 0.1198401166
H  H176  1  0.40183000  0.83403000  0.07847000  1.0 0.1198401166
H  H177  1  0.40183000  0.92153000  0.75557000  1.0 0.1103531904
H  H178  1  0.73517000  0.57777000  0.83263000  1.0 0.1198401166
H  H179  1  0.73517000  0.16737000  0.74513000  1.0 0.1103531904
H  H180  1  0.73517000  0.25487000  0.42223000  1.0 0.1198401166
H  H181  1  0.22360000  0.95760000  0.54050000  1.0 0.1198401166
H  H182  1  0.22360000  0.45950000  0.41710000  1.0 0.1198401166
H  H183  1  0.22360000  0.58290000  0.04240000  1.0 0.1404114959
H  H184  1  0.55693000  0.29093000  0.20717000  1.0 0.1198401166
H  H185  1  0.55693000  0.79283000  0.08377000  1.0 0.1198401166
H  H186  1  0.55693000  0.91623000  0.70907000  1.0 0.1404114959
H  H187  1  0.89027000  0.62427000  0.87383000  1.0 0.1198401166
H  H188  1  0.89027000  0.12617000  0.75043000  1.0 0.1404114959
H  H189  1  0.89027000  0.24957000  0.37573000  1.0 0.1198401166
H  H190  1  0.18070000  0.02300000  0.47910000  1.0 0.1198401166
H  H191  1  0.18070000  0.52090000  0.54390000  1.0 0.1103531904
H  H192  1  0.18070000  0.45610000  0.97700000  1.0 0.1198401166
H  H193  1  0.51403000  0.35633000  0.14577000  1.0 0.1198401166
H  H194  1  0.51403000  0.85423000  0.21057000  1.0 0.1198401166
H  H195  1  0.51403000  0.78943000  0.64367000  1.0 0.1198401166
H  H196  1  0.84737000  0.68967000  0.81243000  1.0 0.1198401166
H  H197  1  0.84737000  0.18757000  0.87723000  1.0 0.1198401166
H  H198  1  0.84737000  0.12277000  0.31033000  1.0 0.1198401166
H  H199  1  0.02560000  0.97660000  0.43790000  1.0 0.1404114959
H  H200  1  0.02560000  0.56210000  0.53870000  1.0 0.1312775665
H  H201  1  0.02560000  0.46130000  0.02340000  1.0 0.1312775665
H  H202  1  0.35893000  0.30993000  0.10457000  1.0 0.1312775665
H  H203  1  0.35893000  0.89543000  0.20537000  1.0 0.1404114959
H  H204  1  0.35893000  0.79463000  0.69007000  1.0 0.1312775665
H  H205  1  0.69227000  0.64327000  0.77123000  1.0 0.1312775665
H  H206  1  0.69227000  0.22877000  0.87203000  1.0 0.1312775665
H  H207  1  0.69227000  0.12797000  0.35673000  1.0 0.1404114959
H  H208  1  0.52290000  0.01490000  0.45520000  1.0 0.1103531904
H  H209  1  0.52290000  0.54480000  0.55970000  1.0 0.1103531904
H  H210  1  0.52290000  0.44030000  0.98510000  1.0 0.0989577988
H  H211  1  0.85623000  0.34823000  0.12187000  1.0 0.0989577988
H  H212  1  0.85623000  0.87813000  0.22637000  1.0 0.1103531904
H  H213  1  0.85623000  0.77363000  0.65177000  1.0 0.0897709763
H  H214  1  0.18957000  0.68157000  0.78853000  1.0 0.0897709763
H  H215  1  0.18957000  0.21147000  0.89303000  1.0 0.0989577988
H  H216  1  0.18957000  0.10697000  0.31843000  1.0 0.0897709763
H  H217  1  0.46970000  0.96980000  0.42200000  1.0 0.1103531904
H  H218  1  0.46970000  0.57800000  0.54780000  1.0 0.1103531904
H  H219  1  0.46970000  0.45220000  0.03020000  1.0 0.0897709763
H  H220  1  0.80303000  0.30313000  0.08867000  1.0 0.0989577988
H  H221  1  0.80303000  0.91133000  0.21447000  1.0 0.1103531904
H  H222  1  0.80303000  0.78553000  0.69687000  1.0 0.0803976683
H  H223  1  0.13637000  0.63647000  0.75533000  1.0 0.0803976683
H  H224  1  0.13637000  0.24467000  0.88113000  1.0 0.0989577988
H  H225  1  0.13637000  0.11887000  0.36353000  1.0 0.0897709763
H  H226  1  0.36130000  0.01780000  0.40020000  1.0 0.1493780428
H  H227  1  0.36130000  0.59980000  0.61760000  1.0 0.1404114959
H  H228  1  0.36130000  0.38240000  0.98220000  1.0 0.1312775665
H  H229  1  0.69463000  0.35113000  0.06687000  1.0 0.1404114959
H  H230  1  0.69463000  0.93313000  0.28427000  1.0 0.1493780428
H  H231  1  0.69463000  0.71573000  0.64887000  1.0 0.1198401166
H  H232  1  0.02797000  0.68447000  0.73353000  1.0 0.1312775665
H  H233  1  0.02797000  0.26647000  0.95093000  1.0 0.1312775665
H  H234  1  0.02797000  0.04907000  0.31553000  1.0 0.1312775665
H  H235  1  0.71010000  0.97470000  0.37230000  1.0 0.1103531904
H  H236  1  0.71010000  0.62770000  0.60240000  1.0 0.1198401166
H  H237  1  0.71010000  0.39760000  0.02530000  1.0 0.0989577988
H  H238  1  0.04343000  0.30803000  0.03897000  1.0 0.1103531904
H  H239  1  0.04343000  0.96103000  0.26907000  1.0 0.1103531904
H  H240  1  0.04343000  0.73093000  0.69197000  1.0 0.0989577988
H  H241  1  0.37677000  0.64137000  0.70563000  1.0 0.0989577988
H  H242  1  0.37677000  0.29437000  0.93573000  1.0 0.1198401166
H  H243  1  0.37677000  0.06427000  0.35863000  1.0 0.1103531904
H  H244  1  0.63680000  0.90720000  0.32510000  1.0 0.1198401166
H  H245  1  0.63680000  0.67490000  0.58210000  1.0 0.1312775665
H  H246  1  0.63680000  0.41790000  0.09280000  1.0 0.1312775665
H  H247  1  0.97013000  0.24053000  0.99177000  1.0 0.1312775665
H  H248  1  0.97013000  0.00823000  0.24877000  1.0 0.1198401166
H  H249  1  0.97013000  0.75123000  0.75947000  1.0 0.1493780428
H  H250  1  0.30347000  0.57387000  0.65843000  1.0 0.1312775665
H  H251  1  0.30347000  0.34157000  0.91543000  1.0 0.1312775665
H  H252  1  0.30347000  0.08457000  0.42613000  1.0 0.1312775665
H  H253  1  0.42580000  0.89490000  0.31550000  1.0 0.1198401166
H  H254  1  0.42580000  0.68450000  0.57940000  1.0 0.1312775665
H  H255  1  0.42580000  0.42060000  0.10510000  1.0 0.1198401166
H  H256  1  0.75913000  0.22823000  0.98217000  1.0 0.1312775665
H  H257  1  0.75913000  0.01783000  0.24607000  1.0 0.1198401166
H  H258  1  0.75913000  0.75393000  0.77177000  1.0 0.1198401166
H  H259  1  0.09247000  0.56157000  0.64883000  1.0 0.1312775665
H  H260  1  0.09247000  0.35117000  0.91273000  1.0 0.1312775665
H  H261  1  0.09247000  0.08727000  0.43843000  1.0 0.1198401166
H  H262  1  0.28800000  0.95030000  0.35300000  1.0 0.1103531904
H  H263  1  0.28800000  0.64700000  0.59730000  1.0 0.1103531904
H  H264  1  0.28800000  0.40270000  0.04970000  1.0 0.1103531904
H  H265  1  0.62133000  0.28363000  0.01967000  1.0 0.1198401166
H  H266  1  0.62133000  0.98033000  0.26397000  1.0 0.1198401166
H  H267  1  0.62133000  0.73603000  0.71637000  1.0 0.1103531904
H  H268  1  0.95467000  0.61697000  0.68633000  1.0 0.1103531904
H  H269  1  0.95467000  0.31367000  0.93063000  1.0 0.1198401166
H  H270  1  0.95467000  0.06937000  0.38303000  1.0 0.1103531904
C  C1  1  0.83000000  0.83000000  0.41500000  1.0 -0.1495540939
C  C2  1  0.83000000  0.58500000  0.41500000  1.0 -0.1495540939
C  C3  1  0.83000000  0.58500000  0.17000000  1.0 -0.1495540939
C  C4  1  0.16333000  0.16333000  0.08167000  1.0 -0.1582427978
C  C5  1  0.16333000  0.91833000  0.08167000  1.0 -0.1495540939
C  C6  1  0.16333000  0.91833000  0.83667000  1.0 -0.1495540939
C  C7  1  0.49667000  0.49667000  0.74833000  1.0 -0.1582427978
C  C8  1  0.49667000  0.25167000  0.74833000  1.0 -0.1495540939
C  C9  1  0.49667000  0.25167000  0.50333000  1.0 -0.1495540939
C  C10  1  0.89200000  0.86800000  0.43200000  1.0 0.0587216491
C  C11  1  0.89200000  0.56800000  0.43600000  1.0 0.0587216491
C  C12  1  0.89200000  0.56400000  0.13200000  1.0 0.0587216491
C  C13  1  0.22533000  0.20133000  0.09867000  1.0 0.0587216491
C  C14  1  0.22533000  0.90133000  0.10267000  1.0 0.0587216491
C  C15  1  0.22533000  0.89733000  0.79867000  1.0 0.0587216491
C  C16  1  0.55867000  0.53467000  0.76533000  1.0 0.0587216491
C  C17  1  0.55867000  0.23467000  0.76933000  1.0 0.0587216491
C  C18  1  0.55867000  0.23067000  0.46533000  1.0 0.0587216491
C  C19  1  0.01900000  0.86890000  0.43250000  1.0 -0.1495540939
C  C20  1  0.01900000  0.56750000  0.43640000  1.0 -0.1394235798
C  C21  1  0.01900000  0.56360000  0.13110000  1.0 -0.1582427978
C  C22  1  0.35233000  0.20223000  0.09917000  1.0 -0.1495540939
C  C23  1  0.35233000  0.90083000  0.10307000  1.0 -0.1495540939
C  C24  1  0.35233000  0.89693000  0.79777000  1.0 -0.1582427978
C  C25  1  0.68567000  0.53557000  0.76583000  1.0 -0.1495540939
C  C26  1  0.68567000  0.23417000  0.76973000  1.0 -0.1582427978
C  C27  1  0.68567000  0.23027000  0.46443000  1.0 -0.1495540939
C  C28  1  0.08500000  0.83150000  0.41560000  1.0 -0.0921184807
C  C29  1  0.08500000  0.58440000  0.41590000  1.0 -0.0921184807
C  C30  1  0.08500000  0.58410000  0.16850000  1.0 -0.1009140154
C  C31  1  0.41833000  0.16483000  0.08227000  1.0 -0.0921184807
C  C32  1  0.41833000  0.91773000  0.08257000  1.0 -0.0921184807
C  C33  1  0.41833000  0.91743000  0.83517000  1.0 -0.1009140154
C  C34  1  0.75167000  0.49817000  0.74893000  1.0 -0.0921184807
C  C35  1  0.75167000  0.25107000  0.74923000  1.0 -0.1009140154
C  C36  1  0.75167000  0.25077000  0.50183000  1.0 -0.0921184807
C  C37  1  0.02400000  0.79320000  0.39840000  1.0 -0.0076773692
C  C38  1  0.02400000  0.60160000  0.39480000  1.0 -0.0076773692
C  C39  1  0.02400000  0.60520000  0.20680000  1.0 0.0031524377
C  C40  1  0.35733000  0.12653000  0.06507000  1.0 -0.0076773692
C  C41  1  0.35733000  0.93493000  0.06147000  1.0 -0.0076773692
C  C42  1  0.35733000  0.93853000  0.87347000  1.0 0.0031524377
C  C43  1  0.69067000  0.45987000  0.73173000  1.0 -0.0076773692
C  C44  1  0.69067000  0.26827000  0.72813000  1.0 0.0031524377
C  C45  1  0.69067000  0.27187000  0.54013000  1.0 -0.0076773692
C  C46  1  0.89600000  0.79200000  0.39800000  1.0 -0.0716632649
C  C47  1  0.89600000  0.60200000  0.39400000  1.0 -0.0716632649
C  C48  1  0.89600000  0.60600000  0.20800000  1.0 -0.0716632649
C  C49  1  0.22933000  0.12533000  0.06467000  1.0 -0.0716632649
C  C50  1  0.22933000  0.93533000  0.06067000  1.0 -0.0716632649
C  C51  1  0.22933000  0.93933000  0.87467000  1.0 -0.0716632649
C  C52  1  0.56267000  0.45867000  0.73133000  1.0 -0.0716632649
C  C53  1  0.56267000  0.26867000  0.72733000  1.0 -0.0716632649
C  C54  1  0.56267000  0.27267000  0.54133000  1.0 -0.0716632649
C  C55  1  0.11800000  0.75440000  0.37770000  1.0 0.6005991976
C  C56  1  0.11800000  0.62230000  0.37670000  1.0 0.6005991976
C  C57  1  0.11800000  0.62330000  0.24560000  1.0 0.6005991976
C  C58  1  0.45133000  0.08773000  0.04437000  1.0 0.6005991976
C  C59  1  0.45133000  0.95563000  0.04337000  1.0 0.6005991976
C  C60  1  0.45133000  0.95663000  0.91227000  1.0 0.6005991976
C  C61  1  0.78467000  0.42107000  0.71103000  1.0 0.6005991976
C  C62  1  0.78467000  0.28897000  0.71003000  1.0 0.6005991976
C  C63  1  0.78467000  0.28997000  0.57893000  1.0 0.6005991976
C  C64  1  0.13200000  0.22700000  0.61300000  1.0 0.4341562106
C  C65  1  0.13200000  0.38700000  0.61400000  1.0 0.4341562106
C  C66  1  0.13200000  0.38600000  0.77300000  1.0 0.4341562106
C  C67  1  0.46533000  0.56033000  0.27967000  1.0 0.4341562106
C  C68  1  0.46533000  0.72033000  0.28067000  1.0 0.4341562106
C  C69  1  0.46533000  0.71933000  0.43967000  1.0 0.4341562106
C  C70  1  0.79867000  0.89367000  0.94633000  1.0 0.4341562106
C  C71  1  0.79867000  0.05367000  0.94733000  1.0 0.4341562106
C  C72  1  0.79867000  0.05267000  0.10633000  1.0 0.4341562106
C  C73  1  0.65300000  0.98300000  0.49200000  1.0 -0.0619885464
C  C74  1  0.65300000  0.50800000  0.49100000  1.0 -0.0716632649
C  C75  1  0.65300000  0.50900000  0.01700000  1.0 -0.0716632649
C  C76  1  0.98633000  0.31633000  0.15867000  1.0 -0.0716632649
C  C77  1  0.98633000  0.84133000  0.15767000  1.0 -0.0619885464
C  C78  1  0.98633000  0.84233000  0.68367000  1.0 -0.0716632649
C  C79  1  0.31967000  0.64967000  0.82533000  1.0 -0.0716632649
C  C80  1  0.31967000  0.17467000  0.82433000  1.0 -0.0716632649
C  C81  1  0.31967000  0.17567000  0.35033000  1.0 -0.0716632649
C  C82  1  0.69700000  0.96500000  0.45100000  1.0 0.2973632661
C  C83  1  0.69700000  0.54900000  0.51400000  1.0 0.2973632661
C  C84  1  0.69700000  0.48600000  0.03500000  1.0 0.2973632661
C  C85  1  0.03033000  0.29833000  0.11767000  1.0 0.2973632661
C  C86  1  0.03033000  0.88233000  0.18067000  1.0 0.2973632661
C  C87  1  0.03033000  0.81933000  0.70167000  1.0 0.2973632661
C  C88  1  0.36367000  0.63167000  0.78433000  1.0 0.2973632661
C  C89  1  0.36367000  0.21567000  0.84733000  1.0 0.2973632661
C  C90  1  0.36367000  0.15267000  0.36833000  1.0 0.2973632661
C  C91  1  0.77200000  0.92900000  0.43500000  1.0 -0.3008381214
C  C92  1  0.77200000  0.56500000  0.49400000  1.0 -0.3105134354
C  C93  1  0.77200000  0.50600000  0.07100000  1.0 -0.2907214498
C  C94  1  0.10533000  0.26233000  0.10167000  1.0 -0.3181349224
C  C95  1  0.10533000  0.89833000  0.16067000  1.0 -0.3008381214
C  C96  1  0.10533000  0.83933000  0.73767000  1.0 -0.3008381214
C  C97  1  0.43867000  0.59567000  0.76833000  1.0 -0.3105134354
C  C98  1  0.43867000  0.23167000  0.82733000  1.0 -0.2907214498
C  C99  1  0.43867000  0.17267000  0.40433000  1.0 -0.3105134354
C  C100  1  0.80400000  0.91200000  0.46000000  1.0 0.0496217424
C  C101  1  0.80400000  0.54000000  0.45200000  1.0 0.0410818386
C  C102  1  0.80400000  0.54800000  0.08800000  1.0 0.0410818386
C  C103  1  0.13733000  0.24533000  0.12667000  1.0 0.0410818386
C  C104  1  0.13733000  0.87333000  0.11867000  1.0 0.0496217424
C  C105  1  0.13733000  0.88133000  0.75467000  1.0 0.0298166511
C  C106  1  0.47067000  0.57867000  0.79333000  1.0 0.0410818386
C  C107  1  0.47067000  0.20667000  0.78533000  1.0 0.0410818386
C  C108  1  0.47067000  0.21467000  0.42133000  1.0 0.0496217424
C  C109  1  0.76000000  0.93000000  0.50100000  1.0 0.0298166511
C  C110  1  0.76000000  0.49900000  0.42900000  1.0 0.0298166511
C  C111  1  0.76000000  0.57100000  0.07000000  1.0 0.0298166511
C  C112  1  0.09333000  0.26333000  0.16767000  1.0 0.0298166511
C  C113  1  0.09333000  0.83233000  0.09567000  1.0 0.0298166511
C  C114  1  0.09333000  0.90433000  0.73667000  1.0 0.0410818386
C  C115  1  0.42667000  0.59667000  0.83433000  1.0 0.0298166511
C  C116  1  0.42667000  0.16567000  0.76233000  1.0 0.0298166511
C  C117  1  0.42667000  0.23767000  0.40333000  1.0 0.0298166511
C  C118  1  0.68500000  0.96560000  0.51700000  1.0 0.0410818386
C  C119  1  0.68500000  0.48300000  0.44860000  1.0 0.0410818386
C  C120  1  0.68500000  0.55140000  0.03440000  1.0 0.0410818386
C  C121  1  0.01833000  0.29893000  0.18367000  1.0 0.0410818386
C  C122  1  0.01833000  0.81633000  0.11527000  1.0 0.0410818386
C  C123  1  0.01833000  0.88473000  0.70107000  1.0 0.0410818386
C  C124  1  0.35167000  0.63227000  0.85033000  1.0 0.0410818386
C  C125  1  0.35167000  0.14967000  0.78193000  1.0 0.0410818386
C  C126  1  0.35167000  0.21807000  0.36773000  1.0 0.0410818386
C  C127  1  0.64100000  0.98400000  0.55800000  1.0 -0.1009140154
C  C128  1  0.64100000  0.44200000  0.42600000  1.0 -0.1096404384
C  C129  1  0.64100000  0.57400000  0.01600000  1.0 -0.1096404384
C  C130  1  0.97433000  0.31733000  0.22467000  1.0 -0.1096404384
C  C131  1  0.97433000  0.77533000  0.09267000  1.0 -0.1096404384
C  C132  1  0.97433000  0.90733000  0.68267000  1.0 -0.1096404384
C  C133  1  0.30767000  0.65067000  0.89133000  1.0 -0.1009140154
C  C134  1  0.30767000  0.10867000  0.75933000  1.0 -0.1174451917
C  C135  1  0.30767000  0.24067000  0.34933000  1.0 -0.1096404384
C  C136  1  0.67200000  0.96700000  0.58300000  1.0 -0.1174451917
C  C137  1  0.67200000  0.41700000  0.38400000  1.0 -0.1174451917
C  C138  1  0.67200000  0.61600000  0.03300000  1.0 -0.1174451917
C  C139  1  0.00533000  0.30033000  0.24967000  1.0 -0.1174451917
C  C140  1  0.00533000  0.75033000  0.05067000  1.0 -0.1174451917
C  C141  1  0.00533000  0.94933000  0.69967000  1.0 -0.1174451917
C  C142  1  0.33867000  0.63367000  0.91633000  1.0 -0.1174451917
C  C143  1  0.33867000  0.08367000  0.71733000  1.0 -0.1174451917
C  C144  1  0.33867000  0.28267000  0.36633000  1.0 -0.1174451917
C  C145  1  0.74800000  0.93100000  0.56700000  1.0 0.1103531904
C  C146  1  0.74800000  0.43300000  0.36400000  1.0 0.0989577988
C  C147  1  0.74800000  0.63600000  0.06900000  1.0 0.0989577988
C  C148  1  0.08133000  0.26433000  0.23367000  1.0 0.0989577988
C  C149  1  0.08133000  0.76633000  0.03067000  1.0 0.0989577988
C  C150  1  0.08133000  0.96933000  0.73567000  1.0 0.0989577988
C  C151  1  0.41467000  0.59767000  0.90033000  1.0 0.1103531904
C  C152  1  0.41467000  0.09967000  0.69733000  1.0 0.0897709763
C  C153  1  0.41467000  0.30267000  0.40233000  1.0 0.0989577988
C  C154  1  0.79100000  0.91300000  0.52600000  1.0 -0.1721129048
C  C155  1  0.79100000  0.47400000  0.38700000  1.0 -0.1721129048
C  C156  1  0.79100000  0.61300000  0.08700000  1.0 -0.1721129048
C  C157  1  0.12433000  0.24633000  0.19267000  1.0 -0.1721129048
C  C158  1  0.12433000  0.80733000  0.05367000  1.0 -0.1721129048
C  C159  1  0.12433000  0.94633000  0.75367000  1.0 -0.1721129048
C  C160  1  0.45767000  0.57967000  0.85933000  1.0 -0.1721129048
C  C161  1  0.45767000  0.14067000  0.72033000  1.0 -0.1721129048
C  C162  1  0.45767000  0.27967000  0.42033000  1.0 -0.1721129048
C  C163  1  0.58700000  0.01980000  0.51200000  1.0 -0.0716632649
C  C164  1  0.58700000  0.48800000  0.50780000  1.0 -0.0777996715
C  C165  1  0.58700000  0.49220000  0.98020000  1.0 -0.0716632649
C  C166  1  0.92033000  0.35313000  0.17867000  1.0 -0.0777996715
C  C167  1  0.92033000  0.82133000  0.17447000  1.0 -0.0716632649
C  C168  1  0.92033000  0.82553000  0.64687000  1.0 -0.0716632649
C  C169  1  0.25367000  0.68647000  0.84533000  1.0 -0.0716632649
C  C170  1  0.25367000  0.15467000  0.84113000  1.0 -0.0716632649
C  C171  1  0.25367000  0.15887000  0.31353000  1.0 -0.0716632649
C  C172  1  0.46000000  0.01480000  0.50800000  1.0 0.2369384134
C  C173  1  0.46000000  0.49200000  0.50680000  1.0 0.230894714
C  C174  1  0.46000000  0.49320000  0.98520000  1.0 0.230894714
C  C175  1  0.79333000  0.34813000  0.17467000  1.0 0.230894714
C  C176  1  0.79333000  0.82533000  0.17347000  1.0 0.2369384134
C  C177  1  0.79333000  0.82653000  0.65187000  1.0 0.2369384134
C  C178  1  0.12667000  0.68147000  0.84133000  1.0 0.230894714
C  C179  1  0.12667000  0.15867000  0.84013000  1.0 0.230894714
C  C180  1  0.12667000  0.15987000  0.31853000  1.0 0.2369384134
C  C181  1  0.38400000  0.05000000  0.52500000  1.0 -0.2605291914
C  C182  1  0.38400000  0.47500000  0.52500000  1.0 -0.2605291914
C  C183  1  0.38400000  0.47500000  0.95000000  1.0 -0.2699247307
C  C184  1  0.71733000  0.38333000  0.19167000  1.0 -0.2699247307
C  C185  1  0.71733000  0.80833000  0.19167000  1.0 -0.2605291914
C  C186  1  0.71733000  0.80833000  0.61667000  1.0 -0.2907214498
C  C187  1  0.05067000  0.71667000  0.85833000  1.0 -0.2605291914
C  C188  1  0.05067000  0.14167000  0.85833000  1.0 -0.2907214498
C  C189  1  0.05067000  0.14167000  0.28333000  1.0 -0.2699247307
C  C190  1  0.43500000  0.09020000  0.54600000  1.0 0.0587216491
C  C191  1  0.43500000  0.45400000  0.54420000  1.0 0.0496217424
C  C192  1  0.43500000  0.45580000  0.90980000  1.0 0.0496217424
C  C193  1  0.76833000  0.42353000  0.21267000  1.0 0.0496217424
C  C194  1  0.76833000  0.78733000  0.21087000  1.0 0.0587216491
C  C195  1  0.76833000  0.78913000  0.57647000  1.0 0.0496217424
C  C196  1  0.10167000  0.75687000  0.87933000  1.0 0.0496217424
C  C197  1  0.10167000  0.12067000  0.87753000  1.0 0.0496217424
C  C198  1  0.10167000  0.12247000  0.24313000  1.0 0.0587216491
C  C199  1  0.56200000  0.09520000  0.54970000  1.0 0.0410818386
C  C200  1  0.56200000  0.45030000  0.54550000  1.0 0.0410818386
C  C201  1  0.56200000  0.45450000  0.90480000  1.0 0.0410818386
C  C202  1  0.89533000  0.42853000  0.21637000  1.0 0.0410818386
C  C203  1  0.89533000  0.78363000  0.21217000  1.0 0.0410818386
C  C204  1  0.89533000  0.78783000  0.57147000  1.0 0.0410818386
C  C205  1  0.22867000  0.76187000  0.88303000  1.0 0.0410818386
C  C206  1  0.22867000  0.11697000  0.87883000  1.0 0.0410818386
C  C207  1  0.22867000  0.12117000  0.23813000  1.0 0.0410818386
C  C208  1  0.63700000  0.06000000  0.53300000  1.0 0.0410818386
C  C209  1  0.63700000  0.46700000  0.52700000  1.0 0.0410818386
C  C210  1  0.63700000  0.47300000  0.94000000  1.0 0.0496217424
C  C211  1  0.97033000  0.39333000  0.19967000  1.0 0.0410818386
C  C212  1  0.97033000  0.80033000  0.19367000  1.0 0.0496217424
C  C213  1  0.97033000  0.80633000  0.60667000  1.0 0.0496217424
C  C214  1  0.30367000  0.72667000  0.86633000  1.0 0.0410818386
C  C215  1  0.30367000  0.13367000  0.86033000  1.0 0.0496217424
C  C216  1  0.30367000  0.13967000  0.27333000  1.0 0.0410818386
C  C217  1  0.76400000  0.06500000  0.53700000  1.0 -0.1096404384
C  C218  1  0.76400000  0.46300000  0.52800000  1.0 -0.1096404384
C  C219  1  0.76400000  0.47200000  0.93500000  1.0 -0.1174451917
C  C220  1  0.09733000  0.39833000  0.20367000  1.0 -0.1096404384
C  C221  1  0.09733000  0.79633000  0.19467000  1.0 -0.1096404384
C  C222  1  0.09733000  0.80533000  0.60167000  1.0 -0.1174451917
C  C223  1  0.43067000  0.73167000  0.87033000  1.0 -0.1096404384
C  C224  1  0.43067000  0.12967000  0.86133000  1.0 -0.1174451917
C  C225  1  0.43067000  0.13867000  0.26833000  1.0 -0.1096404384
C  C226  1  0.81400000  0.10500000  0.55700000  1.0 -0.1284496461
C  C227  1  0.81400000  0.44300000  0.54800000  1.0 -0.1284496461
C  C228  1  0.81400000  0.45200000  0.89500000  1.0 -0.1284496461
C  C229  1  0.14733000  0.43833000  0.22367000  1.0 -0.1284496461
C  C230  1  0.14733000  0.77633000  0.21467000  1.0 -0.1284496461
C  C231  1  0.14733000  0.78533000  0.56167000  1.0 -0.1284496461
C  C232  1  0.48067000  0.77167000  0.89033000  1.0 -0.1284496461
C  C233  1  0.48067000  0.10967000  0.88133000  1.0 -0.1284496461
C  C234  1  0.48067000  0.11867000  0.22833000  1.0 -0.1284496461
C  C235  1  0.73900000  0.14000000  0.57400000  1.0 0.1312775665
C  C236  1  0.73900000  0.42600000  0.56600000  1.0 0.1312775665
C  C237  1  0.73900000  0.43400000  0.86000000  1.0 0.1312775665
C  C238  1  0.07233000  0.47333000  0.24067000  1.0 0.1312775665
C  C239  1  0.07233000  0.75933000  0.23267000  1.0 0.1312775665
C  C240  1  0.07233000  0.76733000  0.52667000  1.0 0.1312775665
C  C241  1  0.40567000  0.80667000  0.90733000  1.0 0.1312775665
C  C242  1  0.40567000  0.09267000  0.89933000  1.0 0.1312775665
C  C243  1  0.40567000  0.10067000  0.19333000  1.0 0.1312775665
C  C244  1  0.61200000  0.13530000  0.57000000  1.0 -0.1721129048
C  C245  1  0.61200000  0.43000000  0.56530000  1.0 -0.1792316435
C  C246  1  0.61200000  0.43470000  0.86470000  1.0 -0.1721129048
C  C247  1  0.94533000  0.46863000  0.23667000  1.0 -0.1792316435
C  C248  1  0.94533000  0.76333000  0.23197000  1.0 -0.1721129048
C  C249  1  0.94533000  0.76803000  0.53137000  1.0 -0.1792316435
C  C250  1  0.27867000  0.80197000  0.90333000  1.0 -0.1721129048
C  C251  1  0.27867000  0.09667000  0.89863000  1.0 -0.1792316435
C  C252  1  0.27867000  0.10137000  0.19803000  1.0 -0.1792316435
C  C253  1  0.31900000  0.14490000  0.53890000  1.0 -0.1582427978
C  C254  1  0.31900000  0.46110000  0.60600000  1.0 -0.1721129048
C  C255  1  0.31900000  0.39400000  0.85510000  1.0 -0.1495540939
C  C256  1  0.65233000  0.47823000  0.20557000  1.0 -0.1582427978
C  C257  1  0.65233000  0.79443000  0.27267000  1.0 -0.1582427978
C  C258  1  0.65233000  0.72733000  0.52177000  1.0 -0.1582427978
C  C259  1  0.98567000  0.81157000  0.87223000  1.0 -0.1582427978
C  C260  1  0.98567000  0.12777000  0.93933000  1.0 -0.1582427978
C  C261  1  0.98567000  0.06067000  0.18843000  1.0 -0.1582427978
C  C262  1  0.35400000  0.12660000  0.56300000  1.0 0.0897709763
C  C263  1  0.35400000  0.43700000  0.56360000  1.0 0.0803976683
C  C264  1  0.35400000  0.43640000  0.87340000  1.0 0.0803976683
C  C265  1  0.68733000  0.45993000  0.22967000  1.0 0.0803976683
C  C266  1  0.68733000  0.77033000  0.23027000  1.0 0.0897709763
C  C267  1  0.68733000  0.76973000  0.54007000  1.0 0.0897709763
C  C268  1  0.02067000  0.79327000  0.89633000  1.0 0.0897709763
C  C269  1  0.02067000  0.10367000  0.89693000  1.0 0.0803976683
C  C270  1  0.02067000  0.10307000  0.20673000  1.0 0.0897709763
C  C271  1  0.31300000  0.14320000  0.60400000  1.0 -0.1495540939
C  C272  1  0.31300000  0.39600000  0.53920000  1.0 -0.1495540939
C  C273  1  0.31300000  0.46080000  0.85680000  1.0 -0.1495540939
C  C274  1  0.64633000  0.47653000  0.27067000  1.0 -0.1495540939
C  C275  1  0.64633000  0.72933000  0.20587000  1.0 -0.1495540939
C  C276  1  0.64633000  0.79413000  0.52347000  1.0 -0.1495540939
C  C277  1  0.97967000  0.80987000  0.93733000  1.0 -0.1495540939
C  C278  1  0.97967000  0.06267000  0.87253000  1.0 -0.1495540939
C  C279  1  0.97967000  0.12747000  0.19013000  1.0 -0.1495540939
C  C280  1  0.23600000  0.17820000  0.62120000  1.0 -0.0417701034
C  C281  1  0.23600000  0.37880000  0.55700000  1.0 -0.0417701034
C  C282  1  0.23600000  0.44300000  0.82180000  1.0 -0.0417701034
C  C283  1  0.56933000  0.51153000  0.28787000  1.0 -0.0417701034
C  C284  1  0.56933000  0.71213000  0.22367000  1.0 -0.0417701034
C  C285  1  0.56933000  0.77633000  0.48847000  1.0 -0.0417701034
C  C286  1  0.90267000  0.84487000  0.95453000  1.0 -0.0417701034
C  C287  1  0.90267000  0.04547000  0.89033000  1.0 -0.0417701034
C  C288  1  0.90267000  0.10967000  0.15513000  1.0 -0.0417701034
C  C289  1  0.20100000  0.19650000  0.59750000  1.0 -0.1174451917
C  C290  1  0.20100000  0.40250000  0.59900000  1.0 -0.1174451917
C  C291  1  0.20100000  0.40100000  0.80350000  1.0 -0.1174451917
C  C292  1  0.53433000  0.52983000  0.26417000  1.0 -0.1174451917
C  C293  1  0.53433000  0.73583000  0.26567000  1.0 -0.1174451917
C  C294  1  0.53433000  0.73433000  0.47017000  1.0 -0.1096404384
C  C295  1  0.86767000  0.86317000  0.93083000  1.0 -0.1174451917
C  C296  1  0.86767000  0.06917000  0.93233000  1.0 -0.1096404384
C  C297  1  0.86767000  0.06767000  0.13683000  1.0 -0.1174451917
C  C298  1  0.24200000  0.17980000  0.55630000  1.0 -0.0494632142
C  C299  1  0.24200000  0.44370000  0.62350000  1.0 -0.0494632142
C  C300  1  0.24200000  0.37650000  0.82020000  1.0 -0.0417701034
C  C301  1  0.57533000  0.51313000  0.22297000  1.0 -0.0494632142
C  C302  1  0.57533000  0.77703000  0.29017000  1.0 -0.0494632142
C  C303  1  0.57533000  0.70983000  0.48687000  1.0 -0.0494632142
C  C304  1  0.90867000  0.84647000  0.88963000  1.0 -0.0494632142
C  C305  1  0.90867000  0.11037000  0.95683000  1.0 -0.0494632142
C  C306  1  0.90867000  0.04317000  0.15353000  1.0 -0.0494632142
C  C307  1  0.31300000  0.96300000  0.47800000  1.0 -0.0307501314
C  C308  1  0.31300000  0.52200000  0.48500000  1.0 -0.0417701034
C  C309  1  0.31300000  0.51500000  0.03700000  1.0 -0.0212289921
C  C310  1  0.64633000  0.29633000  0.14467000  1.0 -0.0417701034
C  C311  1  0.64633000  0.85533000  0.15167000  1.0 -0.0307501314
C  C312  1  0.64633000  0.84833000  0.70367000  1.0 -0.0212289921
C  C313  1  0.97967000  0.62967000  0.81133000  1.0 -0.0417701034
C  C314  1  0.97967000  0.18867000  0.81833000  1.0 -0.0212289921
C  C315  1  0.97967000  0.18167000  0.37033000  1.0 -0.0307501314
C  C316  1  0.03200000  0.93900000  0.46500000  1.0 -0.1495540939
C  C317  1  0.03200000  0.53500000  0.47400000  1.0 -0.1495540939
C  C318  1  0.03200000  0.52600000  0.06100000  1.0 -0.1495540939
C  C319  1  0.36533000  0.27233000  0.13167000  1.0 -0.1495540939
C  C320  1  0.36533000  0.86833000  0.14067000  1.0 -0.1495540939
C  C321  1  0.36533000  0.85933000  0.72767000  1.0 -0.1495540939
C  C322  1  0.69867000  0.60567000  0.79833000  1.0 -0.1495540939
C  C323  1  0.69867000  0.20167000  0.80733000  1.0 -0.1495540939
C  C324  1  0.69867000  0.19267000  0.39433000  1.0 -0.1495540939
C  C325  1  0.09100000  0.93400000  0.49500000  1.0 0.0803976683
C  C326  1  0.09100000  0.50500000  0.43900000  1.0 0.0803976683
C  C327  1  0.09100000  0.56100000  0.06600000  1.0 0.0298166511
C  C328  1  0.42433000  0.26733000  0.16167000  1.0 0.0803976683
C  C329  1  0.42433000  0.83833000  0.10567000  1.0 0.0803976683
C  C330  1  0.42433000  0.89433000  0.73267000  1.0 0.0298166511
C  C331  1  0.75767000  0.60067000  0.82833000  1.0 0.0803976683
C  C332  1  0.75767000  0.17167000  0.77233000  1.0 0.0298166511
C  C333  1  0.75767000  0.22767000  0.39933000  1.0 0.0803976683
C  C334  1  0.18000000  0.96100000  0.52000000  1.0 -0.24219973
C  C335  1  0.18000000  0.48000000  0.44100000  1.0 -0.2699247307
C  C336  1  0.18000000  0.55900000  0.03900000  1.0 -0.2195642371
C  C337  1  0.51333000  0.29433000  0.18667000  1.0 -0.2605291914
C  C338  1  0.51333000  0.81333000  0.10767000  1.0 -0.24219973
C  C339  1  0.51333000  0.89233000  0.70567000  1.0 -0.2195642371
C  C340  1  0.84667000  0.62767000  0.85333000  1.0 -0.2523474994
C  C341  1  0.84667000  0.14667000  0.77433000  1.0 -0.2292841411
C  C342  1  0.84667000  0.22567000  0.37233000  1.0 -0.24219973
C  C343  1  0.21700000  0.99500000  0.51400000  1.0 0.1869615827
C  C344  1  0.21700000  0.48600000  0.48100000  1.0 0.1869615827
C  C345  1  0.21700000  0.51900000  0.00500000  1.0 0.1493780428
C  C346  1  0.55033000  0.32833000  0.18067000  1.0 0.1869615827
C  C347  1  0.55033000  0.81933000  0.14767000  1.0 0.1869615827
C  C348  1  0.55033000  0.85233000  0.67167000  1.0 0.1493780428
C  C349  1  0.88367000  0.66167000  0.84733000  1.0 0.1869615827
C  C350  1  0.88367000  0.15267000  0.81433000  1.0 0.1493780428
C  C351  1  0.88367000  0.18567000  0.33833000  1.0 0.1869615827
C  C352  1  0.15800000  0.00000000  0.48300000  1.0 -0.1721129048
C  C353  1  0.15800000  0.51700000  0.51700000  1.0 -0.1880140489
C  C354  1  0.15800000  0.48300000  0.00000000  1.0 -0.1582427978
C  C355  1  0.49133000  0.33333333  0.14967000  1.0 -0.1880140489
C  C356  1  0.49133000  0.85033000  0.18367000  1.0 -0.1721129048
C  C357  1  0.49133000  0.81633000  0.66666667  1.0 -0.1792316435
C  C358  1  0.82467000  0.66666667  0.81633000  1.0 -0.1792316435
C  C359  1  0.82467000  0.18367000  0.85033000  1.0 -0.1792316435
C  C360  1  0.82467000  0.14967000  0.33333333  1.0 -0.1792316435
C  C361  1  0.06600000  0.97300000  0.45900000  1.0 -0.1009140154
C  C362  1  0.06600000  0.54100000  0.51400000  1.0 -0.1009140154
C  C363  1  0.06600000  0.48600000  0.02700000  1.0 -0.1174451917
C  C364  1  0.39933000  0.30633000  0.12567000  1.0 -0.1009140154
C  C365  1  0.39933000  0.87433000  0.18067000  1.0 -0.1009140154
C  C366  1  0.39933000  0.81933000  0.69367000  1.0 -0.1284496461
C  C367  1  0.73267000  0.63967000  0.79233000  1.0 -0.1009140154
C  C368  1  0.73267000  0.20767000  0.84733000  1.0 -0.1284496461
C  C369  1  0.73267000  0.15267000  0.36033000  1.0 -0.1009140154
C  C370  1  0.54000000  0.98900000  0.42800000  1.0 -0.0307501314
C  C371  1  0.54000000  0.57200000  0.56100000  1.0 -0.0307501314
C  C372  1  0.54000000  0.43900000  0.01100000  1.0 -0.0212289921
C  C373  1  0.87333000  0.32233000  0.09467000  1.0 0.0110748159
C  C374  1  0.87333000  0.90533000  0.22767000  1.0 -0.0307501314
C  C375  1  0.87333000  0.77233000  0.67767000  1.0 -0.0022033864
C  C376  1  0.20667000  0.65567000  0.76133000  1.0 -0.0076773692
C  C377  1  0.20667000  0.23867000  0.89433000  1.0 -0.0212289921
C  C378  1  0.20667000  0.10567000  0.34433000  1.0 -0.0076773692
C  C379  1  0.42000000  0.99500000  0.38500000  1.0 -0.2605291914
C  C380  1  0.42000000  0.61500000  0.61000000  1.0 -0.1721129048
C  C381  1  0.42000000  0.39000000  0.00500000  1.0 -0.2195642371
C  C382  1  0.75333000  0.32833000  0.05167000  1.0 -0.0921184807
C  C383  1  0.75333000  0.94833000  0.27667000  1.0 -0.2523474994
C  C384  1  0.75333000  0.72333000  0.67167000  1.0 -0.1394235798
C  C385  1  0.08667000  0.66167000  0.71833000  1.0 -0.1394235798
C  C386  1  0.08667000  0.28167000  0.94333000  1.0 -0.1721129048
C  C387  1  0.08667000  0.05667000  0.33833000  1.0 -0.1394235798
C  C388  1  0.54000000  0.00300000  0.39100000  1.0 0.1404114959
C  C389  1  0.54000000  0.60900000  0.61200000  1.0 0.0897709763
C  C390  1  0.54000000  0.38800000  0.99700000  1.0 0.1198401166
C  C391  1  0.87333000  0.33633000  0.05767000  1.0 0.0200617326
C  C392  1  0.87333000  0.94233000  0.27867000  1.0 0.1404114959
C  C393  1  0.87333000  0.72133000  0.66367000  1.0 0.0989577988
C  C394  1  0.20667000  0.66967000  0.72433000  1.0 0.0897709763
C  C395  1  0.20667000  0.27567000  0.94533000  1.0 0.0989577988
C  C396  1  0.20667000  0.05467000  0.33033000  1.0 0.0989577988
C  C397  1  0.62400000  0.97000000  0.36800000  1.0 -0.0076773692
C  C398  1  0.62400000  0.63200000  0.60200000  1.0 -0.0022033864
C  C399  1  0.62400000  0.39800000  0.03000000  1.0 0.0031524377
C  C400  1  0.95733000  0.30333000  0.03467000  1.0 0.0200617326
C  C401  1  0.95733000  0.96533000  0.26867000  1.0 -0.0076773692
C  C402  1  0.95733000  0.73133000  0.69667000  1.0 0.0110748159
C  C403  1  0.29067000  0.63667000  0.70133000  1.0 -0.0307501314
C  C404  1  0.29067000  0.29867000  0.93533000  1.0 0.0110748159
C  C405  1  0.29067000  0.06467000  0.36333000  1.0 -0.0022033864
C  C406  1  0.58000000  0.93000000  0.34000000  1.0 -0.0716632649
C  C407  1  0.58000000  0.66000000  0.59000000  1.0 -0.0921184807
C  C408  1  0.58000000  0.41000000  0.07000000  1.0 -0.2020621187
C  C409  1  0.91333000  0.26333000  0.00667000  1.0 -0.1009140154
C  C410  1  0.91333000  0.99333000  0.25667000  1.0 -0.0716632649
C  C411  1  0.91333000  0.74333000  0.73667000  1.0 -0.1880140489
C  C412  1  0.24667000  0.59667000  0.67333000  1.0 -0.1174451917
C  C413  1  0.24667000  0.32667000  0.92333000  1.0 -0.1792316435
C  C414  1  0.24667000  0.07667000  0.40333000  1.0 -0.0777996715
C  C415  1  0.46000000  0.92200000  0.33500000  1.0 -0.0716632649
C  C416  1  0.46000000  0.66500000  0.58700000  1.0 -0.0619885464
C  C417  1  0.46000000  0.41300000  0.07800000  1.0 0.0031524377
C  C418  1  0.79333000  0.25533000  0.00167000  1.0 -0.0619885464
C  C419  1  0.79333000  0.99833000  0.25367000  1.0 -0.0619885464
C  C420  1  0.79333000  0.74633000  0.74467000  1.0 0.0031524377
C  C421  1  0.12667000  0.58867000  0.66833000  1.0 -0.0921184807
C  C422  1  0.12667000  0.33167000  0.92033000  1.0 -0.0076773692
C  C423  1  0.12667000  0.07967000  0.41133000  1.0 -0.0619885464
C  C424  1  0.37400000  0.95500000  0.35700000  1.0 0.0989577988
C  C425  1  0.37400000  0.64300000  0.59800000  1.0 0.0587216491
C  C426  1  0.37400000  0.40200000  0.04500000  1.0 0.0587216491
C  C427  1  0.70733000  0.28833000  0.02367000  1.0 0.0200617326
C  C428  1  0.70733000  0.97633000  0.26467000  1.0 0.0989577988
C  C429  1  0.70733000  0.73533000  0.71167000  1.0 0.0298166511
C  C430  1  0.04067000  0.62167000  0.69033000  1.0 0.0496217424
C  C431  1  0.04067000  0.30967000  0.93133000  1.0 0.0200617326
C  C432  1  0.04067000  0.06867000  0.37833000  1.0 0.0662879424
C  C433  1  0.51000000  0.89200000  0.70600000  1.0 -0.2292841411
C  C434  1  0.51000000  0.29400000  0.18600000  1.0 -0.2605291914
C  C435  1  0.51000000  0.81400000  0.10800000  1.0 -0.2523474994
C  C436  1  0.84333000  0.22533000  0.37267000  1.0 -0.2523474994
C  C437  1  0.84333000  0.62733000  0.85267000  1.0 -0.2605291914
C  C438  1  0.84333000  0.14733000  0.77467000  1.0 -0.24219973
C  C439  1  0.17667000  0.55867000  0.03933000  1.0 -0.2292841411
C  C440  1  0.17667000  0.96067000  0.51933000  1.0 -0.2523474994
C  C441  1  0.17667000  0.48067000  0.44133000  1.0 -0.2803244328
C  C442  1  0.51000000  0.29400000  0.18700000  1.0 -0.2699247307
C  C443  1  0.51000000  0.81300000  0.10700000  1.0 -0.2523474994
C  C444  1  0.84333000  0.62733000  0.85367000  1.0 -0.2605291914
C  C445  1  0.84333000  0.22633000  0.37267000  1.0 -0.2605291914
C  C446  1  0.17667000  0.96067000  0.52033000  1.0 -0.2523474994
C  C447  1  0.17667000  0.47967000  0.44033000  1.0 -0.2803244328
C  C448  1  0.75000000  0.72300000  0.67200000  1.0 -0.1394235798
C  C449  1  0.75000000  0.32800000  0.05100000  1.0 -0.0921184807
C  C450  1  0.75000000  0.94900000  0.27700000  1.0 -0.2523474994
C  C451  1  0.08333000  0.05633000  0.33867000  1.0 -0.1394235798
C  C452  1  0.08333000  0.66133000  0.71767000  1.0 -0.1495540939
C  C453  1  0.08333000  0.28233000  0.94367000  1.0 -0.1792316435
C  C454  1  0.41667000  0.38967000  0.00533000  1.0 -0.2195642371
C  C455  1  0.41667000  0.99467000  0.38433000  1.0 -0.2605291914
C  C456  1  0.41667000  0.61567000  0.61033000  1.0 -0.1792316435
C  C457  1  0.75000000  0.94800000  0.27600000  1.0 -0.2523474994
C  C458  1  0.75000000  0.72400000  0.67200000  1.0 -0.1394235798
C  C459  1  0.08333000  0.66133000  0.71867000  1.0 -0.1495540939
C  C460  1  0.08333000  0.05733000  0.33867000  1.0 -0.1394235798
C  C461  1  0.41667000  0.99467000  0.38533000  1.0 -0.2605291914
C  C462  1  0.41667000  0.39067000  0.00533000  1.0 -0.2195642371
C  C463  1  0.87000000  0.72100000  0.66400000  1.0 0.0897709763
C  C464  1  0.87000000  0.33600000  0.05700000  1.0 0.0200617326
C  C465  1  0.87000000  0.94300000  0.27900000  1.0 0.1312775665
C  C466  1  0.20333000  0.05433000  0.33067000  1.0 0.0897709763
C  C467  1  0.20333000  0.66933000  0.72367000  1.0 0.0803976683
C  C468  1  0.20333000  0.27633000  0.94567000  1.0 0.0897709763
C  C469  1  0.53667000  0.38767000  0.99733000  1.0 0.1103531904
C  C470  1  0.53667000  0.00267000  0.39033000  1.0 0.1312775665
C  C471  1  0.53667000  0.60967000  0.61233000  1.0 0.0897709763
C  C472  1  0.87000000  0.33600000  0.05800000  1.0 0.0298166511
C  C473  1  0.87000000  0.72200000  0.66400000  1.0 0.0897709763
C  C474  1  0.20333000  0.66933000  0.72467000  1.0 0.0803976683
C  C475  1  0.20333000  0.05533000  0.33067000  1.0 0.0897709763
C  C476  1  0.91000000  0.74300000  0.73700000  1.0 -0.2120262346
C  C477  1  0.91000000  0.26300000  0.00600000  1.0 -0.1174451917
C  C478  1  0.91000000  0.99400000  0.25700000  1.0 -0.0921184807
C  C479  1  0.24333000  0.07633000  0.40367000  1.0 -0.0921184807
C  C480  1  0.24333000  0.59633000  0.67267000  1.0 -0.1174451917
C  C481  1  0.24333000  0.32733000  0.92367000  1.0 -0.2120262346
C  C482  1  0.57667000  0.40967000  0.07033000  1.0 -0.2195642371
C  C483  1  0.57667000  0.92967000  0.33933000  1.0 -0.0921184807
C  C484  1  0.57667000  0.66067000  0.59033000  1.0 -0.1096404384
C  C485  1  0.91000000  0.26300000  0.00700000  1.0 -0.1096404384
C  C486  1  0.91000000  0.99300000  0.25600000  1.0 -0.0921184807
C  C487  1  0.91000000  0.74400000  0.73700000  1.0 -0.2120262346
C  C488  1  0.24333000  0.32633000  0.92267000  1.0 -0.2120262346
C  C489  1  0.24333000  0.07733000  0.40367000  1.0 -0.0921184807
C  C490  1  0.57667000  0.92967000  0.34033000  1.0 -0.0921184807
C  C491  1  0.57667000  0.65967000  0.58933000  1.0 -0.1009140154
C  C492  1  0.57667000  0.41067000  0.07033000  1.0 -0.2195642371
C  C493  1  0.79000000  0.74600000  0.74500000  1.0 0.0031524377
C  C494  1  0.79000000  0.25500000  0.00100000  1.0 -0.0494632142
C  C495  1  0.79000000  0.99900000  0.25400000  1.0 -0.0417701034
C  C496  1  0.12333000  0.07933000  0.41167000  1.0 -0.0619885464
C  C497  1  0.12333000  0.58833000  0.66767000  1.0 -0.0921184807
C  C498  1  0.12333000  0.33233000  0.92067000  1.0 -0.0022033864
C  C499  1  0.45667000  0.41267000  0.07833000  1.0 0.0110748159
C  C500  1  0.45667000  0.92167000  0.33433000  1.0 -0.0494632142
C  C501  1  0.45667000  0.66567000  0.58733000  1.0 -0.0494632142
C  C502  1  0.79000000  0.25500000  0.00200000  1.0 -0.0494632142
C  C503  1  0.79000000  0.99800000  0.25300000  1.0 -0.0417701034
C  C504  1  0.12333000  0.08033000  0.41167000  1.0 -0.0619885464
C  C505  1  0.45667000  0.92167000  0.33533000  1.0 -0.0494632142
C  C506  1  0.45667000  0.66467000  0.58633000  1.0 -0.0494632142
Cl  Cl1  1  0.79200000  0.90600000  0.60400000  1.0 -0.4187161213
Cl  Cl2  1  0.79200000  0.39600000  0.30200000  1.0 -0.4068009516
Cl  Cl3  1  0.79200000  0.69800000  0.09400000  1.0 -0.3891498482
Cl  Cl4  1  0.12533000  0.23933000  0.27067000  1.0 -0.40022821
Cl  Cl5  1  0.12533000  0.72933000  0.96867000  1.0 -0.4068009516
Cl  Cl6  1  0.12533000  0.03133000  0.76067000  1.0 -0.4068009516
Cl  Cl7  1  0.45867000  0.57267000  0.93733000  1.0 -0.4187161213
Cl  Cl8  1  0.45867000  0.06267000  0.63533000  1.0 -0.40022821
Cl  Cl9  1  0.45867000  0.36467000  0.42733000  1.0 -0.4068009516
Cl  Cl10  1  0.82200000  0.19500000  0.59500000  1.0 -0.3181349224
Cl  Cl11  1  0.82200000  0.40500000  0.60000000  1.0 -0.3181349224
Cl  Cl12  1  0.82200000  0.40000000  0.80500000  1.0 -0.3105134354
Cl  Cl13  1  0.15533000  0.52833000  0.26167000  1.0 -0.3105134354
Cl  Cl14  1  0.15533000  0.73833000  0.26667000  1.0 -0.3181349224
Cl  Cl15  1  0.15533000  0.73333000  0.47167000  1.0 -0.3181349224
Cl  Cl16  1  0.48867000  0.86167000  0.92833000  1.0 -0.3105134354
Cl  Cl17  1  0.48867000  0.07167000  0.93333000  1.0 -0.3181349224
Cl  Cl18  1  0.48867000  0.06667000  0.13833000  1.0 -0.3181349224
O  O1  1  0.30200000  0.66666667  0.33333333  1.0 -0.9759832408
O  O2  1  0.63533000  0.00003000  0.99997000  1.0 -0.9759832408
O  O3  1  0.96867000  0.33333333  0.66666667  1.0 -0.9759832408
O  O4  1  0.22100000  0.76190000  0.38110000  1.0 -0.4383241984
O  O5  1  0.22100000  0.61890000  0.38080000  1.0 -0.4383241984
O  O6  1  0.22100000  0.61920000  0.23810000  1.0 -0.4383241984
O  O7  1  0.55433000  0.09523000  0.04777000  1.0 -0.4383241984
O  O8  1  0.55433000  0.95223000  0.04747000  1.0 -0.4383241984
O  O9  1  0.55433000  0.95253000  0.90477000  1.0 -0.4383241984
O  O10  1  0.88767000  0.42857000  0.71443000  1.0 -0.4383241984
O  O11  1  0.88767000  0.28557000  0.71413000  1.0 -0.4383241984
O  O12  1  0.88767000  0.28587000  0.57143000  1.0 -0.4383241984
O  O13  1  0.05400000  0.72070000  0.36010000  1.0 -0.5271480467
O  O14  1  0.05400000  0.63990000  0.36060000  1.0 -0.5271480467
O  O15  1  0.05400000  0.63940000  0.27930000  1.0 -0.5271480467
O  O16  1  0.38733000  0.05403000  0.02677000  1.0 -0.5271480467
O  O17  1  0.38733000  0.97323000  0.02727000  1.0 -0.5271480467
O  O18  1  0.38733000  0.97273000  0.94597000  1.0 -0.5271480467
O  O19  1  0.72067000  0.38737000  0.69343000  1.0 -0.5271480467
O  O20  1  0.72067000  0.30657000  0.69393000  1.0 -0.5271480467
O  O21  1  0.72067000  0.30607000  0.61263000  1.0 -0.5271480467
O  O22  1  0.43400000  0.73500000  0.41830000  1.0 -0.40022821
O  O23  1  0.43400000  0.58170000  0.31670000  1.0 -0.40022821
O  O24  1  0.43400000  0.68330000  0.26500000  1.0 -0.40022821
O  O25  1  0.76733000  0.06833000  0.08497000  1.0 -0.40022821
O  O26  1  0.76733000  0.91503000  0.98337000  1.0 -0.40022821
O  O27  1  0.76733000  0.01663000  0.93167000  1.0 -0.40022821
O  O28  1  0.10067000  0.40167000  0.75163000  1.0 -0.40022821
O  O29  1  0.10067000  0.24837000  0.65003000  1.0 -0.40022821
O  O30  1  0.10067000  0.34997000  0.59833000  1.0 -0.40022821
O  O31  1  0.43400000  0.68280000  0.41860000  1.0 -0.3891498482
O  O32  1  0.43400000  0.58140000  0.26420000  1.0 -0.3844876921
O  O33  1  0.43400000  0.73580000  0.31720000  1.0 -0.3844876921
O  O34  1  0.76733000  0.01613000  0.08527000  1.0 -0.3844876921
O  O35  1  0.76733000  0.91473000  0.93087000  1.0 -0.3844876921
O  O36  1  0.76733000  0.06913000  0.98387000  1.0 -0.3844876921
O  O37  1  0.10067000  0.34947000  0.75193000  1.0 -0.3844876921
O  O38  1  0.10067000  0.24807000  0.59753000  1.0 -0.3844876921
O  O39  1  0.10067000  0.40247000  0.65053000  1.0 -0.3844876921
O  O40  1  0.40300000  0.98000000  0.49900000  1.0 -0.1495540939
O  O41  1  0.40300000  0.50100000  0.48100000  1.0 -0.1284496461
O  O42  1  0.40300000  0.51900000  0.02000000  1.0 -0.1284496461
O  O43  1  0.73633000  0.31333000  0.16567000  1.0 -0.1284496461
O  O44  1  0.73633000  0.83433000  0.14767000  1.0 -0.1495540939
O  O45  1  0.73633000  0.85233000  0.68667000  1.0 -0.1284496461
O  O46  1  0.06967000  0.64667000  0.83233000  1.0 -0.1394235798
O  O47  1  0.06967000  0.16767000  0.81433000  1.0 -0.1174451917
O  O48  1  0.06967000  0.18567000  0.35333000  1.0 -0.1394235798
O  O49  1  0.63100000  0.97200000  0.43200000  1.0 -0.1284496461
O  O50  1  0.63100000  0.56800000  0.54000000  1.0 -0.1096404384
O  O51  1  0.63100000  0.46000000  0.02800000  1.0 -0.1174451917
O  O52  1  0.96433000  0.30533000  0.09867000  1.0 -0.1284496461
O  O53  1  0.96433000  0.90133000  0.20667000  1.0 -0.1174451917
O  O54  1  0.96433000  0.79333000  0.69467000  1.0 -0.1495540939
O  O55  1  0.29767000  0.63867000  0.76533000  1.0 -0.1394235798
O  O56  1  0.29767000  0.23467000  0.87333000  1.0 -0.1174451917
O  O57  1  0.29767000  0.12667000  0.36133000  1.0 -0.1495540939
