# DDEC6 charges by PACMAN v1.1 (https://github.com/mtap-research/PACMAN-charge/)
data_FECXUI_FSR_pacman
_symmetry_space_group_name_H-M   'P 1'
_cell_length_a   23.57930000
_cell_length_b   18.62650000
_cell_length_c   37.19540000
_cell_angle_alpha   90.00000000
_cell_angle_beta   126.04400000
_cell_angle_gamma   90.00000000
_symmetry_Int_Tables_number   1
_chemical_formula_structural   Zn8H35C73O29
_chemical_formula_sum   'Zn32 H140 C292 O116'
_cell_volume   13208.89642768
_cell_formula_units_Z   4
loop_
 _symmetry_equiv_pos_site_id
 _symmetry_equiv_pos_as_xyz
  1  'x, y, z'
loop_
 _atom_site_type_symbol
 _atom_site_label
 _atom_site_symmetry_multiplicity
 _atom_site_fract_x
 _atom_site_fract_y
 _atom_site_fract_z
 _atom_site_occupancy
 _atom_site_charge
Zn  Zn1  1  0.03008000  0.92061000  0.88014000  1.0 0.9535525977
Zn  Zn2  1  0.03008000  0.57939000  0.38014000  1.0 0.9535525977
Zn  Zn3  1  0.45655000  0.08000000  0.29906000  1.0 0.9385982145
Zn  Zn4  1  0.45655000  0.42000000  0.79906000  1.0 0.9385982145
Zn  Zn5  1  0.89092000  0.99413000  0.80133000  1.0 0.9535525977
Zn  Zn6  1  0.89092000  0.50587000  0.30133000  1.0 0.9535525977
Zn  Zn7  1  0.02433000  0.99443000  0.80240000  1.0 0.9535525977
Zn  Zn8  1  0.02433000  0.50557000  0.30240000  1.0 0.9535525977
Zn  Zn9  1  0.60070000  0.49206000  0.88111000  1.0 1.0155193349
Zn  Zn10  1  0.60070000  0.00794000  0.38111000  1.0 1.0155193349
Zn  Zn11  1  0.46059000  0.49393000  0.87587000  1.0 0.9385982145
Zn  Zn12  1  0.46059000  0.00607000  0.37587000  1.0 0.9385982145
Zn  Zn13  1  0.46559000  0.91314000  0.30790000  1.0 0.9568973919
Zn  Zn14  1  0.46559000  0.58686000  0.80790000  1.0 0.9568973919
Zn  Zn15  1  0.01958000  0.09758000  0.86958000  1.0 1.0982556184
Zn  Zn16  1  0.01958000  0.40242000  0.36958000  1.0 1.0982556184
Zn  Zn17  1  0.96992000  0.42061000  0.61986000  1.0 0.9535525977
Zn  Zn18  1  0.96992000  0.07939000  0.11986000  1.0 0.9535525977
Zn  Zn19  1  0.54345000  0.58000000  0.20094000  1.0 0.9385982145
Zn  Zn20  1  0.54345000  0.92000000  0.70094000  1.0 0.9385982145
Zn  Zn21  1  0.10908000  0.49413000  0.69867000  1.0 0.9535525977
Zn  Zn22  1  0.10908000  0.00587000  0.19867000  1.0 0.9535525977
Zn  Zn23  1  0.97567000  0.49443000  0.69760000  1.0 0.9535525977
Zn  Zn24  1  0.97567000  0.00557000  0.19760000  1.0 0.9535525977
Zn  Zn25  1  0.39930000  0.99206000  0.61889000  1.0 1.0145192881
Zn  Zn26  1  0.39930000  0.50794000  0.11889000  1.0 1.0145192881
Zn  Zn27  1  0.53941000  0.99393000  0.62413000  1.0 0.9385982145
Zn  Zn28  1  0.53941000  0.50607000  0.12413000  1.0 0.9385982145
Zn  Zn29  1  0.53441000  0.41314000  0.19210000  1.0 0.9568973919
Zn  Zn30  1  0.53441000  0.08686000  0.69210000  1.0 0.9568973919
Zn  Zn31  1  0.98042000  0.59758000  0.63042000  1.0 1.0982556184
Zn  Zn32  1  0.98042000  0.90242000  0.13042000  1.0 1.0982556184
H  H1  1  0.74620000  0.97870000  0.66220000  1.0 0.1385879805
H  H2  1  0.74620000  0.52130000  0.16220000  1.0 0.1385879805
H  H3  1  0.30970000  0.61950000  0.87360000  1.0 0.121995101
H  H4  1  0.30970000  0.88050000  0.37360000  1.0 0.121995101
H  H5  1  0.18920000  0.91490000  0.01960000  1.0 0.1285872086
H  H6  1  0.18920000  0.58510000  0.51960000  1.0 0.1285872086
H  H7  1  0.75580000  0.84590000  0.79670000  1.0 0.1385879805
H  H8  1  0.75580000  0.65410000  0.29670000  1.0 0.1385879805
H  H9  1  0.21230000  0.13700000  0.08440000  1.0 0.121995101
H  H10  1  0.21230000  0.36300000  0.58440000  1.0 0.121995101
H  H11  1  0.18420000  0.39030000  0.30290000  1.0 0.121995101
H  H12  1  0.18420000  0.10970000  0.80290000  1.0 0.1285872086
H  H13  1  0.29960000  0.08170000  0.15960000  1.0 0.121995101
H  H14  1  0.29960000  0.41830000  0.65960000  1.0 0.121995101
H  H15  1  0.27790000  0.86110000  0.09350000  1.0 0.121995101
H  H16  1  0.27790000  0.63890000  0.59350000  1.0 0.121995101
H  H17  1  0.15910000  0.85470000  0.80330000  1.0 0.1285872086
H  H18  1  0.15910000  0.64530000  0.30330000  1.0 0.1285872086
H  H19  1  0.57020000  0.72790000  0.77820000  1.0 0.1285872086
H  H20  1  0.57020000  0.77210000  0.27820000  1.0 0.1285872086
H  H21  1  0.63860000  0.79960000  0.76980000  1.0 0.1285872086
H  H22  1  0.63860000  0.70040000  0.26980000  1.0 0.1285872086
H  H23  1  0.33333333  0.15690000  0.37910000  1.0 0.121995101
H  H24  1  0.33333333  0.34310000  0.87910000  1.0 0.121995101
H  H25  1  0.62280000  0.28770000  0.24680000  1.0 0.1285872086
H  H26  1  0.62280000  0.21230000  0.74680000  1.0 0.1285872086
H  H27  1  0.74000000  0.64150000  0.88850000  1.0 0.121995101
H  H28  1  0.74000000  0.85850000  0.38850000  1.0 0.121995101
H  H29  1  0.55380000  0.20890000  0.25440000  1.0 0.1285872086
H  H30  1  0.55380000  0.29110000  0.75440000  1.0 0.1285872086
H  H31  1  0.62690000  0.97150000  0.59040000  1.0 0.1467386921
H  H32  1  0.62690000  0.52850000  0.09040000  1.0 0.1467386921
H  H33  1  0.25890000  0.34710000  0.28030000  1.0 0.1285872086
H  H34  1  0.25890000  0.15290000  0.78030000  1.0 0.1285872086
H  H35  1  0.33250000  0.26320000  0.28460000  1.0 0.121995101
H  H36  1  0.33250000  0.23680000  0.78460000  1.0 0.121995101
H  H37  1  0.92620000  0.76890000  0.91100000  1.0 0.1285872086
H  H38  1  0.92620000  0.73110000  0.41100000  1.0 0.1285872086
H  H39  1  0.24310000  0.82360000  0.78630000  1.0 0.121995101
H  H40  1  0.24310000  0.67640000  0.28630000  1.0 0.121995101
H  H41  1  0.14300000  0.12530000  0.00900000  1.0 0.121995101
H  H42  1  0.14300000  0.37470000  0.50900000  1.0 0.121995101
H  H43  1  0.32450000  0.74670000  0.79260000  1.0 0.121995101
H  H44  1  0.32450000  0.75330000  0.29260000  1.0 0.121995101
H  H45  1  0.14850000  0.73190000  0.88800000  1.0 0.121995101
H  H46  1  0.14850000  0.76810000  0.38800000  1.0 0.121995101
H  H47  1  0.72490000  0.00150000  0.51390000  1.0 0.1285872086
H  H48  1  0.72490000  0.49850000  0.01390000  1.0 0.1285872086
H  H49  1  0.22580000  0.65160000  0.89270000  1.0 0.121995101
H  H50  1  0.22580000  0.84840000  0.39270000  1.0 0.121995101
H  H51  1  0.25650000  0.19760000  0.40040000  1.0 0.121995101
H  H52  1  0.25650000  0.30240000  0.90040000  1.0 0.121995101
H  H53  1  0.85840000  0.69530000  0.91990000  1.0 0.1285872086
H  H54  1  0.85840000  0.80470000  0.41990000  1.0 0.1285872086
H  H55  1  0.71730000  0.16910000  0.38040000  1.0 0.121995101
H  H56  1  0.71730000  0.33090000  0.88040000  1.0 0.121995101
H  H57  1  0.84620000  0.00600000  0.58670000  1.0 0.1285872086
H  H58  1  0.84620000  0.49400000  0.08670000  1.0 0.1285872086
H  H59  1  0.73340000  0.35430000  0.27970000  1.0 0.1285872086
H  H60  1  0.73340000  0.14570000  0.77970000  1.0 0.1285872086
H  H61  1  0.35230000  0.87410000  0.16930000  1.0 0.1140743558
H  H62  1  0.35230000  0.62590000  0.66930000  1.0 0.1140743558
H  H63  1  0.91420000  0.00920000  0.66150000  1.0 0.1285872086
H  H64  1  0.91420000  0.49080000  0.16150000  1.0 0.1285872086
H  H65  1  0.89760000  0.30600000  0.40400000  1.0 0.1285872086
H  H66  1  0.89760000  0.19400000  0.90400000  1.0 0.1285872086
H  H67  1  0.83150000  0.22780000  0.41090000  1.0 0.121995101
H  H68  1  0.83150000  0.27220000  0.91090000  1.0 0.121995101
H  H69  1  0.18230000  0.28100000  0.39560000  1.0 0.121995101
H  H70  1  0.18230000  0.21900000  0.89560000  1.0 0.121995101
H  H71  1  0.25380000  0.47870000  0.83780000  1.0 0.1385879805
H  H72  1  0.25380000  0.02130000  0.33780000  1.0 0.1385879805
H  H73  1  0.69030000  0.11950000  0.62640000  1.0 0.121995101
H  H74  1  0.69030000  0.38050000  0.12640000  1.0 0.121995101
H  H75  1  0.81080000  0.41490000  0.48040000  1.0 0.1285872086
H  H76  1  0.81080000  0.08510000  0.98040000  1.0 0.1285872086
H  H77  1  0.24420000  0.34590000  0.70330000  1.0 0.1385879805
H  H78  1  0.24420000  0.15410000  0.20330000  1.0 0.1385879805
H  H79  1  0.78770000  0.63700000  0.41560000  1.0 0.121995101
H  H80  1  0.78770000  0.86300000  0.91560000  1.0 0.121995101
H  H81  1  0.81580000  0.89030000  0.19710000  1.0 0.121995101
H  H82  1  0.81580000  0.60970000  0.69710000  1.0 0.121995101
H  H83  1  0.70040000  0.58170000  0.34040000  1.0 0.121995101
H  H84  1  0.70040000  0.91830000  0.84040000  1.0 0.121995101
H  H85  1  0.72210000  0.36110000  0.40650000  1.0 0.121995101
H  H86  1  0.72210000  0.13890000  0.90650000  1.0 0.121995101
H  H87  1  0.84090000  0.35470000  0.69670000  1.0 0.1285872086
H  H88  1  0.84090000  0.14530000  0.19670000  1.0 0.1285872086
H  H89  1  0.42980000  0.22790000  0.72180000  1.0 0.1285872086
H  H90  1  0.42980000  0.27210000  0.22180000  1.0 0.1285872086
H  H91  1  0.36140000  0.29960000  0.73020000  1.0 0.1285872086
H  H92  1  0.36140000  0.20040000  0.23020000  1.0 0.1285872086
H  H93  1  0.66666667  0.65690000  0.12090000  1.0 0.121995101
H  H94  1  0.66666667  0.84310000  0.62090000  1.0 0.121995101
H  H95  1  0.37720000  0.78770000  0.25320000  1.0 0.1285872086
H  H96  1  0.37720000  0.71230000  0.75320000  1.0 0.1285872086
H  H97  1  0.26000000  0.14150000  0.61150000  1.0 0.121995101
H  H98  1  0.26000000  0.35850000  0.11150000  1.0 0.121995101
H  H99  1  0.44620000  0.70890000  0.24560000  1.0 0.1285872086
H  H100  1  0.44620000  0.79110000  0.74560000  1.0 0.1285872086
H  H101  1  0.37310000  0.47150000  0.90960000  1.0 0.1467386921
H  H102  1  0.37310000  0.02850000  0.40960000  1.0 0.1467386921
H  H103  1  0.74110000  0.84710000  0.21970000  1.0 0.1285872086
H  H104  1  0.74110000  0.65290000  0.71970000  1.0 0.1285872086
H  H105  1  0.66750000  0.76320000  0.21540000  1.0 0.121995101
H  H106  1  0.66750000  0.73680000  0.71540000  1.0 0.121995101
H  H107  1  0.07380000  0.26890000  0.58900000  1.0 0.1285872086
H  H108  1  0.07380000  0.23110000  0.08900000  1.0 0.1285872086
H  H109  1  0.75690000  0.32360000  0.71370000  1.0 0.121995101
H  H110  1  0.75690000  0.17640000  0.21370000  1.0 0.121995101
H  H111  1  0.85700000  0.62530000  0.49100000  1.0 0.121995101
H  H112  1  0.85700000  0.87470000  0.99100000  1.0 0.121995101
H  H113  1  0.67550000  0.24670000  0.70740000  1.0 0.121995101
H  H114  1  0.67550000  0.25330000  0.20740000  1.0 0.121995101
H  H115  1  0.85150000  0.23190000  0.61200000  1.0 0.121995101
H  H116  1  0.85150000  0.26810000  0.11200000  1.0 0.121995101
H  H117  1  0.27510000  0.50150000  0.98610000  1.0 0.1285872086
H  H118  1  0.27510000  0.99850000  0.48610000  1.0 0.1285872086
H  H119  1  0.77420000  0.15160000  0.60730000  1.0 0.121995101
H  H120  1  0.77420000  0.34840000  0.10730000  1.0 0.121995101
H  H121  1  0.74350000  0.69760000  0.09960000  1.0 0.121995101
H  H122  1  0.74350000  0.80240000  0.59960000  1.0 0.121995101
H  H123  1  0.14160000  0.19530000  0.58010000  1.0 0.1285872086
H  H124  1  0.14160000  0.30470000  0.08010000  1.0 0.1285872086
H  H125  1  0.28270000  0.66910000  0.11960000  1.0 0.121995101
H  H126  1  0.28270000  0.83090000  0.61960000  1.0 0.121995101
H  H127  1  0.15380000  0.50600000  0.91330000  1.0 0.1285872086
H  H128  1  0.15380000  0.99400000  0.41330000  1.0 0.1285872086
H  H129  1  0.26660000  0.85430000  0.22030000  1.0 0.1285872086
H  H130  1  0.26660000  0.64570000  0.72030000  1.0 0.1285872086
H  H131  1  0.64770000  0.37410000  0.33070000  1.0 0.1140743558
H  H132  1  0.64770000  0.12590000  0.83070000  1.0 0.1140743558
H  H133  1  0.08580000  0.50920000  0.83850000  1.0 0.1285872086
H  H134  1  0.08580000  0.99080000  0.33850000  1.0 0.1285872086
H  H135  1  0.10240000  0.80600000  0.09600000  1.0 0.1285872086
H  H136  1  0.10240000  0.69400000  0.59600000  1.0 0.1285872086
H  H137  1  0.16850000  0.72780000  0.08910000  1.0 0.121995101
H  H138  1  0.16850000  0.77220000  0.58910000  1.0 0.121995101
H  H139  1  0.81770000  0.78100000  0.10440000  1.0 0.121995101
H  H140  1  0.81770000  0.71900000  0.60440000  1.0 0.121995101
C  C1  1  0.37840000  0.98650000  0.22090000  1.0 0.5898743038
C  C2  1  0.37840000  0.51350000  0.72090000  1.0 0.5898743038
C  C3  1  0.72190000  0.98440000  0.59990000  1.0 0.0791973054
C  C4  1  0.72190000  0.51560000  0.09990000  1.0 0.0791973054
C  C5  1  0.76590000  0.98350000  0.64680000  1.0 -0.1495159137
C  C6  1  0.76590000  0.51650000  0.14680000  1.0 -0.1495159137
C  C7  1  0.25010000  0.03310000  0.09980000  1.0 0.0716132164
C  C8  1  0.25010000  0.46690000  0.59980000  1.0 0.0716132164
C  C9  1  0.33290000  0.98030000  0.17220000  1.0 -0.0418120878
C  C10  1  0.33290000  0.51970000  0.67220000  1.0 -0.0418120878
C  C11  1  0.24530000  0.70510000  0.85260000  1.0 0.0853561413
C  C12  1  0.24530000  0.79490000  0.35260000  1.0 0.0853561413
C  C13  1  0.29490000  0.65970000  0.85540000  1.0 -0.1402389382
C  C14  1  0.29490000  0.84030000  0.35540000  1.0 -0.1402389382
C  C15  1  0.15740000  0.01810000  0.00640000  1.0 -0.0200322434
C  C16  1  0.15740000  0.48190000  0.50640000  1.0 -0.0200322434
C  C17  1  0.25000000  0.30540000  0.32760000  1.0 0.0791973054
C  C18  1  0.25000000  0.19460000  0.82760000  1.0 0.0791973054
C  C19  1  0.14680000  0.80260000  0.84510000  1.0 -0.0286336101
C  C20  1  0.14680000  0.69740000  0.34510000  1.0 -0.0286336101
C  C21  1  0.84850000  0.81540000  0.85370000  1.0 -0.0200322434
C  C22  1  0.84850000  0.68460000  0.35370000  1.0 -0.0200322434
C  C23  1  0.19520000  0.95940000  0.03280000  1.0 -0.1495159137
C  C24  1  0.19520000  0.54060000  0.53280000  1.0 -0.1495159137
C  C25  1  0.73310000  0.76870000  0.82550000  1.0 0.0716132164
C  C26  1  0.73310000  0.73130000  0.32550000  1.0 0.0716132164
C  C27  1  0.24240000  0.96670000  0.07940000  1.0 0.0791973054
C  C28  1  0.24240000  0.53330000  0.57940000  1.0 0.0791973054
C  C29  1  0.77580000  0.81540000  0.82110000  1.0 -0.1495159137
C  C30  1  0.77580000  0.68460000  0.32110000  1.0 -0.1495159137
C  C31  1  0.20930000  0.09290000  0.07170000  1.0 -0.1495159137
C  C32  1  0.20930000  0.40710000  0.57170000  1.0 -0.1495159137
C  C33  1  0.20060000  0.35300000  0.32340000  1.0 -0.1402389382
C  C34  1  0.20060000  0.14700000  0.82340000  1.0 -0.1402389382
C  C35  1  0.29510000  0.03800000  0.14610000  1.0 -0.1341529555
C  C36  1  0.29510000  0.46200000  0.64610000  1.0 -0.1341529555
C  C37  1  0.76440000  0.72200000  0.86260000  1.0 0.0716132164
C  C38  1  0.76440000  0.77800000  0.36260000  1.0 0.0716132164
C  C39  1  0.28230000  0.90530000  0.10660000  1.0 -0.1495159137
C  C40  1  0.28230000  0.59470000  0.60660000  1.0 -0.1495159137
C  C41  1  0.17450000  0.81520000  0.82220000  1.0 -0.1402389382
C  C42  1  0.17450000  0.68480000  0.32220000  1.0 -0.1402389382
C  C43  1  0.37480000  0.62110000  0.83640000  1.0 0.5995436301
C  C44  1  0.37480000  0.87890000  0.33640000  1.0 0.5995436301
C  C45  1  0.61850000  0.72650000  0.79910000  1.0 -0.0924337725
C  C46  1  0.61850000  0.77350000  0.29910000  1.0 -0.0924337725
C  C47  1  0.60650000  0.98150000  0.53070000  1.0 -0.0001669483
C  C48  1  0.60650000  0.51850000  0.03070000  1.0 0.0005051204
C  C49  1  0.65920000  0.76910000  0.79420000  1.0 -0.1341529555
C  C50  1  0.65920000  0.73090000  0.29420000  1.0 -0.1341529555
C  C51  1  0.22640000  0.76950000  0.82660000  1.0 0.0791973054
C  C52  1  0.22640000  0.73050000  0.32660000  1.0 0.0791973054
C  C53  1  0.31760000  0.19470000  0.35900000  1.0 -0.1402389382
C  C54  1  0.31760000  0.30530000  0.85900000  1.0 -0.1402389382
C  C55  1  0.64170000  0.26390000  0.27360000  1.0 -0.1402389382
C  C56  1  0.64170000  0.23610000  0.77360000  1.0 -0.1402389382
C  C57  1  0.17560000  0.34670000  0.34820000  1.0 -0.0286336101
C  C58  1  0.17560000  0.15330000  0.84820000  1.0 -0.0286336101
C  C59  1  0.63180000  0.18070000  0.31910000  1.0 -0.0286336101
C  C60  1  0.63180000  0.31930000  0.81910000  1.0 -0.0286336101
C  C61  1  0.72010000  0.67530000  0.86570000  1.0 -0.1402389382
C  C62  1  0.72010000  0.82470000  0.36570000  1.0 -0.1402389382
C  C63  1  0.32170000  0.67190000  0.83280000  1.0 -0.0200322434
C  C64  1  0.32170000  0.82810000  0.33280000  1.0 -0.0200322434
C  C65  1  0.60040000  0.21680000  0.27780000  1.0 -0.1004687079
C  C66  1  0.60040000  0.28320000  0.77780000  1.0 -0.1004687079
C  C67  1  0.33910000  0.19930000  0.33210000  1.0 -0.0286336101
C  C68  1  0.33910000  0.30070000  0.83210000  1.0 -0.0286336101
C  C69  1  0.64720000  0.97800000  0.57550000  1.0 -0.1803465049
C  C70  1  0.64720000  0.52200000  0.07550000  1.0 -0.1803465049
C  C71  1  0.27230000  0.24620000  0.35700000  1.0 0.0791973054
C  C72  1  0.27230000  0.25380000  0.85700000  1.0 0.0791973054
C  C73  1  0.71220000  0.27600000  0.30980000  1.0 0.0716132164
C  C74  1  0.71220000  0.22400000  0.80980000  1.0 0.0716132164
C  C75  1  0.83760000  0.98970000  0.67020000  1.0 -0.0286336101
C  C76  1  0.83760000  0.51030000  0.17020000  1.0 -0.0286336101
C  C77  1  0.12280000  0.39670000  0.34390000  1.0 0.5995436301
C  C78  1  0.12280000  0.10330000  0.84390000  1.0 0.5995436301
C  C79  1  0.27360000  0.30920000  0.30020000  1.0 -0.1402389382
C  C80  1  0.27360000  0.19080000  0.80020000  1.0 -0.1402389382
C  C81  1  0.31700000  0.25900000  0.30240000  1.0 -0.1004687079
C  C82  1  0.31700000  0.24100000  0.80240000  1.0 -0.1004687079
C  C83  1  0.87780000  0.76920000  0.88980000  1.0 -0.1076901405
C  C84  1  0.87780000  0.73080000  0.38980000  1.0 -0.1076901405
C  C85  1  0.74110000  0.23980000  0.34870000  1.0 0.0638944869
C  C86  1  0.74110000  0.26020000  0.84870000  1.0 0.0638944869
C  C87  1  0.25620000  0.78270000  0.80390000  1.0 -0.1495159137
C  C88  1  0.25620000  0.71730000  0.30390000  1.0 -0.1495159137
C  C89  1  0.16660000  0.08540000  0.02670000  1.0 -0.0924337725
C  C90  1  0.16660000  0.41460000  0.52670000  1.0 -0.0924337725
C  C91  1  0.86470000  0.39240000  0.33700000  1.0 0.5757808228
C  C92  1  0.86470000  0.10760000  0.83700000  1.0 0.5757808228
C  C93  1  0.30390000  0.73660000  0.80700000  1.0 -0.1076901405
C  C94  1  0.30390000  0.76340000  0.30700000  1.0 -0.1076901405
C  C95  1  0.16710000  0.74030000  0.87220000  1.0 -0.1004687079
C  C96  1  0.16710000  0.75970000  0.37220000  1.0 -0.1004687079
C  C97  1  0.70590000  0.99620000  0.52970000  1.0 -0.1495159137
C  C98  1  0.70590000  0.50380000  0.02970000  1.0 -0.1495159137
C  C99  1  0.21400000  0.69270000  0.87540000  1.0 -0.1551197181
C  C100  1  0.21400000  0.80730000  0.37540000  1.0 -0.1551197181
C  C101  1  0.82170000  0.33940000  0.34160000  1.0 -0.0286336101
C  C102  1  0.82170000  0.16060000  0.84160000  1.0 -0.0286336101
C  C103  1  0.24380000  0.23720000  0.38190000  1.0 -0.1495159137
C  C104  1  0.24380000  0.26280000  0.88190000  1.0 -0.1495159137
C  C105  1  0.75110000  0.99270000  0.57630000  1.0 0.0638944869
C  C106  1  0.75110000  0.50730000  0.07630000  1.0 0.0638944869
C  C107  1  0.58670000  0.12840000  0.32260000  1.0 0.5995436301
C  C108  1  0.58670000  0.37160000  0.82260000  1.0 0.5995436301
C  C109  1  0.83760000  0.72450000  0.89490000  1.0 -0.1495159137
C  C110  1  0.83760000  0.77550000  0.39490000  1.0 -0.1402389382
C  C111  1  0.69860000  0.19220000  0.35340000  1.0 -0.1402389382
C  C112  1  0.69860000  0.30780000  0.85340000  1.0 -0.1402389382
C  C113  1  0.82570000  0.00090000  0.60160000  1.0 -0.1495159137
C  C114  1  0.82570000  0.49910000  0.10160000  1.0 -0.1495159137
C  C115  1  0.75290000  0.32840000  0.30580000  1.0 -0.1402389382
C  C116  1  0.75290000  0.17160000  0.80580000  1.0 -0.1402389382
C  C117  1  0.32620000  0.91320000  0.15160000  1.0 -0.0924337725
C  C118  1  0.32620000  0.58680000  0.65160000  1.0 -0.0924337725
C  C119  1  0.86640000  0.00130000  0.64610000  1.0 -0.1076901405
C  C120  1  0.86640000  0.49870000  0.14610000  1.0 -0.1076901405
C  C121  1  0.63640000  0.99200000  0.50760000  1.0 -0.0418120878
C  C122  1  0.63640000  0.50800000  0.00760000  1.0 -0.0418120878
C  C123  1  0.85070000  0.29970000  0.38050000  1.0 -0.0924337725
C  C124  1  0.85070000  0.20030000  0.88050000  1.0 -0.0924337725
C  C125  1  0.64840000  0.67890000  0.83600000  1.0 -0.0418120878
C  C126  1  0.64840000  0.82110000  0.33600000  1.0 -0.0418120878
C  C127  1  0.81180000  0.25250000  0.38440000  1.0 -0.1402389382
C  C128  1  0.81180000  0.24750000  0.88440000  1.0 -0.1402389382
C  C129  1  0.60290000  0.62910000  0.83930000  1.0 0.5898743038
C  C130  1  0.60290000  0.87090000  0.33930000  1.0 0.5898743038
C  C131  1  0.58910000  0.99570000  0.45780000  1.0 0.5995436301
C  C132  1  0.58910000  0.50430000  0.95780000  1.0 0.5995436301
C  C133  1  0.89580000  0.18210000  0.77360000  1.0 0.3282033642
C  C134  1  0.89580000  0.31790000  0.27360000  1.0 0.3282033642
C  C135  1  0.38630000  0.14330000  0.33440000  1.0 0.5995436301
C  C136  1  0.38630000  0.35670000  0.83440000  1.0 0.5995436301
C  C137  1  0.09600000  0.85510000  0.84190000  1.0 0.5995436301
C  C138  1  0.09600000  0.64490000  0.34190000  1.0 0.5995436301
C  C139  1  0.88300000  0.98930000  0.71960000  1.0 0.5995436301
C  C140  1  0.88300000  0.51070000  0.21960000  1.0 0.5995436301
C  C141  1  0.10660000  0.00950000  0.95670000  1.0 0.5995436301
C  C142  1  0.10660000  0.49050000  0.45670000  1.0 0.5995436301
C  C143  1  0.89280000  0.86540000  0.84830000  1.0 0.5995436301
C  C144  1  0.89280000  0.63460000  0.34830000  1.0 0.5995436301
C  C145  1  0.19880000  0.28610000  0.37840000  1.0 -0.0924337725
C  C146  1  0.19880000  0.21390000  0.87840000  1.0 -0.0924337725
C  C147  1  0.62160000  0.48650000  0.27910000  1.0 0.5898743038
C  C148  1  0.62160000  0.01350000  0.77910000  1.0 0.5898743038
C  C149  1  0.27810000  0.48440000  0.90010000  1.0 0.0791973054
C  C150  1  0.27810000  0.01560000  0.40010000  1.0 0.0791973054
C  C151  1  0.23410000  0.48350000  0.85320000  1.0 -0.1495159137
C  C152  1  0.23410000  0.01650000  0.35320000  1.0 -0.1495159137
C  C153  1  0.74990000  0.53310000  0.40020000  1.0 0.0716132164
C  C154  1  0.74990000  0.96690000  0.90020000  1.0 0.0716132164
C  C155  1  0.66710000  0.48030000  0.32780000  1.0 -0.0418120878
C  C156  1  0.66710000  0.01970000  0.82780000  1.0 -0.0418120878
C  C157  1  0.75470000  0.20510000  0.64740000  1.0 0.0853561413
C  C158  1  0.75470000  0.29490000  0.14740000  1.0 0.0853561413
C  C159  1  0.70510000  0.15970000  0.64460000  1.0 -0.1402389382
C  C160  1  0.70510000  0.34030000  0.14460000  1.0 -0.1402389382
C  C161  1  0.84260000  0.51810000  0.49360000  1.0 -0.0200322434
C  C162  1  0.84260000  0.98190000  0.99360000  1.0 -0.0200322434
C  C163  1  0.75000000  0.80540000  0.17240000  1.0 0.0791973054
C  C164  1  0.75000000  0.69460000  0.67240000  1.0 0.0791973054
C  C165  1  0.85320000  0.30260000  0.65490000  1.0 -0.0286336101
C  C166  1  0.85320000  0.19740000  0.15490000  1.0 -0.0286336101
C  C167  1  0.15150000  0.31540000  0.64630000  1.0 -0.0200322434
C  C168  1  0.15150000  0.18460000  0.14630000  1.0 -0.0200322434
C  C169  1  0.80480000  0.45940000  0.46720000  1.0 -0.1495159137
C  C170  1  0.80480000  0.04060000  0.96720000  1.0 -0.1495159137
C  C171  1  0.26690000  0.26870000  0.67450000  1.0 0.0716132164
C  C172  1  0.26690000  0.23130000  0.17450000  1.0 0.0791973054
C  C173  1  0.75760000  0.46670000  0.42060000  1.0 0.0791973054
C  C174  1  0.75760000  0.03330000  0.92060000  1.0 0.0791973054
C  C175  1  0.22420000  0.31540000  0.67890000  1.0 -0.1495159137
C  C176  1  0.22420000  0.18460000  0.17890000  1.0 -0.1495159137
C  C177  1  0.79070000  0.59290000  0.42830000  1.0 -0.1495159137
C  C178  1  0.79070000  0.90710000  0.92830000  1.0 -0.1495159137
C  C179  1  0.79940000  0.85300000  0.17660000  1.0 -0.1402389382
C  C180  1  0.79940000  0.64700000  0.67660000  1.0 -0.1402389382
C  C181  1  0.70490000  0.53800000  0.35390000  1.0 -0.1341529555
C  C182  1  0.70490000  0.96200000  0.85390000  1.0 -0.1341529555
C  C183  1  0.23560000  0.22200000  0.63740000  1.0 0.0716132164
C  C184  1  0.23560000  0.27800000  0.13740000  1.0 0.0716132164
C  C185  1  0.71770000  0.40530000  0.39340000  1.0 -0.1495159137
C  C186  1  0.71770000  0.09470000  0.89340000  1.0 -0.1495159137
C  C187  1  0.82550000  0.31520000  0.67780000  1.0 -0.1402389382
C  C188  1  0.82550000  0.18480000  0.17780000  1.0 -0.1402389382
C  C189  1  0.62520000  0.12110000  0.66360000  1.0 0.5995436301
C  C190  1  0.62520000  0.37890000  0.16360000  1.0 0.5995436301
C  C191  1  0.38150000  0.22650000  0.70090000  1.0 -0.0924337725
C  C192  1  0.38150000  0.27350000  0.20090000  1.0 -0.0924337725
C  C193  1  0.39350000  0.48150000  0.96930000  1.0 -0.0001669483
C  C194  1  0.39350000  0.01850000  0.46930000  1.0 0.0005051204
C  C195  1  0.34080000  0.26910000  0.70580000  1.0 -0.1341529555
C  C196  1  0.34080000  0.23090000  0.20580000  1.0 -0.1341529555
C  C197  1  0.77360000  0.26950000  0.67340000  1.0 0.0791973054
C  C198  1  0.77360000  0.23050000  0.17340000  1.0 0.0791973054
C  C199  1  0.68240000  0.69470000  0.14100000  1.0 -0.1402389382
C  C200  1  0.68240000  0.80530000  0.64100000  1.0 -0.1402389382
C  C201  1  0.35830000  0.76390000  0.22640000  1.0 -0.1402389382
C  C202  1  0.35830000  0.73610000  0.72640000  1.0 -0.1402389382
C  C203  1  0.82440000  0.84670000  0.15180000  1.0 -0.0286336101
C  C204  1  0.82440000  0.65330000  0.65180000  1.0 -0.0286336101
C  C205  1  0.36820000  0.68070000  0.18090000  1.0 -0.0286336101
C  C206  1  0.36820000  0.81930000  0.68090000  1.0 -0.0286336101
C  C207  1  0.27990000  0.17530000  0.63430000  1.0 -0.1402389382
C  C208  1  0.27990000  0.32470000  0.13430000  1.0 -0.1402389382
C  C209  1  0.67830000  0.17190000  0.66720000  1.0 -0.0200322434
C  C210  1  0.67830000  0.32810000  0.16720000  1.0 -0.0200322434
C  C211  1  0.39960000  0.71680000  0.22220000  1.0 -0.1004687079
C  C212  1  0.39960000  0.78320000  0.72220000  1.0 -0.1004687079
C  C213  1  0.66090000  0.69930000  0.16790000  1.0 -0.0286336101
C  C214  1  0.66090000  0.80070000  0.66790000  1.0 -0.0286336101
C  C215  1  0.35280000  0.47800000  0.92450000  1.0 -0.1803465049
C  C216  1  0.35280000  0.02200000  0.42450000  1.0 -0.1803465049
C  C217  1  0.72770000  0.74620000  0.14300000  1.0 0.0791973054
C  C218  1  0.72770000  0.75380000  0.64300000  1.0 0.0791973054
C  C219  1  0.28780000  0.77600000  0.19020000  1.0 0.0716132164
C  C220  1  0.28780000  0.72400000  0.69020000  1.0 0.0716132164
C  C221  1  0.16240000  0.48970000  0.82980000  1.0 -0.0286336101
C  C222  1  0.16240000  0.01030000  0.32980000  1.0 -0.0286336101
C  C223  1  0.87720000  0.89670000  0.15610000  1.0 0.5995436301
C  C224  1  0.87720000  0.60330000  0.65610000  1.0 0.5995436301
C  C225  1  0.72640000  0.80920000  0.19980000  1.0 -0.1402389382
C  C226  1  0.72640000  0.69080000  0.69980000  1.0 -0.1402389382
C  C227  1  0.68300000  0.75900000  0.19760000  1.0 -0.1004687079
C  C228  1  0.68300000  0.74100000  0.69760000  1.0 -0.1004687079
C  C229  1  0.12220000  0.26920000  0.61020000  1.0 -0.1076901405
C  C230  1  0.12220000  0.23080000  0.11020000  1.0 -0.1076901405
C  C231  1  0.25890000  0.73980000  0.15130000  1.0 0.0638944869
C  C232  1  0.25890000  0.76020000  0.65130000  1.0 0.0638944869
C  C233  1  0.74380000  0.28270000  0.69610000  1.0 -0.1495159137
C  C234  1  0.74380000  0.21730000  0.19610000  1.0 -0.1495159137
C  C235  1  0.83340000  0.58540000  0.47330000  1.0 -0.0924337725
C  C236  1  0.83340000  0.91460000  0.97330000  1.0 -0.0924337725
C  C237  1  0.13530000  0.89240000  0.16300000  1.0 0.5757808228
C  C238  1  0.13530000  0.60760000  0.66300000  1.0 0.5757808228
C  C239  1  0.69610000  0.23660000  0.69300000  1.0 -0.1076901405
C  C240  1  0.69610000  0.26340000  0.19300000  1.0 -0.1076901405
C  C241  1  0.83290000  0.24030000  0.62780000  1.0 -0.1004687079
C  C242  1  0.83290000  0.25970000  0.12780000  1.0 -0.1004687079
C  C243  1  0.29410000  0.49620000  0.97030000  1.0 -0.1495159137
C  C244  1  0.29410000  0.00380000  0.47030000  1.0 -0.1495159137
C  C245  1  0.78600000  0.19270000  0.62460000  1.0 -0.1551197181
C  C246  1  0.78600000  0.30730000  0.12460000  1.0 -0.1551197181
C  C247  1  0.17830000  0.83940000  0.15840000  1.0 -0.0286336101
C  C248  1  0.17830000  0.66060000  0.65840000  1.0 -0.0286336101
C  C249  1  0.75620000  0.73720000  0.11810000  1.0 -0.1495159137
C  C250  1  0.75620000  0.76280000  0.61810000  1.0 -0.1495159137
C  C251  1  0.24890000  0.49270000  0.92370000  1.0 0.0638944869
C  C252  1  0.24890000  0.00730000  0.42370000  1.0 0.0638944869
C  C253  1  0.41330000  0.62840000  0.17740000  1.0 0.5995436301
C  C254  1  0.41330000  0.87160000  0.67740000  1.0 0.5995436301
C  C255  1  0.16240000  0.22450000  0.60510000  1.0 -0.1495159137
C  C256  1  0.16240000  0.27550000  0.10510000  1.0 -0.1402389382
C  C257  1  0.30140000  0.69220000  0.14660000  1.0 -0.1402389382
C  C258  1  0.30140000  0.80780000  0.64660000  1.0 -0.1402389382
C  C259  1  0.17430000  0.50090000  0.89840000  1.0 -0.1495159137
C  C260  1  0.17430000  0.99910000  0.39840000  1.0 -0.1495159137
C  C261  1  0.24710000  0.82840000  0.19420000  1.0 -0.1402389382
C  C262  1  0.24710000  0.67160000  0.69420000  1.0 -0.1402389382
C  C263  1  0.67380000  0.41320000  0.34840000  1.0 -0.0924337725
C  C264  1  0.67380000  0.08680000  0.84840000  1.0 -0.0924337725
C  C265  1  0.13360000  0.50130000  0.85390000  1.0 -0.1076901405
C  C266  1  0.13360000  0.99870000  0.35390000  1.0 -0.1076901405
C  C267  1  0.36360000  0.49200000  0.99240000  1.0 -0.0418120878
C  C268  1  0.36360000  0.00800000  0.49240000  1.0 -0.0418120878
C  C269  1  0.14930000  0.79970000  0.11950000  1.0 -0.0924337725
C  C270  1  0.14930000  0.70030000  0.61950000  1.0 -0.0924337725
C  C271  1  0.35160000  0.17890000  0.66400000  1.0 -0.0418120878
C  C272  1  0.35160000  0.32110000  0.16400000  1.0 -0.0418120878
C  C273  1  0.18820000  0.75250000  0.11560000  1.0 -0.1402389382
C  C274  1  0.18820000  0.74750000  0.61560000  1.0 -0.1402389382
C  C275  1  0.39710000  0.12910000  0.66070000  1.0 0.5898743038
C  C276  1  0.39710000  0.37090000  0.16070000  1.0 0.5898743038
C  C277  1  0.41090000  0.49570000  0.04220000  1.0 0.5995436301
C  C278  1  0.41090000  0.00430000  0.54220000  1.0 0.5995436301
C  C279  1  0.10420000  0.68210000  0.72640000  1.0 0.3282033642
C  C280  1  0.10420000  0.81790000  0.22640000  1.0 0.3282033642
C  C281  1  0.61370000  0.64330000  0.16560000  1.0 0.5995436301
C  C282  1  0.61370000  0.85670000  0.66560000  1.0 0.5995436301
C  C283  1  0.90400000  0.35510000  0.65810000  1.0 0.5995436301
C  C284  1  0.90400000  0.14490000  0.15810000  1.0 0.5995436301
C  C285  1  0.11700000  0.48930000  0.78040000  1.0 0.5995436301
C  C286  1  0.11700000  0.01070000  0.28040000  1.0 0.5995436301
C  C287  1  0.89340000  0.50950000  0.54330000  1.0 0.5995436301
C  C288  1  0.89340000  0.99050000  0.04330000  1.0 0.5995436301
C  C289  1  0.10720000  0.36540000  0.65170000  1.0 0.5995436301
C  C290  1  0.10720000  0.13460000  0.15170000  1.0 0.5995436301
C  C291  1  0.80120000  0.78610000  0.12160000  1.0 -0.0924337725
C  C292  1  0.80120000  0.71390000  0.62160000  1.0 -0.0924337725
O  O1  1  0.07770000  0.06380000  0.93540000  1.0 -0.5009786124
O  O2  1  0.07770000  0.43620000  0.43540000  1.0 -0.5009786124
O  O3  1  0.40750000  0.93180000  0.24310000  1.0 -0.5208717622
O  O4  1  0.40750000  0.56820000  0.74310000  1.0 -0.5208717622
O  O5  1  0.40260000  0.14820000  0.30800000  1.0 -0.5311313048
O  O6  1  0.40260000  0.35180000  0.80800000  1.0 -0.5311313048
O  O7  1  0.94880000  0.99060000  0.73890000  1.0 -0.5311313048
O  O8  1  0.94880000  0.50940000  0.23890000  1.0 -0.5311313048
O  O9  1  0.07260000  0.90200000  0.81260000  1.0 -0.5311313048
O  O10  1  0.07260000  0.59800000  0.31260000  1.0 -0.5311313048
O  O11  1  0.39060000  0.56830000  0.86040000  1.0 -0.5208717622
O  O12  1  0.39060000  0.93170000  0.36040000  1.0 -0.5208717622
O  O13  1  0.52090000  0.13600000  0.29460000  1.0 -0.5311313048
O  O14  1  0.52090000  0.36400000  0.79460000  1.0 -0.5311313048
O  O15  1  0.38610000  0.04740000  0.23770000  1.0 -0.5311313048
O  O16  1  0.38610000  0.45260000  0.73770000  1.0 -0.5311313048
O  O17  1  0.52460000  0.00480000  0.43980000  1.0 -0.512442204
O  O18  1  0.52460000  0.49520000  0.93980000  1.0 -0.512442204
O  O19  1  0.09430000  0.43920000  0.31180000  1.0 -0.5009786124
O  O20  1  0.09430000  0.06080000  0.81180000  1.0 -0.5009786124
O  O21  1  0.83420000  0.43420000  0.30390000  1.0 -0.5208717622
O  O22  1  0.83420000  0.06580000  0.80390000  1.0 -0.5208717622
O  O23  1  0.63450000  0.58090000  0.87020000  1.0 -0.537508377
O  O24  1  0.63450000  0.91910000  0.37020000  1.0 -0.537508377
O  O25  1  0.53540000  0.64950000  0.81540000  1.0 -0.5676001063
O  O26  1  0.53540000  0.85050000  0.31540000  1.0 -0.5676001063
O  O27  1  0.40010000  0.63800000  0.81510000  1.0 -0.5676001063
O  O28  1  0.40010000  0.86200000  0.31510000  1.0 -0.5676001063
O  O29  1  0.61520000  0.98990000  0.43750000  1.0 -0.5208717622
O  O30  1  0.61520000  0.51010000  0.93750000  1.0 -0.5208717622
O  O31  1  0.03850000  0.20100000  0.89430000  1.0 -0.2770101686
O  O32  1  0.03850000  0.29900000  0.39430000  1.0 -0.2770101686
O  O33  1  0.96190000  0.14170000  0.79910000  1.0 -0.5638187985
O  O34  1  0.96190000  0.35830000  0.29910000  1.0 -0.5676001063
O  O35  1  0.86240000  0.90410000  0.81430000  1.0 -0.537508377
O  O36  1  0.86240000  0.59590000  0.31430000  1.0 -0.537508377
O  O37  1  0.61510000  0.08640000  0.35370000  1.0 -0.512442204
O  O38  1  0.61510000  0.41360000  0.85370000  1.0 -0.512442204
O  O39  1  0.99270000  0.99980000  0.83950000  1.0 -1.0188059072
O  O40  1  0.99270000  0.50020000  0.33950000  1.0 -1.0188059072
O  O41  1  0.49710000  0.00210000  0.34120000  1.0 -1.0188059072
O  O42  1  0.49710000  0.49790000  0.84120000  1.0 -1.0188059072
O  O43  1  0.85320000  0.98650000  0.73850000  1.0 -0.537508377
O  O44  1  0.85320000  0.51350000  0.23850000  1.0 -0.537508377
O  O45  1  0.95790000  0.86410000  0.87800000  1.0 -0.5311313048
O  O46  1  0.95790000  0.63590000  0.37800000  1.0 -0.5311313048
O  O47  1  0.08060000  0.84960000  0.86870000  1.0 -0.5208717622
O  O48  1  0.08060000  0.65040000  0.36870000  1.0 -0.5208717622
O  O49  1  0.40570000  0.09450000  0.36260000  1.0 -0.537508377
O  O50  1  0.40570000  0.40550000  0.86260000  1.0 -0.537508377
O  O51  1  0.09940000  0.94580000  0.94200000  1.0 -0.5311313048
O  O52  1  0.09940000  0.55420000  0.44200000  1.0 -0.5311313048
O  O53  1  0.10880000  0.39310000  0.37090000  1.0 -0.5208717622
O  O54  1  0.10880000  0.10690000  0.87090000  1.0 -0.5208717622
O  O55  1  0.92880000  0.39090000  0.36650000  1.0 -0.5208717622
O  O56  1  0.92880000  0.10910000  0.86650000  1.0 -0.512442204
O  O57  1  0.70960000  0.47300000  0.92550000  1.0 -0.1076901405
O  O58  1  0.70960000  0.02700000  0.42550000  1.0 -0.1004687079
O  O59  1  0.92230000  0.56380000  0.56460000  1.0 -0.5009786124
O  O60  1  0.92230000  0.93620000  0.06460000  1.0 -0.5009786124
O  O61  1  0.59250000  0.43180000  0.25690000  1.0 -0.5208717622
O  O62  1  0.59250000  0.06820000  0.75690000  1.0 -0.5208717622
O  O63  1  0.59740000  0.64820000  0.19200000  1.0 -0.5311313048
O  O64  1  0.59740000  0.85180000  0.69200000  1.0 -0.5311313048
O  O65  1  0.05120000  0.49060000  0.76110000  1.0 -0.5311313048
O  O66  1  0.05120000  0.00940000  0.26110000  1.0 -0.5311313048
O  O67  1  0.92740000  0.40200000  0.68740000  1.0 -0.5311313048
O  O68  1  0.92740000  0.09800000  0.18740000  1.0 -0.5311313048
O  O69  1  0.60940000  0.06830000  0.63960000  1.0 -0.5208717622
O  O70  1  0.60940000  0.43170000  0.13960000  1.0 -0.5208717622
O  O71  1  0.47910000  0.63600000  0.20540000  1.0 -0.5311313048
O  O72  1  0.47910000  0.86400000  0.70540000  1.0 -0.5311313048
O  O73  1  0.61390000  0.54740000  0.26230000  1.0 -0.5311313048
O  O74  1  0.61390000  0.95260000  0.76230000  1.0 -0.5311313048
O  O75  1  0.47540000  0.50480000  0.06020000  1.0 -0.512442204
O  O76  1  0.47540000  0.99520000  0.56020000  1.0 -0.512442204
O  O77  1  0.90570000  0.93920000  0.18820000  1.0 -0.5009786124
O  O78  1  0.90570000  0.56080000  0.68820000  1.0 -0.5009786124
O  O79  1  0.16580000  0.93420000  0.19610000  1.0 -0.5208717622
O  O80  1  0.16580000  0.56580000  0.69610000  1.0 -0.5208717622
O  O81  1  0.36550000  0.08090000  0.62980000  1.0 -0.537508377
O  O82  1  0.36550000  0.41910000  0.12980000  1.0 -0.537508377
O  O83  1  0.46460000  0.14950000  0.68460000  1.0 -0.5676001063
O  O84  1  0.46460000  0.35050000  0.18460000  1.0 -0.5676001063
O  O85  1  0.59990000  0.13800000  0.68490000  1.0 -0.5676001063
O  O86  1  0.59990000  0.36200000  0.18490000  1.0 -0.5676001063
O  O87  1  0.38480000  0.48990000  0.06250000  1.0 -0.5208717622
O  O88  1  0.38480000  0.01010000  0.56250000  1.0 -0.5208717622
O  O89  1  0.96150000  0.70100000  0.60570000  1.0 -0.2770101686
O  O90  1  0.96150000  0.79900000  0.10570000  1.0 -0.2732839743
O  O91  1  0.03810000  0.64170000  0.70090000  1.0 -0.5676001063
O  O92  1  0.03810000  0.85830000  0.20090000  1.0 -0.5676001063
O  O93  1  0.13760000  0.40410000  0.68570000  1.0 -0.537508377
O  O94  1  0.13760000  0.09590000  0.18570000  1.0 -0.537508377
O  O95  1  0.38490000  0.58640000  0.14630000  1.0 -0.512442204
O  O96  1  0.38490000  0.91360000  0.64630000  1.0 -0.512442204
O  O97  1  0.00730000  0.49980000  0.66050000  1.0 -1.0188059072
O  O98  1  0.00730000  0.00020000  0.16050000  1.0 -1.0188059072
O  O99  1  0.50290000  0.50210000  0.15880000  1.0 -1.0188059072
O  O100  1  0.50290000  0.99790000  0.65880000  1.0 -1.0188059072
O  O101  1  0.14680000  0.48650000  0.76150000  1.0 -0.537508377
O  O102  1  0.14680000  0.01350000  0.26150000  1.0 -0.537508377
O  O103  1  0.04210000  0.36410000  0.62200000  1.0 -0.5311313048
O  O104  1  0.04210000  0.13590000  0.12200000  1.0 -0.5311313048
O  O105  1  0.91940000  0.34960000  0.63130000  1.0 -0.5208717622
O  O106  1  0.91940000  0.15040000  0.13130000  1.0 -0.5208717622
O  O107  1  0.59430000  0.59450000  0.13740000  1.0 -0.537508377
O  O108  1  0.59430000  0.90550000  0.63740000  1.0 -0.537508377
O  O109  1  0.90060000  0.44580000  0.55800000  1.0 -0.5311313048
O  O110  1  0.90060000  0.05420000  0.05800000  1.0 -0.5311313048
O  O111  1  0.89120000  0.89310000  0.12910000  1.0 -0.5208717622
O  O112  1  0.89120000  0.60690000  0.62910000  1.0 -0.5208717622
O  O113  1  0.07120000  0.89090000  0.13350000  1.0 -0.5208717622
O  O114  1  0.07120000  0.60910000  0.63350000  1.0 -0.5208717622
O  O115  1  0.29040000  0.97300000  0.57450000  1.0 -0.1076901405
O  O116  1  0.29040000  0.52700000  0.07450000  1.0 -0.1004687079
