# DDEC6 charges by PACMAN v1.1 (https://github.com/mtap-research/PACMAN-charge/)
data_FEDBAV_FSR_pacman
_symmetry_space_group_name_H-M   'P 1'
_cell_length_a   24.60080000
_cell_length_b   24.60080000
_cell_length_c   24.60080000
_cell_angle_alpha   109.47100000
_cell_angle_beta   109.47100000
_cell_angle_gamma   109.47100000
_symmetry_Int_Tables_number   1
_chemical_formula_structural   Co7H84(C13N4)12
_chemical_formula_sum   'Co14 H168 C312 N96'
_cell_volume   11461.18038020
_cell_formula_units_Z   2
loop_
 _symmetry_equiv_pos_site_id
 _symmetry_equiv_pos_as_xyz
  1  'x, y, z'
loop_
 _atom_site_type_symbol
 _atom_site_label
 _atom_site_symmetry_multiplicity
 _atom_site_fract_x
 _atom_site_fract_y
 _atom_site_fract_z
 _atom_site_occupancy
 _atom_site_charge
Co  Co1  1  0.00000000  0.18836000  0.50000000  1.0 0.5474854605
Co  Co2  1  0.18836000  0.50000000  0.00000000  1.0 0.5474854605
Co  Co3  1  0.50000000  0.00000000  0.18836000  1.0 0.5474854605
Co  Co4  1  0.31164000  0.31164000  0.31164000  1.0 0.5474854605
Co  Co5  1  0.68836000  0.50000000  0.00000000  1.0 0.5474854605
Co  Co6  1  0.00000000  0.68836000  0.50000000  1.0 0.5445737566
Co  Co7  1  0.50000000  0.00000000  0.68836000  1.0 0.5474854605
Co  Co8  1  0.81164000  0.81164000  0.81164000  1.0 0.5474854605
Co  Co9  1  0.75000000  0.87500000  0.12500000  1.0 0.6534401005
Co  Co10  1  0.25000000  0.62500000  0.37500000  1.0 0.6534401005
Co  Co11  1  0.62500000  0.37500000  0.25000000  1.0 0.6534401005
Co  Co12  1  0.87500000  0.12500000  0.75000000  1.0 0.6534401005
Co  Co13  1  0.12500000  0.75000000  0.87500000  1.0 0.6534401005
Co  Co14  1  0.37500000  0.25000000  0.62500000  1.0 0.6534401005
H  H1  1  0.95180000  0.20840000  0.25860000  1.0 0.1189427485
H  H2  1  0.90810000  0.03920000  0.46290000  1.0 0.1189427485
H  H3  1  0.80030000  0.92250000  0.26200000  1.0 0.1101725818
H  H4  1  0.05120000  0.29780000  0.45760000  1.0 0.1101725818
H  H5  1  0.02520000  0.30610000  0.36210000  1.0 0.1353793689
H  H6  1  0.80280000  0.98250000  0.08870000  1.0 0.1021266345
H  H7  1  0.83510000  0.93860000  0.37430000  1.0 0.1326508441
H  H8  1  0.44980000  0.69320000  0.24140000  1.0 0.1189427485
H  H9  1  0.07630000  0.44520000  0.03710000  1.0 0.1189427485
H  H10  1  0.16050000  0.53830000  0.23800000  1.0 0.1101725818
H  H11  1  0.34020000  0.59360000  0.04240000  1.0 0.1101725818
H  H12  1  0.44400000  0.66310000  0.13790000  1.0 0.1353793689
H  H13  1  0.39380000  0.71410000  0.41130000  1.0 0.1021266345
H  H14  1  0.06430000  0.46080000  0.12570000  1.0 0.1326508441
H  H15  1  0.54820000  0.80680000  0.25660000  1.0 0.1189427485
H  H16  1  0.59190000  0.05480000  0.13110000  1.0 0.1189427485
H  H17  1  0.69970000  0.96170000  0.12220000  1.0 0.1101725818
H  H18  1  0.44880000  0.90640000  0.24660000  1.0 0.1101725818
H  H19  1  0.47480000  0.83690000  0.28090000  1.0 0.1353793689
H  H20  1  0.69720000  0.78590000  0.17970000  1.0 0.1021266345
H  H21  1  0.66490000  0.03920000  0.10350000  1.0 0.1326508441
H  H22  1  0.05020000  0.29160000  0.24340000  1.0 0.1189427485
H  H23  1  0.42370000  0.46080000  0.36890000  1.0 0.1189427485
H  H24  1  0.33950000  0.57750000  0.37780000  1.0 0.1101725818
H  H25  1  0.15980000  0.20220000  0.25340000  1.0 0.1101725818
H  H26  1  0.05600000  0.19390000  0.21910000  1.0 0.1353793689
H  H27  1  0.10620000  0.51750000  0.32030000  1.0 0.1021266345
H  H28  1  0.43570000  0.56140000  0.39650000  1.0 0.1326508441
H  H29  1  0.29160000  0.24340000  0.05020000  1.0 0.1189427485
H  H30  1  0.46080000  0.36890000  0.42370000  1.0 0.1189427485
H  H31  1  0.57750000  0.37780000  0.33950000  1.0 0.1101725818
H  H32  1  0.20220000  0.25340000  0.15980000  1.0 0.1101725818
H  H33  1  0.19390000  0.21910000  0.05600000  1.0 0.1353793689
H  H34  1  0.51750000  0.32030000  0.10620000  1.0 0.1021266345
H  H35  1  0.56140000  0.39650000  0.43570000  1.0 0.1326508441
H  H36  1  0.80680000  0.25660000  0.54820000  1.0 0.1189427485
H  H37  1  0.05480000  0.13110000  0.59190000  1.0 0.1189427485
H  H38  1  0.96170000  0.12220000  0.69970000  1.0 0.1101725818
H  H39  1  0.90640000  0.24660000  0.44880000  1.0 0.1101725818
H  H40  1  0.83690000  0.28090000  0.47480000  1.0 0.1353793689
H  H41  1  0.78590000  0.17970000  0.69720000  1.0 0.1021266345
H  H42  1  0.03920000  0.10350000  0.66490000  1.0 0.1326508441
H  H43  1  0.69320000  0.24140000  0.44980000  1.0 0.1189427485
H  H44  1  0.44520000  0.03710000  0.07630000  1.0 0.1189427485
H  H45  1  0.53830000  0.23800000  0.16050000  1.0 0.1101725818
H  H46  1  0.59360000  0.04240000  0.34020000  1.0 0.1101725818
H  H47  1  0.66310000  0.13790000  0.44400000  1.0 0.1353793689
H  H48  1  0.71410000  0.41130000  0.39380000  1.0 0.1021266345
H  H49  1  0.46080000  0.12570000  0.06430000  1.0 0.1326508441
H  H50  1  0.20840000  0.25860000  0.95180000  1.0 0.1189427485
H  H51  1  0.03920000  0.46290000  0.90810000  1.0 0.1189427485
H  H52  1  0.92250000  0.26200000  0.80030000  1.0 0.1101725818
H  H53  1  0.29780000  0.45760000  0.05120000  1.0 0.1101725818
H  H54  1  0.30610000  0.36210000  0.02520000  1.0 0.1353793689
H  H55  1  0.98250000  0.08870000  0.80280000  1.0 0.1021266345
H  H56  1  0.93860000  0.37430000  0.83510000  1.0 0.1326508441
H  H57  1  0.25660000  0.54820000  0.80680000  1.0 0.1189427485
H  H58  1  0.13110000  0.59190000  0.05480000  1.0 0.1189427485
H  H59  1  0.12220000  0.69970000  0.96170000  1.0 0.1101725818
H  H60  1  0.24660000  0.44880000  0.90640000  1.0 0.1101725818
H  H61  1  0.28090000  0.47480000  0.83690000  1.0 0.1353793689
H  H62  1  0.17970000  0.69720000  0.78590000  1.0 0.1021266345
H  H63  1  0.10350000  0.66490000  0.03920000  1.0 0.1326508441
H  H64  1  0.24340000  0.05020000  0.29160000  1.0 0.1189427485
H  H65  1  0.36890000  0.42370000  0.46080000  1.0 0.1189427485
H  H66  1  0.37780000  0.33950000  0.57750000  1.0 0.1101725818
H  H67  1  0.25340000  0.15980000  0.20220000  1.0 0.1101725818
H  H68  1  0.21910000  0.05600000  0.19390000  1.0 0.1353793689
H  H69  1  0.32030000  0.10620000  0.51750000  1.0 0.1021266345
H  H70  1  0.39650000  0.43570000  0.56140000  1.0 0.1326508441
H  H71  1  0.25860000  0.95180000  0.20840000  1.0 0.1189427485
H  H72  1  0.46290000  0.90810000  0.03920000  1.0 0.1189427485
H  H73  1  0.26200000  0.80030000  0.92250000  1.0 0.1101725818
H  H74  1  0.45760000  0.05120000  0.29780000  1.0 0.1101725818
H  H75  1  0.36210000  0.02520000  0.30610000  1.0 0.1353793689
H  H76  1  0.08870000  0.80280000  0.98250000  1.0 0.1021266345
H  H77  1  0.37430000  0.83510000  0.93860000  1.0 0.1326508441
H  H78  1  0.24140000  0.44980000  0.69320000  1.0 0.1189427485
H  H79  1  0.03710000  0.07630000  0.44520000  1.0 0.1189427485
H  H80  1  0.23800000  0.16050000  0.53830000  1.0 0.1101725818
H  H81  1  0.04240000  0.34020000  0.59360000  1.0 0.1101725818
H  H82  1  0.13790000  0.44400000  0.66310000  1.0 0.1353793689
H  H83  1  0.41130000  0.39380000  0.71410000  1.0 0.1021266345
H  H84  1  0.12570000  0.06430000  0.46080000  1.0 0.1326508441
H  H85  1  0.70840000  0.45180000  0.75860000  1.0 0.1189427485
H  H86  1  0.53920000  0.40810000  0.96290000  1.0 0.1189427485
H  H87  1  0.42250000  0.30030000  0.76200000  1.0 0.1101725818
H  H88  1  0.79780000  0.55120000  0.95760000  1.0 0.1101725818
H  H89  1  0.80610000  0.52520000  0.86210000  1.0 0.1353793689
H  H90  1  0.48250000  0.30280000  0.58870000  1.0 0.1021266345
H  H91  1  0.43860000  0.33510000  0.87430000  1.0 0.1326508441
H  H92  1  0.19320000  0.94980000  0.74140000  1.0 0.1189427485
H  H93  1  0.94520000  0.57630000  0.53710000  1.0 0.1189427485
H  H94  1  0.03830000  0.66050000  0.73800000  1.0 0.1101725818
H  H95  1  0.09360000  0.84020000  0.54240000  1.0 0.1101725818
H  H96  1  0.16310000  0.94400000  0.63790000  1.0 0.1353793689
H  H97  1  0.21410000  0.89380000  0.91130000  1.0 0.1021266345
H  H98  1  0.96080000  0.56430000  0.62570000  1.0 0.1326508441
H  H99  1  0.30680000  0.04820000  0.75660000  1.0 0.1189427485
H  H100  1  0.55480000  0.09190000  0.63110000  1.0 0.1189427485
H  H101  1  0.46170000  0.19970000  0.62220000  1.0 0.1101725818
H  H102  1  0.40640000  0.94880000  0.74660000  1.0 0.1101725818
H  H103  1  0.33690000  0.97480000  0.78090000  1.0 0.1353793689
H  H104  1  0.28590000  0.19720000  0.67970000  1.0 0.1021266345
H  H105  1  0.53920000  0.16490000  0.60350000  1.0 0.1326508441
H  H106  1  0.79160000  0.55020000  0.74340000  1.0 0.1189427485
H  H107  1  0.96080000  0.92370000  0.86890000  1.0 0.1189427485
H  H108  1  0.07750000  0.83950000  0.87780000  1.0 0.1101725818
H  H109  1  0.70220000  0.65980000  0.75340000  1.0 0.1101725818
H  H110  1  0.69390000  0.55600000  0.71910000  1.0 0.1353793689
H  H111  1  0.01750000  0.60620000  0.82030000  1.0 0.1021266345
H  H112  1  0.06140000  0.93570000  0.89650000  1.0 0.1326508441
H  H113  1  0.74340000  0.79160000  0.55020000  1.0 0.1189427485
H  H114  1  0.86890000  0.96080000  0.92370000  1.0 0.1189427485
H  H115  1  0.87780000  0.07750000  0.83950000  1.0 0.1101725818
H  H116  1  0.75340000  0.70220000  0.65980000  1.0 0.1101725818
H  H117  1  0.71910000  0.69390000  0.55600000  1.0 0.1353793689
H  H118  1  0.82030000  0.01750000  0.60620000  1.0 0.1021266345
H  H119  1  0.89650000  0.06140000  0.93570000  1.0 0.1326508441
H  H120  1  0.75660000  0.30680000  0.04820000  1.0 0.1189427485
H  H121  1  0.63110000  0.55480000  0.09190000  1.0 0.1189427485
H  H122  1  0.62220000  0.46170000  0.19970000  1.0 0.1101725818
H  H123  1  0.74660000  0.40640000  0.94880000  1.0 0.1101725818
H  H124  1  0.78090000  0.33690000  0.97480000  1.0 0.1353793689
H  H125  1  0.67970000  0.28590000  0.19720000  1.0 0.1021266345
H  H126  1  0.60350000  0.53920000  0.16490000  1.0 0.1326508441
H  H127  1  0.74140000  0.19320000  0.94980000  1.0 0.1189427485
H  H128  1  0.53710000  0.94520000  0.57630000  1.0 0.1189427485
H  H129  1  0.73800000  0.03830000  0.66050000  1.0 0.1101725818
H  H130  1  0.54240000  0.09360000  0.84020000  1.0 0.1101725818
H  H131  1  0.63790000  0.16310000  0.94400000  1.0 0.1353793689
H  H132  1  0.91130000  0.21410000  0.89380000  1.0 0.1021266345
H  H133  1  0.62570000  0.96080000  0.56430000  1.0 0.1326508441
H  H134  1  0.75860000  0.70840000  0.45180000  1.0 0.1189427485
H  H135  1  0.96290000  0.53920000  0.40810000  1.0 0.1189427485
H  H136  1  0.76200000  0.42250000  0.30030000  1.0 0.1101725818
H  H137  1  0.95760000  0.79780000  0.55120000  1.0 0.1101725818
H  H138  1  0.86210000  0.80610000  0.52520000  1.0 0.1353793689
H  H139  1  0.58870000  0.48250000  0.30280000  1.0 0.1021266345
H  H140  1  0.87430000  0.43860000  0.33510000  1.0 0.1326508441
H  H141  1  0.04820000  0.75660000  0.30680000  1.0 0.1189427485
H  H142  1  0.09190000  0.63110000  0.55480000  1.0 0.1189427485
H  H143  1  0.19970000  0.62220000  0.46170000  1.0 0.1101725818
H  H144  1  0.94880000  0.74660000  0.40640000  1.0 0.1101725818
H  H145  1  0.97480000  0.78090000  0.33690000  1.0 0.1353793689
H  H146  1  0.19720000  0.67970000  0.28590000  1.0 0.1021266345
H  H147  1  0.16490000  0.60350000  0.53920000  1.0 0.1326508441
H  H148  1  0.55020000  0.74340000  0.79160000  1.0 0.1189427485
H  H149  1  0.92370000  0.86890000  0.96080000  1.0 0.1189427485
H  H150  1  0.83950000  0.87780000  0.07750000  1.0 0.1101725818
H  H151  1  0.65980000  0.75340000  0.70220000  1.0 0.1101725818
H  H152  1  0.55600000  0.71910000  0.69390000  1.0 0.1353793689
H  H153  1  0.60620000  0.82030000  0.01750000  1.0 0.1021266345
H  H154  1  0.93570000  0.89650000  0.06140000  1.0 0.1326508441
H  H155  1  0.45180000  0.75860000  0.70840000  1.0 0.1189427485
H  H156  1  0.40810000  0.96290000  0.53920000  1.0 0.1189427485
H  H157  1  0.30030000  0.76200000  0.42250000  1.0 0.1101725818
H  H158  1  0.55120000  0.95760000  0.79780000  1.0 0.1101725818
H  H159  1  0.52520000  0.86210000  0.80610000  1.0 0.1353793689
H  H160  1  0.30280000  0.58870000  0.48250000  1.0 0.1021266345
H  H161  1  0.33510000  0.87430000  0.43860000  1.0 0.1326508441
H  H162  1  0.94980000  0.74140000  0.19320000  1.0 0.1189427485
H  H163  1  0.57630000  0.53710000  0.94520000  1.0 0.1189427485
H  H164  1  0.66050000  0.73800000  0.03830000  1.0 0.1101725818
H  H165  1  0.84020000  0.54240000  0.09360000  1.0 0.1101725818
H  H166  1  0.94400000  0.63790000  0.16310000  1.0 0.1353793689
H  H167  1  0.89380000  0.91130000  0.21410000  1.0 0.1021266345
H  H168  1  0.56430000  0.62570000  0.96080000  1.0 0.1326508441
C  C1  1  0.88630000  0.08290000  0.23680000  1.0 0.1021266345
C  C2  1  0.96140000  0.20720000  0.29800000  1.0 -0.0892032955
C  C3  1  0.89720000  0.03430000  0.42090000  1.0 -0.0024567742
C  C4  1  0.93040000  0.14440000  0.29660000  1.0 -0.0154088542
C  C5  1  0.91190000  0.08450000  0.35720000  1.0 0.1353793689
C  C6  1  0.83270000  0.96330000  0.30020000  1.0 -0.1180374656
C  C7  1  0.01890000  0.25950000  0.41680000  1.0 0.0482552848
C  C8  1  0.00540000  0.26500000  0.35920000  1.0 -0.1700665192
C  C9  1  0.82510000  0.00410000  0.13500000  1.0 0.1741338861
C  C10  1  0.85330000  0.97440000  0.36830000  1.0 -0.1431950231
C  C11  1  0.94530000  0.14550000  0.35580000  1.0 0.1189427485
C  C12  1  0.86910000  0.02400000  0.29950000  1.0 -0.0024567742
C  C13  1  0.85450000  0.02160000  0.23830000  1.0 0.1101725818
C  C14  1  0.34610000  0.64950000  0.26320000  1.0 0.1021266345
C  C15  1  0.40920000  0.66340000  0.20200000  1.0 -0.0892032955
C  C16  1  0.11340000  0.47630000  0.07910000  1.0 -0.0024567742
C  C17  1  0.34780000  0.63380000  0.20340000  1.0 -0.0154088542
C  C18  1  0.22730000  0.55470000  0.14280000  1.0 0.1353793689
C  C19  1  0.16310000  0.53250000  0.19980000  1.0 -0.1180374656
C  C20  1  0.34270000  0.60210000  0.08320000  1.0 0.0482552848
C  C21  1  0.40580000  0.64620000  0.14080000  1.0 -0.1700665192
C  C22  1  0.36910000  0.69010000  0.36500000  1.0 0.176072682
C  C23  1  0.10610000  0.48500000  0.13170000  1.0 -0.1431950231
C  C24  1  0.28970000  0.58950000  0.14420000  1.0 0.1189427485
C  C25  1  0.22450000  0.56960000  0.20050000  1.0 -0.0024567742
C  C26  1  0.28330000  0.61620000  0.26170000  1.0 0.1101725818
C  C27  1  0.61370000  0.85050000  0.19660000  1.0 0.1021266345
C  C28  1  0.53860000  0.83660000  0.24580000  1.0 -0.0892032955
C  C29  1  0.60280000  0.02370000  0.13710000  1.0 -0.0024567742
C  C30  1  0.56960000  0.86620000  0.21400000  1.0 -0.0154088542
C  C31  1  0.58810000  0.94530000  0.17260000  1.0 0.1326508441
C  C32  1  0.66730000  0.96750000  0.13060000  1.0 -0.1180374656
C  C33  1  0.48110000  0.89790000  0.24060000  1.0 0.0482552848
C  C34  1  0.49460000  0.85380000  0.25960000  1.0 -0.1700665192
C  C35  1  0.67490000  0.80990000  0.17900000  1.0 0.176072682
C  C36  1  0.64670000  0.01500000  0.12110000  1.0 -0.1431950231
C  C37  1  0.55470000  0.91050000  0.20020000  1.0 0.1189427485
C  C38  1  0.63090000  0.93040000  0.15490000  1.0 -0.0024567742
C  C39  1  0.64550000  0.88380000  0.16710000  1.0 0.1101725818
C  C40  1  0.15390000  0.41710000  0.30340000  1.0 0.1021266345
C  C41  1  0.09080000  0.29280000  0.25420000  1.0 -0.0892032955
C  C42  1  0.38660000  0.46570000  0.36290000  1.0 -0.0024567742
C  C43  1  0.15220000  0.35560000  0.28600000  1.0 -0.0154088542
C  C44  1  0.27270000  0.41550000  0.32740000  1.0 0.1353793689
C  C45  1  0.33690000  0.53670000  0.36940000  1.0 -0.1180374656
C  C46  1  0.15730000  0.24050000  0.25940000  1.0 0.0482552848
C  C47  1  0.09420000  0.23500000  0.24040000  1.0 -0.1700665192
C  C48  1  0.13090000  0.49590000  0.32100000  1.0 0.1741338861
C  C49  1  0.39390000  0.52560000  0.37890000  1.0 -0.1431950231
C  C50  1  0.21030000  0.35450000  0.29980000  1.0 0.1189427485
C  C51  1  0.27550000  0.47600000  0.34510000  1.0 -0.0024567742
C  C52  1  0.21670000  0.47840000  0.33290000  1.0 0.1101725818
C  C53  1  0.41710000  0.30340000  0.15390000  1.0 0.1021266345
C  C54  1  0.29280000  0.25420000  0.09080000  1.0 -0.0892032955
C  C55  1  0.46570000  0.36290000  0.38660000  1.0 -0.0024567742
C  C56  1  0.35560000  0.28600000  0.15220000  1.0 -0.0148012482
C  C57  1  0.41550000  0.32740000  0.27270000  1.0 0.1353793689
C  C58  1  0.53670000  0.36940000  0.33690000  1.0 -0.1180374656
C  C59  1  0.24050000  0.25940000  0.15730000  1.0 0.0482552848
C  C60  1  0.23500000  0.24040000  0.09420000  1.0 -0.1700665192
C  C61  1  0.49590000  0.32100000  0.13090000  1.0 0.1741338861
C  C62  1  0.52560000  0.37890000  0.39390000  1.0 -0.1431950231
C  C63  1  0.35450000  0.29980000  0.21030000  1.0 0.1189427485
C  C64  1  0.47600000  0.34510000  0.27550000  1.0 -0.0024567742
C  C65  1  0.47840000  0.33290000  0.21670000  1.0 0.1101725818
C  C66  1  0.85050000  0.19660000  0.61370000  1.0 0.1021266345
C  C67  1  0.83660000  0.24580000  0.53860000  1.0 -0.0892032955
C  C68  1  0.02370000  0.13710000  0.60280000  1.0 -0.0024567742
C  C69  1  0.86620000  0.21400000  0.56960000  1.0 -0.0154088542
C  C70  1  0.94530000  0.17260000  0.58810000  1.0 0.1353793689
C  C71  1  0.96750000  0.13060000  0.66730000  1.0 -0.1180374656
C  C72  1  0.89790000  0.24060000  0.48110000  1.0 0.0482552848
C  C73  1  0.85380000  0.25960000  0.49460000  1.0 -0.1700665192
C  C74  1  0.80990000  0.17900000  0.67490000  1.0 0.1741338861
C  C75  1  0.01500000  0.12110000  0.64670000  1.0 -0.1431950231
C  C76  1  0.91050000  0.20020000  0.55470000  1.0 0.1189427485
C  C77  1  0.93040000  0.15490000  0.63090000  1.0 -0.0024567742
C  C78  1  0.88380000  0.16710000  0.64550000  1.0 0.1101725818
C  C79  1  0.64950000  0.26320000  0.34610000  1.0 0.1021266345
C  C80  1  0.66340000  0.20200000  0.40920000  1.0 -0.0892032955
C  C81  1  0.47630000  0.07910000  0.11340000  1.0 -0.0024567742
C  C82  1  0.63380000  0.20340000  0.34780000  1.0 -0.0148012482
C  C83  1  0.55470000  0.14280000  0.22730000  1.0 0.1353793689
C  C84  1  0.53250000  0.19980000  0.16310000  1.0 -0.1180374656
C  C85  1  0.60210000  0.08320000  0.34270000  1.0 0.0482552848
C  C86  1  0.64620000  0.14080000  0.40580000  1.0 -0.1700665192
C  C87  1  0.69010000  0.36500000  0.36910000  1.0 0.1741338861
C  C88  1  0.48500000  0.13170000  0.10610000  1.0 -0.1431950231
C  C89  1  0.58950000  0.14420000  0.28970000  1.0 0.1189427485
C  C90  1  0.56960000  0.20050000  0.22450000  1.0 -0.0024567742
C  C91  1  0.61620000  0.26170000  0.28330000  1.0 0.1101725818
C  C92  1  0.08290000  0.23680000  0.88630000  1.0 0.1021266345
C  C93  1  0.20720000  0.29800000  0.96140000  1.0 -0.0892032955
C  C94  1  0.03430000  0.42090000  0.89720000  1.0 -0.0024567742
C  C95  1  0.14440000  0.29660000  0.93040000  1.0 -0.0148012482
C  C96  1  0.08450000  0.35720000  0.91190000  1.0 0.1353793689
C  C97  1  0.96330000  0.30020000  0.83270000  1.0 -0.1180374656
C  C98  1  0.25950000  0.41680000  0.01890000  1.0 0.0482552848
C  C99  1  0.26500000  0.35920000  0.00540000  1.0 -0.1700665192
C  C100  1  0.00410000  0.13500000  0.82510000  1.0 0.1741338861
C  C101  1  0.97440000  0.36830000  0.85330000  1.0 -0.1431950231
C  C102  1  0.14550000  0.35580000  0.94530000  1.0 0.1189427485
C  C103  1  0.02400000  0.29950000  0.86910000  1.0 -0.0024567742
C  C104  1  0.02160000  0.23830000  0.85450000  1.0 0.1021266345
C  C105  1  0.19660000  0.61370000  0.85050000  1.0 0.1021266345
C  C106  1  0.24580000  0.53860000  0.83660000  1.0 -0.0892032955
C  C107  1  0.13710000  0.60280000  0.02370000  1.0 -0.0024567742
C  C108  1  0.21400000  0.56960000  0.86620000  1.0 -0.0148012482
C  C109  1  0.17260000  0.58810000  0.94530000  1.0 0.1353793689
C  C110  1  0.13060000  0.66730000  0.96750000  1.0 -0.1180374656
C  C111  1  0.24060000  0.48110000  0.89790000  1.0 0.0482552848
C  C112  1  0.25960000  0.49460000  0.85380000  1.0 -0.1700665192
C  C113  1  0.17900000  0.67490000  0.80990000  1.0 0.176072682
C  C114  1  0.12110000  0.64670000  0.01500000  1.0 -0.1431950231
C  C115  1  0.20020000  0.55470000  0.91050000  1.0 0.1189427485
C  C116  1  0.15490000  0.63090000  0.93040000  1.0 -0.0024567742
C  C117  1  0.16710000  0.64550000  0.88380000  1.0 0.1101725818
C  C118  1  0.30340000  0.15390000  0.41710000  1.0 0.1021266345
C  C119  1  0.25420000  0.09080000  0.29280000  1.0 -0.0892032955
C  C120  1  0.36290000  0.38660000  0.46570000  1.0 -0.0024567742
C  C121  1  0.28600000  0.15220000  0.35560000  1.0 -0.0154088542
C  C122  1  0.32740000  0.27270000  0.41550000  1.0 0.1353793689
C  C123  1  0.36940000  0.33690000  0.53670000  1.0 -0.1180374656
C  C124  1  0.25940000  0.15730000  0.24050000  1.0 0.0482552848
C  C125  1  0.24040000  0.09420000  0.23500000  1.0 -0.1700665192
C  C126  1  0.32100000  0.13090000  0.49590000  1.0 0.1741338861
C  C127  1  0.37890000  0.39390000  0.52560000  1.0 -0.1431950231
C  C128  1  0.29980000  0.21030000  0.35450000  1.0 0.1189427485
C  C129  1  0.34510000  0.27550000  0.47600000  1.0 -0.0024567742
C  C130  1  0.33290000  0.21670000  0.47840000  1.0 0.1101725818
C  C131  1  0.23680000  0.88630000  0.08290000  1.0 0.1021266345
C  C132  1  0.29800000  0.96140000  0.20720000  1.0 -0.0892032955
C  C133  1  0.42090000  0.89720000  0.03430000  1.0 -0.0024567742
C  C134  1  0.29660000  0.93040000  0.14440000  1.0 -0.0148012482
C  C135  1  0.35720000  0.91190000  0.08450000  1.0 0.1353793689
C  C136  1  0.30020000  0.83270000  0.96330000  1.0 -0.1180374656
C  C137  1  0.41680000  0.01890000  0.25950000  1.0 0.0482552848
C  C138  1  0.35920000  0.00540000  0.26500000  1.0 -0.1700665192
C  C139  1  0.13500000  0.82510000  0.00410000  1.0 0.1741338861
C  C140  1  0.36830000  0.85330000  0.97440000  1.0 -0.1431950231
C  C141  1  0.35580000  0.94530000  0.14550000  1.0 0.1189427485
C  C142  1  0.29950000  0.86910000  0.02400000  1.0 -0.0024567742
C  C143  1  0.23830000  0.85450000  0.02160000  1.0 0.1101725818
C  C144  1  0.26320000  0.34610000  0.64950000  1.0 0.1021266345
C  C145  1  0.20200000  0.40920000  0.66340000  1.0 -0.0892032955
C  C146  1  0.07910000  0.11340000  0.47630000  1.0 -0.0024567742
C  C147  1  0.20340000  0.34780000  0.63380000  1.0 -0.0154088542
C  C148  1  0.14280000  0.22730000  0.55470000  1.0 0.1353793689
C  C149  1  0.19980000  0.16310000  0.53250000  1.0 -0.1180374656
C  C150  1  0.08320000  0.34270000  0.60210000  1.0 0.0482552848
C  C151  1  0.14080000  0.40580000  0.64620000  1.0 -0.1700665192
C  C152  1  0.36500000  0.36910000  0.69010000  1.0 0.1741338861
C  C153  1  0.13170000  0.10610000  0.48500000  1.0 -0.1431950231
C  C154  1  0.14420000  0.28970000  0.58950000  1.0 0.1189427485
C  C155  1  0.20050000  0.22450000  0.56960000  1.0 -0.0024567742
C  C156  1  0.26170000  0.28330000  0.61620000  1.0 0.1101725818
C  C157  1  0.58290000  0.38630000  0.73680000  1.0 0.1021266345
C  C158  1  0.70720000  0.46140000  0.79800000  1.0 -0.0892032955
C  C159  1  0.53430000  0.39720000  0.92090000  1.0 -0.0024567742
C  C160  1  0.64440000  0.43040000  0.79660000  1.0 -0.0154088542
C  C161  1  0.58450000  0.41190000  0.85720000  1.0 0.1353793689
C  C162  1  0.46330000  0.33270000  0.80020000  1.0 -0.1180374656
C  C163  1  0.75950000  0.51890000  0.91680000  1.0 0.0482552848
C  C164  1  0.76500000  0.50540000  0.85920000  1.0 -0.1700665192
C  C165  1  0.50410000  0.32510000  0.63500000  1.0 0.1741338861
C  C166  1  0.47440000  0.35330000  0.86830000  1.0 -0.1431950231
C  C167  1  0.64550000  0.44530000  0.85580000  1.0 0.1189427485
C  C168  1  0.52400000  0.36910000  0.79950000  1.0 -0.0024567742
C  C169  1  0.52160000  0.35450000  0.73830000  1.0 0.1101725818
C  C170  1  0.14950000  0.84610000  0.76320000  1.0 0.1021266345
C  C171  1  0.16340000  0.90920000  0.70200000  1.0 -0.0892032955
C  C172  1  0.97630000  0.61340000  0.57910000  1.0 -0.0024567742
C  C173  1  0.13380000  0.84780000  0.70340000  1.0 -0.0154088542
C  C174  1  0.05470000  0.72730000  0.64280000  1.0 0.1353793689
C  C175  1  0.03250000  0.66310000  0.69980000  1.0 -0.1180374656
C  C176  1  0.10210000  0.84270000  0.58320000  1.0 0.0482552848
C  C177  1  0.14620000  0.90580000  0.64080000  1.0 -0.1700665192
C  C178  1  0.19010000  0.86910000  0.86500000  1.0 0.176072682
C  C179  1  0.98500000  0.60610000  0.63170000  1.0 -0.1431950231
C  C180  1  0.08950000  0.78970000  0.64420000  1.0 0.1189427485
C  C181  1  0.06960000  0.72450000  0.70050000  1.0 -0.0024567742
C  C182  1  0.11620000  0.78330000  0.76170000  1.0 0.1101725818
C  C183  1  0.35050000  0.11370000  0.69660000  1.0 0.1021266345
C  C184  1  0.33660000  0.03860000  0.74580000  1.0 -0.0892032955
C  C185  1  0.52370000  0.10280000  0.63710000  1.0 -0.0024567742
C  C186  1  0.36620000  0.06960000  0.71400000  1.0 -0.0154088542
C  C187  1  0.44530000  0.08810000  0.67260000  1.0 0.1353793689
C  C188  1  0.46750000  0.16730000  0.63060000  1.0 -0.1180374656
C  C189  1  0.39790000  0.98110000  0.74060000  1.0 0.0482552848
C  C190  1  0.35380000  0.99460000  0.75960000  1.0 -0.1700665192
C  C191  1  0.30990000  0.17490000  0.67900000  1.0 0.1741338861
C  C192  1  0.51500000  0.14670000  0.62110000  1.0 -0.1431950231
C  C193  1  0.41050000  0.05470000  0.70020000  1.0 0.1189427485
C  C194  1  0.43040000  0.13090000  0.65490000  1.0 -0.0024567742
C  C195  1  0.38380000  0.14550000  0.66710000  1.0 0.1101725818
C  C196  1  0.91710000  0.65390000  0.80340000  1.0 0.1021266345
C  C197  1  0.79280000  0.59080000  0.75420000  1.0 -0.0892032955
C  C198  1  0.96570000  0.88660000  0.86290000  1.0 -0.0024567742
C  C199  1  0.85560000  0.65220000  0.78600000  1.0 -0.0154088542
C  C200  1  0.91550000  0.77270000  0.82740000  1.0 0.1353793689
C  C201  1  0.03670000  0.83690000  0.86940000  1.0 -0.1180374656
C  C202  1  0.74050000  0.65730000  0.75940000  1.0 0.0482552848
C  C203  1  0.73500000  0.59420000  0.74040000  1.0 -0.1700665192
C  C204  1  0.99590000  0.63090000  0.82100000  1.0 0.176072682
C  C205  1  0.02560000  0.89390000  0.87890000  1.0 -0.1431950231
C  C206  1  0.85450000  0.71030000  0.79980000  1.0 0.1189427485
C  C207  1  0.97600000  0.77550000  0.84510000  1.0 -0.0024567742
C  C208  1  0.97840000  0.71670000  0.83290000  1.0 0.1101725818
C  C209  1  0.80340000  0.91710000  0.65390000  1.0 0.1021266345
C  C210  1  0.75420000  0.79280000  0.59080000  1.0 -0.0892032955
C  C211  1  0.86290000  0.96570000  0.88660000  1.0 -0.0024567742
C  C212  1  0.78600000  0.85560000  0.65220000  1.0 -0.0154088542
C  C213  1  0.82740000  0.91550000  0.77270000  1.0 0.1353793689
C  C214  1  0.86940000  0.03670000  0.83690000  1.0 -0.1180374656
C  C215  1  0.75940000  0.74050000  0.65730000  1.0 0.0482552848
C  C216  1  0.74040000  0.73500000  0.59420000  1.0 -0.1700665192
C  C217  1  0.82100000  0.99590000  0.63090000  1.0 0.1741338861
C  C218  1  0.87890000  0.02560000  0.89390000  1.0 -0.1431950231
C  C219  1  0.79980000  0.85450000  0.71030000  1.0 0.1189427485
C  C220  1  0.84510000  0.97600000  0.77550000  1.0 -0.0024567742
C  C221  1  0.83290000  0.97840000  0.71670000  1.0 0.1101725818
C  C222  1  0.69660000  0.35050000  0.11370000  1.0 0.1021266345
C  C223  1  0.74580000  0.33660000  0.03860000  1.0 -0.0892032955
C  C224  1  0.63710000  0.52370000  0.10280000  1.0 -0.0024567742
C  C225  1  0.71400000  0.36620000  0.06960000  1.0 -0.0148012482
C  C226  1  0.67260000  0.44530000  0.08810000  1.0 0.1353793689
C  C227  1  0.63060000  0.46750000  0.16730000  1.0 -0.1180374656
C  C228  1  0.74060000  0.39790000  0.98110000  1.0 0.0482552848
C  C229  1  0.75960000  0.35380000  0.99460000  1.0 -0.1700665192
C  C230  1  0.67900000  0.30990000  0.17490000  1.0 0.1741338861
C  C231  1  0.62110000  0.51500000  0.14670000  1.0 -0.1431950231
C  C232  1  0.70020000  0.41050000  0.05470000  1.0 0.1189427485
C  C233  1  0.65490000  0.43040000  0.13090000  1.0 -0.0024567742
C  C234  1  0.66710000  0.38380000  0.14550000  1.0 0.1101725818
C  C235  1  0.76320000  0.14950000  0.84610000  1.0 0.1021266345
C  C236  1  0.70200000  0.16340000  0.90920000  1.0 -0.0892032955
C  C237  1  0.57910000  0.97630000  0.61340000  1.0 -0.0024567742
C  C238  1  0.70340000  0.13380000  0.84780000  1.0 -0.0154088542
C  C239  1  0.64280000  0.05470000  0.72730000  1.0 0.1353793689
C  C240  1  0.69980000  0.03250000  0.66310000  1.0 -0.1180374656
C  C241  1  0.58320000  0.10210000  0.84270000  1.0 0.0482552848
C  C242  1  0.64080000  0.14620000  0.90580000  1.0 -0.1700665192
C  C243  1  0.86500000  0.19010000  0.86910000  1.0 0.1741338861
C  C244  1  0.63170000  0.98500000  0.60610000  1.0 -0.1431950231
C  C245  1  0.64420000  0.08950000  0.78970000  1.0 0.1189427485
C  C246  1  0.70050000  0.06960000  0.72450000  1.0 -0.0024567742
C  C247  1  0.76170000  0.11620000  0.78330000  1.0 0.1101725818
C  C248  1  0.73680000  0.58290000  0.38630000  1.0 0.1021266345
C  C249  1  0.79800000  0.70720000  0.46140000  1.0 -0.0892032955
C  C250  1  0.92090000  0.53430000  0.39720000  1.0 -0.0024567742
C  C251  1  0.79660000  0.64440000  0.43040000  1.0 -0.0154088542
C  C252  1  0.85720000  0.58450000  0.41190000  1.0 0.1353793689
C  C253  1  0.80020000  0.46330000  0.33270000  1.0 -0.1180374656
C  C254  1  0.91680000  0.75950000  0.51890000  1.0 0.0482552848
C  C255  1  0.85920000  0.76500000  0.50540000  1.0 -0.1700665192
C  C256  1  0.63500000  0.50410000  0.32510000  1.0 0.1741338861
C  C257  1  0.86830000  0.47440000  0.35330000  1.0 -0.1431950231
C  C258  1  0.85580000  0.64550000  0.44530000  1.0 0.1189427485
C  C259  1  0.79950000  0.52400000  0.36910000  1.0 -0.0024567742
C  C260  1  0.73830000  0.52160000  0.35450000  1.0 0.1101725818
C  C261  1  0.11370000  0.69660000  0.35050000  1.0 0.1021266345
C  C262  1  0.03860000  0.74580000  0.33660000  1.0 -0.0892032955
C  C263  1  0.10280000  0.63710000  0.52370000  1.0 -0.0024567742
C  C264  1  0.06960000  0.71400000  0.36620000  1.0 -0.0148012482
C  C265  1  0.08810000  0.67260000  0.44530000  1.0 0.1353793689
C  C266  1  0.16730000  0.63060000  0.46750000  1.0 -0.1180374656
C  C267  1  0.98110000  0.74060000  0.39790000  1.0 0.0482552848
C  C268  1  0.99460000  0.75960000  0.35380000  1.0 -0.1700665192
C  C269  1  0.17490000  0.67900000  0.30990000  1.0 0.176072682
C  C270  1  0.14670000  0.62110000  0.51500000  1.0 -0.1431950231
C  C271  1  0.05470000  0.70020000  0.41050000  1.0 0.1189427485
C  C272  1  0.13090000  0.65490000  0.43040000  1.0 -0.0024567742
C  C273  1  0.14550000  0.66710000  0.38380000  1.0 0.1101725818
C  C274  1  0.65390000  0.80340000  0.91710000  1.0 0.1021266345
C  C275  1  0.59080000  0.75420000  0.79280000  1.0 -0.0892032955
C  C276  1  0.88660000  0.86290000  0.96570000  1.0 -0.0024567742
C  C277  1  0.65220000  0.78600000  0.85560000  1.0 -0.0154088542
C  C278  1  0.77270000  0.82740000  0.91550000  1.0 0.1353793689
C  C279  1  0.83690000  0.86940000  0.03670000  1.0 -0.1180374656
C  C280  1  0.65730000  0.75940000  0.74050000  1.0 0.0482552848
C  C281  1  0.59420000  0.74040000  0.73500000  1.0 -0.1700665192
C  C282  1  0.63090000  0.82100000  0.99590000  1.0 0.1741338861
C  C283  1  0.89390000  0.87890000  0.02560000  1.0 -0.1431950231
C  C284  1  0.71030000  0.79980000  0.85450000  1.0 0.1189427485
C  C285  1  0.77550000  0.84510000  0.97600000  1.0 -0.0024567742
C  C286  1  0.71670000  0.83290000  0.97840000  1.0 0.1101725818
C  C287  1  0.38630000  0.73680000  0.58290000  1.0 0.1021266345
C  C288  1  0.46140000  0.79800000  0.70720000  1.0 -0.0892032955
C  C289  1  0.39720000  0.92090000  0.53430000  1.0 -0.0024567742
C  C290  1  0.43040000  0.79660000  0.64440000  1.0 -0.0148012482
C  C291  1  0.41190000  0.85720000  0.58450000  1.0 0.1353793689
C  C292  1  0.33270000  0.80020000  0.46330000  1.0 -0.1180374656
C  C293  1  0.51890000  0.91680000  0.75950000  1.0 0.0482552848
C  C294  1  0.50540000  0.85920000  0.76500000  1.0 -0.1700665192
C  C295  1  0.32510000  0.63500000  0.50410000  1.0 0.1741338861
C  C296  1  0.35330000  0.86830000  0.47440000  1.0 -0.1431950231
C  C297  1  0.44530000  0.85580000  0.64550000  1.0 0.1189427485
C  C298  1  0.36910000  0.79950000  0.52400000  1.0 -0.0024567742
C  C299  1  0.35450000  0.73830000  0.52160000  1.0 0.1101725818
C  C300  1  0.84610000  0.76320000  0.14950000  1.0 0.1021266345
C  C301  1  0.90920000  0.70200000  0.16340000  1.0 -0.0892032955
C  C302  1  0.61340000  0.57910000  0.97630000  1.0 -0.0024567742
C  C303  1  0.84780000  0.70340000  0.13380000  1.0 -0.0154088542
C  C304  1  0.72730000  0.64280000  0.05470000  1.0 0.1353793689
C  C305  1  0.66310000  0.69980000  0.03250000  1.0 -0.1180374656
C  C306  1  0.84270000  0.58320000  0.10210000  1.0 0.0482552848
C  C307  1  0.90580000  0.64080000  0.14620000  1.0 -0.1700665192
C  C308  1  0.86910000  0.86500000  0.19010000  1.0 0.1741338861
C  C309  1  0.60610000  0.63170000  0.98500000  1.0 -0.1431950231
C  C310  1  0.78970000  0.64420000  0.08950000  1.0 0.1189427485
C  C311  1  0.72450000  0.70050000  0.06960000  1.0 -0.0024567742
C  C312  1  0.78330000  0.76170000  0.11620000  1.0 0.1101725818
N  N1  1  0.86680000  0.06690000  0.17090000  1.0 -0.3608311116
N  N2  1  0.92810000  0.09070000  0.41700000  1.0 -0.2616623913
N  N3  1  0.81470000  0.96920000  0.17010000  1.0 -0.4076773283
N  N4  1  0.98720000  0.20020000  0.41760000  1.0 -0.2931670884
N  N5  1  0.39600000  0.69590000  0.32910000  1.0 -0.3608311116
N  N6  1  0.17370000  0.51110000  0.08300000  1.0 -0.2616623913
N  N7  1  0.29910000  0.64460000  0.32990000  1.0 -0.4076773283
N  N8  1  0.28260000  0.56960000  0.08240000  1.0 -0.2931670884
N  N9  1  0.63320000  0.80410000  0.20010000  1.0 -0.3608311116
N  N10  1  0.57190000  0.98890000  0.16260000  1.0 -0.2616623913
N  N11  1  0.68530000  0.85540000  0.15450000  1.0 -0.404160055
N  N12  1  0.51280000  0.93040000  0.21300000  1.0 -0.2931670884
N  N13  1  0.10400000  0.43310000  0.29990000  1.0 -0.3608311116
N  N14  1  0.32630000  0.40930000  0.33740000  1.0 -0.2616623913
N  N15  1  0.20090000  0.53080000  0.34550000  1.0 -0.4076773283
N  N16  1  0.21740000  0.29980000  0.28700000  1.0 -0.2931670884
N  N17  1  0.43310000  0.29990000  0.10400000  1.0 -0.3608311116
N  N18  1  0.40930000  0.33740000  0.32630000  1.0 -0.2616623913
N  N19  1  0.53080000  0.34550000  0.20090000  1.0 -0.404160055
N  N20  1  0.29980000  0.28700000  0.21740000  1.0 -0.2931670884
N  N21  1  0.80410000  0.20010000  0.63320000  1.0 -0.3608311116
N  N22  1  0.98890000  0.16260000  0.57190000  1.0 -0.2616623913
N  N23  1  0.85540000  0.15450000  0.68530000  1.0 -0.4076773283
N  N24  1  0.93040000  0.21300000  0.51280000  1.0 -0.2931670884
N  N25  1  0.69590000  0.32910000  0.39600000  1.0 -0.3608311116
N  N26  1  0.51110000  0.08300000  0.17370000  1.0 -0.2616623913
N  N27  1  0.64460000  0.32990000  0.29910000  1.0 -0.404160055
N  N28  1  0.56960000  0.08240000  0.28260000  1.0 -0.2931670884
N  N29  1  0.06690000  0.17090000  0.86680000  1.0 -0.3608311116
N  N30  1  0.09070000  0.41700000  0.92810000  1.0 -0.2616623913
N  N31  1  0.96920000  0.17010000  0.81470000  1.0 -0.404160055
N  N32  1  0.20020000  0.41760000  0.98720000  1.0 -0.2931670884
N  N33  1  0.20010000  0.63320000  0.80410000  1.0 -0.3608311116
N  N34  1  0.16260000  0.57190000  0.98890000  1.0 -0.2616623913
N  N35  1  0.15450000  0.68530000  0.85540000  1.0 -0.4076773283
N  N36  1  0.21300000  0.51280000  0.93040000  1.0 -0.2931670884
N  N37  1  0.29990000  0.10400000  0.43310000  1.0 -0.3608311116
N  N38  1  0.33740000  0.32630000  0.40930000  1.0 -0.2616623913
N  N39  1  0.34550000  0.20090000  0.53080000  1.0 -0.4076773283
N  N40  1  0.28700000  0.21740000  0.29980000  1.0 -0.2931670884
N  N41  1  0.17090000  0.86680000  0.06690000  1.0 -0.3608311116
N  N42  1  0.41700000  0.92810000  0.09070000  1.0 -0.2616623913
N  N43  1  0.17010000  0.81470000  0.96920000  1.0 -0.4076773283
N  N44  1  0.41760000  0.98720000  0.20020000  1.0 -0.2931670884
N  N45  1  0.32910000  0.39600000  0.69590000  1.0 -0.3608311116
N  N46  1  0.08300000  0.17370000  0.51110000  1.0 -0.2616623913
N  N47  1  0.32990000  0.29910000  0.64460000  1.0 -0.4076773283
N  N48  1  0.08240000  0.28260000  0.56960000  1.0 -0.2931670884
N  N49  1  0.56690000  0.36680000  0.67090000  1.0 -0.3608311116
N  N50  1  0.59070000  0.42810000  0.91700000  1.0 -0.2616623913
N  N51  1  0.46920000  0.31470000  0.67010000  1.0 -0.4076773283
N  N52  1  0.70020000  0.48720000  0.91760000  1.0 -0.2931670884
N  N53  1  0.19590000  0.89600000  0.82910000  1.0 -0.3608311116
N  N54  1  0.01110000  0.67370000  0.58300000  1.0 -0.2616623913
N  N55  1  0.14460000  0.79910000  0.82990000  1.0 -0.4076773283
N  N56  1  0.06960000  0.78260000  0.58240000  1.0 -0.2931670884
N  N57  1  0.30410000  0.13320000  0.70010000  1.0 -0.3608311116
N  N58  1  0.48890000  0.07190000  0.66260000  1.0 -0.2616623913
N  N59  1  0.35540000  0.18530000  0.65450000  1.0 -0.4076773283
N  N60  1  0.43040000  0.01280000  0.71300000  1.0 -0.2931670884
N  N61  1  0.93310000  0.60400000  0.79990000  1.0 -0.3608311116
N  N62  1  0.90930000  0.82630000  0.83740000  1.0 -0.2616623913
N  N63  1  0.03080000  0.70090000  0.84550000  1.0 -0.4076773283
N  N64  1  0.79980000  0.71740000  0.78700000  1.0 -0.2931670884
N  N65  1  0.79990000  0.93310000  0.60400000  1.0 -0.3608311116
N  N66  1  0.83740000  0.90930000  0.82630000  1.0 -0.2616623913
N  N67  1  0.84550000  0.03080000  0.70090000  1.0 -0.4076773283
N  N68  1  0.78700000  0.79980000  0.71740000  1.0 -0.2931670884
N  N69  1  0.70010000  0.30410000  0.13320000  1.0 -0.3608311116
N  N70  1  0.66260000  0.48890000  0.07190000  1.0 -0.2616623913
N  N71  1  0.65450000  0.35540000  0.18530000  1.0 -0.404160055
N  N72  1  0.71300000  0.43040000  0.01280000  1.0 -0.2931670884
N  N73  1  0.82910000  0.19590000  0.89600000  1.0 -0.3608311116
N  N74  1  0.58300000  0.01110000  0.67370000  1.0 -0.2616623913
N  N75  1  0.82990000  0.14460000  0.79910000  1.0 -0.4076773283
N  N76  1  0.58240000  0.06960000  0.78260000  1.0 -0.2931670884
N  N77  1  0.67090000  0.56690000  0.36680000  1.0 -0.3608311116
N  N78  1  0.91700000  0.59070000  0.42810000  1.0 -0.2616623913
N  N79  1  0.67010000  0.46920000  0.31470000  1.0 -0.4076773283
N  N80  1  0.91760000  0.70020000  0.48720000  1.0 -0.2931670884
N  N81  1  0.13320000  0.70010000  0.30410000  1.0 -0.3608311116
N  N82  1  0.07190000  0.66260000  0.48890000  1.0 -0.2616623913
N  N83  1  0.18530000  0.65450000  0.35540000  1.0 -0.4076773283
N  N84  1  0.01280000  0.71300000  0.43040000  1.0 -0.2931670884
N  N85  1  0.60400000  0.79990000  0.93310000  1.0 -0.3608311116
N  N86  1  0.82630000  0.83740000  0.90930000  1.0 -0.2616623913
N  N87  1  0.70090000  0.84550000  0.03080000  1.0 -0.4076773283
N  N88  1  0.71740000  0.78700000  0.79980000  1.0 -0.2952517544
N  N89  1  0.36680000  0.67090000  0.56690000  1.0 -0.3608311116
N  N90  1  0.42810000  0.91700000  0.59070000  1.0 -0.2616623913
N  N91  1  0.31470000  0.67010000  0.46920000  1.0 -0.404160055
N  N92  1  0.48720000  0.91760000  0.70020000  1.0 -0.2931670884
N  N93  1  0.89600000  0.82910000  0.19590000  1.0 -0.3608311116
N  N94  1  0.67370000  0.58300000  0.01110000  1.0 -0.2616623913
N  N95  1  0.79910000  0.82990000  0.14460000  1.0 -0.4076773283
N  N96  1  0.78260000  0.58240000  0.06960000  1.0 -0.2931670884
