# DDEC6 charges by PACMAN v1.1 (https://github.com/mtap-research/PACMAN-charge/)
data_FEDCEZ_ASR_pacman
_symmetry_space_group_name_H-M   'P 1'
_cell_length_a   20.18630000
_cell_length_b   13.83660000
_cell_length_c   26.34200000
_cell_angle_alpha   90.00000000
_cell_angle_beta   104.73500000
_cell_angle_gamma   90.00000000
_symmetry_Int_Tables_number   1
_chemical_formula_structural   Mn3H40C60N6O13
_chemical_formula_sum   'Mn12 H160 C240 N24 O52'
_cell_volume   7115.60576965
_cell_formula_units_Z   4
loop_
 _symmetry_equiv_pos_site_id
 _symmetry_equiv_pos_as_xyz
  1  'x, y, z'
loop_
 _atom_site_type_symbol
 _atom_site_label
 _atom_site_symmetry_multiplicity
 _atom_site_fract_x
 _atom_site_fract_y
 _atom_site_fract_z
 _atom_site_occupancy
 _atom_site_charge
Mn  Mn1  1  0.93837000  0.51910000  0.68423000  1.0 0.860721449
Mn  Mn2  1  0.75778000  0.50385000  0.66181000  1.0 1.0624461273
Mn  Mn3  1  0.57452000  0.48538000  0.62659000  1.0 0.8302015612
Mn  Mn4  1  0.06163000  0.01910000  0.81577000  1.0 0.860721449
Mn  Mn5  1  0.24222000  0.00385000  0.83819000  1.0 1.0624461273
Mn  Mn6  1  0.42548000  0.98538000  0.87341000  1.0 0.8302015612
Mn  Mn7  1  0.06163000  0.48090000  0.31577000  1.0 0.860721449
Mn  Mn8  1  0.24222000  0.49615000  0.33819000  1.0 1.0624461273
Mn  Mn9  1  0.42548000  0.51462000  0.37341000  1.0 0.8302015612
Mn  Mn10  1  0.93837000  0.98090000  0.18423000  1.0 0.860721449
Mn  Mn11  1  0.75778000  0.99615000  0.16181000  1.0 1.0624461273
Mn  Mn12  1  0.57452000  0.01462000  0.12659000  1.0 0.8302015612
H  H1  1  0.12010000  0.37300000  0.58030000  1.0 0.1296651564
H  H2  1  0.24530000  0.47560000  0.49670000  1.0 0.1466269443
H  H3  1  0.31070000  0.44770000  0.65340000  1.0 0.1296651564
H  H4  1  0.17010000  0.40670000  0.42540000  1.0 0.1198703504
H  H5  1  0.97420000  0.42540000  0.41320000  1.0 0.1116710432
H  H6  1  0.03090000  0.42090000  0.50710000  1.0 0.1198703504
H  H7  1  0.41750000  0.44060000  0.63770000  1.0 0.1116710432
H  H8  1  0.46540000  0.58610000  0.52450000  1.0 0.1296651564
H  H9  1  0.34110000  0.57230000  0.50190000  1.0 0.1296651564
H  H10  1  0.24020000  0.38780000  0.70490000  1.0 0.1296651564
H  H11  1  0.18200000  0.31630000  0.67660000  1.0 0.1296651564
H  H12  1  0.06230000  0.36690000  0.67750000  1.0 0.1198703504
H  H13  1  0.08420000  0.64260000  0.70660000  1.0 0.1296651564
H  H14  1  0.19490000  0.57980000  0.69990000  1.0 0.1198703504
H  H15  1  0.96990000  0.35300000  0.83980000  1.0 0.1296651564
H  H16  1  0.96580000  0.28630000  0.91840000  1.0 0.1198703504
H  H17  1  0.96460000  0.25930000  0.99680000  1.0 0.1116710432
H  H18  1  0.95860000  0.18760000  0.07440000  1.0 0.1116710432
H  H19  1  0.75590000  0.17810000  0.02450000  1.0 0.1116710432
H  H20  1  0.76110000  0.24650000  0.94670000  1.0 0.1018531434
H  H21  1  0.76910000  0.28250000  0.67450000  1.0 0.1198703504
H  H22  1  0.82210000  0.13710000  0.69110000  1.0 0.1116710432
H  H23  1  0.66110000  0.00960000  0.59900000  1.0 0.1198703504
H  H24  1  0.60960000  0.16040000  0.58050000  1.0 0.1116710432
H  H25  1  0.87560000  0.00840000  0.68230000  1.0 0.1116710432
H  H26  1  0.92840000  0.86000000  0.70100000  1.0 0.1198703504
H  H27  1  0.74700000  0.73210000  0.66760000  1.0 0.1296651564
H  H28  1  0.69390000  0.88000000  0.65310000  1.0 0.1116710432
H  H29  1  0.74640000  0.73650000  0.54810000  1.0 0.1116710432
H  H30  1  0.74680000  0.81770000  0.47230000  1.0 0.1116710432
H  H31  1  0.55080000  0.74520000  0.41200000  1.0 0.1018531434
H  H32  1  0.55030000  0.66640000  0.48840000  1.0 0.1116710432
H  H33  1  0.75150000  0.80890000  0.38760000  1.0 0.1116710432
H  H34  1  0.75460000  0.86700000  0.30700000  1.0 0.1198703504
H  H35  1  0.55530000  0.92290000  0.27630000  1.0 0.1296651564
H  H36  1  0.55270000  0.86470000  0.35680000  1.0 0.1198703504
H  H37  1  0.77180000  0.36690000  0.89400000  1.0 0.1116710432
H  H38  1  0.77620000  0.43070000  0.81250000  1.0 0.1116710432
H  H39  1  0.76990000  0.26120000  0.86980000  1.0 0.1018531434
H  H40  1  0.77080000  0.33770000  0.79160000  1.0 0.1116710432
H  H41  1  0.87990000  0.87300000  0.91970000  1.0 0.1296651564
H  H42  1  0.75470000  0.97560000  0.00330000  1.0 0.1466269443
H  H43  1  0.68930000  0.94770000  0.84660000  1.0 0.1296651564
H  H44  1  0.82990000  0.90670000  0.07460000  1.0 0.1198703504
H  H45  1  0.02580000  0.92540000  0.08680000  1.0 0.1116710432
H  H46  1  0.96910000  0.92090000  0.99290000  1.0 0.1198703504
H  H47  1  0.58250000  0.94060000  0.86230000  1.0 0.1116710432
H  H48  1  0.53460000  0.08610000  0.97550000  1.0 0.1296651564
H  H49  1  0.65890000  0.07230000  0.99810000  1.0 0.1296651564
H  H50  1  0.75980000  0.88780000  0.79510000  1.0 0.1296651564
H  H51  1  0.81800000  0.81630000  0.82340000  1.0 0.1296651564
H  H52  1  0.93770000  0.86690000  0.82250000  1.0 0.1198703504
H  H53  1  0.91580000  0.14260000  0.79340000  1.0 0.1296651564
H  H54  1  0.80510000  0.07980000  0.80010000  1.0 0.1198703504
H  H55  1  0.03010000  0.85300000  0.66020000  1.0 0.1296651564
H  H56  1  0.03420000  0.78630000  0.58160000  1.0 0.1198703504
H  H57  1  0.03540000  0.75930000  0.50320000  1.0 0.1116710432
H  H58  1  0.04140000  0.68760000  0.42560000  1.0 0.1116710432
H  H59  1  0.24410000  0.67810000  0.47550000  1.0 0.1116710432
H  H60  1  0.23890000  0.74650000  0.55330000  1.0 0.1018531434
H  H61  1  0.23090000  0.78250000  0.82550000  1.0 0.1198703504
H  H62  1  0.17790000  0.63710000  0.80890000  1.0 0.1116710432
H  H63  1  0.33890000  0.50960000  0.90100000  1.0 0.1198703504
H  H64  1  0.39040000  0.66040000  0.91950000  1.0 0.1116710432
H  H65  1  0.12440000  0.50840000  0.81770000  1.0 0.1116710432
H  H66  1  0.07160000  0.36000000  0.79900000  1.0 0.1198703504
H  H67  1  0.25300000  0.23210000  0.83240000  1.0 0.1296651564
H  H68  1  0.30610000  0.38000000  0.84690000  1.0 0.1116710432
H  H69  1  0.25360000  0.23650000  0.95190000  1.0 0.1116710432
H  H70  1  0.25320000  0.31770000  0.02770000  1.0 0.1116710432
H  H71  1  0.44920000  0.24520000  0.08800000  1.0 0.1018531434
H  H72  1  0.44970000  0.16640000  0.01160000  1.0 0.1116710432
H  H73  1  0.24850000  0.30890000  0.11240000  1.0 0.1116710432
H  H74  1  0.24540000  0.36700000  0.19300000  1.0 0.1198703504
H  H75  1  0.44470000  0.42290000  0.22370000  1.0 0.1296651564
H  H76  1  0.44730000  0.36470000  0.14320000  1.0 0.1198703504
H  H77  1  0.22820000  0.86690000  0.60600000  1.0 0.1116710432
H  H78  1  0.22380000  0.93070000  0.68750000  1.0 0.1116710432
H  H79  1  0.23010000  0.76120000  0.63020000  1.0 0.1018531434
H  H80  1  0.22920000  0.83770000  0.70840000  1.0 0.1116710432
H  H81  1  0.87990000  0.62700000  0.41970000  1.0 0.1296651564
H  H82  1  0.75470000  0.52440000  0.50330000  1.0 0.1466269443
H  H83  1  0.68930000  0.55230000  0.34660000  1.0 0.1296651564
H  H84  1  0.82990000  0.59330000  0.57460000  1.0 0.1198703504
H  H85  1  0.02580000  0.57460000  0.58680000  1.0 0.1116710432
H  H86  1  0.96910000  0.57910000  0.49290000  1.0 0.1198703504
H  H87  1  0.58250000  0.55940000  0.36230000  1.0 0.1116710432
H  H88  1  0.53460000  0.41390000  0.47550000  1.0 0.1296651564
H  H89  1  0.65890000  0.42770000  0.49810000  1.0 0.1296651564
H  H90  1  0.75980000  0.61220000  0.29510000  1.0 0.1296651564
H  H91  1  0.81800000  0.68370000  0.32340000  1.0 0.1296651564
H  H92  1  0.93770000  0.63310000  0.32250000  1.0 0.1198703504
H  H93  1  0.91580000  0.35740000  0.29340000  1.0 0.1296651564
H  H94  1  0.80510000  0.42020000  0.30010000  1.0 0.1198703504
H  H95  1  0.03010000  0.64700000  0.16020000  1.0 0.1296651564
H  H96  1  0.03420000  0.71370000  0.08160000  1.0 0.1198703504
H  H97  1  0.03540000  0.74070000  0.00320000  1.0 0.1116710432
H  H98  1  0.04140000  0.81240000  0.92560000  1.0 0.1116710432
H  H99  1  0.24410000  0.82190000  0.97550000  1.0 0.1116710432
H  H100  1  0.23890000  0.75350000  0.05330000  1.0 0.1018531434
H  H101  1  0.23090000  0.71750000  0.32550000  1.0 0.1198703504
H  H102  1  0.17790000  0.86290000  0.30890000  1.0 0.1116710432
H  H103  1  0.33890000  0.99040000  0.40100000  1.0 0.1198703504
H  H104  1  0.39040000  0.83960000  0.41950000  1.0 0.1116710432
H  H105  1  0.12440000  0.99160000  0.31770000  1.0 0.1116710432
H  H106  1  0.07160000  0.14000000  0.29900000  1.0 0.1198703504
H  H107  1  0.25300000  0.26790000  0.33240000  1.0 0.1296651564
H  H108  1  0.30610000  0.12000000  0.34690000  1.0 0.1116710432
H  H109  1  0.25360000  0.26350000  0.45190000  1.0 0.1116710432
H  H110  1  0.25320000  0.18230000  0.52770000  1.0 0.1116710432
H  H111  1  0.44920000  0.25480000  0.58800000  1.0 0.1018531434
H  H112  1  0.44970000  0.33360000  0.51160000  1.0 0.1116710432
H  H113  1  0.24850000  0.19110000  0.61240000  1.0 0.1116710432
H  H114  1  0.24540000  0.13300000  0.69300000  1.0 0.1198703504
H  H115  1  0.44470000  0.07710000  0.72370000  1.0 0.1296651564
H  H116  1  0.44730000  0.13530000  0.64320000  1.0 0.1198703504
H  H117  1  0.22820000  0.63310000  0.10600000  1.0 0.1116710432
H  H118  1  0.22380000  0.56930000  0.18750000  1.0 0.1116710432
H  H119  1  0.23010000  0.73880000  0.13020000  1.0 0.1018531434
H  H120  1  0.22920000  0.66230000  0.20840000  1.0 0.1116710432
H  H121  1  0.12010000  0.12700000  0.08030000  1.0 0.1296651564
H  H122  1  0.24530000  0.02440000  0.99670000  1.0 0.1466269443
H  H123  1  0.31070000  0.05230000  0.15340000  1.0 0.1296651564
H  H124  1  0.17010000  0.09330000  0.92540000  1.0 0.1198703504
H  H125  1  0.97420000  0.07460000  0.91320000  1.0 0.1116710432
H  H126  1  0.03090000  0.07910000  0.00710000  1.0 0.1198703504
H  H127  1  0.41750000  0.05940000  0.13770000  1.0 0.1116710432
H  H128  1  0.46540000  0.91390000  0.02450000  1.0 0.1296651564
H  H129  1  0.34110000  0.92770000  0.00190000  1.0 0.1296651564
H  H130  1  0.24020000  0.11220000  0.20490000  1.0 0.1296651564
H  H131  1  0.18200000  0.18370000  0.17660000  1.0 0.1296651564
H  H132  1  0.06230000  0.13310000  0.17750000  1.0 0.1198703504
H  H133  1  0.08420000  0.85740000  0.20660000  1.0 0.1296651564
H  H134  1  0.19490000  0.92020000  0.19990000  1.0 0.1198703504
H  H135  1  0.96990000  0.14700000  0.33980000  1.0 0.1296651564
H  H136  1  0.96580000  0.21370000  0.41840000  1.0 0.1198703504
H  H137  1  0.96460000  0.24070000  0.49680000  1.0 0.1116710432
H  H138  1  0.95860000  0.31240000  0.57440000  1.0 0.1116710432
H  H139  1  0.75590000  0.32190000  0.52450000  1.0 0.1116710432
H  H140  1  0.76110000  0.25350000  0.44670000  1.0 0.1018531434
H  H141  1  0.76910000  0.21750000  0.17450000  1.0 0.1198703504
H  H142  1  0.82210000  0.36290000  0.19110000  1.0 0.1116710432
H  H143  1  0.66110000  0.49040000  0.09900000  1.0 0.1198703504
H  H144  1  0.60960000  0.33960000  0.08050000  1.0 0.1116710432
H  H145  1  0.87560000  0.49160000  0.18230000  1.0 0.1116710432
H  H146  1  0.92840000  0.64000000  0.20100000  1.0 0.1198703504
H  H147  1  0.74700000  0.76790000  0.16760000  1.0 0.1296651564
H  H148  1  0.69390000  0.62000000  0.15310000  1.0 0.1198703504
H  H149  1  0.74640000  0.76350000  0.04810000  1.0 0.1116710432
H  H150  1  0.74680000  0.68230000  0.97230000  1.0 0.1116710432
H  H151  1  0.55080000  0.75480000  0.91200000  1.0 0.1018531434
H  H152  1  0.55030000  0.83360000  0.98840000  1.0 0.1116710432
H  H153  1  0.75150000  0.69110000  0.88760000  1.0 0.1116710432
H  H154  1  0.75460000  0.63300000  0.80700000  1.0 0.1198703504
H  H155  1  0.55530000  0.57710000  0.77630000  1.0 0.1296651564
H  H156  1  0.55270000  0.63530000  0.85680000  1.0 0.1198703504
H  H157  1  0.77180000  0.13310000  0.39400000  1.0 0.1116710432
H  H158  1  0.77620000  0.06930000  0.31250000  1.0 0.1116710432
H  H159  1  0.76990000  0.23880000  0.36980000  1.0 0.1018531434
H  H160  1  0.77080000  0.16230000  0.29160000  1.0 0.1116710432
C  C1  1  0.16280000  0.39660000  0.57900000  1.0 -0.2604481404
C  C2  1  0.17461000  0.42150000  0.53096000  1.0 0.1893626569
C  C3  1  0.23760000  0.45720000  0.52865000  1.0 -0.2498456923
C  C4  1  0.28870000  0.46510000  0.57422000  1.0 0.1893626569
C  C5  1  0.27630000  0.44070000  0.62256000  1.0 -0.2604481404
C  C6  1  0.21320000  0.40650000  0.62414000  1.0 0.1296651564
C  C7  1  0.12830000  0.41170000  0.43394000  1.0 0.1116710432
C  C8  1  0.02130000  0.42150000  0.42771000  1.0 -0.0398458901
C  C9  1  0.05230000  0.41930000  0.47976000  1.0 -0.1203634094
C  C10  1  0.41410000  0.47600000  0.60711000  1.0 0.0869037971
C  C11  1  0.44000000  0.55580000  0.54486000  1.0 -0.0233605712
C  C12  1  0.37140000  0.54810000  0.53192000  1.0 -0.1100170191
C  C13  1  0.19840000  0.38220000  0.67704000  1.0 -0.1706713153
C  C14  1  0.08150000  0.42810000  0.68451000  1.0 0.0869037971
C  C15  1  0.09350000  0.57850000  0.70027000  1.0 -0.0506689469
C  C16  1  0.15480000  0.54430000  0.69648000  1.0 -0.1286128362
C  C17  1  0.87220000  0.42530000  0.76159000  1.0 0.5613885968
C  C18  1  0.87180000  0.38220000  0.81411000  1.0 -0.0085532265
C  C19  1  0.92800000  0.34890000  0.84828000  1.0 -0.1583215113
C  C20  1  0.92540000  0.30870000  0.89588000  1.0 -0.2021982533
C  C21  1  0.86650000  0.30070000  0.91081000  1.0 0.0528683883
C  C22  1  0.86320000  0.25710000  0.96160000  1.0 0.0579560778
C  C23  1  0.92220000  0.24120000  0.00159000  1.0 -0.1583215113
C  C24  1  0.91840000  0.19870000  0.04847000  1.0 -0.1203634094
C  C25  1  0.85720000  0.17280000  0.05739000  1.0 -0.0233605712
C  C26  1  0.79830000  0.19280000  0.01877000  1.0 -0.1100170191
C  C27  1  0.80150000  0.23390000  0.97201000  1.0 -0.1706713153
C  C28  1  0.85400000  0.11800000  0.10587000  1.0 0.5613885968
C  C29  1  0.68140000  0.23730000  0.62930000  1.0 -0.0506689469
C  C30  1  0.74540000  0.22740000  0.65980000  1.0 -0.0942652872
C  C31  1  0.77740000  0.13920000  0.67024000  1.0 -0.141196092
C  C32  1  0.74640000  0.05610000  0.65150000  1.0 0.0778244405
C  C33  1  0.68300000  0.06430000  0.61580000  1.0 -0.1583215113
C  C34  1  0.65180000  0.15570000  0.60500000  1.0 -0.1100170191
C  C35  1  0.77930000  0.95990000  0.66359000  1.0 0.0703303944
C  C36  1  0.84900000  0.95270000  0.67904000  1.0 -0.1493072113
C  C37  1  0.88080000  0.86330000  0.69000000  1.0 -0.1100170191
C  C38  1  0.84300000  0.78020000  0.68484000  1.0 -0.0398458901
C  C39  1  0.77350000  0.78780000  0.67080000  1.0 -0.102294796
C  C40  1  0.74150000  0.87650000  0.66120000  1.0 -0.1583215113
C  C41  1  0.87740000  0.68440000  0.69240000  1.0 0.5613885968
C  C42  1  0.65290000  0.61820000  0.56999000  1.0 0.5669668416
C  C43  1  0.64950000  0.68720000  0.52448000  1.0 -0.0298787899
C  C44  1  0.70740000  0.73640000  0.52023000  1.0 -0.1100170191
C  C45  1  0.70730000  0.78540000  0.47478000  1.0 -0.1493072113
C  C46  1  0.65040000  0.78780000  0.43284000  1.0 0.0703303944
C  C47  1  0.59070000  0.74250000  0.43906000  1.0 -0.1583215113
C  C48  1  0.59060000  0.69440000  0.48449000  1.0 -0.1100170191
C  C49  1  0.65220000  0.82860000  0.38104000  1.0 0.0703303944
C  C50  1  0.71120000  0.83090000  0.36492000  1.0 -0.1706713153
C  C51  1  0.71310000  0.86460000  0.31625000  1.0 -0.1203634094
C  C52  1  0.65460000  0.89450000  0.28134000  1.0 -0.0298787899
C  C53  1  0.59500000  0.89750000  0.29831000  1.0 -0.102294796
C  C54  1  0.59360000  0.86380000  0.34676000  1.0 -0.1493072113
C  C55  1  0.65320000  0.92450000  0.22646000  1.0 0.5768738488
C  C56  1  0.81150000  0.35630000  0.88090000  1.0 -0.0506689469
C  C57  1  0.81450000  0.39500000  0.83310000  1.0 -0.0506689469
C  C58  1  0.64550000  0.33080000  0.62070000  1.0 0.4746925334
C  C59  1  0.81010000  0.29560000  0.86690000  1.0 -0.0695594376
C  C60  1  0.81090000  0.33820000  0.82050000  1.0 -0.0506689469
C  C61  1  0.83720000  0.89660000  0.92100000  1.0 -0.2604481404
C  C62  1  0.82539000  0.92150000  0.96904000  1.0 0.1893626569
C  C63  1  0.76240000  0.95720000  0.97135000  1.0 -0.2498456923
C  C64  1  0.71130000  0.96510000  0.92578000  1.0 0.1893626569
C  C65  1  0.72370000  0.94070000  0.87744000  1.0 -0.2604481404
C  C66  1  0.78680000  0.90650000  0.87586000  1.0 0.1296651564
C  C67  1  0.87170000  0.91170000  0.06606000  1.0 0.1116710432
C  C68  1  0.97870000  0.92150000  0.07229000  1.0 -0.0506689469
C  C69  1  0.94770000  0.91930000  0.02024000  1.0 -0.1203634094
C  C70  1  0.58590000  0.97600000  0.89289000  1.0 0.0869037971
C  C71  1  0.56000000  0.05580000  0.95514000  1.0 -0.0233605712
C  C72  1  0.62860000  0.04810000  0.96808000  1.0 -0.1100170191
C  C73  1  0.80160000  0.88220000  0.82296000  1.0 -0.1706713153
C  C74  1  0.91850000  0.92810000  0.81549000  1.0 0.0869037971
C  C75  1  0.90650000  0.07850000  0.79973000  1.0 -0.0506689469
C  C76  1  0.84520000  0.04430000  0.80352000  1.0 -0.1286128362
C  C77  1  0.12780000  0.92530000  0.73841000  1.0 0.5613885968
C  C78  1  0.12820000  0.88220000  0.68589000  1.0 -0.0085532265
C  C79  1  0.07200000  0.84890000  0.65172000  1.0 -0.1583215113
C  C80  1  0.07460000  0.80870000  0.60412000  1.0 -0.2021982533
C  C81  1  0.13350000  0.80070000  0.58919000  1.0 0.0528683883
C  C82  1  0.13680000  0.75710000  0.53840000  1.0 0.0579560778
C  C83  1  0.07780000  0.74120000  0.49841000  1.0 -0.1583215113
C  C84  1  0.08160000  0.69870000  0.45153000  1.0 -0.1203634094
C  C85  1  0.14280000  0.67280000  0.44261000  1.0 -0.0233605712
C  C86  1  0.20170000  0.69280000  0.48123000  1.0 -0.1100170191
C  C87  1  0.19850000  0.73390000  0.52799000  1.0 -0.1706713153
C  C88  1  0.14600000  0.61800000  0.39413000  1.0 0.5613885968
C  C89  1  0.31860000  0.73730000  0.87070000  1.0 -0.0506689469
C  C90  1  0.25460000  0.72740000  0.84020000  1.0 -0.0942652872
C  C91  1  0.22260000  0.63920000  0.82976000  1.0 -0.141196092
C  C92  1  0.25360000  0.55610000  0.84850000  1.0 0.0778244405
C  C93  1  0.31700000  0.56430000  0.88420000  1.0 -0.1583215113
C  C94  1  0.34820000  0.65570000  0.89500000  1.0 -0.1100170191
C  C95  1  0.22070000  0.45990000  0.83641000  1.0 0.0703303944
C  C96  1  0.15100000  0.45270000  0.82096000  1.0 -0.1493072113
C  C97  1  0.11920000  0.36330000  0.81000000  1.0 -0.1100170191
C  C98  1  0.15700000  0.28020000  0.81516000  1.0 -0.0398458901
C  C99  1  0.22650000  0.28780000  0.82920000  1.0 -0.102294796
C  C100  1  0.25850000  0.37650000  0.83880000  1.0 -0.1583215113
C  C101  1  0.12260000  0.18440000  0.80760000  1.0 0.5613885968
C  C102  1  0.34710000  0.11820000  0.93001000  1.0 0.5669668416
C  C103  1  0.35050000  0.18720000  0.97552000  1.0 -0.0298787899
C  C104  1  0.29260000  0.23640000  0.97977000  1.0 -0.1100170191
C  C105  1  0.29270000  0.28540000  0.02522000  1.0 -0.1493072113
C  C106  1  0.34960000  0.28780000  0.06716000  1.0 0.0703303944
C  C107  1  0.40930000  0.24250000  0.06094000  1.0 -0.1583215113
C  C108  1  0.40940000  0.19440000  0.01551000  1.0 -0.1100170191
C  C109  1  0.34780000  0.32860000  0.11896000  1.0 0.0703303944
C  C110  1  0.28880000  0.33090000  0.13508000  1.0 -0.1706713153
C  C111  1  0.28690000  0.36460000  0.18375000  1.0 -0.1203634094
C  C112  1  0.34540000  0.39450000  0.21866000  1.0 -0.0298787899
C  C113  1  0.40500000  0.39750000  0.20169000  1.0 -0.102294796
C  C114  1  0.40640000  0.36380000  0.15324000  1.0 -0.1493072113
C  C115  1  0.34680000  0.42450000  0.27354000  1.0 0.5768738488
C  C116  1  0.18850000  0.85630000  0.61910000  1.0 -0.0506689469
C  C117  1  0.18550000  0.89500000  0.66690000  1.0 -0.0506689469
C  C118  1  0.35450000  0.83080000  0.87930000  1.0 0.4752817849
C  C119  1  0.18990000  0.79560000  0.63310000  1.0 -0.0695594376
C  C120  1  0.18910000  0.83820000  0.67950000  1.0 -0.0550507357
C  C121  1  0.83720000  0.60340000  0.42100000  1.0 -0.2604481404
C  C122  1  0.82539000  0.57850000  0.46904000  1.0 0.1893626569
C  C123  1  0.76240000  0.54280000  0.47135000  1.0 -0.2498456923
C  C124  1  0.71130000  0.53490000  0.42578000  1.0 0.1893626569
C  C125  1  0.72370000  0.55930000  0.37744000  1.0 -0.2604481404
C  C126  1  0.78680000  0.59350000  0.37586000  1.0 0.1296651564
C  C127  1  0.87170000  0.58830000  0.56606000  1.0 0.1116710432
C  C128  1  0.97870000  0.57850000  0.57229000  1.0 -0.0506689469
C  C129  1  0.94770000  0.58070000  0.52024000  1.0 -0.1203634094
C  C130  1  0.58590000  0.52400000  0.39289000  1.0 0.0869037971
C  C131  1  0.56000000  0.44420000  0.45514000  1.0 -0.0233605712
C  C132  1  0.62860000  0.45190000  0.46808000  1.0 -0.1100170191
C  C133  1  0.80160000  0.61780000  0.32296000  1.0 -0.1706713153
C  C134  1  0.91850000  0.57190000  0.31549000  1.0 0.0869037971
C  C135  1  0.90650000  0.42150000  0.29973000  1.0 -0.0506689469
C  C136  1  0.84520000  0.45570000  0.30352000  1.0 -0.1286128362
C  C137  1  0.12780000  0.57470000  0.23841000  1.0 0.5613885968
C  C138  1  0.12820000  0.61780000  0.18589000  1.0 -0.0085532265
C  C139  1  0.07200000  0.65110000  0.15172000  1.0 -0.1583215113
C  C140  1  0.07460000  0.69130000  0.10412000  1.0 -0.2021982533
C  C141  1  0.13350000  0.69930000  0.08919000  1.0 0.0528683883
C  C142  1  0.13680000  0.74290000  0.03840000  1.0 0.0579560778
C  C143  1  0.07780000  0.75880000  0.99841000  1.0 -0.1583215113
C  C144  1  0.08160000  0.80130000  0.95153000  1.0 -0.1203634094
C  C145  1  0.14280000  0.82720000  0.94261000  1.0 -0.0233605712
C  C146  1  0.20170000  0.80720000  0.98123000  1.0 -0.1100170191
C  C147  1  0.19850000  0.76610000  0.02799000  1.0 -0.1706713153
C  C148  1  0.14600000  0.88200000  0.89413000  1.0 0.5613885968
C  C149  1  0.31860000  0.76270000  0.37070000  1.0 -0.0506689469
C  C150  1  0.25460000  0.77260000  0.34020000  1.0 -0.0942652872
C  C151  1  0.22260000  0.86080000  0.32976000  1.0 -0.141196092
C  C152  1  0.25360000  0.94390000  0.34850000  1.0 0.0778244405
C  C153  1  0.31700000  0.93570000  0.38420000  1.0 -0.1583215113
C  C154  1  0.34820000  0.84430000  0.39500000  1.0 -0.1100170191
C  C155  1  0.22070000  0.04010000  0.33641000  1.0 0.0703303944
C  C156  1  0.15100000  0.04730000  0.32096000  1.0 -0.1493072113
C  C157  1  0.11920000  0.13670000  0.31000000  1.0 -0.1100170191
C  C158  1  0.15700000  0.21980000  0.31516000  1.0 -0.0398458901
C  C159  1  0.22650000  0.21220000  0.32920000  1.0 -0.102294796
C  C160  1  0.25850000  0.12350000  0.33880000  1.0 -0.1583215113
C  C161  1  0.12260000  0.31560000  0.30760000  1.0 0.5613885968
C  C162  1  0.34710000  0.38180000  0.43001000  1.0 0.5669668416
C  C163  1  0.35050000  0.31280000  0.47552000  1.0 -0.0298787899
C  C164  1  0.29260000  0.26360000  0.47977000  1.0 -0.1100170191
C  C165  1  0.29270000  0.21460000  0.52522000  1.0 -0.1493072113
C  C166  1  0.34960000  0.21220000  0.56716000  1.0 0.0703303944
C  C167  1  0.40930000  0.25750000  0.56094000  1.0 -0.1583215113
C  C168  1  0.40940000  0.30560000  0.51551000  1.0 -0.1100170191
C  C169  1  0.34780000  0.17140000  0.61896000  1.0 0.0703303944
C  C170  1  0.28880000  0.16910000  0.63508000  1.0 -0.1706713153
C  C171  1  0.28690000  0.13540000  0.68375000  1.0 -0.1203634094
C  C172  1  0.34540000  0.10550000  0.71866000  1.0 -0.0298787899
C  C173  1  0.40500000  0.10250000  0.70169000  1.0 -0.102294796
C  C174  1  0.40640000  0.13620000  0.65324000  1.0 -0.1493072113
C  C175  1  0.34680000  0.07550000  0.77354000  1.0 0.5768738488
C  C176  1  0.18850000  0.64370000  0.11910000  1.0 -0.0506689469
C  C177  1  0.18550000  0.60500000  0.16690000  1.0 -0.0506689469
C  C178  1  0.35450000  0.66920000  0.37930000  1.0 0.4746925334
C  C179  1  0.18990000  0.70440000  0.13310000  1.0 -0.0695594376
C  C180  1  0.18910000  0.66180000  0.17950000  1.0 -0.0506689469
C  C181  1  0.16280000  0.10340000  0.07900000  1.0 -0.2604481404
C  C182  1  0.17461000  0.07850000  0.03096000  1.0 0.1893626569
C  C183  1  0.23760000  0.04280000  0.02865000  1.0 -0.2498456923
C  C184  1  0.28870000  0.03490000  0.07422000  1.0 0.1893626569
C  C185  1  0.27630000  0.05930000  0.12256000  1.0 -0.2604481404
C  C186  1  0.21320000  0.09350000  0.12414000  1.0 0.1296651564
C  C187  1  0.12830000  0.08830000  0.93394000  1.0 0.1116710432
C  C188  1  0.02130000  0.07850000  0.92771000  1.0 -0.0398458901
C  C189  1  0.05230000  0.08070000  0.97976000  1.0 -0.1203634094
C  C190  1  0.41410000  0.02400000  0.10711000  1.0 0.0869037971
C  C191  1  0.44000000  0.94420000  0.04486000  1.0 -0.0233605712
C  C192  1  0.37140000  0.95190000  0.03192000  1.0 -0.1100170191
C  C193  1  0.19840000  0.11780000  0.17704000  1.0 -0.1706713153
C  C194  1  0.08150000  0.07190000  0.18451000  1.0 0.0869037971
C  C195  1  0.09350000  0.92150000  0.20027000  1.0 -0.0506689469
C  C196  1  0.15480000  0.95570000  0.19648000  1.0 -0.1286128362
C  C197  1  0.87220000  0.07470000  0.26159000  1.0 0.5613885968
C  C198  1  0.87180000  0.11780000  0.31411000  1.0 -0.0085532265
C  C199  1  0.92800000  0.15110000  0.34828000  1.0 -0.1583215113
C  C200  1  0.92540000  0.19130000  0.39588000  1.0 -0.2021982533
C  C201  1  0.86650000  0.19930000  0.41081000  1.0 0.0528683883
C  C202  1  0.86320000  0.24290000  0.46160000  1.0 0.0579560778
C  C203  1  0.92220000  0.25880000  0.50159000  1.0 -0.1583215113
C  C204  1  0.91840000  0.30130000  0.54847000  1.0 -0.1203634094
C  C205  1  0.85720000  0.32720000  0.55739000  1.0 -0.0233605712
C  C206  1  0.79830000  0.30720000  0.51877000  1.0 -0.1100170191
C  C207  1  0.80150000  0.26610000  0.47201000  1.0 -0.1706713153
C  C208  1  0.85400000  0.38200000  0.60587000  1.0 0.5613885968
C  C209  1  0.68140000  0.26270000  0.12930000  1.0 -0.0506689469
C  C210  1  0.74540000  0.27260000  0.15980000  1.0 -0.0942652872
C  C211  1  0.77740000  0.36080000  0.17024000  1.0 -0.141196092
C  C212  1  0.74640000  0.44390000  0.15150000  1.0 0.0778244405
C  C213  1  0.68300000  0.43570000  0.11580000  1.0 -0.1493072113
C  C214  1  0.65180000  0.34430000  0.10500000  1.0 -0.1100170191
C  C215  1  0.77930000  0.54010000  0.16359000  1.0 0.0703303944
C  C216  1  0.84900000  0.54730000  0.17904000  1.0 -0.1493072113
C  C217  1  0.88080000  0.63670000  0.19000000  1.0 -0.1100170191
C  C218  1  0.84300000  0.71980000  0.18484000  1.0 -0.0398458901
C  C219  1  0.77350000  0.71220000  0.17080000  1.0 -0.1100170191
C  C220  1  0.74150000  0.62350000  0.16120000  1.0 -0.1583215113
C  C221  1  0.87740000  0.81560000  0.19240000  1.0 0.5613885968
C  C222  1  0.65290000  0.88180000  0.06999000  1.0 0.5669668416
C  C223  1  0.64950000  0.81280000  0.02448000  1.0 -0.0298787899
C  C224  1  0.70740000  0.76360000  0.02023000  1.0 -0.1100170191
C  C225  1  0.70730000  0.71460000  0.97478000  1.0 -0.1493072113
C  C226  1  0.65040000  0.71220000  0.93284000  1.0 0.0703303944
C  C227  1  0.59070000  0.75750000  0.93906000  1.0 -0.1583215113
C  C228  1  0.59060000  0.80560000  0.98449000  1.0 -0.1100170191
C  C229  1  0.65220000  0.67140000  0.88104000  1.0 0.0703303944
C  C230  1  0.71120000  0.66910000  0.86492000  1.0 -0.1706713153
C  C231  1  0.71310000  0.63540000  0.81625000  1.0 -0.1203634094
C  C232  1  0.65460000  0.60550000  0.78134000  1.0 -0.0298787899
C  C233  1  0.59500000  0.60250000  0.79831000  1.0 -0.102294796
C  C234  1  0.59360000  0.63620000  0.84676000  1.0 -0.1493072113
C  C235  1  0.65320000  0.57550000  0.72646000  1.0 0.5768738488
C  C236  1  0.81150000  0.14370000  0.38090000  1.0 -0.0506689469
C  C237  1  0.81450000  0.10500000  0.33310000  1.0 -0.0506689469
C  C238  1  0.64550000  0.16920000  0.12070000  1.0 0.4746925334
C  C239  1  0.81010000  0.20440000  0.36690000  1.0 -0.0695594376
C  C240  1  0.81090000  0.16180000  0.32050000  1.0 -0.0506689469
N  N1  1  0.06995000  0.41710000  0.39978000  1.0 -0.2750650247
N  N2  1  0.12135000  0.41430000  0.48438000  1.0 -0.0047392874
N  N3  1  0.46722000  0.51230000  0.59262000  1.0 -0.2999534806
N  N4  1  0.35493000  0.49680000  0.57217000  1.0 0.0020200579
N  N5  1  0.04735000  0.50490000  0.69342000  1.0 -0.2856261333
N  N6  1  0.14670000  0.44890000  0.68684000  1.0 0.0379839508
N  N7  1  0.93005000  0.91710000  0.10022000  1.0 -0.2748496732
N  N8  1  0.87865000  0.91430000  0.01562000  1.0 -0.0085532265
N  N9  1  0.53278000  0.01230000  0.90738000  1.0 -0.2999534806
N  N10  1  0.64507000  0.99680000  0.92783000  1.0 0.0020200579
N  N11  1  0.95265000  0.00490000  0.80658000  1.0 -0.2856261333
N  N12  1  0.85330000  0.94890000  0.81316000  1.0 0.0379839508
N  N13  1  0.93005000  0.58290000  0.60022000  1.0 -0.2748496732
N  N14  1  0.87865000  0.58570000  0.51562000  1.0 -0.0047392874
N  N15  1  0.53278000  0.48770000  0.40738000  1.0 -0.2999534806
N  N16  1  0.64507000  0.50320000  0.42783000  1.0 0.0020200579
N  N17  1  0.95265000  0.49510000  0.30658000  1.0 -0.2856261333
N  N18  1  0.85330000  0.55110000  0.31316000  1.0 0.0379839508
N  N19  1  0.06995000  0.08290000  0.89978000  1.0 -0.2750650247
N  N20  1  0.12135000  0.08570000  0.98438000  1.0 -0.0047392874
N  N21  1  0.46722000  0.98770000  0.09262000  1.0 -0.2999534806
N  N22  1  0.35493000  0.00320000  0.07217000  1.0 0.0020200579
N  N23  1  0.04735000  0.99510000  0.19342000  1.0 -0.2856261333
N  N24  1  0.14670000  0.05110000  0.18684000  1.0 0.0379839508
O  O1  1  0.92840000  0.45600000  0.75601000  1.0 -0.5103440483
O  O2  1  0.81702000  0.42690000  0.72805000  1.0 -0.5240924558
O  O3  1  0.90755000  0.11120000  0.14228000  1.0 -0.5507254154
O  O4  1  0.79780000  0.07880000  0.10576000  1.0 -0.5790402492
O  O5  1  0.67210000  0.40270000  0.64527000  1.0 -0.5103440483
O  O6  1  0.94064000  0.67800000  0.71095000  1.0 -0.5296892326
O  O7  1  0.84271000  0.60838000  0.67594000  1.0 -0.5790402492
O  O8  1  0.71093000  0.59230000  0.59536000  1.0 -0.5700808963
O  O9  1  0.59708000  0.59060000  0.57733000  1.0 -0.5507254154
O  O10  1  0.70843000  0.92490000  0.21418000  1.0 -0.5507254154
O  O11  1  0.59668000  0.94910000  0.19779000  1.0 -0.5296892326
O  O12  1  0.59310000  0.34090000  0.58220000  1.0 -0.1583215113
O  O13  1  0.57490000  0.33580000  0.60720000  1.0 -0.1774581609
O  O14  1  0.07160000  0.95600000  0.74399000  1.0 -0.5103440483
O  O15  1  0.18298000  0.92690000  0.77195000  1.0 -0.5296892326
O  O16  1  0.09245000  0.61120000  0.35772000  1.0 -0.5507254154
O  O17  1  0.20220000  0.57880000  0.39424000  1.0 -0.5790402492
O  O18  1  0.32790000  0.90270000  0.85473000  1.0 -0.5103440483
O  O19  1  0.05936000  0.17800000  0.78905000  1.0 -0.5296892326
O  O20  1  0.15729000  0.10838000  0.82406000  1.0 -0.5790402492
O  O21  1  0.28907000  0.09230000  0.90464000  1.0 -0.5700808963
O  O22  1  0.40292000  0.09060000  0.92267000  1.0 -0.5507254154
O  O23  1  0.29157000  0.42490000  0.28582000  1.0 -0.5507254154
O  O24  1  0.40332000  0.44910000  0.30221000  1.0 -0.5296892326
O  O25  1  0.40690000  0.84090000  0.91780000  1.0 -0.1583215113
O  O26  1  0.42510000  0.83580000  0.89280000  1.0 -0.1774581609
O  O27  1  0.07160000  0.54400000  0.24399000  1.0 -0.5103440483
O  O28  1  0.18298000  0.57310000  0.27195000  1.0 -0.5240924558
O  O29  1  0.09245000  0.88880000  0.85772000  1.0 -0.5507254154
O  O30  1  0.20220000  0.92120000  0.89424000  1.0 -0.5790402492
O  O31  1  0.32790000  0.59730000  0.35473000  1.0 -0.5103440483
O  O32  1  0.05936000  0.32200000  0.28905000  1.0 -0.5296892326
O  O33  1  0.15729000  0.39162000  0.32406000  1.0 -0.5790402492
O  O34  1  0.28907000  0.40770000  0.40464000  1.0 -0.5700808963
O  O35  1  0.40292000  0.40940000  0.42267000  1.0 -0.5507254154
O  O36  1  0.29157000  0.07510000  0.78582000  1.0 -0.5507254154
O  O37  1  0.40332000  0.05090000  0.80221000  1.0 -0.5296892326
O  O38  1  0.40690000  0.65910000  0.41780000  1.0 -0.1583215113
O  O39  1  0.42510000  0.66420000  0.39280000  1.0 -0.1774581609
O  O40  1  0.92840000  0.04400000  0.25601000  1.0 -0.5103440483
O  O41  1  0.81702000  0.07310000  0.22805000  1.0 -0.5240924558
O  O42  1  0.90755000  0.38880000  0.64228000  1.0 -0.5507254154
O  O43  1  0.79780000  0.42120000  0.60576000  1.0 -0.5790402492
O  O44  1  0.67210000  0.09730000  0.14527000  1.0 -0.5103440483
O  O45  1  0.94064000  0.82200000  0.21095000  1.0 -0.5296892326
O  O46  1  0.84271000  0.89162000  0.17594000  1.0 -0.5790402492
O  O47  1  0.71093000  0.90770000  0.09536000  1.0 -0.5700808963
O  O48  1  0.59708000  0.90940000  0.07733000  1.0 -0.5507254154
O  O49  1  0.70843000  0.57510000  0.71418000  1.0 -0.5507254154
O  O50  1  0.59668000  0.55090000  0.69779000  1.0 -0.5296892326
O  O51  1  0.59310000  0.15910000  0.08220000  1.0 -0.1583215113
O  O52  1  0.57490000  0.16420000  0.10720000  1.0 -0.1774581609
