# DDEC6 charges by PACMAN v1.1 (https://github.com/mtap-research/PACMAN-charge/)
data_FEDNAG_FSR_pacman
_symmetry_space_group_name_H-M   'P 1'
_cell_length_a   35.70430000
_cell_length_b   35.70430000
_cell_length_c   15.18710000
_cell_angle_alpha   90.00000000
_cell_angle_beta   90.00000000
_cell_angle_gamma   110.85300000
_symmetry_Int_Tables_number   1
_chemical_formula_structural   Cd11H264C414N97O64
_chemical_formula_sum   'Cd22 H528 C828 N194 O128'
_cell_volume   18092.29723892
_cell_formula_units_Z   2
loop_
 _symmetry_equiv_pos_site_id
 _symmetry_equiv_pos_as_xyz
  1  'x, y, z'
loop_
 _atom_site_type_symbol
 _atom_site_label
 _atom_site_symmetry_multiplicity
 _atom_site_fract_x
 _atom_site_fract_y
 _atom_site_fract_z
 _atom_site_occupancy
 _atom_site_charge
Cd  Cd1  1  0.08252000  0.58252000  0.49548000  1.0 0.64980048
Cd  Cd2  1  0.41748000  0.91748000  0.49548000  1.0 0.64980048
Cd  Cd3  1  0.91748000  0.41748000  0.50452000  1.0 0.64980048
Cd  Cd4  1  0.58252000  0.08252000  0.50452000  1.0 0.64980048
Cd  Cd5  1  0.33740000  0.33740000  0.00000000  1.0 0.7205764972
Cd  Cd6  1  0.16260000  0.16260000  0.00000000  1.0 0.7205764972
Cd  Cd7  1  0.66260000  0.66260000  0.00000000  1.0 0.7205764972
Cd  Cd8  1  0.83740000  0.83740000  0.00000000  1.0 0.7205764972
Cd  Cd9  1  0.25000000  0.25000000  0.20890000  1.0 0.709520223
Cd  Cd10  1  0.25000000  0.25000000  0.79110000  1.0 0.709520223
Cd  Cd11  1  0.75000000  0.75000000  0.79110000  1.0 0.709520223
Cd  Cd12  1  0.75000000  0.75000000  0.20890000  1.0 0.709520223
Cd  Cd13  1  0.83740000  0.33740000  0.99687000  1.0 0.6672599487
Cd  Cd14  1  0.66260000  0.16260000  0.99687000  1.0 0.6672599487
Cd  Cd15  1  0.16260000  0.66260000  0.00313000  1.0 0.6672599487
Cd  Cd16  1  0.33740000  0.83740000  0.00313000  1.0 0.6672599487
Cd  Cd17  1  0.08244000  0.08244000  0.50000000  1.0 0.6872826241
Cd  Cd18  1  0.41756000  0.41756000  0.50000000  1.0 0.6872826241
Cd  Cd19  1  0.91756000  0.91756000  0.50000000  1.0 0.6872826241
Cd  Cd20  1  0.58244000  0.58244000  0.50000000  1.0 0.6872826241
Cd  Cd21  1  0.75000000  0.25000000  0.79110000  1.0 0.7563002281
Cd  Cd22  1  0.25000000  0.75000000  0.20890000  1.0 0.7563002281
H  H1  1  0.29930000  0.38250000  0.87120000  1.0 0.1098461403
H  H2  1  0.25930000  0.42130000  0.86500000  1.0 0.1394788997
H  H3  1  0.24620000  0.41040000  0.12910000  1.0 0.1394788997
H  H4  1  0.28580000  0.37180000  0.12680000  1.0 0.1008499308
H  H5  1  0.18490000  0.48530000  0.20910000  1.0 0.1394788997
H  H6  1  0.18530000  0.48590000  0.78020000  1.0 0.1298936378
H  H7  1  0.11960000  0.53900000  0.91410000  1.0 0.1194879275
H  H8  1  0.11950000  0.53910000  0.07540000  1.0 0.1298936378
H  H9  1  0.16080000  0.56380000  0.42710000  1.0 0.1008499308
H  H10  1  0.18590000  0.53990000  0.30730000  1.0 0.1298936378
H  H11  1  0.07540000  0.50760000  0.20080000  1.0 0.1298936378
H  H12  1  0.05360000  0.52920000  0.32840000  1.0 0.0401219134
H  H13  1  0.14540000  0.58820000  0.80190000  1.0 0.1298936378
H  H14  1  0.13740000  0.48720000  0.67220000  1.0 0.1394788997
H  H15  1  0.11820000  0.51320000  0.55090000  1.0 0.0897588166
H  H16  1  0.19140000  0.29680000  0.25590000  1.0 0.1008499308
H  H17  1  0.15500000  0.33280000  0.19220000  1.0 0.1194879275
H  H18  1  0.19320000  0.31440000  0.95040000  1.0 0.0897588166
H  H19  1  0.22970000  0.27830000  0.01410000  1.0 0.0705517129
H  H20  1  0.00110000  0.51910000  0.09690000  1.0 0.1008499308
H  H21  1  0.03370000  0.48590000  0.00990000  1.0 0.1098461403
H  H22  1  0.05540000  0.43100000  0.22720000  1.0 0.0897588166
H  H23  1  0.02290000  0.46410000  0.31420000  1.0 0.0796822357
H  H24  1  0.14880000  0.40520000  0.48880000  1.0 0.1008499308
H  H25  1  0.14780000  0.38860000  0.63810000  1.0 0.1394788997
H  H26  1  0.05290000  0.42390000  0.67600000  1.0 0.1098461403
H  H27  1  0.05410000  0.44050000  0.52670000  1.0 0.061742333
H  H28  1  0.09020000  0.41420000  0.14710000  1.0 0.1098461403
H  H29  1  0.13030000  0.36410000  0.75610000  1.0 0.1194879275
H  H30  1  0.06340000  0.42980000  0.78710000  1.0 0.0897588166
H  H31  1  0.05210000  0.45170000  0.92720000  1.0 0.1008499308
H  H32  1  0.05370000  0.53150000  0.66666667  1.0 0.0202975384
H  H33  1  0.07610000  0.50790000  0.79240000  1.0 0.1194879275
H  H34  1  0.18680000  0.53860000  0.68480000  1.0 0.1298936378
H  H35  1  0.16440000  0.56220000  0.55910000  1.0 0.0897588166
H  H36  1  0.11060000  0.50580000  0.43770000  1.0 0.0705517129
H  H37  1  0.13290000  0.48170000  0.31250000  1.0 0.1194879275
H  H38  1  0.14300000  0.58380000  0.18180000  1.0 0.1098461403
H  H39  1  0.12060000  0.60780000  0.30690000  1.0 0.0705517129
H  H40  1  0.12730000  0.61110000  0.67460000  1.0 0.0796822357
H  H41  1  0.20070000  0.11750000  0.87120000  1.0 0.1098461403
H  H42  1  0.24070000  0.07870000  0.86500000  1.0 0.1394788997
H  H43  1  0.25380000  0.08960000  0.12910000  1.0 0.1394788997
H  H44  1  0.21420000  0.12820000  0.12680000  1.0 0.1008499308
H  H45  1  0.31510000  0.01470000  0.20910000  1.0 0.1394788997
H  H46  1  0.31470000  0.01410000  0.78020000  1.0 0.1298936378
H  H47  1  0.38040000  0.96100000  0.91410000  1.0 0.1194879275
H  H48  1  0.38050000  0.96090000  0.07540000  1.0 0.1298936378
H  H49  1  0.33920000  0.93620000  0.42710000  1.0 0.1008499308
H  H50  1  0.31410000  0.96010000  0.30730000  1.0 0.1298936378
H  H51  1  0.42460000  0.99240000  0.20080000  1.0 0.1298936378
H  H52  1  0.44640000  0.97080000  0.32840000  1.0 0.0401219134
H  H53  1  0.35460000  0.91180000  0.80190000  1.0 0.1298936378
H  H54  1  0.36260000  0.01280000  0.67220000  1.0 0.1394788997
H  H55  1  0.38180000  0.98680000  0.55090000  1.0 0.0897588166
H  H56  1  0.30860000  0.20320000  0.25590000  1.0 0.1008499308
H  H57  1  0.34500000  0.16720000  0.19220000  1.0 0.1194879275
H  H58  1  0.30680000  0.18560000  0.95040000  1.0 0.0897588166
H  H59  1  0.27030000  0.22170000  0.01410000  1.0 0.0796822357
H  H60  1  0.49890000  0.98090000  0.09690000  1.0 0.1008499308
H  H61  1  0.46630000  0.01410000  0.00990000  1.0 0.1098461403
H  H62  1  0.44460000  0.06900000  0.22720000  1.0 0.0897588166
H  H63  1  0.47710000  0.03590000  0.31420000  1.0 0.0796822357
H  H64  1  0.35120000  0.09480000  0.48880000  1.0 0.1008499308
H  H65  1  0.35220000  0.11140000  0.63810000  1.0 0.1394788997
H  H66  1  0.44710000  0.07610000  0.67600000  1.0 0.1098461403
H  H67  1  0.44590000  0.05950000  0.52670000  1.0 0.061742333
H  H68  1  0.40980000  0.08580000  0.14710000  1.0 0.1098461403
H  H69  1  0.36970000  0.13590000  0.75610000  1.0 0.1194879275
H  H70  1  0.43660000  0.07020000  0.78710000  1.0 0.0897588166
H  H71  1  0.44790000  0.04830000  0.92720000  1.0 0.1008499308
H  H72  1  0.44630000  0.96850000  0.66666667  1.0 0.0202975384
H  H73  1  0.42390000  0.99210000  0.79240000  1.0 0.1194879275
H  H74  1  0.31320000  0.96140000  0.68480000  1.0 0.1298936378
H  H75  1  0.33560000  0.93780000  0.55910000  1.0 0.0897588166
H  H76  1  0.38940000  0.99420000  0.43770000  1.0 0.0705517129
H  H77  1  0.36710000  0.01830000  0.31250000  1.0 0.1194879275
H  H78  1  0.35700000  0.91620000  0.18180000  1.0 0.1098461403
H  H79  1  0.37940000  0.89220000  0.30690000  1.0 0.0705517129
H  H80  1  0.37270000  0.88890000  0.67460000  1.0 0.0796822357
H  H81  1  0.11750000  0.20070000  0.12880000  1.0 0.1098461403
H  H82  1  0.07870000  0.24070000  0.13500000  1.0 0.1394788997
H  H83  1  0.08960000  0.25380000  0.87090000  1.0 0.1394788997
H  H84  1  0.12820000  0.21420000  0.87320000  1.0 0.1008499308
H  H85  1  0.01470000  0.31510000  0.79090000  1.0 0.1394788997
H  H86  1  0.01410000  0.31470000  0.21980000  1.0 0.1298936378
H  H87  1  0.96100000  0.38040000  0.08590000  1.0 0.1194879275
H  H88  1  0.96090000  0.38050000  0.92460000  1.0 0.1298936378
H  H89  1  0.93620000  0.33920000  0.57290000  1.0 0.1008499308
H  H90  1  0.96010000  0.31410000  0.69270000  1.0 0.1298936378
H  H91  1  0.99240000  0.42460000  0.79920000  1.0 0.1298936378
H  H92  1  0.97080000  0.44640000  0.67160000  1.0 0.0401219134
H  H93  1  0.91180000  0.35460000  0.19810000  1.0 0.1298936378
H  H94  1  0.01280000  0.36260000  0.32780000  1.0 0.1394788997
H  H95  1  0.98680000  0.38180000  0.44910000  1.0 0.0897588166
H  H96  1  0.20320000  0.30860000  0.74410000  1.0 0.1008499308
H  H97  1  0.16720000  0.34500000  0.80780000  1.0 0.1194879275
H  H98  1  0.18560000  0.30680000  0.04960000  1.0 0.0897588166
H  H99  1  0.22170000  0.27030000  0.98590000  1.0 0.0705517129
H  H100  1  0.98090000  0.49890000  0.90310000  1.0 0.1008499308
H  H101  1  0.01410000  0.46630000  0.99010000  1.0 0.1098461403
H  H102  1  0.06900000  0.44460000  0.77280000  1.0 0.0897588166
H  H103  1  0.03590000  0.47710000  0.68580000  1.0 0.0796822357
H  H104  1  0.09480000  0.35120000  0.51120000  1.0 0.1008499308
H  H105  1  0.11140000  0.35220000  0.36190000  1.0 0.1394788997
H  H106  1  0.07610000  0.44710000  0.32400000  1.0 0.1098461403
H  H107  1  0.05950000  0.44590000  0.47330000  1.0 0.061742333
H  H108  1  0.08580000  0.40980000  0.85290000  1.0 0.1098461403
H  H109  1  0.13590000  0.36970000  0.24390000  1.0 0.1194879275
H  H110  1  0.07020000  0.43660000  0.21290000  1.0 0.0897588166
H  H111  1  0.04830000  0.44790000  0.07280000  1.0 0.1008499308
H  H112  1  0.96850000  0.44630000  0.33333333  1.0 0.0202975384
H  H113  1  0.99210000  0.42390000  0.20760000  1.0 0.1194879275
H  H114  1  0.96140000  0.31320000  0.31520000  1.0 0.1298936378
H  H115  1  0.93780000  0.33560000  0.44090000  1.0 0.0897588166
H  H116  1  0.99420000  0.38940000  0.56230000  1.0 0.0705517129
H  H117  1  0.01830000  0.36710000  0.68750000  1.0 0.1194879275
H  H118  1  0.91620000  0.35700000  0.81820000  1.0 0.1098461403
H  H119  1  0.89220000  0.37940000  0.69310000  1.0 0.0705517129
H  H120  1  0.88890000  0.37270000  0.32540000  1.0 0.0796822357
H  H121  1  0.38250000  0.29930000  0.12880000  1.0 0.1098461403
H  H122  1  0.42130000  0.25930000  0.13500000  1.0 0.1394788997
H  H123  1  0.41040000  0.24620000  0.87090000  1.0 0.1394788997
H  H124  1  0.37180000  0.28580000  0.87320000  1.0 0.1008499308
H  H125  1  0.48530000  0.18490000  0.79090000  1.0 0.1394788997
H  H126  1  0.48590000  0.18530000  0.21980000  1.0 0.1298936378
H  H127  1  0.53900000  0.11960000  0.08590000  1.0 0.1194879275
H  H128  1  0.53910000  0.11950000  0.92460000  1.0 0.1298936378
H  H129  1  0.56380000  0.16080000  0.57290000  1.0 0.1008499308
H  H130  1  0.53990000  0.18590000  0.69270000  1.0 0.1298936378
H  H131  1  0.50760000  0.07540000  0.79920000  1.0 0.1298936378
H  H132  1  0.52920000  0.05360000  0.67160000  1.0 0.0401219134
H  H133  1  0.58820000  0.14540000  0.19810000  1.0 0.1298936378
H  H134  1  0.48720000  0.13740000  0.32780000  1.0 0.1394788997
H  H135  1  0.51320000  0.11820000  0.44910000  1.0 0.0897588166
H  H136  1  0.29680000  0.19140000  0.74410000  1.0 0.1008499308
H  H137  1  0.33280000  0.15500000  0.80780000  1.0 0.1194879275
H  H138  1  0.31440000  0.19320000  0.04960000  1.0 0.0897588166
H  H139  1  0.27830000  0.22970000  0.98590000  1.0 0.0796822357
H  H140  1  0.51910000  0.00110000  0.90310000  1.0 0.1008499308
H  H141  1  0.48590000  0.03370000  0.99010000  1.0 0.1098461403
H  H142  1  0.43100000  0.05540000  0.77280000  1.0 0.0897588166
H  H143  1  0.46410000  0.02290000  0.68580000  1.0 0.0796822357
H  H144  1  0.40520000  0.14880000  0.51120000  1.0 0.1008499308
H  H145  1  0.38860000  0.14780000  0.36190000  1.0 0.1394788997
H  H146  1  0.42390000  0.05290000  0.32400000  1.0 0.1098461403
H  H147  1  0.44050000  0.05410000  0.47330000  1.0 0.061742333
H  H148  1  0.41420000  0.09020000  0.85290000  1.0 0.1098461403
H  H149  1  0.36410000  0.13030000  0.24390000  1.0 0.1194879275
H  H150  1  0.42980000  0.06340000  0.21290000  1.0 0.0897588166
H  H151  1  0.45170000  0.05210000  0.07280000  1.0 0.1008499308
H  H152  1  0.53150000  0.05370000  0.33333333  1.0 0.0202975384
H  H153  1  0.50790000  0.07610000  0.20760000  1.0 0.1194879275
H  H154  1  0.53860000  0.18680000  0.31520000  1.0 0.1298936378
H  H155  1  0.56220000  0.16440000  0.44090000  1.0 0.0897588166
H  H156  1  0.50580000  0.11060000  0.56230000  1.0 0.0705517129
H  H157  1  0.48170000  0.13290000  0.68750000  1.0 0.1194879275
H  H158  1  0.58380000  0.14300000  0.81820000  1.0 0.1098461403
H  H159  1  0.60780000  0.12060000  0.69310000  1.0 0.0705517129
H  H160  1  0.61110000  0.12730000  0.32540000  1.0 0.0796822357
H  H161  1  0.70070000  0.61750000  0.12880000  1.0 0.1098461403
H  H162  1  0.74070000  0.57870000  0.13500000  1.0 0.1394788997
H  H163  1  0.75380000  0.58960000  0.87090000  1.0 0.1394788997
H  H164  1  0.71420000  0.62820000  0.87320000  1.0 0.1008499308
H  H165  1  0.81510000  0.51470000  0.79090000  1.0 0.1394788997
H  H166  1  0.81470000  0.51410000  0.21980000  1.0 0.1298936378
H  H167  1  0.88040000  0.46100000  0.08590000  1.0 0.1194879275
H  H168  1  0.88050000  0.46090000  0.92460000  1.0 0.1298936378
H  H169  1  0.83920000  0.43620000  0.57290000  1.0 0.1008499308
H  H170  1  0.81410000  0.46010000  0.69270000  1.0 0.1298936378
H  H171  1  0.92460000  0.49240000  0.79920000  1.0 0.1298936378
H  H172  1  0.94640000  0.47080000  0.67160000  1.0 0.0401219134
H  H173  1  0.85460000  0.41180000  0.19810000  1.0 0.1298936378
H  H174  1  0.86260000  0.51280000  0.32780000  1.0 0.1394788997
H  H175  1  0.88180000  0.48680000  0.44910000  1.0 0.0897588166
H  H176  1  0.80860000  0.70320000  0.74410000  1.0 0.1008499308
H  H177  1  0.84500000  0.66720000  0.80780000  1.0 0.1194879275
H  H178  1  0.80680000  0.68560000  0.04960000  1.0 0.0897588166
H  H179  1  0.77030000  0.72170000  0.98590000  1.0 0.0705517129
H  H180  1  0.99890000  0.48090000  0.90310000  1.0 0.1008499308
H  H181  1  0.96630000  0.51410000  0.99010000  1.0 0.1098461403
H  H182  1  0.94460000  0.56900000  0.77280000  1.0 0.0897588166
H  H183  1  0.97710000  0.53590000  0.68580000  1.0 0.0796822357
H  H184  1  0.85120000  0.59480000  0.51120000  1.0 0.1008499308
H  H185  1  0.85220000  0.61140000  0.36190000  1.0 0.1394788997
H  H186  1  0.94710000  0.57610000  0.32400000  1.0 0.1098461403
H  H187  1  0.94590000  0.55950000  0.47330000  1.0 0.061742333
H  H188  1  0.90980000  0.58580000  0.85290000  1.0 0.1008499308
H  H189  1  0.86970000  0.63590000  0.24390000  1.0 0.1194879275
H  H190  1  0.93660000  0.57020000  0.21290000  1.0 0.0897588166
H  H191  1  0.94790000  0.54830000  0.07280000  1.0 0.1008499308
H  H192  1  0.94630000  0.46850000  0.33333333  1.0 0.0202975384
H  H193  1  0.92390000  0.49210000  0.20760000  1.0 0.1194879275
H  H194  1  0.81320000  0.46140000  0.31520000  1.0 0.1298936378
H  H195  1  0.83560000  0.43780000  0.44090000  1.0 0.0897588166
H  H196  1  0.88940000  0.49420000  0.56230000  1.0 0.0705517129
H  H197  1  0.86710000  0.51830000  0.68750000  1.0 0.1194879275
H  H198  1  0.85700000  0.41620000  0.81820000  1.0 0.1098461403
H  H199  1  0.87940000  0.39220000  0.69310000  1.0 0.0705517129
H  H200  1  0.87270000  0.38890000  0.32540000  1.0 0.0796822357
H  H201  1  0.79930000  0.88250000  0.12880000  1.0 0.1098461403
H  H202  1  0.75930000  0.92130000  0.13500000  1.0 0.1394788997
H  H203  1  0.74620000  0.91040000  0.87090000  1.0 0.1394788997
H  H204  1  0.78580000  0.87180000  0.87320000  1.0 0.1008499308
H  H205  1  0.68490000  0.98530000  0.79090000  1.0 0.1394788997
H  H206  1  0.68530000  0.98590000  0.21980000  1.0 0.1298936378
H  H207  1  0.61960000  0.03900000  0.08590000  1.0 0.1194879275
H  H208  1  0.61950000  0.03910000  0.92460000  1.0 0.1298936378
H  H209  1  0.66080000  0.06380000  0.57290000  1.0 0.1008499308
H  H210  1  0.68590000  0.03990000  0.69270000  1.0 0.1298936378
H  H211  1  0.57540000  0.00760000  0.79920000  1.0 0.1298936378
H  H212  1  0.55360000  0.02920000  0.67160000  1.0 0.0401219134
H  H213  1  0.64540000  0.08820000  0.19810000  1.0 0.1298936378
H  H214  1  0.63740000  0.98720000  0.32780000  1.0 0.1394788997
H  H215  1  0.61820000  0.01320000  0.44910000  1.0 0.0897588166
H  H216  1  0.69140000  0.79680000  0.74410000  1.0 0.1008499308
H  H217  1  0.65500000  0.83280000  0.80780000  1.0 0.1194879275
H  H218  1  0.69320000  0.81440000  0.04960000  1.0 0.0897588166
H  H219  1  0.72970000  0.77830000  0.98590000  1.0 0.0705517129
H  H220  1  0.50110000  0.01910000  0.90310000  1.0 0.1008499308
H  H221  1  0.53370000  0.98590000  0.99010000  1.0 0.1098461403
H  H222  1  0.55540000  0.93100000  0.77280000  1.0 0.0897588166
H  H223  1  0.52290000  0.96410000  0.68580000  1.0 0.0796822357
H  H224  1  0.64880000  0.90520000  0.51120000  1.0 0.1008499308
H  H225  1  0.64780000  0.88860000  0.36190000  1.0 0.1394788997
H  H226  1  0.55290000  0.92390000  0.32400000  1.0 0.1098461403
H  H227  1  0.55410000  0.94050000  0.47330000  1.0 0.061742333
H  H228  1  0.59020000  0.91420000  0.85290000  1.0 0.1008499308
H  H229  1  0.63030000  0.86410000  0.24390000  1.0 0.1194879275
H  H230  1  0.56340000  0.92980000  0.21290000  1.0 0.0897588166
H  H231  1  0.55210000  0.95170000  0.07280000  1.0 0.1008499308
H  H232  1  0.55370000  0.03150000  0.33333333  1.0 0.0202975384
H  H233  1  0.57610000  0.00790000  0.20760000  1.0 0.1194879275
H  H234  1  0.68680000  0.03860000  0.31520000  1.0 0.1298936378
H  H235  1  0.66440000  0.06220000  0.44090000  1.0 0.0897588166
H  H236  1  0.61060000  0.00580000  0.56230000  1.0 0.0705517129
H  H237  1  0.63290000  0.98170000  0.68750000  1.0 0.1194879275
H  H238  1  0.64300000  0.08380000  0.81820000  1.0 0.1098461403
H  H239  1  0.62060000  0.10780000  0.69310000  1.0 0.0705517129
H  H240  1  0.62730000  0.11110000  0.32540000  1.0 0.0796822357
H  H241  1  0.88250000  0.79930000  0.87120000  1.0 0.1098461403
H  H242  1  0.92130000  0.75930000  0.86500000  1.0 0.1394788997
H  H243  1  0.91040000  0.74620000  0.12910000  1.0 0.1394788997
H  H244  1  0.87180000  0.78580000  0.12680000  1.0 0.1008499308
H  H245  1  0.98530000  0.68490000  0.20910000  1.0 0.1394788997
H  H246  1  0.98590000  0.68530000  0.78020000  1.0 0.1298936378
H  H247  1  0.03900000  0.61960000  0.91410000  1.0 0.1194879275
H  H248  1  0.03910000  0.61950000  0.07540000  1.0 0.1298936378
H  H249  1  0.06380000  0.66080000  0.42710000  1.0 0.1008499308
H  H250  1  0.03990000  0.68590000  0.30730000  1.0 0.1298936378
H  H251  1  0.00760000  0.57540000  0.20080000  1.0 0.1298936378
H  H252  1  0.02920000  0.55360000  0.32840000  1.0 0.0401219134
H  H253  1  0.08820000  0.64540000  0.80190000  1.0 0.1298936378
H  H254  1  0.98720000  0.63740000  0.67220000  1.0 0.1394788997
H  H255  1  0.01320000  0.61820000  0.55090000  1.0 0.0897588166
H  H256  1  0.79680000  0.69140000  0.25590000  1.0 0.1008499308
H  H257  1  0.83280000  0.65500000  0.19220000  1.0 0.1194879275
H  H258  1  0.81440000  0.69320000  0.95040000  1.0 0.0897588166
H  H259  1  0.77830000  0.72970000  0.01410000  1.0 0.0705517129
H  H260  1  0.01910000  0.50110000  0.09690000  1.0 0.1008499308
H  H261  1  0.98590000  0.53370000  0.00990000  1.0 0.1098461403
H  H262  1  0.93100000  0.55540000  0.22720000  1.0 0.0897588166
H  H263  1  0.96410000  0.52290000  0.31420000  1.0 0.0796822357
H  H264  1  0.90520000  0.64880000  0.48880000  1.0 0.1008499308
H  H265  1  0.88860000  0.64780000  0.63810000  1.0 0.1394788997
H  H266  1  0.92390000  0.55290000  0.67600000  1.0 0.1098461403
H  H267  1  0.94050000  0.55410000  0.52670000  1.0 0.061742333
H  H268  1  0.91420000  0.59020000  0.14710000  1.0 0.1008499308
H  H269  1  0.86410000  0.63030000  0.75610000  1.0 0.1194879275
H  H270  1  0.92980000  0.56340000  0.78710000  1.0 0.0897588166
H  H271  1  0.95170000  0.55210000  0.92720000  1.0 0.1008499308
H  H272  1  0.03150000  0.55370000  0.66666667  1.0 0.0202975384
H  H273  1  0.00790000  0.57610000  0.79240000  1.0 0.1194879275
H  H274  1  0.03860000  0.68680000  0.68480000  1.0 0.1298936378
H  H275  1  0.06220000  0.66440000  0.55910000  1.0 0.0897588166
H  H276  1  0.00580000  0.61060000  0.43770000  1.0 0.0705517129
H  H277  1  0.98170000  0.63290000  0.31250000  1.0 0.1194879275
H  H278  1  0.08380000  0.64300000  0.18180000  1.0 0.1098461403
H  H279  1  0.10780000  0.62060000  0.30690000  1.0 0.0705517129
H  H280  1  0.11110000  0.62730000  0.67460000  1.0 0.0796822357
H  H281  1  0.61750000  0.70070000  0.87120000  1.0 0.1098461403
H  H282  1  0.57870000  0.74070000  0.86500000  1.0 0.1394788997
H  H283  1  0.58960000  0.75380000  0.12910000  1.0 0.1394788997
H  H284  1  0.62820000  0.71420000  0.12680000  1.0 0.1008499308
H  H285  1  0.51470000  0.81510000  0.20910000  1.0 0.1394788997
H  H286  1  0.51410000  0.81470000  0.78020000  1.0 0.1298936378
H  H287  1  0.46100000  0.88040000  0.91410000  1.0 0.1194879275
H  H288  1  0.46090000  0.88050000  0.07540000  1.0 0.1298936378
H  H289  1  0.43620000  0.83920000  0.42710000  1.0 0.1008499308
H  H290  1  0.46010000  0.81410000  0.30730000  1.0 0.1298936378
H  H291  1  0.49240000  0.92460000  0.20080000  1.0 0.1298936378
H  H292  1  0.47080000  0.94640000  0.32840000  1.0 0.0401219134
H  H293  1  0.41180000  0.85460000  0.80190000  1.0 0.1298936378
H  H294  1  0.51280000  0.86260000  0.67220000  1.0 0.1394788997
H  H295  1  0.48680000  0.88180000  0.55090000  1.0 0.0897588166
H  H296  1  0.70320000  0.80860000  0.25590000  1.0 0.1008499308
H  H297  1  0.66720000  0.84500000  0.19220000  1.0 0.1194879275
H  H298  1  0.68560000  0.80680000  0.95040000  1.0 0.0897588166
H  H299  1  0.72170000  0.77030000  0.01410000  1.0 0.0705517129
H  H300  1  0.48090000  0.99890000  0.09690000  1.0 0.1008499308
H  H301  1  0.51410000  0.96630000  0.00990000  1.0 0.1098461403
H  H302  1  0.56900000  0.94460000  0.22720000  1.0 0.0897588166
H  H303  1  0.53590000  0.97710000  0.31420000  1.0 0.0796822357
H  H304  1  0.59480000  0.85120000  0.48880000  1.0 0.1008499308
H  H305  1  0.61140000  0.85220000  0.63810000  1.0 0.1394788997
H  H306  1  0.57610000  0.94710000  0.67600000  1.0 0.1098461403
H  H307  1  0.55950000  0.94590000  0.52670000  1.0 0.061742333
H  H308  1  0.58580000  0.90980000  0.14710000  1.0 0.1098461403
H  H309  1  0.63590000  0.86970000  0.75610000  1.0 0.1194879275
H  H310  1  0.57020000  0.93660000  0.78710000  1.0 0.0897588166
H  H311  1  0.54830000  0.94790000  0.92720000  1.0 0.1008499308
H  H312  1  0.46850000  0.94630000  0.66666667  1.0 0.0202975384
H  H313  1  0.49210000  0.92390000  0.79240000  1.0 0.1194879275
H  H314  1  0.46140000  0.81320000  0.68480000  1.0 0.1298936378
H  H315  1  0.43780000  0.83560000  0.55910000  1.0 0.0897588166
H  H316  1  0.49420000  0.88940000  0.43770000  1.0 0.0705517129
H  H317  1  0.51830000  0.86710000  0.31250000  1.0 0.1194879275
H  H318  1  0.41620000  0.85700000  0.18180000  1.0 0.1098461403
H  H319  1  0.39220000  0.87940000  0.30690000  1.0 0.0705517129
H  H320  1  0.38890000  0.87270000  0.67460000  1.0 0.0796822357
H  H321  1  0.10720000  0.12180000  0.68410000  1.0 0.1098461403
H  H322  1  0.08570000  0.14430000  0.80830000  1.0 0.1298936378
H  H323  1  0.98310000  0.13430000  0.68010000  1.0 0.1298936378
H  H324  1  0.00770000  0.11130000  0.55890000  1.0 0.0705517129
H  H325  1  0.06130000  0.16110000  0.43570000  1.0 0.1008499308
H  H326  1  0.03980000  0.18540000  0.31300000  1.0 0.1394788997
H  H327  1  0.00970000  0.07550000  0.20310000  1.0 0.1298936378
H  H328  1  0.02940000  0.05360000  0.33120000  1.0 0.0796822357
H  H329  1  0.87980000  0.29420000  0.86860000  1.0 0.0897588166
H  H330  1  0.91780000  0.25360000  0.86660000  1.0 0.1394788997
H  H331  1  0.91340000  0.25100000  0.13050000  1.0 0.1394788997
H  H332  1  0.87470000  0.29090000  0.12610000  1.0 0.1098461403
H  H333  1  0.04190000  0.12190000  0.92000000  1.0 0.1098461403
H  H334  1  0.03600000  0.11700000  0.08410000  1.0 0.1098461403
H  H335  1  0.98290000  0.18310000  0.21460000  1.0 0.1394788997
H  H336  1  0.98560000  0.18540000  0.78730000  1.0 0.1394788997
H  H337  1  0.90800000  0.15500000  0.51180000  1.0 0.1194879275
H  H338  1  0.89780000  0.15360000  0.35950000  1.0 0.1098461403
H  H339  1  0.92570000  0.05330000  0.34170000  1.0 0.1194879275
H  H340  1  0.93600000  0.05480000  0.49400000  1.0 0.1194879275
H  H341  1  0.39280000  0.37820000  0.68410000  1.0 0.1098461403
H  H342  1  0.41430000  0.35570000  0.80830000  1.0 0.1298936378
H  H343  1  0.51690000  0.36570000  0.68010000  1.0 0.1298936378
H  H344  1  0.49230000  0.38870000  0.55890000  1.0 0.0705517129
H  H345  1  0.43870000  0.33890000  0.43570000  1.0 0.1008499308
H  H346  1  0.46020000  0.31460000  0.31300000  1.0 0.1394788997
H  H347  1  0.49030000  0.42450000  0.20310000  1.0 0.1298936378
H  H348  1  0.47060000  0.44640000  0.33120000  1.0 0.0796822357
H  H349  1  0.62020000  0.20580000  0.86860000  1.0 0.0897588166
H  H350  1  0.58220000  0.24640000  0.86660000  1.0 0.1394788997
H  H351  1  0.58660000  0.24900000  0.13050000  1.0 0.1394788997
H  H352  1  0.62530000  0.20910000  0.12610000  1.0 0.1098461403
H  H353  1  0.45810000  0.37810000  0.92000000  1.0 0.1098461403
H  H354  1  0.46400000  0.38300000  0.08410000  1.0 0.1098461403
H  H355  1  0.51710000  0.31690000  0.21460000  1.0 0.1394788997
H  H356  1  0.51440000  0.31460000  0.78730000  1.0 0.1394788997
H  H357  1  0.59200000  0.34500000  0.51180000  1.0 0.1194879275
H  H358  1  0.60220000  0.34640000  0.35950000  1.0 0.1098461403
H  H359  1  0.57430000  0.44670000  0.34170000  1.0 0.1194879275
H  H360  1  0.56400000  0.44520000  0.49400000  1.0 0.1194879275
H  H361  1  0.37820000  0.39280000  0.31590000  1.0 0.1098461403
H  H362  1  0.35570000  0.41430000  0.19170000  1.0 0.1298936378
H  H363  1  0.36570000  0.51690000  0.31990000  1.0 0.1298936378
H  H364  1  0.38870000  0.49230000  0.44110000  1.0 0.0705517129
H  H365  1  0.33890000  0.43870000  0.56430000  1.0 0.1008499308
H  H366  1  0.31460000  0.46020000  0.68700000  1.0 0.1394788997
H  H367  1  0.42450000  0.49030000  0.79690000  1.0 0.1298936378
H  H368  1  0.44640000  0.47060000  0.66880000  1.0 0.0796822357
H  H369  1  0.20580000  0.62020000  0.13140000  1.0 0.0897588166
H  H370  1  0.24640000  0.58220000  0.13340000  1.0 0.1394788997
H  H371  1  0.24900000  0.58660000  0.86950000  1.0 0.1394788997
H  H372  1  0.20910000  0.62530000  0.87390000  1.0 0.1098461403
H  H373  1  0.37810000  0.45810000  0.08000000  1.0 0.1098461403
H  H374  1  0.38300000  0.46400000  0.91590000  1.0 0.1098461403
H  H375  1  0.31690000  0.51710000  0.78540000  1.0 0.1394788997
H  H376  1  0.31460000  0.51440000  0.21270000  1.0 0.1394788997
H  H377  1  0.34500000  0.59200000  0.48820000  1.0 0.1194879275
H  H378  1  0.34640000  0.60220000  0.64050000  1.0 0.1098461403
H  H379  1  0.44670000  0.57430000  0.65830000  1.0 0.1194879275
H  H380  1  0.44520000  0.56400000  0.50600000  1.0 0.1194879275
H  H381  1  0.12180000  0.10720000  0.31590000  1.0 0.1098461403
H  H382  1  0.14430000  0.08570000  0.19170000  1.0 0.1298936378
H  H383  1  0.13430000  0.98310000  0.31990000  1.0 0.1298936378
H  H384  1  0.11130000  0.00770000  0.44110000  1.0 0.0705517129
H  H385  1  0.16110000  0.06130000  0.56430000  1.0 0.1008499308
H  H386  1  0.18540000  0.03980000  0.68700000  1.0 0.1394788997
H  H387  1  0.07550000  0.00970000  0.79690000  1.0 0.1298936378
H  H388  1  0.05360000  0.02940000  0.66880000  1.0 0.0796822357
H  H389  1  0.29420000  0.87980000  0.13140000  1.0 0.0897588166
H  H390  1  0.25360000  0.91780000  0.13340000  1.0 0.1394788997
H  H391  1  0.25100000  0.91340000  0.86950000  1.0 0.1394788997
H  H392  1  0.29090000  0.87470000  0.87390000  1.0 0.1098461403
H  H393  1  0.12190000  0.04190000  0.08000000  1.0 0.1098461403
H  H394  1  0.11700000  0.03600000  0.91590000  1.0 0.1098461403
H  H395  1  0.18310000  0.98290000  0.78540000  1.0 0.1394788997
H  H396  1  0.18540000  0.98560000  0.21270000  1.0 0.1394788997
H  H397  1  0.15500000  0.90800000  0.48820000  1.0 0.1194879275
H  H398  1  0.15360000  0.89780000  0.64050000  1.0 0.1098461403
H  H399  1  0.05330000  0.92570000  0.65830000  1.0 0.1194879275
H  H400  1  0.05480000  0.93600000  0.50600000  1.0 0.1194879275
H  H401  1  0.89280000  0.87820000  0.31590000  1.0 0.1098461403
H  H402  1  0.91430000  0.85570000  0.19170000  1.0 0.1298936378
H  H403  1  0.01690000  0.86570000  0.31990000  1.0 0.1298936378
H  H404  1  0.99230000  0.88870000  0.44110000  1.0 0.0705517129
H  H405  1  0.93870000  0.83890000  0.56430000  1.0 0.1008499308
H  H406  1  0.96020000  0.81460000  0.68700000  1.0 0.1394788997
H  H407  1  0.99030000  0.92450000  0.79690000  1.0 0.1298936378
H  H408  1  0.97060000  0.94640000  0.66880000  1.0 0.0796822357
H  H409  1  0.12020000  0.70580000  0.13140000  1.0 0.0897588166
H  H410  1  0.08220000  0.74640000  0.13340000  1.0 0.1394788997
H  H411  1  0.08660000  0.74900000  0.86950000  1.0 0.1394788997
H  H412  1  0.12530000  0.70910000  0.87390000  1.0 0.1098461403
H  H413  1  0.95810000  0.87810000  0.08000000  1.0 0.1098461403
H  H414  1  0.96400000  0.88300000  0.91590000  1.0 0.1098461403
H  H415  1  0.01710000  0.81690000  0.78540000  1.0 0.1394788997
H  H416  1  0.01440000  0.81460000  0.21270000  1.0 0.1394788997
H  H417  1  0.09200000  0.84500000  0.48820000  1.0 0.1194879275
H  H418  1  0.10220000  0.84640000  0.64050000  1.0 0.1098461403
H  H419  1  0.07430000  0.94670000  0.65830000  1.0 0.1194879275
H  H420  1  0.06400000  0.94520000  0.50600000  1.0 0.1194879275
H  H421  1  0.60720000  0.62180000  0.31590000  1.0 0.1098461403
H  H422  1  0.58570000  0.64430000  0.19170000  1.0 0.1298936378
H  H423  1  0.48310000  0.63430000  0.31990000  1.0 0.1298936378
H  H424  1  0.50770000  0.61130000  0.44110000  1.0 0.0705517129
H  H425  1  0.56130000  0.66110000  0.56430000  1.0 0.1008499308
H  H426  1  0.53980000  0.68540000  0.68700000  1.0 0.1394788997
H  H427  1  0.50970000  0.57550000  0.79690000  1.0 0.1298936378
H  H428  1  0.52940000  0.55360000  0.66880000  1.0 0.0796822357
H  H429  1  0.37980000  0.79420000  0.13140000  1.0 0.0897588166
H  H430  1  0.41780000  0.75360000  0.13340000  1.0 0.1394788997
H  H431  1  0.41340000  0.75100000  0.86950000  1.0 0.1394788997
H  H432  1  0.37470000  0.79090000  0.87390000  1.0 0.1098461403
H  H433  1  0.54190000  0.62190000  0.08000000  1.0 0.1098461403
H  H434  1  0.53600000  0.61700000  0.91590000  1.0 0.1098461403
H  H435  1  0.48290000  0.68310000  0.78540000  1.0 0.1394788997
H  H436  1  0.48560000  0.68540000  0.21270000  1.0 0.1394788997
H  H437  1  0.40800000  0.65500000  0.48820000  1.0 0.1194879275
H  H438  1  0.39780000  0.65360000  0.64050000  1.0 0.1098461403
H  H439  1  0.42570000  0.55330000  0.65830000  1.0 0.1194879275
H  H440  1  0.43600000  0.55480000  0.50600000  1.0 0.1194879275
H  H441  1  0.62180000  0.60720000  0.68410000  1.0 0.1098461403
H  H442  1  0.64430000  0.58570000  0.80830000  1.0 0.1298936378
H  H443  1  0.63430000  0.48310000  0.68010000  1.0 0.1298936378
H  H444  1  0.61130000  0.50770000  0.55890000  1.0 0.0705517129
H  H445  1  0.66110000  0.56130000  0.43570000  1.0 0.1008499308
H  H446  1  0.68540000  0.53980000  0.31300000  1.0 0.1394788997
H  H447  1  0.57550000  0.50970000  0.20310000  1.0 0.1298936378
H  H448  1  0.55360000  0.52940000  0.33120000  1.0 0.0796822357
H  H449  1  0.79420000  0.37980000  0.86860000  1.0 0.0897588166
H  H450  1  0.75360000  0.41780000  0.86660000  1.0 0.1394788997
H  H451  1  0.75100000  0.41340000  0.13050000  1.0 0.1394788997
H  H452  1  0.79090000  0.37470000  0.12610000  1.0 0.1098461403
H  H453  1  0.62190000  0.54190000  0.92000000  1.0 0.1098461403
H  H454  1  0.61700000  0.53600000  0.08410000  1.0 0.1098461403
H  H455  1  0.68310000  0.48290000  0.21460000  1.0 0.1394788997
H  H456  1  0.68540000  0.48560000  0.78730000  1.0 0.1394788997
H  H457  1  0.65500000  0.40800000  0.51180000  1.0 0.1194879275
H  H458  1  0.65360000  0.39780000  0.35950000  1.0 0.1098461403
H  H459  1  0.55330000  0.42570000  0.34170000  1.0 0.1194879275
H  H460  1  0.55480000  0.43600000  0.49400000  1.0 0.1194879275
H  H461  1  0.87820000  0.89280000  0.68410000  1.0 0.1098461403
H  H462  1  0.85570000  0.91430000  0.80830000  1.0 0.1298936378
H  H463  1  0.86570000  0.01690000  0.68010000  1.0 0.1298936378
H  H464  1  0.88870000  0.99230000  0.55890000  1.0 0.0705517129
H  H465  1  0.83890000  0.93870000  0.43570000  1.0 0.1008499308
H  H466  1  0.81460000  0.96020000  0.31300000  1.0 0.1394788997
H  H467  1  0.92450000  0.99030000  0.20310000  1.0 0.1298936378
H  H468  1  0.94640000  0.97060000  0.33120000  1.0 0.0796822357
H  H469  1  0.70580000  0.12020000  0.86860000  1.0 0.0897588166
H  H470  1  0.74640000  0.08220000  0.86660000  1.0 0.1394788997
H  H471  1  0.74900000  0.08660000  0.13050000  1.0 0.1394788997
H  H472  1  0.70910000  0.12530000  0.12610000  1.0 0.1098461403
H  H473  1  0.87810000  0.95810000  0.92000000  1.0 0.1098461403
H  H474  1  0.88300000  0.96400000  0.08410000  1.0 0.1098461403
H  H475  1  0.81690000  0.01710000  0.21460000  1.0 0.1394788997
H  H476  1  0.81460000  0.01440000  0.78730000  1.0 0.1394788997
H  H477  1  0.84500000  0.09200000  0.51180000  1.0 0.1194879275
H  H478  1  0.84640000  0.10220000  0.35950000  1.0 0.1098461403
H  H479  1  0.94670000  0.07430000  0.34170000  1.0 0.1194879275
H  H480  1  0.94520000  0.06400000  0.49400000  1.0 0.1194879275
H  H481  1  0.97050000  0.02950000  0.69100000  1.0 0.0705517129
H  H482  1  0.93810000  0.06190000  0.77340000  1.0 0.1194879275
H  H483  1  0.97670000  0.02330000  0.98910000  1.0 0.1194879275
H  H484  1  0.00840000  0.99160000  0.89980000  1.0 0.0796822357
H  H485  1  0.80300000  0.19700000  0.75190000  1.0 0.1098461403
H  H486  1  0.83890000  0.16110000  0.81180000  1.0 0.1394788997
H  H487  1  0.80970000  0.19030000  0.04960000  1.0 0.1394788997
H  H488  1  0.77460000  0.22540000  0.98140000  1.0 0.1098461403
H  H489  1  0.93400000  0.06600000  0.20940000  1.0 0.1008499308
H  H490  1  0.95080000  0.04920000  0.05960000  1.0 0.1194879275
H  H491  1  0.91010000  0.08990000  0.84930000  1.0 0.1298936378
H  H492  1  0.86600000  0.13400000  0.23770000  1.0 0.1194879275
H  H493  1  0.52950000  0.47050000  0.69100000  1.0 0.0705517129
H  H494  1  0.56190000  0.43810000  0.77340000  1.0 0.1194879275
H  H495  1  0.52330000  0.47670000  0.98910000  1.0 0.1194879275
H  H496  1  0.49160000  0.50840000  0.89980000  1.0 0.0796822357
H  H497  1  0.69700000  0.30300000  0.75190000  1.0 0.1098461403
H  H498  1  0.66110000  0.33890000  0.81180000  1.0 0.1394788997
H  H499  1  0.69030000  0.30970000  0.04960000  1.0 0.1394788997
H  H500  1  0.72540000  0.27460000  0.98140000  1.0 0.1098461403
H  H501  1  0.56600000  0.43400000  0.20940000  1.0 0.1008499308
H  H502  1  0.54920000  0.45080000  0.05960000  1.0 0.1194879275
H  H503  1  0.58990000  0.41010000  0.84930000  1.0 0.1298936378
H  H504  1  0.63400000  0.36600000  0.23770000  1.0 0.1194879275
H  H505  1  0.47050000  0.52950000  0.30900000  1.0 0.0705517129
H  H506  1  0.43810000  0.56190000  0.22660000  1.0 0.1194879275
H  H507  1  0.47670000  0.52330000  0.01090000  1.0 0.1194879275
H  H508  1  0.50840000  0.49160000  0.10020000  1.0 0.0796822357
H  H509  1  0.30300000  0.69700000  0.24810000  1.0 0.1098461403
H  H510  1  0.33890000  0.66110000  0.18820000  1.0 0.1394788997
H  H511  1  0.30970000  0.69030000  0.95040000  1.0 0.1394788997
H  H512  1  0.27460000  0.72540000  0.01860000  1.0 0.1098461403
H  H513  1  0.43400000  0.56600000  0.79060000  1.0 0.1008499308
H  H514  1  0.45080000  0.54920000  0.94040000  1.0 0.1194879275
H  H515  1  0.41010000  0.58990000  0.15070000  1.0 0.1298936378
H  H516  1  0.36600000  0.63400000  0.76230000  1.0 0.1194879275
H  H517  1  0.02950000  0.97050000  0.30900000  1.0 0.0705517129
H  H518  1  0.06190000  0.93810000  0.22660000  1.0 0.1194879275
H  H519  1  0.02330000  0.97670000  0.01090000  1.0 0.1194879275
H  H520  1  0.99160000  0.00840000  0.10020000  1.0 0.0796822357
H  H521  1  0.19700000  0.80300000  0.24810000  1.0 0.1098461403
H  H522  1  0.16110000  0.83890000  0.18820000  1.0 0.1394788997
H  H523  1  0.19030000  0.80970000  0.95040000  1.0 0.1394788997
H  H524  1  0.22540000  0.77460000  0.01860000  1.0 0.1098461403
H  H525  1  0.06600000  0.93400000  0.79060000  1.0 0.1008499308
H  H526  1  0.04920000  0.95080000  0.94040000  1.0 0.1194879275
H  H527  1  0.08990000  0.91010000  0.15070000  1.0 0.1298936378
H  H528  1  0.13400000  0.86600000  0.76230000  1.0 0.1194879275
C  C1  1  0.28862000  0.38862000  0.92430000  1.0 0.061742333
C  C2  1  0.26476000  0.41172000  0.92010000  1.0 -0.160840346
C  C3  1  0.24866000  0.42092000  0.99690000  1.0 0.061742333
C  C4  1  0.25690000  0.40540000  0.07490000  1.0 -0.1685571398
C  C5  1  0.28068000  0.38262000  0.07280000  1.0 0.0307945183
C  C6  1  0.14982000  0.51362000  0.15350000  1.0 0.0897588166
C  C7  1  0.17552000  0.49172000  0.15460000  1.0 -0.3176865734
C  C8  1  0.18741000  0.47929000  0.07560000  1.0 0.2204772889
C  C9  1  0.22292000  0.44560000  0.99760000  1.0 0.34936088
C  C10  1  0.18751000  0.47935000  0.91400000  1.0 0.2204772889
C  C11  1  0.17588000  0.49228000  0.83460000  1.0 -0.302440656
C  C12  1  0.15078000  0.51436000  0.83480000  1.0 0.0796822357
C  C13  1  0.13726000  0.52452000  0.91460000  1.0 -0.2786131584
C  C14  1  0.14947000  0.51361000  0.99490000  1.0 0.061742333
C  C15  1  0.13694000  0.52438000  0.07500000  1.0 -0.2898025118
C  C16  1  0.17449000  0.49075000  0.99480000  1.0 -0.1110751965
C  C17  1  0.14310000  0.55210000  0.37970000  1.0 0.0796822357
C  C18  1  0.15887000  0.53873000  0.30790000  1.0 -0.0608036904
C  C19  1  0.13370000  0.52370000  0.23760000  1.0 0.0796822357
C  C20  1  0.09393000  0.51947000  0.24660000  1.0 -0.1183418029
C  C21  1  0.08113000  0.53267000  0.32260000  1.0 -0.0034136043
C  C22  1  0.12620000  0.58420000  0.67720000  1.0 -0.0034136043
C  C23  1  0.13890000  0.57150000  0.75130000  1.0 -0.160840346
C  C24  1  0.14270000  0.53390000  0.75370000  1.0 0.0897588166
C  C25  1  0.13410000  0.51250000  0.67600000  1.0 -0.0608036904
C  C26  1  0.12090000  0.52750000  0.60470000  1.0 0.0897588166
C  C27  1  0.19180000  0.30040000  0.19390000  1.0 -0.0704147088
C  C28  1  0.17012000  0.32168000  0.15610000  1.0 -0.2596741558
C  C29  1  0.17067000  0.32693000  0.06530000  1.0 0.0401219134
C  C30  1  0.19285000  0.31075000  0.01240000  1.0 -0.0078824057
C  C31  1  0.21457000  0.28943000  0.05030000  1.0 -0.0034136043
C  C32  1  0.01219000  0.50121000  0.12330000  1.0 0.061742333
C  C33  1  0.03150000  0.48150000  0.07160000  1.0 -0.2388789811
C  C34  1  0.04764000  0.45536000  0.11030000  1.0 0.0307945183
C  C35  1  0.04448000  0.44892000  0.20070000  1.0 -0.2279858301
C  C36  1  0.02507000  0.46853000  0.25240000  1.0 -0.2596741558
C  C37  1  0.12940000  0.40900000  0.52680000  1.0 0.0401219134
C  C38  1  0.12868000  0.39912000  0.61550000  1.0 -0.2596741558
C  C39  1  0.10020000  0.40480000  0.67110000  1.0 0.0705517129
C  C40  1  0.07240000  0.42020000  0.63800000  1.0 -0.3692621231
C  C41  1  0.07300000  0.43000000  0.54930000  1.0 0.0401219134
C  C42  1  0.06950000  0.43750000  0.04200000  1.0 -0.0308461954
C  C43  1  0.08920000  0.41480000  0.08460000  1.0 -0.0308461954
C  C44  1  0.10730000  0.39290000  0.03470000  1.0 0.0506688753
C  C45  1  0.14600000  0.35060000  0.02070000  1.0 0.1298936378
C  C46  1  0.12440000  0.37420000  0.88450000  1.0 0.1765638463
C  C47  1  0.11950000  0.37930000  0.79260000  1.0 -0.3528051934
C  C48  1  0.10160000  0.40240000  0.74580000  1.0 -0.0034136043
C  C49  1  0.08150000  0.41790000  0.80910000  1.0 -0.1494559561
C  C50  1  0.08580000  0.41760000  0.90080000  1.0 -0.0308461954
C  C51  1  0.06700000  0.43760000  0.95430000  1.0 -0.0224403932
C  C52  1  0.10600000  0.39500000  0.94140000  1.0 0.0307945183
C  C53  1  0.08068000  0.53292000  0.67030000  1.0 -0.0704147088
C  C54  1  0.09404000  0.51896000  0.74500000  1.0 -0.160840346
C  C55  1  0.13357000  0.52103000  0.75040000  1.0 0.0796822357
C  C56  1  0.15983000  0.53717000  0.68110000  1.0 -0.0793445499
C  C57  1  0.14650000  0.55110000  0.60640000  1.0 0.061742333
C  C58  1  0.11718000  0.52162000  0.38570000  1.0 0.0506688753
C  C59  1  0.13046000  0.50734000  0.31140000  1.0 -0.0515579811
C  C60  1  0.13998000  0.53042000  0.23540000  1.0 0.0796822357
C  C61  1  0.13642000  0.56798000  0.23370000  1.0 -0.1110751965
C  C62  1  0.12313000  0.58227000  0.30810000  1.0 -0.0224403932
C  C63  1  0.21138000  0.11138000  0.92430000  1.0 0.061742333
C  C64  1  0.23524000  0.08828000  0.92010000  1.0 -0.160840346
C  C65  1  0.25134000  0.07908000  0.99690000  1.0 0.061742333
C  C66  1  0.24310000  0.09460000  0.07490000  1.0 -0.1685571398
C  C67  1  0.21932000  0.11738000  0.07280000  1.0 0.0307945183
C  C68  1  0.35018000  0.98638000  0.15350000  1.0 0.0897588166
C  C69  1  0.32448000  0.00828000  0.15460000  1.0 -0.3176865734
C  C70  1  0.31259000  0.02071000  0.07560000  1.0 0.2204772889
C  C71  1  0.27708000  0.05440000  0.99760000  1.0 0.34936088
C  C72  1  0.31249000  0.02065000  0.91400000  1.0 0.2204772889
C  C73  1  0.32412000  0.00772000  0.83460000  1.0 -0.302440656
C  C74  1  0.34922000  0.98564000  0.83480000  1.0 0.0796822357
C  C75  1  0.36274000  0.97548000  0.91460000  1.0 -0.2786131584
C  C76  1  0.35053000  0.98639000  0.99490000  1.0 0.061742333
C  C77  1  0.36306000  0.97562000  0.07500000  1.0 -0.2898025118
C  C78  1  0.32551000  0.00925000  0.99480000  1.0 -0.1110751965
C  C79  1  0.35690000  0.94790000  0.37970000  1.0 0.0796822357
C  C80  1  0.34113000  0.96127000  0.30790000  1.0 -0.0608036904
C  C81  1  0.36630000  0.97630000  0.23760000  1.0 0.0796822357
C  C82  1  0.40607000  0.98053000  0.24660000  1.0 -0.1183418029
C  C83  1  0.41887000  0.96733000  0.32260000  1.0 -0.0034136043
C  C84  1  0.37380000  0.91580000  0.67720000  1.0 -0.0034136043
C  C85  1  0.36110000  0.92850000  0.75130000  1.0 -0.160840346
C  C86  1  0.35730000  0.96610000  0.75370000  1.0 0.0897588166
C  C87  1  0.36590000  0.98750000  0.67600000  1.0 -0.0608036904
C  C88  1  0.37910000  0.97250000  0.60470000  1.0 0.0897588166
C  C89  1  0.30820000  0.19960000  0.19390000  1.0 -0.0704147088
C  C90  1  0.32988000  0.17832000  0.15610000  1.0 -0.2596741558
C  C91  1  0.32933000  0.17307000  0.06530000  1.0 0.0401219134
C  C92  1  0.30715000  0.18925000  0.01240000  1.0 -0.0078824057
C  C93  1  0.28543000  0.21057000  0.05030000  1.0 -0.0034136043
C  C94  1  0.48781000  0.99879000  0.12330000  1.0 0.061742333
C  C95  1  0.46850000  0.01850000  0.07160000  1.0 -0.2388789811
C  C96  1  0.45236000  0.04464000  0.11030000  1.0 0.0307945183
C  C97  1  0.45552000  0.05108000  0.20070000  1.0 -0.2279858301
C  C98  1  0.47493000  0.03147000  0.25240000  1.0 -0.2596741558
C  C99  1  0.37060000  0.09100000  0.52680000  1.0 0.0401219134
C  C100  1  0.37132000  0.10088000  0.61550000  1.0 -0.2596741558
C  C101  1  0.39980000  0.09520000  0.67110000  1.0 0.0705517129
C  C102  1  0.42760000  0.07980000  0.63800000  1.0 -0.3692621231
C  C103  1  0.42700000  0.07000000  0.54930000  1.0 0.0401219134
C  C104  1  0.43050000  0.06250000  0.04200000  1.0 -0.0224403932
C  C105  1  0.41080000  0.08520000  0.08460000  1.0 -0.0308461954
C  C106  1  0.39270000  0.10710000  0.03470000  1.0 0.0506688753
C  C107  1  0.35400000  0.14940000  0.02070000  1.0 0.1298936378
C  C108  1  0.37560000  0.12580000  0.88450000  1.0 0.1765638463
C  C109  1  0.38050000  0.12070000  0.79260000  1.0 -0.3598712909
C  C110  1  0.39840000  0.09760000  0.74580000  1.0 -0.0034136043
C  C111  1  0.41850000  0.08210000  0.80910000  1.0 -0.1494559561
C  C112  1  0.41420000  0.08240000  0.90080000  1.0 -0.0308461954
C  C113  1  0.43300000  0.06240000  0.95430000  1.0 -0.0224403932
C  C114  1  0.39400000  0.10500000  0.94140000  1.0 0.0307945183
C  C115  1  0.41932000  0.96708000  0.67030000  1.0 -0.0793445499
C  C116  1  0.40596000  0.98104000  0.74500000  1.0 -0.160840346
C  C117  1  0.36643000  0.97897000  0.75040000  1.0 0.0796822357
C  C118  1  0.34017000  0.96283000  0.68110000  1.0 -0.0793445499
C  C119  1  0.35350000  0.94890000  0.60640000  1.0 0.061742333
C  C120  1  0.38282000  0.97838000  0.38570000  1.0 0.0506688753
C  C121  1  0.36954000  0.99266000  0.31140000  1.0 -0.0515579811
C  C122  1  0.36002000  0.96958000  0.23540000  1.0 0.0796822357
C  C123  1  0.36358000  0.93202000  0.23370000  1.0 -0.1110751965
C  C124  1  0.37687000  0.91773000  0.30810000  1.0 -0.0224403932
C  C125  1  0.11138000  0.21138000  0.07570000  1.0 0.061742333
C  C126  1  0.08828000  0.23524000  0.07990000  1.0 -0.160840346
C  C127  1  0.07908000  0.25134000  0.00310000  1.0 0.061742333
C  C128  1  0.09460000  0.24310000  0.92510000  1.0 -0.1685571398
C  C129  1  0.11738000  0.21932000  0.92720000  1.0 0.0307945183
C  C130  1  0.98638000  0.35018000  0.84650000  1.0 0.0897588166
C  C131  1  0.00828000  0.32448000  0.84540000  1.0 -0.3176865734
C  C132  1  0.02071000  0.31259000  0.92440000  1.0 0.2204772889
C  C133  1  0.05440000  0.27708000  0.00240000  1.0 0.34936088
C  C134  1  0.02065000  0.31249000  0.08600000  1.0 0.2204772889
C  C135  1  0.00772000  0.32412000  0.16540000  1.0 -0.302440656
C  C136  1  0.98564000  0.34922000  0.16520000  1.0 0.0796822357
C  C137  1  0.97548000  0.36274000  0.08540000  1.0 -0.2786131584
C  C138  1  0.98639000  0.35053000  0.00510000  1.0 0.061742333
C  C139  1  0.97562000  0.36306000  0.92500000  1.0 -0.2898025118
C  C140  1  0.00925000  0.32551000  0.00520000  1.0 -0.1110751965
C  C141  1  0.94790000  0.35690000  0.62030000  1.0 0.0796822357
C  C142  1  0.96127000  0.34113000  0.69210000  1.0 -0.0608036904
C  C143  1  0.97630000  0.36630000  0.76240000  1.0 0.0796822357
C  C144  1  0.98053000  0.40607000  0.75340000  1.0 -0.1183418029
C  C145  1  0.96733000  0.41887000  0.67740000  1.0 -0.0034136043
C  C146  1  0.91580000  0.37380000  0.32280000  1.0 -0.0034136043
C  C147  1  0.92850000  0.36110000  0.24870000  1.0 -0.160840346
C  C148  1  0.96610000  0.35730000  0.24630000  1.0 0.0897588166
C  C149  1  0.98750000  0.36590000  0.32400000  1.0 -0.0608036904
C  C150  1  0.97250000  0.37910000  0.39530000  1.0 0.0897588166
C  C151  1  0.19960000  0.30820000  0.80610000  1.0 -0.0704147088
C  C152  1  0.17832000  0.32988000  0.84390000  1.0 -0.2596741558
C  C153  1  0.17307000  0.32933000  0.93470000  1.0 0.0401219134
C  C154  1  0.18925000  0.30715000  0.98760000  1.0 -0.0078824057
C  C155  1  0.21057000  0.28543000  0.94970000  1.0 -0.0034136043
C  C156  1  0.99879000  0.48781000  0.87670000  1.0 0.061742333
C  C157  1  0.01850000  0.46850000  0.92840000  1.0 -0.2388789811
C  C158  1  0.04464000  0.45236000  0.88970000  1.0 0.0307945183
C  C159  1  0.05108000  0.45552000  0.79930000  1.0 -0.2388789811
C  C160  1  0.03147000  0.47493000  0.74760000  1.0 -0.2596741558
C  C161  1  0.09100000  0.37060000  0.47320000  1.0 0.0401219134
C  C162  1  0.10088000  0.37132000  0.38450000  1.0 -0.2596741558
C  C163  1  0.09520000  0.39980000  0.32890000  1.0 0.0705517129
C  C164  1  0.07980000  0.42760000  0.36200000  1.0 -0.3692621231
C  C165  1  0.07000000  0.42700000  0.45070000  1.0 0.0401219134
C  C166  1  0.06250000  0.43050000  0.95800000  1.0 -0.0308461954
C  C167  1  0.08520000  0.41080000  0.91540000  1.0 -0.0352901273
C  C168  1  0.10710000  0.39270000  0.96530000  1.0 0.0506688753
C  C169  1  0.14940000  0.35400000  0.97930000  1.0 0.1394788997
C  C170  1  0.12580000  0.37560000  0.11550000  1.0 0.1765638463
C  C171  1  0.12070000  0.38050000  0.20740000  1.0 -0.3528051934
C  C172  1  0.09760000  0.39840000  0.25420000  1.0 -0.0034136043
C  C173  1  0.08210000  0.41850000  0.19090000  1.0 -0.1494559561
C  C174  1  0.08240000  0.41420000  0.09920000  1.0 -0.0308461954
C  C175  1  0.06240000  0.43300000  0.04570000  1.0 -0.0224403932
C  C176  1  0.10500000  0.39400000  0.05860000  1.0 0.0307945183
C  C177  1  0.96708000  0.41932000  0.32970000  1.0 -0.0793445499
C  C178  1  0.98104000  0.40596000  0.25500000  1.0 -0.160840346
C  C179  1  0.97897000  0.36643000  0.24960000  1.0 0.0796822357
C  C180  1  0.96283000  0.34017000  0.31890000  1.0 -0.0793445499
C  C181  1  0.94890000  0.35350000  0.39360000  1.0 0.061742333
C  C182  1  0.97838000  0.38282000  0.61430000  1.0 0.0506688753
C  C183  1  0.99266000  0.36954000  0.68860000  1.0 -0.0515579811
C  C184  1  0.96958000  0.36002000  0.76460000  1.0 0.0796822357
C  C185  1  0.93202000  0.36358000  0.76630000  1.0 -0.1110751965
C  C186  1  0.91773000  0.37687000  0.69190000  1.0 -0.0224403932
C  C187  1  0.38862000  0.28862000  0.07570000  1.0 0.061742333
C  C188  1  0.41172000  0.26476000  0.07990000  1.0 -0.160840346
C  C189  1  0.42092000  0.24866000  0.00310000  1.0 0.061742333
C  C190  1  0.40540000  0.25690000  0.92510000  1.0 -0.1685571398
C  C191  1  0.38262000  0.28068000  0.92720000  1.0 0.0307945183
C  C192  1  0.51362000  0.14982000  0.84650000  1.0 0.0897588166
C  C193  1  0.49172000  0.17552000  0.84540000  1.0 -0.3176865734
C  C194  1  0.47929000  0.18741000  0.92440000  1.0 0.2204772889
C  C195  1  0.44560000  0.22292000  0.00240000  1.0 0.34936088
C  C196  1  0.47935000  0.18751000  0.08600000  1.0 0.2204772889
C  C197  1  0.49228000  0.17588000  0.16540000  1.0 -0.302440656
C  C198  1  0.51436000  0.15078000  0.16520000  1.0 0.0796822357
C  C199  1  0.52452000  0.13726000  0.08540000  1.0 -0.2786131584
C  C200  1  0.51361000  0.14947000  0.00510000  1.0 0.061742333
C  C201  1  0.52438000  0.13694000  0.92500000  1.0 -0.2898025118
C  C202  1  0.49075000  0.17449000  0.00520000  1.0 -0.1110751965
C  C203  1  0.55210000  0.14310000  0.62030000  1.0 0.0796822357
C  C204  1  0.53873000  0.15887000  0.69210000  1.0 -0.0608036904
C  C205  1  0.52370000  0.13370000  0.76240000  1.0 0.0796822357
C  C206  1  0.51947000  0.09393000  0.75340000  1.0 -0.1183418029
C  C207  1  0.53267000  0.08113000  0.67740000  1.0 -0.0034136043
C  C208  1  0.58420000  0.12620000  0.32280000  1.0 -0.0034136043
C  C209  1  0.57150000  0.13890000  0.24870000  1.0 -0.160840346
C  C210  1  0.53390000  0.14270000  0.24630000  1.0 0.0897588166
C  C211  1  0.51250000  0.13410000  0.32400000  1.0 -0.0608036904
C  C212  1  0.52750000  0.12090000  0.39530000  1.0 0.0897588166
C  C213  1  0.30040000  0.19180000  0.80610000  1.0 -0.0704147088
C  C214  1  0.32168000  0.17012000  0.84390000  1.0 -0.2596741558
C  C215  1  0.32693000  0.17067000  0.93470000  1.0 0.0401219134
C  C216  1  0.31075000  0.19285000  0.98760000  1.0 -0.0078824057
C  C217  1  0.28943000  0.21457000  0.94970000  1.0 -0.0034136043
C  C218  1  0.50121000  0.01219000  0.87670000  1.0 0.061742333
C  C219  1  0.48150000  0.03150000  0.92840000  1.0 -0.2388789811
C  C220  1  0.45536000  0.04764000  0.88970000  1.0 0.0307945183
C  C221  1  0.44892000  0.04448000  0.79930000  1.0 -0.2388789811
C  C222  1  0.46853000  0.02507000  0.74760000  1.0 -0.2596741558
C  C223  1  0.40900000  0.12940000  0.47320000  1.0 0.0401219134
C  C224  1  0.39912000  0.12868000  0.38450000  1.0 -0.2596741558
C  C225  1  0.40480000  0.10020000  0.32890000  1.0 0.0705517129
C  C226  1  0.42020000  0.07240000  0.36200000  1.0 -0.3692621231
C  C227  1  0.43000000  0.07300000  0.45070000  1.0 0.0401219134
C  C228  1  0.43750000  0.06950000  0.95800000  1.0 -0.0224403932
C  C229  1  0.41480000  0.08920000  0.91540000  1.0 -0.0352901273
C  C230  1  0.39290000  0.10730000  0.96530000  1.0 0.0506688753
C  C231  1  0.35060000  0.14600000  0.97930000  1.0 0.1394788997
C  C232  1  0.37420000  0.12440000  0.11550000  1.0 0.1765638463
C  C233  1  0.37930000  0.11950000  0.20740000  1.0 -0.3528051934
C  C234  1  0.40240000  0.10160000  0.25420000  1.0 -0.0034136043
C  C235  1  0.41790000  0.08150000  0.19090000  1.0 -0.1494559561
C  C236  1  0.41760000  0.08580000  0.09920000  1.0 -0.0308461954
C  C237  1  0.43760000  0.06700000  0.04570000  1.0 -0.0224403932
C  C238  1  0.39500000  0.10600000  0.05860000  1.0 0.0307945183
C  C239  1  0.53292000  0.08068000  0.32970000  1.0 -0.0793445499
C  C240  1  0.51896000  0.09404000  0.25500000  1.0 -0.160840346
C  C241  1  0.52103000  0.13357000  0.24960000  1.0 0.0796822357
C  C242  1  0.53717000  0.15983000  0.31890000  1.0 -0.0793445499
C  C243  1  0.55110000  0.14650000  0.39360000  1.0 0.061742333
C  C244  1  0.52162000  0.11718000  0.61430000  1.0 0.0506688753
C  C245  1  0.50734000  0.13046000  0.68860000  1.0 -0.0515579811
C  C246  1  0.53042000  0.13998000  0.76460000  1.0 0.0796822357
C  C247  1  0.56798000  0.13642000  0.76630000  1.0 -0.1110751965
C  C248  1  0.58227000  0.12313000  0.69190000  1.0 -0.0224403932
C  C249  1  0.71138000  0.61138000  0.07570000  1.0 0.061742333
C  C250  1  0.73524000  0.58828000  0.07990000  1.0 -0.160840346
C  C251  1  0.75134000  0.57908000  0.00310000  1.0 0.061742333
C  C252  1  0.74310000  0.59460000  0.92510000  1.0 -0.1685571398
C  C253  1  0.71932000  0.61738000  0.92720000  1.0 0.0307945183
C  C254  1  0.85018000  0.48638000  0.84650000  1.0 0.0897588166
C  C255  1  0.82448000  0.50828000  0.84540000  1.0 -0.3176865734
C  C256  1  0.81259000  0.52071000  0.92440000  1.0 0.2204772889
C  C257  1  0.77708000  0.55440000  0.00240000  1.0 0.34936088
C  C258  1  0.81249000  0.52065000  0.08600000  1.0 0.2204772889
C  C259  1  0.82412000  0.50772000  0.16540000  1.0 -0.302440656
C  C260  1  0.84922000  0.48564000  0.16520000  1.0 0.0796822357
C  C261  1  0.86274000  0.47548000  0.08540000  1.0 -0.2786131584
C  C262  1  0.85053000  0.48639000  0.00510000  1.0 0.061742333
C  C263  1  0.86306000  0.47562000  0.92500000  1.0 -0.2898025118
C  C264  1  0.82551000  0.50925000  0.00520000  1.0 -0.1110751965
C  C265  1  0.85690000  0.44790000  0.62030000  1.0 0.0796822357
C  C266  1  0.84113000  0.46127000  0.69210000  1.0 -0.0608036904
C  C267  1  0.86630000  0.47630000  0.76240000  1.0 0.0796822357
C  C268  1  0.90607000  0.48053000  0.75340000  1.0 -0.1183418029
C  C269  1  0.91887000  0.46733000  0.67740000  1.0 -0.0034136043
C  C270  1  0.87380000  0.41580000  0.32280000  1.0 -0.0034136043
C  C271  1  0.86110000  0.42850000  0.24870000  1.0 -0.160840346
C  C272  1  0.85730000  0.46610000  0.24630000  1.0 0.0897588166
C  C273  1  0.86590000  0.48750000  0.32400000  1.0 -0.0608036904
C  C274  1  0.87910000  0.47250000  0.39530000  1.0 0.0897588166
C  C275  1  0.80820000  0.69960000  0.80610000  1.0 -0.0704147088
C  C276  1  0.82988000  0.67832000  0.84390000  1.0 -0.2596741558
C  C277  1  0.82933000  0.67307000  0.93470000  1.0 0.0401219134
C  C278  1  0.80715000  0.68925000  0.98760000  1.0 -0.0078824057
C  C279  1  0.78543000  0.71057000  0.94970000  1.0 -0.0034136043
C  C280  1  0.98781000  0.49879000  0.87670000  1.0 0.061742333
C  C281  1  0.96850000  0.51850000  0.92840000  1.0 -0.2388789811
C  C282  1  0.95236000  0.54464000  0.88970000  1.0 0.0307945183
C  C283  1  0.95552000  0.55108000  0.79930000  1.0 -0.2388789811
C  C284  1  0.97493000  0.53147000  0.74760000  1.0 -0.2596741558
C  C285  1  0.87060000  0.59100000  0.47320000  1.0 0.0401219134
C  C286  1  0.87132000  0.60088000  0.38450000  1.0 -0.2596741558
C  C287  1  0.89980000  0.59520000  0.32890000  1.0 0.0705517129
C  C288  1  0.92760000  0.57980000  0.36200000  1.0 -0.3692621231
C  C289  1  0.92700000  0.57000000  0.45070000  1.0 0.0401219134
C  C290  1  0.93050000  0.56250000  0.95800000  1.0 -0.0224403932
C  C291  1  0.91080000  0.58520000  0.91540000  1.0 -0.0308461954
C  C292  1  0.89270000  0.60710000  0.96530000  1.0 0.0506688753
C  C293  1  0.85400000  0.64940000  0.97930000  1.0 0.1394788997
C  C294  1  0.87560000  0.62580000  0.11550000  1.0 0.1765638463
C  C295  1  0.88050000  0.62070000  0.20740000  1.0 -0.3528051934
C  C296  1  0.89840000  0.59760000  0.25420000  1.0 -0.0034136043
C  C297  1  0.91850000  0.58210000  0.19090000  1.0 -0.1494559561
C  C298  1  0.91420000  0.58240000  0.09920000  1.0 -0.0308461954
C  C299  1  0.93300000  0.56240000  0.04570000  1.0 -0.0224403932
C  C300  1  0.89400000  0.60500000  0.05860000  1.0 0.0307945183
C  C301  1  0.91932000  0.46708000  0.32970000  1.0 -0.0793445499
C  C302  1  0.90596000  0.48104000  0.25500000  1.0 -0.160840346
C  C303  1  0.86643000  0.47897000  0.24960000  1.0 0.0796822357
C  C304  1  0.84017000  0.46283000  0.31890000  1.0 -0.0793445499
C  C305  1  0.85350000  0.44890000  0.39360000  1.0 0.061742333
C  C306  1  0.88282000  0.47838000  0.61430000  1.0 0.0506688753
C  C307  1  0.86954000  0.49266000  0.68860000  1.0 -0.0515579811
C  C308  1  0.86002000  0.46958000  0.76460000  1.0 0.0796822357
C  C309  1  0.86358000  0.43202000  0.76630000  1.0 -0.1110751965
C  C310  1  0.87687000  0.41773000  0.69190000  1.0 -0.0224403932
C  C311  1  0.78862000  0.88862000  0.07570000  1.0 0.061742333
C  C312  1  0.76476000  0.91172000  0.07990000  1.0 -0.160840346
C  C313  1  0.74866000  0.92092000  0.00310000  1.0 0.061742333
C  C314  1  0.75690000  0.90540000  0.92510000  1.0 -0.1685571398
C  C315  1  0.78068000  0.88262000  0.92720000  1.0 0.0307945183
C  C316  1  0.64982000  0.01362000  0.84650000  1.0 0.0897588166
C  C317  1  0.67552000  0.99172000  0.84540000  1.0 -0.3176865734
C  C318  1  0.68741000  0.97929000  0.92440000  1.0 0.2204772889
C  C319  1  0.72292000  0.94560000  0.00240000  1.0 0.34936088
C  C320  1  0.68751000  0.97935000  0.08600000  1.0 0.2204772889
C  C321  1  0.67588000  0.99228000  0.16540000  1.0 -0.302440656
C  C322  1  0.65078000  0.01436000  0.16520000  1.0 0.0796822357
C  C323  1  0.63726000  0.02452000  0.08540000  1.0 -0.2786131584
C  C324  1  0.64947000  0.01361000  0.00510000  1.0 0.061742333
C  C325  1  0.63694000  0.02438000  0.92500000  1.0 -0.2898025118
C  C326  1  0.67449000  0.99075000  0.00520000  1.0 -0.1110751965
C  C327  1  0.64310000  0.05210000  0.62030000  1.0 0.0796822357
C  C328  1  0.65887000  0.03873000  0.69210000  1.0 -0.0608036904
C  C329  1  0.63370000  0.02370000  0.76240000  1.0 0.0796822357
C  C330  1  0.59393000  0.01947000  0.75340000  1.0 -0.1183418029
C  C331  1  0.58113000  0.03267000  0.67740000  1.0 -0.0034136043
C  C332  1  0.62620000  0.08420000  0.32280000  1.0 -0.0034136043
C  C333  1  0.63890000  0.07150000  0.24870000  1.0 -0.160840346
C  C334  1  0.64270000  0.03390000  0.24630000  1.0 0.0897588166
C  C335  1  0.63410000  0.01250000  0.32400000  1.0 -0.0608036904
C  C336  1  0.62090000  0.02750000  0.39530000  1.0 0.0897588166
C  C337  1  0.69180000  0.80040000  0.80610000  1.0 -0.0704147088
C  C338  1  0.67012000  0.82168000  0.84390000  1.0 -0.2596741558
C  C339  1  0.67067000  0.82693000  0.93470000  1.0 0.0401219134
C  C340  1  0.69285000  0.81075000  0.98760000  1.0 -0.0078824057
C  C341  1  0.71457000  0.78943000  0.94970000  1.0 -0.0034136043
C  C342  1  0.51219000  0.00121000  0.87670000  1.0 0.061742333
C  C343  1  0.53150000  0.98150000  0.92840000  1.0 -0.2388789811
C  C344  1  0.54764000  0.95536000  0.88970000  1.0 0.0307945183
C  C345  1  0.54448000  0.94892000  0.79930000  1.0 -0.2388789811
C  C346  1  0.52507000  0.96853000  0.74760000  1.0 -0.2596741558
C  C347  1  0.62940000  0.90900000  0.47320000  1.0 0.0401219134
C  C348  1  0.62868000  0.89912000  0.38450000  1.0 -0.2596741558
C  C349  1  0.60020000  0.90480000  0.32890000  1.0 0.0705517129
C  C350  1  0.57240000  0.92020000  0.36200000  1.0 -0.3692621231
C  C351  1  0.57300000  0.93000000  0.45070000  1.0 0.0401219134
C  C352  1  0.56950000  0.93750000  0.95800000  1.0 -0.0308461954
C  C353  1  0.58920000  0.91480000  0.91540000  1.0 -0.0308461954
C  C354  1  0.60730000  0.89290000  0.96530000  1.0 0.0506688753
C  C355  1  0.64600000  0.85060000  0.97930000  1.0 0.1298936378
C  C356  1  0.62440000  0.87420000  0.11550000  1.0 0.1765638463
C  C357  1  0.61950000  0.87930000  0.20740000  1.0 -0.3598712909
C  C358  1  0.60160000  0.90240000  0.25420000  1.0 -0.0034136043
C  C359  1  0.58150000  0.91790000  0.19090000  1.0 -0.1494559561
C  C360  1  0.58580000  0.91760000  0.09920000  1.0 -0.0308461954
C  C361  1  0.56700000  0.93760000  0.04570000  1.0 -0.0224403932
C  C362  1  0.60600000  0.89500000  0.05860000  1.0 0.0307945183
C  C363  1  0.58068000  0.03292000  0.32970000  1.0 -0.0793445499
C  C364  1  0.59404000  0.01896000  0.25500000  1.0 -0.160840346
C  C365  1  0.63357000  0.02103000  0.24960000  1.0 0.0796822357
C  C366  1  0.65983000  0.03717000  0.31890000  1.0 -0.0793445499
C  C367  1  0.64650000  0.05110000  0.39360000  1.0 0.061742333
C  C368  1  0.61718000  0.02162000  0.61430000  1.0 0.0506688753
C  C369  1  0.63046000  0.00734000  0.68860000  1.0 -0.0515579811
C  C370  1  0.63998000  0.03042000  0.76460000  1.0 0.0796822357
C  C371  1  0.63642000  0.06798000  0.76630000  1.0 -0.1110751965
C  C372  1  0.62313000  0.08227000  0.69190000  1.0 -0.0224403932
C  C373  1  0.88862000  0.78862000  0.92430000  1.0 0.061742333
C  C374  1  0.91172000  0.76476000  0.92010000  1.0 -0.160840346
C  C375  1  0.92092000  0.74866000  0.99690000  1.0 0.061742333
C  C376  1  0.90540000  0.75690000  0.07490000  1.0 -0.1685571398
C  C377  1  0.88262000  0.78068000  0.07280000  1.0 0.0307945183
C  C378  1  0.01362000  0.64982000  0.15350000  1.0 0.0897588166
C  C379  1  0.99172000  0.67552000  0.15460000  1.0 -0.3176865734
C  C380  1  0.97929000  0.68741000  0.07560000  1.0 0.2204772889
C  C381  1  0.94560000  0.72292000  0.99760000  1.0 0.34936088
C  C382  1  0.97935000  0.68751000  0.91400000  1.0 0.2204772889
C  C383  1  0.99228000  0.67588000  0.83460000  1.0 -0.302440656
C  C384  1  0.01436000  0.65078000  0.83480000  1.0 0.0796822357
C  C385  1  0.02452000  0.63726000  0.91460000  1.0 -0.2786131584
C  C386  1  0.01361000  0.64947000  0.99490000  1.0 0.061742333
C  C387  1  0.02438000  0.63694000  0.07500000  1.0 -0.2898025118
C  C388  1  0.99075000  0.67449000  0.99480000  1.0 -0.1110751965
C  C389  1  0.05210000  0.64310000  0.37970000  1.0 0.0796822357
C  C390  1  0.03873000  0.65887000  0.30790000  1.0 -0.0608036904
C  C391  1  0.02370000  0.63370000  0.23760000  1.0 0.0796822357
C  C392  1  0.01947000  0.59393000  0.24660000  1.0 -0.1183418029
C  C393  1  0.03267000  0.58113000  0.32260000  1.0 -0.0034136043
C  C394  1  0.08420000  0.62620000  0.67720000  1.0 -0.0034136043
C  C395  1  0.07150000  0.63890000  0.75130000  1.0 -0.160840346
C  C396  1  0.03390000  0.64270000  0.75370000  1.0 0.0897588166
C  C397  1  0.01250000  0.63410000  0.67600000  1.0 -0.0608036904
C  C398  1  0.02750000  0.62090000  0.60470000  1.0 0.0897588166
C  C399  1  0.80040000  0.69180000  0.19390000  1.0 -0.0704147088
C  C400  1  0.82168000  0.67012000  0.15610000  1.0 -0.2596741558
C  C401  1  0.82693000  0.67067000  0.06530000  1.0 0.0401219134
C  C402  1  0.81075000  0.69285000  0.01240000  1.0 -0.0078824057
C  C403  1  0.78943000  0.71457000  0.05030000  1.0 -0.0034136043
C  C404  1  0.00121000  0.51219000  0.12330000  1.0 0.061742333
C  C405  1  0.98150000  0.53150000  0.07160000  1.0 -0.2388789811
C  C406  1  0.95536000  0.54764000  0.11030000  1.0 0.0307945183
C  C407  1  0.94892000  0.54448000  0.20070000  1.0 -0.2388789811
C  C408  1  0.96853000  0.52507000  0.25240000  1.0 -0.2596741558
C  C409  1  0.90900000  0.62940000  0.52680000  1.0 0.0401219134
C  C410  1  0.89912000  0.62868000  0.61550000  1.0 -0.2596741558
C  C411  1  0.90480000  0.60020000  0.67110000  1.0 0.0705517129
C  C412  1  0.92020000  0.57240000  0.63800000  1.0 -0.3692621231
C  C413  1  0.93000000  0.57300000  0.54930000  1.0 0.0401219134
C  C414  1  0.93750000  0.56950000  0.04200000  1.0 -0.0224403932
C  C415  1  0.91480000  0.58920000  0.08460000  1.0 -0.0308461954
C  C416  1  0.89290000  0.60730000  0.03470000  1.0 0.0506688753
C  C417  1  0.85060000  0.64600000  0.02070000  1.0 0.1298936378
C  C418  1  0.87420000  0.62440000  0.88450000  1.0 0.1765638463
C  C419  1  0.87930000  0.61950000  0.79260000  1.0 -0.3598712909
C  C420  1  0.90240000  0.60160000  0.74580000  1.0 -0.0034136043
C  C421  1  0.91790000  0.58150000  0.80910000  1.0 -0.1494559561
C  C422  1  0.91760000  0.58580000  0.90080000  1.0 -0.0308461954
C  C423  1  0.93760000  0.56700000  0.95430000  1.0 -0.0224403932
C  C424  1  0.89500000  0.60600000  0.94140000  1.0 0.0307945183
C  C425  1  0.03292000  0.58068000  0.67030000  1.0 -0.0704147088
C  C426  1  0.01896000  0.59404000  0.74500000  1.0 -0.160840346
C  C427  1  0.02103000  0.63357000  0.75040000  1.0 0.0796822357
C  C428  1  0.03717000  0.65983000  0.68110000  1.0 -0.0793445499
C  C429  1  0.05110000  0.64650000  0.60640000  1.0 0.061742333
C  C430  1  0.02162000  0.61718000  0.38570000  1.0 0.0506688753
C  C431  1  0.00734000  0.63046000  0.31140000  1.0 -0.0515579811
C  C432  1  0.03042000  0.63998000  0.23540000  1.0 0.0796822357
C  C433  1  0.06798000  0.63642000  0.23370000  1.0 -0.1110751965
C  C434  1  0.08227000  0.62313000  0.30810000  1.0 -0.0224403932
C  C435  1  0.61138000  0.71138000  0.92430000  1.0 0.061742333
C  C436  1  0.58828000  0.73524000  0.92010000  1.0 -0.160840346
C  C437  1  0.57908000  0.75134000  0.99690000  1.0 0.061742333
C  C438  1  0.59460000  0.74310000  0.07490000  1.0 -0.1685571398
C  C439  1  0.61738000  0.71932000  0.07280000  1.0 0.0307945183
C  C440  1  0.48638000  0.85018000  0.15350000  1.0 0.0897588166
C  C441  1  0.50828000  0.82448000  0.15460000  1.0 -0.3176865734
C  C442  1  0.52071000  0.81259000  0.07560000  1.0 0.2204772889
C  C443  1  0.55440000  0.77708000  0.99760000  1.0 0.34936088
C  C444  1  0.52065000  0.81249000  0.91400000  1.0 0.2204772889
C  C445  1  0.50772000  0.82412000  0.83460000  1.0 -0.302440656
C  C446  1  0.48564000  0.84922000  0.83480000  1.0 0.0796822357
C  C447  1  0.47548000  0.86274000  0.91460000  1.0 -0.2786131584
C  C448  1  0.48639000  0.85053000  0.99490000  1.0 0.061742333
C  C449  1  0.47562000  0.86306000  0.07500000  1.0 -0.2898025118
C  C450  1  0.50925000  0.82551000  0.99480000  1.0 -0.1110751965
C  C451  1  0.44790000  0.85690000  0.37970000  1.0 0.0796822357
C  C452  1  0.46127000  0.84113000  0.30790000  1.0 -0.0608036904
C  C453  1  0.47630000  0.86630000  0.23760000  1.0 0.0796822357
C  C454  1  0.48053000  0.90607000  0.24660000  1.0 -0.1183418029
C  C455  1  0.46733000  0.91887000  0.32260000  1.0 -0.0034136043
C  C456  1  0.41580000  0.87380000  0.67720000  1.0 -0.0034136043
C  C457  1  0.42850000  0.86110000  0.75130000  1.0 -0.160840346
C  C458  1  0.46610000  0.85730000  0.75370000  1.0 0.0897588166
C  C459  1  0.48750000  0.86590000  0.67600000  1.0 -0.0608036904
C  C460  1  0.47250000  0.87910000  0.60470000  1.0 0.0897588166
C  C461  1  0.69960000  0.80820000  0.19390000  1.0 -0.0704147088
C  C462  1  0.67832000  0.82988000  0.15610000  1.0 -0.2596741558
C  C463  1  0.67307000  0.82933000  0.06530000  1.0 0.0401219134
C  C464  1  0.68925000  0.80715000  0.01240000  1.0 -0.0078824057
C  C465  1  0.71057000  0.78543000  0.05030000  1.0 -0.0034136043
C  C466  1  0.49879000  0.98781000  0.12330000  1.0 0.061742333
C  C467  1  0.51850000  0.96850000  0.07160000  1.0 -0.2388789811
C  C468  1  0.54464000  0.95236000  0.11030000  1.0 0.0307945183
C  C469  1  0.55108000  0.95552000  0.20070000  1.0 -0.2388789811
C  C470  1  0.53147000  0.97493000  0.25240000  1.0 -0.2596741558
C  C471  1  0.59100000  0.87060000  0.52680000  1.0 0.0401219134
C  C472  1  0.60088000  0.87132000  0.61550000  1.0 -0.2596741558
C  C473  1  0.59520000  0.89980000  0.67110000  1.0 0.0705517129
C  C474  1  0.57980000  0.92760000  0.63800000  1.0 -0.3692621231
C  C475  1  0.57000000  0.92700000  0.54930000  1.0 0.0401219134
C  C476  1  0.56250000  0.93050000  0.04200000  1.0 -0.0308461954
C  C477  1  0.58520000  0.91080000  0.08460000  1.0 -0.0308461954
C  C478  1  0.60710000  0.89270000  0.03470000  1.0 0.0506688753
C  C479  1  0.64940000  0.85400000  0.02070000  1.0 0.1298936378
C  C480  1  0.62580000  0.87560000  0.88450000  1.0 0.1765638463
C  C481  1  0.62070000  0.88050000  0.79260000  1.0 -0.3528051934
C  C482  1  0.59760000  0.89840000  0.74580000  1.0 -0.0034136043
C  C483  1  0.58210000  0.91850000  0.80910000  1.0 -0.1494559561
C  C484  1  0.58240000  0.91420000  0.90080000  1.0 -0.0308461954
C  C485  1  0.56240000  0.93300000  0.95430000  1.0 -0.0224403932
C  C486  1  0.60500000  0.89400000  0.94140000  1.0 0.0307945183
C  C487  1  0.46708000  0.91932000  0.67030000  1.0 -0.0704147088
C  C488  1  0.48104000  0.90596000  0.74500000  1.0 -0.160840346
C  C489  1  0.47897000  0.86643000  0.75040000  1.0 0.0796822357
C  C490  1  0.46283000  0.84017000  0.68110000  1.0 -0.0793445499
C  C491  1  0.44890000  0.85350000  0.60640000  1.0 0.061742333
C  C492  1  0.47838000  0.88282000  0.38570000  1.0 0.0506688753
C  C493  1  0.49266000  0.86954000  0.31140000  1.0 -0.0515579811
C  C494  1  0.46958000  0.86002000  0.23540000  1.0 0.0796822357
C  C495  1  0.43202000  0.86358000  0.23370000  1.0 -0.1110751965
C  C496  1  0.41773000  0.87687000  0.30810000  1.0 -0.0224403932
C  C497  1  0.08146000  0.12408000  0.68350000  1.0 0.1008499308
C  C498  1  0.06895000  0.13745000  0.75790000  1.0 -0.1889116071
C  C499  1  0.03150000  0.14100000  0.75950000  1.0 0.1298936378
C  C500  1  0.00856000  0.13156000  0.68270000  1.0 -0.1987762196
C  C501  1  0.02362000  0.11812000  0.61080000  1.0 0.0061264097
C  C502  1  0.05045000  0.14341000  0.38780000  1.0 0.0796822357
C  C503  1  0.03781000  0.15821000  0.31470000  1.0 -0.1817004316
C  C504  1  0.02214000  0.13318000  0.24330000  1.0 0.1194879275
C  C505  1  0.01983000  0.09361000  0.25050000  1.0 -0.2229672183
C  C506  1  0.03226000  0.08106000  0.32660000  1.0 0.0013787106
C  C507  1  0.88703000  0.28547000  0.92300000  1.0 0.0796822357
C  C508  1  0.90986000  0.26136000  0.92120000  1.0 -0.1494559561
C  C509  1  0.92094000  0.24878000  0.99870000  1.0 0.0705517129
C  C510  1  0.90705000  0.25987000  0.07530000  1.0 -0.1494559561
C  C511  1  0.88414000  0.28370000  0.07250000  1.0 0.0705517129
C  C512  1  0.01635000  0.15307000  0.84230000  1.0 0.0796822357
C  C513  1  0.02634000  0.13872000  0.92090000  1.0 -0.2229672183
C  C514  1  0.01339000  0.14911000  0.00110000  1.0 0.1098461403
C  C515  1  0.02233000  0.13539000  0.08250000  1.0 -0.2229672183
C  C516  1  0.01120000  0.14858000  0.15970000  1.0 0.0796822357
C  C517  1  0.98993000  0.17427000  0.16030000  1.0 -0.2279858301
C  C518  1  0.97886000  0.18706000  0.08140000  1.0 0.2303730123
C  C519  1  0.94605000  0.22251000  0.99990000  1.0 0.34936088
C  C520  1  0.97991000  0.18749000  0.91970000  1.0 0.2204772889
C  C521  1  0.99281000  0.17669000  0.84170000  1.0 -0.2229672183
C  C522  1  0.99045000  0.17471000  0.00070000  1.0 -0.0863046247
C  C523  1  0.91162000  0.13438000  0.47730000  1.0 -0.160840346
C  C524  1  0.90552000  0.13348000  0.38680000  1.0 -0.0793445499
C  C525  1  0.91075000  0.10325000  0.33630000  1.0 0.1098461403
C  C526  1  0.92209000  0.07391000  0.37620000  1.0 -0.1817004316
C  C527  1  0.92820000  0.07480000  0.46670000  1.0 -0.0793445499
C  C528  1  0.41854000  0.37592000  0.68350000  1.0 0.1008499308
C  C529  1  0.43105000  0.36255000  0.75790000  1.0 -0.1889116071
C  C530  1  0.46850000  0.35900000  0.75950000  1.0 0.1298936378
C  C531  1  0.49144000  0.36844000  0.68270000  1.0 -0.1987762196
C  C532  1  0.47638000  0.38188000  0.61080000  1.0 0.0061264097
C  C533  1  0.44955000  0.35659000  0.38780000  1.0 0.0705517129
C  C534  1  0.46219000  0.34179000  0.31470000  1.0 -0.1817004316
C  C535  1  0.47786000  0.36682000  0.24330000  1.0 0.1194879275
C  C536  1  0.48017000  0.40639000  0.25050000  1.0 -0.2229672183
C  C537  1  0.46774000  0.41894000  0.32660000  1.0 0.0013787106
C  C538  1  0.61297000  0.21453000  0.92300000  1.0 0.0796822357
C  C539  1  0.59014000  0.23864000  0.92120000  1.0 -0.1494559561
C  C540  1  0.57906000  0.25122000  0.99870000  1.0 0.0705517129
C  C541  1  0.59295000  0.24013000  0.07530000  1.0 -0.1494559561
C  C542  1  0.61586000  0.21630000  0.07250000  1.0 0.0705517129
C  C543  1  0.48365000  0.34693000  0.84230000  1.0 0.0796822357
C  C544  1  0.47366000  0.36128000  0.92090000  1.0 -0.2229672183
C  C545  1  0.48661000  0.35089000  0.00110000  1.0 0.1098461403
C  C546  1  0.47767000  0.36461000  0.08250000  1.0 -0.2229672183
C  C547  1  0.48880000  0.35142000  0.15970000  1.0 0.0796822357
C  C548  1  0.51007000  0.32573000  0.16030000  1.0 -0.2279858301
C  C549  1  0.52114000  0.31294000  0.08140000  1.0 0.2303730123
C  C550  1  0.55395000  0.27749000  0.99990000  1.0 0.34936088
C  C551  1  0.52009000  0.31251000  0.91970000  1.0 0.2204772889
C  C552  1  0.50719000  0.32331000  0.84170000  1.0 -0.2229672183
C  C553  1  0.50955000  0.32529000  0.00070000  1.0 -0.0863046247
C  C554  1  0.58838000  0.36562000  0.47730000  1.0 -0.160840346
C  C555  1  0.59448000  0.36652000  0.38680000  1.0 -0.0793445499
C  C556  1  0.58925000  0.39675000  0.33630000  1.0 0.1098461403
C  C557  1  0.57791000  0.42609000  0.37620000  1.0 -0.1817004316
C  C558  1  0.57180000  0.42520000  0.46670000  1.0 -0.0793445499
C  C559  1  0.37592000  0.41854000  0.31650000  1.0 0.1008499308
C  C560  1  0.36255000  0.43105000  0.24210000  1.0 -0.1889116071
C  C561  1  0.35900000  0.46850000  0.24050000  1.0 0.1298936378
C  C562  1  0.36844000  0.49144000  0.31730000  1.0 -0.1987762196
C  C563  1  0.38188000  0.47638000  0.38920000  1.0 0.0061264097
C  C564  1  0.35659000  0.44955000  0.61220000  1.0 0.0705517129
C  C565  1  0.34179000  0.46219000  0.68530000  1.0 -0.1817004316
C  C566  1  0.36682000  0.47786000  0.75670000  1.0 0.1194879275
C  C567  1  0.40639000  0.48017000  0.74950000  1.0 -0.2229672183
C  C568  1  0.41894000  0.46774000  0.67340000  1.0 0.0013787106
C  C569  1  0.21453000  0.61297000  0.07700000  1.0 0.0796822357
C  C570  1  0.23864000  0.59014000  0.07880000  1.0 -0.1494559561
C  C571  1  0.25122000  0.57906000  0.00130000  1.0 0.0705517129
C  C572  1  0.24013000  0.59295000  0.92470000  1.0 -0.1494559561
C  C573  1  0.21630000  0.61586000  0.92750000  1.0 0.0705517129
C  C574  1  0.34693000  0.48365000  0.15770000  1.0 0.0796822357
C  C575  1  0.36128000  0.47366000  0.07910000  1.0 -0.2279858301
C  C576  1  0.35089000  0.48661000  0.99890000  1.0 0.1098461403
C  C577  1  0.36461000  0.47767000  0.91750000  1.0 -0.2229672183
C  C578  1  0.35142000  0.48880000  0.84030000  1.0 0.0796822357
C  C579  1  0.32573000  0.51007000  0.83970000  1.0 -0.2279858301
C  C580  1  0.31294000  0.52114000  0.91860000  1.0 0.2303730123
C  C581  1  0.27749000  0.55395000  0.00010000  1.0 0.34936088
C  C582  1  0.31251000  0.52009000  0.08030000  1.0 0.2204772889
C  C583  1  0.32331000  0.50719000  0.15830000  1.0 -0.2229672183
C  C584  1  0.32529000  0.50955000  0.99930000  1.0 -0.0863046247
C  C585  1  0.36562000  0.58838000  0.52270000  1.0 -0.160840346
C  C586  1  0.36652000  0.59448000  0.61320000  1.0 -0.0793445499
C  C587  1  0.39675000  0.58925000  0.66370000  1.0 0.1098461403
C  C588  1  0.42609000  0.57791000  0.62380000  1.0 -0.1817004316
C  C589  1  0.42520000  0.57180000  0.53330000  1.0 -0.0793445499
C  C590  1  0.12408000  0.08146000  0.31650000  1.0 0.1008499308
C  C591  1  0.13745000  0.06895000  0.24210000  1.0 -0.1889116071
C  C592  1  0.14100000  0.03150000  0.24050000  1.0 0.1298936378
C  C593  1  0.13156000  0.00856000  0.31730000  1.0 -0.1987762196
C  C594  1  0.11812000  0.02362000  0.38920000  1.0 0.0061264097
C  C595  1  0.14341000  0.05045000  0.61220000  1.0 0.0796822357
C  C596  1  0.15821000  0.03781000  0.68530000  1.0 -0.1817004316
C  C597  1  0.13318000  0.02214000  0.75670000  1.0 0.1194879275
C  C598  1  0.09361000  0.01983000  0.74950000  1.0 -0.2279858301
C  C599  1  0.08106000  0.03226000  0.67340000  1.0 0.0013787106
C  C600  1  0.28547000  0.88703000  0.07700000  1.0 0.0796822357
C  C601  1  0.26136000  0.90986000  0.07880000  1.0 -0.1494559561
C  C602  1  0.24878000  0.92094000  0.00130000  1.0 0.0705517129
C  C603  1  0.25987000  0.90705000  0.92470000  1.0 -0.1494559561
C  C604  1  0.28370000  0.88414000  0.92750000  1.0 0.0705517129
C  C605  1  0.15307000  0.01635000  0.15770000  1.0 0.0796822357
C  C606  1  0.13872000  0.02634000  0.07910000  1.0 -0.2279858301
C  C607  1  0.14911000  0.01339000  0.99890000  1.0 0.1098461403
C  C608  1  0.13539000  0.02233000  0.91750000  1.0 -0.2229672183
C  C609  1  0.14858000  0.01120000  0.84030000  1.0 0.0796822357
C  C610  1  0.17427000  0.98993000  0.83970000  1.0 -0.2279858301
C  C611  1  0.18706000  0.97886000  0.91860000  1.0 0.2303730123
C  C612  1  0.22251000  0.94605000  0.00010000  1.0 0.34936088
C  C613  1  0.18749000  0.97991000  0.08030000  1.0 0.2204772889
C  C614  1  0.17669000  0.99281000  0.15830000  1.0 -0.2229672183
C  C615  1  0.17471000  0.99045000  0.99930000  1.0 -0.0863046247
C  C616  1  0.13438000  0.91162000  0.52270000  1.0 -0.160840346
C  C617  1  0.13348000  0.90552000  0.61320000  1.0 -0.0793445499
C  C618  1  0.10325000  0.91075000  0.66370000  1.0 0.1098461403
C  C619  1  0.07391000  0.92209000  0.62380000  1.0 -0.1817004316
C  C620  1  0.07480000  0.92820000  0.53330000  1.0 -0.0793445499
C  C621  1  0.91854000  0.87592000  0.31650000  1.0 0.1008499308
C  C622  1  0.93105000  0.86255000  0.24210000  1.0 -0.1889116071
C  C623  1  0.96850000  0.85900000  0.24050000  1.0 0.1298936378
C  C624  1  0.99144000  0.86844000  0.31730000  1.0 -0.1987762196
C  C625  1  0.97638000  0.88188000  0.38920000  1.0 0.0061264097
C  C626  1  0.94955000  0.85659000  0.61220000  1.0 0.0796822357
C  C627  1  0.96219000  0.84179000  0.68530000  1.0 -0.1817004316
C  C628  1  0.97786000  0.86682000  0.75670000  1.0 0.1194879275
C  C629  1  0.98017000  0.90639000  0.74950000  1.0 -0.2229672183
C  C630  1  0.96774000  0.91894000  0.67340000  1.0 0.0013787106
C  C631  1  0.11297000  0.71453000  0.07700000  1.0 0.0796822357
C  C632  1  0.09014000  0.73864000  0.07880000  1.0 -0.1494559561
C  C633  1  0.07906000  0.75122000  0.00130000  1.0 0.0705517129
C  C634  1  0.09295000  0.74013000  0.92470000  1.0 -0.1494559561
C  C635  1  0.11586000  0.71630000  0.92750000  1.0 0.0705517129
C  C636  1  0.98365000  0.84693000  0.15770000  1.0 0.0796822357
C  C637  1  0.97366000  0.86128000  0.07910000  1.0 -0.2229672183
C  C638  1  0.98661000  0.85089000  0.99890000  1.0 0.1098461403
C  C639  1  0.97767000  0.86461000  0.91750000  1.0 -0.2229672183
C  C640  1  0.98880000  0.85142000  0.84030000  1.0 0.0796822357
C  C641  1  0.01007000  0.82573000  0.83970000  1.0 -0.2279858301
C  C642  1  0.02114000  0.81294000  0.91860000  1.0 0.2303730123
C  C643  1  0.05395000  0.77749000  0.00010000  1.0 0.34936088
C  C644  1  0.02009000  0.81251000  0.08030000  1.0 0.2204772889
C  C645  1  0.00719000  0.82331000  0.15830000  1.0 -0.2229672183
C  C646  1  0.00955000  0.82529000  0.99930000  1.0 -0.0863046247
C  C647  1  0.08838000  0.86562000  0.52270000  1.0 -0.160840346
C  C648  1  0.09448000  0.86652000  0.61320000  1.0 -0.0793445499
C  C649  1  0.08925000  0.89675000  0.66370000  1.0 0.1098461403
C  C650  1  0.07791000  0.92609000  0.62380000  1.0 -0.1817004316
C  C651  1  0.07180000  0.92520000  0.53330000  1.0 -0.0793445499
C  C652  1  0.58146000  0.62408000  0.31650000  1.0 0.1008499308
C  C653  1  0.56895000  0.63745000  0.24210000  1.0 -0.1889116071
C  C654  1  0.53150000  0.64100000  0.24050000  1.0 0.1298936378
C  C655  1  0.50856000  0.63156000  0.31730000  1.0 -0.1987762196
C  C656  1  0.52362000  0.61812000  0.38920000  1.0 0.0061264097
C  C657  1  0.55045000  0.64341000  0.61220000  1.0 0.0796822357
C  C658  1  0.53781000  0.65821000  0.68530000  1.0 -0.1817004316
C  C659  1  0.52214000  0.63318000  0.75670000  1.0 0.1194879275
C  C660  1  0.51983000  0.59361000  0.74950000  1.0 -0.2229672183
C  C661  1  0.53226000  0.58106000  0.67340000  1.0 0.0013787106
C  C662  1  0.38703000  0.78547000  0.07700000  1.0 0.0796822357
C  C663  1  0.40986000  0.76136000  0.07880000  1.0 -0.1494559561
C  C664  1  0.42094000  0.74878000  0.00130000  1.0 0.0705517129
C  C665  1  0.40705000  0.75987000  0.92470000  1.0 -0.1494559561
C  C666  1  0.38414000  0.78370000  0.92750000  1.0 0.0705517129
C  C667  1  0.51635000  0.65307000  0.15770000  1.0 0.0796822357
C  C668  1  0.52634000  0.63872000  0.07910000  1.0 -0.2229672183
C  C669  1  0.51339000  0.64911000  0.99890000  1.0 0.1098461403
C  C670  1  0.52233000  0.63539000  0.91750000  1.0 -0.2229672183
C  C671  1  0.51120000  0.64858000  0.84030000  1.0 0.0796822357
C  C672  1  0.48993000  0.67427000  0.83970000  1.0 -0.2279858301
C  C673  1  0.47886000  0.68706000  0.91860000  1.0 0.2303730123
C  C674  1  0.44605000  0.72251000  0.00010000  1.0 0.34936088
C  C675  1  0.47991000  0.68749000  0.08030000  1.0 0.2204772889
C  C676  1  0.49281000  0.67669000  0.15830000  1.0 -0.2229672183
C  C677  1  0.49045000  0.67471000  0.99930000  1.0 -0.0863046247
C  C678  1  0.41162000  0.63438000  0.52270000  1.0 -0.160840346
C  C679  1  0.40552000  0.63348000  0.61320000  1.0 -0.0793445499
C  C680  1  0.41075000  0.60325000  0.66370000  1.0 0.1098461403
C  C681  1  0.42209000  0.57391000  0.62380000  1.0 -0.1817004316
C  C682  1  0.42820000  0.57480000  0.53330000  1.0 -0.0793445499
C  C683  1  0.62408000  0.58146000  0.68350000  1.0 0.1008499308
C  C684  1  0.63745000  0.56895000  0.75790000  1.0 -0.1889116071
C  C685  1  0.64100000  0.53150000  0.75950000  1.0 0.1298936378
C  C686  1  0.63156000  0.50856000  0.68270000  1.0 -0.1987762196
C  C687  1  0.61812000  0.52362000  0.61080000  1.0 0.0061264097
C  C688  1  0.64341000  0.55045000  0.38780000  1.0 0.0796822357
C  C689  1  0.65821000  0.53781000  0.31470000  1.0 -0.1817004316
C  C690  1  0.63318000  0.52214000  0.24330000  1.0 0.1194879275
C  C691  1  0.59361000  0.51983000  0.25050000  1.0 -0.2229672183
C  C692  1  0.58106000  0.53226000  0.32660000  1.0 0.0013787106
C  C693  1  0.78547000  0.38703000  0.92300000  1.0 0.0796822357
C  C694  1  0.76136000  0.40986000  0.92120000  1.0 -0.1494559561
C  C695  1  0.74878000  0.42094000  0.99870000  1.0 0.0705517129
C  C696  1  0.75987000  0.40705000  0.07530000  1.0 -0.1494559561
C  C697  1  0.78370000  0.38414000  0.07250000  1.0 0.0705517129
C  C698  1  0.65307000  0.51635000  0.84230000  1.0 0.0796822357
C  C699  1  0.63872000  0.52634000  0.92090000  1.0 -0.2229672183
C  C700  1  0.64911000  0.51339000  0.00110000  1.0 0.1098461403
C  C701  1  0.63539000  0.52233000  0.08250000  1.0 -0.2229672183
C  C702  1  0.64858000  0.51120000  0.15970000  1.0 0.0796822357
C  C703  1  0.67427000  0.48993000  0.16030000  1.0 -0.2279858301
C  C704  1  0.68706000  0.47886000  0.08140000  1.0 0.2303730123
C  C705  1  0.72251000  0.44605000  0.99990000  1.0 0.34936088
C  C706  1  0.68749000  0.47991000  0.91970000  1.0 0.2204772889
C  C707  1  0.67669000  0.49281000  0.84170000  1.0 -0.2229672183
C  C708  1  0.67471000  0.49045000  0.00070000  1.0 -0.0863046247
C  C709  1  0.63438000  0.41162000  0.47730000  1.0 -0.160840346
C  C710  1  0.63348000  0.40552000  0.38680000  1.0 -0.0793445499
C  C711  1  0.60325000  0.41075000  0.33630000  1.0 0.1098461403
C  C712  1  0.57391000  0.42209000  0.37620000  1.0 -0.1817004316
C  C713  1  0.57480000  0.42820000  0.46670000  1.0 -0.0793445499
C  C714  1  0.87592000  0.91854000  0.68350000  1.0 0.1008499308
C  C715  1  0.86255000  0.93105000  0.75790000  1.0 -0.1889116071
C  C716  1  0.85900000  0.96850000  0.75950000  1.0 0.1298936378
C  C717  1  0.86844000  0.99144000  0.68270000  1.0 -0.1987762196
C  C718  1  0.88188000  0.97638000  0.61080000  1.0 0.0061264097
C  C719  1  0.85659000  0.94955000  0.38780000  1.0 0.0796822357
C  C720  1  0.84179000  0.96219000  0.31470000  1.0 -0.1817004316
C  C721  1  0.86682000  0.97786000  0.24330000  1.0 0.1194879275
C  C722  1  0.90639000  0.98017000  0.25050000  1.0 -0.2229672183
C  C723  1  0.91894000  0.96774000  0.32660000  1.0 0.0013787106
C  C724  1  0.71453000  0.11297000  0.92300000  1.0 0.0796822357
C  C725  1  0.73864000  0.09014000  0.92120000  1.0 -0.1494559561
C  C726  1  0.75122000  0.07906000  0.99870000  1.0 0.0705517129
C  C727  1  0.74013000  0.09295000  0.07530000  1.0 -0.1494559561
C  C728  1  0.71630000  0.11586000  0.07250000  1.0 0.0705517129
C  C729  1  0.84693000  0.98365000  0.84230000  1.0 0.0796822357
C  C730  1  0.86128000  0.97366000  0.92090000  1.0 -0.2229672183
C  C731  1  0.85089000  0.98661000  0.00110000  1.0 0.1098461403
C  C732  1  0.86461000  0.97767000  0.08250000  1.0 -0.2229672183
C  C733  1  0.85142000  0.98880000  0.15970000  1.0 0.0796822357
C  C734  1  0.82573000  0.01007000  0.16030000  1.0 -0.2279858301
C  C735  1  0.81294000  0.02114000  0.08140000  1.0 0.2303730123
C  C736  1  0.77749000  0.05395000  0.99990000  1.0 0.34936088
C  C737  1  0.81251000  0.02009000  0.91970000  1.0 0.2204772889
C  C738  1  0.82331000  0.00719000  0.84170000  1.0 -0.2229672183
C  C739  1  0.82529000  0.00955000  0.00070000  1.0 -0.0863046247
C  C740  1  0.86562000  0.08838000  0.47730000  1.0 -0.160840346
C  C741  1  0.86652000  0.09448000  0.38680000  1.0 -0.0793445499
C  C742  1  0.89675000  0.08925000  0.33630000  1.0 0.1098461403
C  C743  1  0.92609000  0.07791000  0.37620000  1.0 -0.1817004316
C  C744  1  0.92520000  0.07180000  0.46670000  1.0 -0.0793445499
C  C745  1  0.97212000  0.02788000  0.75320000  1.0 0.0307945183
C  C746  1  0.95245000  0.04755000  0.80180000  1.0 -0.2107792183
C  C747  1  0.95384000  0.04616000  0.89170000  1.0 0.1098461403
C  C748  1  0.97489000  0.02511000  0.92690000  1.0 -0.1987762196
C  C749  1  0.99377000  0.00623000  0.87290000  1.0 0.0307945183
C  C750  1  0.80427000  0.19573000  0.81430000  1.0 0.0705517129
C  C751  1  0.82590000  0.17410000  0.84900000  1.0 -0.160840346
C  C752  1  0.82811000  0.17189000  0.93800000  1.0 0.061742333
C  C753  1  0.80883000  0.19117000  0.98710000  1.0 -0.1685571398
C  C754  1  0.78787000  0.21213000  0.94570000  1.0 0.0401219134
C  C755  1  0.90073000  0.09927000  0.23290000  1.0 0.0705517129
C  C756  1  0.91938000  0.08062000  0.18320000  1.0 -0.2482239636
C  C757  1  0.91701000  0.08299000  0.09350000  1.0 0.1008499308
C  C758  1  0.93586000  0.06414000  0.03600000  1.0 -0.1987762196
C  C759  1  0.93293000  0.06707000  0.94840000  1.0 0.0897588166
C  C760  1  0.91163000  0.08837000  0.91160000  1.0 -0.2107792183
C  C761  1  0.89215000  0.10785000  0.96390000  1.0 0.2204772889
C  C762  1  0.85162000  0.14838000  0.98170000  1.0 0.34936088
C  C763  1  0.87524000  0.12476000  0.10790000  1.0 0.238166789
C  C764  1  0.87866000  0.12134000  0.19890000  1.0 -0.2786131584
C  C765  1  0.89500000  0.10500000  0.05550000  1.0 -0.0704147088
C  C766  1  0.52788000  0.47212000  0.75320000  1.0 0.0307945183
C  C767  1  0.54755000  0.45245000  0.80180000  1.0 -0.2107792183
C  C768  1  0.54616000  0.45384000  0.89170000  1.0 0.1098461403
C  C769  1  0.52511000  0.47489000  0.92690000  1.0 -0.1987762196
C  C770  1  0.50623000  0.49377000  0.87290000  1.0 0.0307945183
C  C771  1  0.69573000  0.30427000  0.81430000  1.0 0.0705517129
C  C772  1  0.67410000  0.32590000  0.84900000  1.0 -0.160840346
C  C773  1  0.67189000  0.32811000  0.93800000  1.0 0.061742333
C  C774  1  0.69117000  0.30883000  0.98710000  1.0 -0.1685571398
C  C775  1  0.71213000  0.28787000  0.94570000  1.0 0.0401219134
C  C776  1  0.59927000  0.40073000  0.23290000  1.0 0.0705517129
C  C777  1  0.58062000  0.41938000  0.18320000  1.0 -0.2482239636
C  C778  1  0.58299000  0.41701000  0.09350000  1.0 0.1008499308
C  C779  1  0.56414000  0.43586000  0.03600000  1.0 -0.1987762196
C  C780  1  0.56707000  0.43293000  0.94840000  1.0 0.0897588166
C  C781  1  0.58837000  0.41163000  0.91160000  1.0 -0.2107792183
C  C782  1  0.60785000  0.39215000  0.96390000  1.0 0.2204772889
C  C783  1  0.64838000  0.35162000  0.98170000  1.0 0.34936088
C  C784  1  0.62476000  0.37524000  0.10790000  1.0 0.238166789
C  C785  1  0.62134000  0.37866000  0.19890000  1.0 -0.2786131584
C  C786  1  0.60500000  0.39500000  0.05550000  1.0 -0.0704147088
C  C787  1  0.47212000  0.52788000  0.24680000  1.0 0.0307945183
C  C788  1  0.45245000  0.54755000  0.19820000  1.0 -0.2107792183
C  C789  1  0.45384000  0.54616000  0.10830000  1.0 0.1098461403
C  C790  1  0.47489000  0.52511000  0.07310000  1.0 -0.1987762196
C  C791  1  0.49377000  0.50623000  0.12710000  1.0 0.0307945183
C  C792  1  0.30427000  0.69573000  0.18570000  1.0 0.0705517129
C  C793  1  0.32590000  0.67410000  0.15100000  1.0 -0.160840346
C  C794  1  0.32811000  0.67189000  0.06200000  1.0 0.061742333
C  C795  1  0.30883000  0.69117000  0.01290000  1.0 -0.1685571398
C  C796  1  0.28787000  0.71213000  0.05430000  1.0 0.0401219134
C  C797  1  0.40073000  0.59927000  0.76710000  1.0 0.0705517129
C  C798  1  0.41938000  0.58062000  0.81680000  1.0 -0.2482239636
C  C799  1  0.41701000  0.58299000  0.90650000  1.0 0.1008499308
C  C800  1  0.43586000  0.56414000  0.96400000  1.0 -0.1987762196
C  C801  1  0.43293000  0.56707000  0.05160000  1.0 0.0897588166
C  C802  1  0.41163000  0.58837000  0.08840000  1.0 -0.2107792183
C  C803  1  0.39215000  0.60785000  0.03610000  1.0 0.2204772889
C  C804  1  0.35162000  0.64838000  0.01830000  1.0 0.34936088
C  C805  1  0.37524000  0.62476000  0.89210000  1.0 0.238166789
C  C806  1  0.37866000  0.62134000  0.80110000  1.0 -0.2786131584
C  C807  1  0.39500000  0.60500000  0.94450000  1.0 -0.0704147088
C  C808  1  0.02788000  0.97212000  0.24680000  1.0 0.0307945183
C  C809  1  0.04755000  0.95245000  0.19820000  1.0 -0.2107792183
C  C810  1  0.04616000  0.95384000  0.10830000  1.0 0.1098461403
C  C811  1  0.02511000  0.97489000  0.07310000  1.0 -0.1987762196
C  C812  1  0.00623000  0.99377000  0.12710000  1.0 0.0307945183
C  C813  1  0.19573000  0.80427000  0.18570000  1.0 0.0705517129
C  C814  1  0.17410000  0.82590000  0.15100000  1.0 -0.160840346
C  C815  1  0.17189000  0.82811000  0.06200000  1.0 0.061742333
C  C816  1  0.19117000  0.80883000  0.01290000  1.0 -0.1685571398
C  C817  1  0.21213000  0.78787000  0.05430000  1.0 0.0401219134
C  C818  1  0.09927000  0.90073000  0.76710000  1.0 0.0705517129
C  C819  1  0.08062000  0.91938000  0.81680000  1.0 -0.2388789811
C  C820  1  0.08299000  0.91701000  0.90650000  1.0 0.1008499308
C  C821  1  0.06414000  0.93586000  0.96400000  1.0 -0.1987762196
C  C822  1  0.06707000  0.93293000  0.05160000  1.0 0.0897588166
C  C823  1  0.08837000  0.91163000  0.08840000  1.0 -0.2107792183
C  C824  1  0.10785000  0.89215000  0.03610000  1.0 0.2204772889
C  C825  1  0.14838000  0.85162000  0.01830000  1.0 0.34936088
C  C826  1  0.12476000  0.87524000  0.89210000  1.0 0.238166789
C  C827  1  0.12134000  0.87866000  0.80110000  1.0 -0.2786131584
C  C828  1  0.10500000  0.89500000  0.94450000  1.0 -0.0704147088
N  N1  1  0.29715000  0.37459000  0.99930000  1.0 -0.2786131584
N  N2  1  0.21180000  0.45628000  0.07360000  1.0 -0.3968983568
N  N3  1  0.21197000  0.45661000  0.91780000  1.0 -0.4520590432
N  N4  1  0.10600000  0.55000000  0.38720000  1.0 -0.1685571398
N  N5  1  0.11170000  0.55950000  0.60410000  1.0 -0.1889116071
N  N6  1  0.31170000  0.31250000  0.17510000  1.0 0.270752159
N  N7  1  0.21402000  0.28418000  0.14100000  1.0 -0.4074429848
N  N8  1  0.00893000  0.49467000  0.21370000  1.0 -0.0608036904
N  N9  1  0.10160000  0.42440000  0.49370000  1.0 0.1098461403
N  N10  1  0.12810000  0.37050000  0.07230000  1.0 0.0307945183
N  N11  1  0.14490000  0.35270000  0.93040000  1.0 -0.1183418029
N  N12  1  0.10690000  0.54910000  0.60100000  1.0 -0.0863046247
N  N13  1  0.11351000  0.55909000  0.38410000  1.0 -0.1292719129
N  N14  1  0.20285000  0.12541000  0.99930000  1.0 -0.2786131584
N  N15  1  0.28820000  0.04372000  0.07360000  1.0 -0.3968983568
N  N16  1  0.28803000  0.04339000  0.91780000  1.0 -0.4520590432
N  N17  1  0.39400000  0.95000000  0.38720000  1.0 -0.1685571398
N  N18  1  0.38830000  0.94050000  0.60410000  1.0 -0.1889116071
N  N19  1  0.18830000  0.18750000  0.17510000  1.0 0.270752159
N  N20  1  0.28598000  0.21582000  0.14100000  1.0 -0.4074429848
N  N21  1  0.49107000  0.00533000  0.21370000  1.0 -0.0608036904
N  N22  1  0.39840000  0.07560000  0.49370000  1.0 0.1098461403
N  N23  1  0.37190000  0.12950000  0.07230000  1.0 0.0307945183
N  N24  1  0.35510000  0.14730000  0.93040000  1.0 -0.1183418029
N  N25  1  0.39310000  0.95090000  0.60100000  1.0 -0.0863046247
N  N26  1  0.38649000  0.94091000  0.38410000  1.0 -0.1292719129
N  N27  1  0.12541000  0.20285000  0.00070000  1.0 -0.2786131584
N  N28  1  0.04372000  0.28820000  0.92640000  1.0 -0.3968983568
N  N29  1  0.04339000  0.28803000  0.08220000  1.0 -0.4520590432
N  N30  1  0.95000000  0.39400000  0.61280000  1.0 -0.160840346
N  N31  1  0.94050000  0.38830000  0.39590000  1.0 -0.1889116071
N  N32  1  0.18750000  0.18830000  0.82490000  1.0 0.270752159
N  N33  1  0.21582000  0.28598000  0.85900000  1.0 -0.4074429848
N  N34  1  0.00533000  0.49107000  0.78630000  1.0 -0.0608036904
N  N35  1  0.07560000  0.39840000  0.50630000  1.0 0.1098461403
N  N36  1  0.12950000  0.37190000  0.92770000  1.0 0.0401219134
N  N37  1  0.14730000  0.35510000  0.06960000  1.0 -0.1183418029
N  N38  1  0.95090000  0.39310000  0.39900000  1.0 -0.0863046247
N  N39  1  0.94091000  0.38649000  0.61590000  1.0 -0.1292719129
N  N40  1  0.37459000  0.29715000  0.00070000  1.0 -0.2786131584
N  N41  1  0.45628000  0.21180000  0.92640000  1.0 -0.3968983568
N  N42  1  0.45661000  0.21197000  0.08220000  1.0 -0.4520590432
N  N43  1  0.55000000  0.10600000  0.61280000  1.0 -0.1685571398
N  N44  1  0.55950000  0.11170000  0.39590000  1.0 -0.1889116071
N  N45  1  0.31250000  0.31170000  0.82490000  1.0 0.2773330621
N  N46  1  0.28418000  0.21402000  0.85900000  1.0 -0.4074429848
N  N47  1  0.49467000  0.00893000  0.78630000  1.0 -0.0608036904
N  N48  1  0.42440000  0.10160000  0.50630000  1.0 0.1098461403
N  N49  1  0.37050000  0.12810000  0.92770000  1.0 0.0307945183
N  N50  1  0.35270000  0.14490000  0.06960000  1.0 -0.1183418029
N  N51  1  0.54910000  0.10690000  0.39900000  1.0 -0.0863046247
N  N52  1  0.55909000  0.11351000  0.61590000  1.0 -0.1292719129
N  N53  1  0.70285000  0.62541000  0.00070000  1.0 -0.2786131584
N  N54  1  0.78820000  0.54372000  0.92640000  1.0 -0.3968983568
N  N55  1  0.78803000  0.54339000  0.08220000  1.0 -0.4520590432
N  N56  1  0.89400000  0.45000000  0.61280000  1.0 -0.1685571398
N  N57  1  0.88830000  0.44050000  0.39590000  1.0 -0.1889116071
N  N58  1  0.68830000  0.68750000  0.82490000  1.0 0.2773330621
N  N59  1  0.78598000  0.71582000  0.85900000  1.0 -0.4074429848
N  N60  1  0.99107000  0.50533000  0.78630000  1.0 -0.0608036904
N  N61  1  0.89840000  0.57560000  0.50630000  1.0 0.1098461403
N  N62  1  0.87190000  0.62950000  0.92770000  1.0 0.0401219134
N  N63  1  0.85510000  0.64730000  0.06960000  1.0 -0.1183418029
N  N64  1  0.89310000  0.45090000  0.39900000  1.0 -0.0863046247
N  N65  1  0.88649000  0.44091000  0.61590000  1.0 -0.1292719129
N  N66  1  0.79715000  0.87459000  0.00070000  1.0 -0.2786131584
N  N67  1  0.71180000  0.95628000  0.92640000  1.0 -0.3968983568
N  N68  1  0.71197000  0.95661000  0.08220000  1.0 -0.4520590432
N  N69  1  0.60600000  0.05000000  0.61280000  1.0 -0.1685571398
N  N70  1  0.61170000  0.05950000  0.39590000  1.0 -0.1889116071
N  N71  1  0.81170000  0.81250000  0.82490000  1.0 0.2773330621
N  N72  1  0.71402000  0.78418000  0.85900000  1.0 -0.4074429848
N  N73  1  0.50893000  0.99467000  0.78630000  1.0 -0.0608036904
N  N74  1  0.60160000  0.92440000  0.50630000  1.0 0.1194879275
N  N75  1  0.62810000  0.87050000  0.92770000  1.0 0.0401219134
N  N76  1  0.64490000  0.85270000  0.06960000  1.0 -0.1183418029
N  N77  1  0.60690000  0.04910000  0.39900000  1.0 -0.0863046247
N  N78  1  0.61351000  0.05909000  0.61590000  1.0 -0.1292719129
N  N79  1  0.87459000  0.79715000  0.99930000  1.0 -0.2786131584
N  N80  1  0.95628000  0.71180000  0.07360000  1.0 -0.3968983568
N  N81  1  0.95661000  0.71197000  0.91780000  1.0 -0.4520590432
N  N82  1  0.05000000  0.60600000  0.38720000  1.0 -0.1685571398
N  N83  1  0.05950000  0.61170000  0.60410000  1.0 -0.1889116071
N  N84  1  0.81250000  0.81170000  0.17510000  1.0 0.2773330621
N  N85  1  0.78418000  0.71402000  0.14100000  1.0 -0.4074429848
N  N86  1  0.99467000  0.50893000  0.21370000  1.0 -0.0608036904
N  N87  1  0.92440000  0.60160000  0.49370000  1.0 0.1098461403
N  N88  1  0.87050000  0.62810000  0.07230000  1.0 0.0307945183
N  N89  1  0.85270000  0.64490000  0.93040000  1.0 -0.1183418029
N  N90  1  0.04910000  0.60690000  0.60100000  1.0 -0.0863046247
N  N91  1  0.05909000  0.61351000  0.38410000  1.0 -0.1292719129
N  N92  1  0.62541000  0.70285000  0.99930000  1.0 -0.2786131584
N  N93  1  0.54372000  0.78820000  0.07360000  1.0 -0.3968983568
N  N94  1  0.54339000  0.78803000  0.91780000  1.0 -0.4520590432
N  N95  1  0.45000000  0.89400000  0.38720000  1.0 -0.1685571398
N  N96  1  0.44050000  0.88830000  0.60410000  1.0 -0.1889116071
N  N97  1  0.68750000  0.68830000  0.17510000  1.0 0.2773330621
N  N98  1  0.71582000  0.78598000  0.14100000  1.0 -0.4074429848
N  N99  1  0.50533000  0.99107000  0.21370000  1.0 -0.0608036904
N  N100  1  0.57560000  0.89840000  0.49370000  1.0 0.1098461403
N  N101  1  0.62950000  0.87190000  0.07230000  1.0 0.0401219134
N  N102  1  0.64730000  0.85510000  0.93040000  1.0 -0.1183418029
N  N103  1  0.45090000  0.89310000  0.60100000  1.0 -0.0863046247
N  N104  1  0.44091000  0.88649000  0.38410000  1.0 -0.1292719129
N  N105  1  0.40530000  0.40530000  0.00000000  1.0 0.5545143358
N  N106  1  0.09470000  0.09470000  0.00000000  1.0 0.5545143358
N  N107  1  0.59470000  0.59470000  0.00000000  1.0 0.5545143358
N  N108  1  0.90530000  0.90530000  0.00000000  1.0 0.5545143358
N  N109  1  0.25000000  0.25000000  0.44400000  1.0 0.1098461403
N  N110  1  0.25000000  0.25000000  0.55600000  1.0 0.1194879275
N  N111  1  0.75000000  0.75000000  0.55600000  1.0 0.1194879275
N  N112  1  0.75000000  0.75000000  0.44400000  1.0 0.1098461403
N  N113  1  0.00000000  0.50000000  0.50000000  1.0 0.4202469163
N  N114  1  0.50000000  0.00000000  0.50000000  1.0 0.4202469163
N  N115  1  0.06001000  0.11407000  0.61030000  1.0 -0.2482239636
N  N116  1  0.04828000  0.10504000  0.39490000  1.0 -0.302440656
N  N117  1  0.87463000  0.29705000  0.99650000  1.0 -0.2107792183
N  N118  1  0.95620000  0.21156000  0.07880000  1.0 -0.3825465139
N  N119  1  0.95686000  0.21168000  0.92080000  1.0 -0.3825465139
N  N120  1  0.92296000  0.10504000  0.51720000  1.0 0.1194879275
N  N121  1  0.43999000  0.38593000  0.61030000  1.0 -0.2482239636
N  N122  1  0.45172000  0.39496000  0.39490000  1.0 -0.302440656
N  N123  1  0.62537000  0.20295000  0.99650000  1.0 -0.2107792183
N  N124  1  0.54380000  0.28844000  0.07880000  1.0 -0.3825465139
N  N125  1  0.54314000  0.28832000  0.92080000  1.0 -0.3825465139
N  N126  1  0.57704000  0.39496000  0.51720000  1.0 0.1194879275
N  N127  1  0.38593000  0.43999000  0.38970000  1.0 -0.2482239636
N  N128  1  0.39496000  0.45172000  0.60510000  1.0 -0.302440656
N  N129  1  0.20295000  0.62537000  0.00350000  1.0 -0.2107792183
N  N130  1  0.28844000  0.54380000  0.92120000  1.0 -0.3825465139
N  N131  1  0.28832000  0.54314000  0.07920000  1.0 -0.3825465139
N  N132  1  0.39496000  0.57704000  0.48280000  1.0 0.1194879275
N  N133  1  0.11407000  0.06001000  0.38970000  1.0 -0.2482239636
N  N134  1  0.10504000  0.04828000  0.60510000  1.0 -0.302440656
N  N135  1  0.29705000  0.87463000  0.00350000  1.0 -0.2107792183
N  N136  1  0.21156000  0.95620000  0.92120000  1.0 -0.3825465139
N  N137  1  0.21168000  0.95686000  0.07920000  1.0 -0.3825465139
N  N138  1  0.10504000  0.92296000  0.48280000  1.0 0.1194879275
N  N139  1  0.93999000  0.88593000  0.38970000  1.0 -0.2482239636
N  N140  1  0.95172000  0.89496000  0.60510000  1.0 -0.302440656
N  N141  1  0.12537000  0.70295000  0.00350000  1.0 -0.2107792183
N  N142  1  0.04380000  0.78844000  0.92120000  1.0 -0.3825465139
N  N143  1  0.04314000  0.78832000  0.07920000  1.0 -0.3825465139
N  N144  1  0.07704000  0.89496000  0.48280000  1.0 0.1194879275
N  N145  1  0.56001000  0.61407000  0.38970000  1.0 -0.2482239636
N  N146  1  0.54828000  0.60504000  0.60510000  1.0 -0.302440656
N  N147  1  0.37463000  0.79705000  0.00350000  1.0 -0.2107792183
N  N148  1  0.45620000  0.71156000  0.92120000  1.0 -0.3825465139
N  N149  1  0.45686000  0.71168000  0.07920000  1.0 -0.3825465139
N  N150  1  0.42296000  0.60504000  0.48280000  1.0 0.1194879275
N  N151  1  0.61407000  0.56001000  0.61030000  1.0 -0.2482239636
N  N152  1  0.60504000  0.54828000  0.39490000  1.0 -0.302440656
N  N153  1  0.79705000  0.37463000  0.99650000  1.0 -0.2107792183
N  N154  1  0.71156000  0.45620000  0.07880000  1.0 -0.3825465139
N  N155  1  0.71168000  0.45686000  0.92080000  1.0 -0.3825465139
N  N156  1  0.60504000  0.42296000  0.51720000  1.0 0.1194879275
N  N157  1  0.88593000  0.93999000  0.61030000  1.0 -0.2482239636
N  N158  1  0.89496000  0.95172000  0.39490000  1.0 -0.302440656
N  N159  1  0.70295000  0.12537000  0.99650000  1.0 -0.2107792183
N  N160  1  0.78844000  0.04380000  0.07880000  1.0 -0.3825465139
N  N161  1  0.78832000  0.04314000  0.92080000  1.0 -0.3825465139
N  N162  1  0.89496000  0.07704000  0.51720000  1.0 0.1194879275
N  N163  1  0.82180000  0.32180000  0.81600000  1.0 0.3590425126
N  N164  1  0.90360000  0.40360000  0.03370000  1.0 0.270752159
N  N165  1  0.80350000  0.30350000  0.16070000  1.0 0.64980048
N  N166  1  0.67820000  0.17820000  0.81600000  1.0 0.3664480917
N  N167  1  0.59640000  0.09640000  0.03370000  1.0 0.270752159
N  N168  1  0.69650000  0.19650000  0.16070000  1.0 0.6447949283
N  N169  1  0.17820000  0.67820000  0.18400000  1.0 0.34936088
N  N170  1  0.09640000  0.59640000  0.96630000  1.0 0.270752159
N  N171  1  0.19650000  0.69650000  0.83930000  1.0 0.64980048
N  N172  1  0.32180000  0.82180000  0.18400000  1.0 0.34936088
N  N173  1  0.40360000  0.90360000  0.96630000  1.0 0.270752159
N  N174  1  0.30350000  0.80350000  0.83930000  1.0 0.64980048
N  N175  1  0.75000000  0.25000000  0.60950000  1.0 0.64980048
N  N176  1  0.25000000  0.75000000  0.39050000  1.0 0.64980048
N  N177  1  0.99273000  0.00727000  0.78410000  1.0 -0.2898025118
N  N178  1  0.78529000  0.21471000  0.85910000  1.0 -0.2388789811
N  N179  1  0.87027000  0.12973000  0.92800000  1.0 -0.3968983568
N  N180  1  0.85392000  0.14608000  0.07180000  1.0 -0.3858948774
N  N181  1  0.50727000  0.49273000  0.78410000  1.0 -0.2898025118
N  N182  1  0.71471000  0.28529000  0.85910000  1.0 -0.2388789811
N  N183  1  0.62973000  0.37027000  0.92800000  1.0 -0.3968983568
N  N184  1  0.64608000  0.35392000  0.07180000  1.0 -0.3858948774
N  N185  1  0.49273000  0.50727000  0.21590000  1.0 -0.2898025118
N  N186  1  0.28529000  0.71471000  0.14090000  1.0 -0.2388789811
N  N187  1  0.37027000  0.62973000  0.07200000  1.0 -0.3968983568
N  N188  1  0.35392000  0.64608000  0.92820000  1.0 -0.3858948774
N  N189  1  0.00727000  0.99273000  0.21590000  1.0 -0.2898025118
N  N190  1  0.21471000  0.78529000  0.14090000  1.0 -0.2388789811
N  N191  1  0.12973000  0.87027000  0.07200000  1.0 -0.3968983568
N  N192  1  0.14608000  0.85392000  0.92820000  1.0 -0.3858948774
N  N193  1  0.00000000  0.00000000  0.50000000  1.0 0.4202469163
N  N194  1  0.50000000  0.50000000  0.50000000  1.0 0.4202469163
O  O1  1  0.34290000  0.33870000  0.16980000  1.0 -0.2696026484
O  O2  1  0.30640000  0.30280000  0.24870000  1.0 -0.2596741558
O  O3  1  0.29728000  0.29592000  0.11210000  1.0 -0.3176865734
O  O4  1  0.23600000  0.27420000  0.34800000  1.0 -0.2786131584
O  O5  1  0.39232000  0.38828000  0.06310000  1.0 -0.2107792183
O  O6  1  0.23950000  0.23850000  0.39600000  1.0 0.2612370821
O  O7  1  0.03270000  0.50470000  0.50390000  1.0 0.0307945183
O  O8  1  0.15710000  0.16130000  0.16980000  1.0 -0.2696026484
O  O9  1  0.19360000  0.19720000  0.24870000  1.0 -0.2596741558
O  O10  1  0.20272000  0.20408000  0.11210000  1.0 -0.3176865734
O  O11  1  0.26400000  0.22580000  0.34800000  1.0 -0.2786131584
O  O12  1  0.10768000  0.11172000  0.06310000  1.0 -0.2107792183
O  O13  1  0.26050000  0.26150000  0.39600000  1.0 0.270752159
O  O14  1  0.46730000  0.99530000  0.50390000  1.0 0.0307945183
O  O15  1  0.16130000  0.15710000  0.83020000  1.0 -0.2696026484
O  O16  1  0.19720000  0.19360000  0.75130000  1.0 -0.2596741558
O  O17  1  0.20408000  0.20272000  0.88790000  1.0 -0.3176865734
O  O18  1  0.22580000  0.26400000  0.65200000  1.0 -0.2696026484
O  O19  1  0.11172000  0.10768000  0.93690000  1.0 -0.2107792183
O  O20  1  0.26150000  0.26050000  0.60400000  1.0 0.2612370821
O  O21  1  0.99530000  0.46730000  0.49610000  1.0 0.0401219134
O  O22  1  0.33870000  0.34290000  0.83020000  1.0 -0.2696026484
O  O23  1  0.30280000  0.30640000  0.75130000  1.0 -0.2596741558
O  O24  1  0.29592000  0.29728000  0.88790000  1.0 -0.3176865734
O  O25  1  0.27420000  0.23600000  0.65200000  1.0 -0.2696026484
O  O26  1  0.38828000  0.39232000  0.93690000  1.0 -0.2107792183
O  O27  1  0.23850000  0.23950000  0.60400000  1.0 0.2612370821
O  O28  1  0.50470000  0.03270000  0.49610000  1.0 0.0307945183
O  O29  1  0.65710000  0.66130000  0.83020000  1.0 -0.2696026484
O  O30  1  0.69360000  0.69720000  0.75130000  1.0 -0.2596741558
O  O31  1  0.70272000  0.70408000  0.88790000  1.0 -0.3176865734
O  O32  1  0.76400000  0.72580000  0.65200000  1.0 -0.2696026484
O  O33  1  0.60768000  0.61172000  0.93690000  1.0 -0.2107792183
O  O34  1  0.76050000  0.76150000  0.60400000  1.0 0.2612370821
O  O35  1  0.96730000  0.49530000  0.49610000  1.0 0.0307945183
O  O36  1  0.84290000  0.83870000  0.83020000  1.0 -0.2696026484
O  O37  1  0.80640000  0.80280000  0.75130000  1.0 -0.2596741558
O  O38  1  0.79728000  0.79592000  0.88790000  1.0 -0.3176865734
O  O39  1  0.73600000  0.77420000  0.65200000  1.0 -0.2696026484
O  O40  1  0.89232000  0.88828000  0.93690000  1.0 -0.2107792183
O  O41  1  0.73950000  0.73850000  0.60400000  1.0 0.2612370821
O  O42  1  0.53270000  0.00470000  0.49610000  1.0 0.0307945183
O  O43  1  0.83870000  0.84290000  0.16980000  1.0 -0.2696026484
O  O44  1  0.80280000  0.80640000  0.24870000  1.0 -0.2596741558
O  O45  1  0.79592000  0.79728000  0.11210000  1.0 -0.3176865734
O  O46  1  0.77420000  0.73600000  0.34800000  1.0 -0.2696026484
O  O47  1  0.88828000  0.89232000  0.06310000  1.0 -0.2107792183
O  O48  1  0.73850000  0.73950000  0.39600000  1.0 0.270752159
O  O49  1  0.00470000  0.53270000  0.50390000  1.0 0.0307945183
O  O50  1  0.66130000  0.65710000  0.16980000  1.0 -0.2696026484
O  O51  1  0.69720000  0.69360000  0.24870000  1.0 -0.2596741558
O  O52  1  0.70408000  0.70272000  0.11210000  1.0 -0.3176865734
O  O53  1  0.72580000  0.76400000  0.34800000  1.0 -0.2786131584
O  O54  1  0.61172000  0.60768000  0.06310000  1.0 -0.2107792183
O  O55  1  0.76150000  0.76050000  0.39600000  1.0 0.2612370821
O  O56  1  0.49530000  0.96730000  0.50390000  1.0 0.0307945183
O  O57  1  0.13990000  0.63990000  0.49730000  1.0 -0.3598712909
O  O58  1  0.97810000  0.47810000  0.54200000  1.0 0.1008499308
O  O59  1  0.36010000  0.86010000  0.49730000  1.0 -0.3598712909
O  O60  1  0.52190000  0.02190000  0.54200000  1.0 0.1008499308
O  O61  1  0.86010000  0.36010000  0.50270000  1.0 -0.3598712909
O  O62  1  0.02190000  0.52190000  0.45800000  1.0 0.1008499308
O  O63  1  0.63990000  0.13990000  0.50270000  1.0 -0.3598712909
O  O64  1  0.47810000  0.97810000  0.45800000  1.0 0.1008499308
O  O65  1  0.43220000  0.43220000  0.00000000  1.0 -0.1817004316
O  O66  1  0.06780000  0.06780000  0.00000000  1.0 -0.1817004316
O  O67  1  0.56780000  0.56780000  0.00000000  1.0 -0.1817004316
O  O68  1  0.93220000  0.93220000  0.00000000  1.0 -0.1817004316
O  O69  1  0.25000000  0.25000000  0.50000000  1.0 0.0796822357
O  O70  1  0.75000000  0.75000000  0.50000000  1.0 0.0796822357
O  O71  1  0.01589000  0.03671000  0.52600000  1.0 -0.1183418029
O  O72  1  0.48411000  0.46329000  0.52600000  1.0 -0.1183418029
O  O73  1  0.46329000  0.48411000  0.47400000  1.0 -0.1183418029
O  O74  1  0.03671000  0.01589000  0.47400000  1.0 -0.1183418029
O  O75  1  0.98411000  0.96329000  0.47400000  1.0 -0.1183418029
O  O76  1  0.51589000  0.53671000  0.47400000  1.0 -0.1183418029
O  O77  1  0.53671000  0.51589000  0.52600000  1.0 -0.1183418029
O  O78  1  0.96329000  0.98411000  0.52600000  1.0 -0.1183418029
O  O79  1  0.80300000  0.30300000  0.86910000  1.0 -0.2229672183
O  O80  1  0.80580000  0.30580000  0.75400000  1.0 -0.1889116071
O  O81  1  0.84930000  0.34930000  0.81400000  1.0 -0.2786131584
O  O82  1  0.93190000  0.43190000  0.05160000  1.0 -0.3176865734
O  O83  1  0.88370000  0.38370000  0.08850000  1.0 -0.2898025118
O  O84  1  0.89600000  0.39600000  0.95570000  1.0 -0.3430391826
O  O85  1  0.83100000  0.33100000  0.17260000  1.0 -0.3528051934
O  O86  1  0.78340000  0.28340000  0.22820000  1.0 -0.3598712909
O  O87  1  0.79170000  0.29170000  0.08930000  1.0 -0.3598712909
O  O88  1  0.69700000  0.19700000  0.86910000  1.0 -0.2229672183
O  O89  1  0.69420000  0.19420000  0.75400000  1.0 -0.1889116071
O  O90  1  0.65070000  0.15070000  0.81400000  1.0 -0.2786131584
O  O91  1  0.56810000  0.06810000  0.05160000  1.0 -0.3176865734
O  O92  1  0.61630000  0.11630000  0.08850000  1.0 -0.2898025118
O  O93  1  0.60400000  0.10400000  0.95570000  1.0 -0.3430391826
O  O94  1  0.66900000  0.16900000  0.17260000  1.0 -0.3528051934
O  O95  1  0.71660000  0.21660000  0.22820000  1.0 -0.3598712909
O  O96  1  0.70830000  0.20830000  0.08930000  1.0 -0.3598712909
O  O97  1  0.19700000  0.69700000  0.13090000  1.0 -0.2229672183
O  O98  1  0.19420000  0.69420000  0.24600000  1.0 -0.1889116071
O  O99  1  0.15070000  0.65070000  0.18600000  1.0 -0.2786131584
O  O100  1  0.06810000  0.56810000  0.94840000  1.0 -0.3176865734
O  O101  1  0.11630000  0.61630000  0.91150000  1.0 -0.2898025118
O  O102  1  0.10400000  0.60400000  0.04430000  1.0 -0.3430391826
O  O103  1  0.16900000  0.66900000  0.82740000  1.0 -0.3528051934
O  O104  1  0.21660000  0.71660000  0.77180000  1.0 -0.3598712909
O  O105  1  0.20830000  0.70830000  0.91070000  1.0 -0.3598712909
O  O106  1  0.30300000  0.80300000  0.13090000  1.0 -0.2229672183
O  O107  1  0.30580000  0.80580000  0.24600000  1.0 -0.1889116071
O  O108  1  0.34930000  0.84930000  0.18600000  1.0 -0.2786131584
O  O109  1  0.43190000  0.93190000  0.94840000  1.0 -0.3176865734
O  O110  1  0.38370000  0.88370000  0.91150000  1.0 -0.2898025118
O  O111  1  0.39600000  0.89600000  0.04430000  1.0 -0.3430391826
O  O112  1  0.33100000  0.83100000  0.82740000  1.0 -0.3528051934
O  O113  1  0.28340000  0.78340000  0.77180000  1.0 -0.3598712909
O  O114  1  0.29170000  0.79170000  0.91070000  1.0 -0.3598712909
O  O115  1  0.13940000  0.13940000  0.50000000  1.0 -0.4964888223
O  O116  1  0.36060000  0.36060000  0.50000000  1.0 -0.4964888223
O  O117  1  0.86060000  0.86060000  0.50000000  1.0 -0.4964888223
O  O118  1  0.63940000  0.63940000  0.50000000  1.0 -0.4932432004
O  O119  1  0.75000000  0.25000000  0.53330000  1.0 -0.2388789811
O  O120  1  0.25000000  0.75000000  0.46670000  1.0 -0.2279858301
O  O121  1  0.73117000  0.26883000  0.65310000  1.0 -0.4751519092
O  O122  1  0.01640000  0.98360000  0.46320000  1.0 0.1098461403
O  O123  1  0.76883000  0.23117000  0.65310000  1.0 -0.4722052343
O  O124  1  0.48360000  0.51640000  0.46320000  1.0 0.1194879275
O  O125  1  0.23117000  0.76883000  0.34690000  1.0 -0.4751519092
O  O126  1  0.51640000  0.48360000  0.53680000  1.0 0.1098461403
O  O127  1  0.26883000  0.73117000  0.34690000  1.0 -0.4751519092
O  O128  1  0.98360000  0.01640000  0.53680000  1.0 0.1098461403
