# DDEC6 charges by PACMAN v1.1 (https://github.com/mtap-research/PACMAN-charge/)
data_FEDNEK_ASR_pacman
_symmetry_space_group_name_H-M   'P 1'
_cell_length_a   17.94500000
_cell_length_b   17.94500000
_cell_length_c   15.21370000
_cell_angle_alpha   90.00000000
_cell_angle_beta   90.00000000
_cell_angle_gamma   110.08000000
_symmetry_Int_Tables_number   1
_chemical_formula_structural   Cd8H96C246N53O40
_chemical_formula_sum   'Cd8 H96 C246 N53 O40'
_cell_volume   4601.36201073
_cell_formula_units_Z   1
loop_
 _symmetry_equiv_pos_site_id
 _symmetry_equiv_pos_as_xyz
  1  'x, y, z'
loop_
 _atom_site_type_symbol
 _atom_site_label
 _atom_site_symmetry_multiplicity
 _atom_site_fract_x
 _atom_site_fract_y
 _atom_site_fract_z
 _atom_site_occupancy
 _atom_site_charge
Cd  Cd1  1  0.82416000  0.82416000  0.50000000  1.0 0.5713352761
Cd  Cd2  1  0.17584000  0.17584000  0.50000000  1.0 0.5713352761
Cd  Cd3  1  0.32810000  0.32810000  0.00000000  1.0 0.56494387
Cd  Cd4  1  0.35180000  0.35180000  0.00000000  1.0 0.523858746
Cd  Cd5  1  0.67190000  0.67190000  0.00000000  1.0 0.56494387
Cd  Cd6  1  0.64820000  0.64820000  0.00000000  1.0 0.523858746
Cd  Cd7  1  0.00000000  0.00000000  0.69810000  1.0 0.7226115367
Cd  Cd8  1  0.00000000  0.00000000  0.30190000  1.0 0.7226115367
H  H1  1  0.91060000  0.73960000  0.62950000  1.0 0.0808073751
H  H2  1  0.99230000  0.66450000  0.63080000  1.0 0.1382553188
H  H3  1  0.13270000  0.53230000  0.71230000  1.0 0.1382553188
H  H4  1  0.26070000  0.42070000  0.58050000  1.0 0.0966770536
H  H5  1  0.23380000  0.53660000  0.81410000  1.0 0.1382553188
H  H6  1  0.27890000  0.49050000  0.94020000  1.0 0.0732350997
H  H7  1  0.26090000  0.28630000  0.81350000  1.0 0.0732350997
H  H8  1  0.21580000  0.33240000  0.68750000  1.0 0.090551441
H  H9  1  0.35130000  0.48490000  0.69940000  1.0 0.1088043428
H  H10  1  0.18280000  0.38320000  0.93840000  1.0 0.0808073751
H  H11  1  0.13390000  0.42470000  0.81190000  1.0 0.1290967087
H  H12  1  0.40030000  0.44350000  0.82590000  1.0 0.0178384316
H  H13  1  0.08940000  0.26040000  0.62950000  1.0 0.0808073751
H  H14  1  0.00770000  0.33550000  0.63080000  1.0 0.1382553188
H  H15  1  0.86730000  0.46770000  0.71230000  1.0 0.1382553188
H  H16  1  0.73930000  0.57930000  0.58050000  1.0 0.0966770536
H  H17  1  0.76620000  0.46340000  0.81410000  1.0 0.1382553188
H  H18  1  0.72110000  0.50950000  0.94020000  1.0 0.0732350997
H  H19  1  0.73910000  0.71370000  0.81350000  1.0 0.0732350997
H  H20  1  0.78420000  0.66760000  0.68750000  1.0 0.090551441
H  H21  1  0.64870000  0.51510000  0.69940000  1.0 0.1088043428
H  H22  1  0.81720000  0.61680000  0.93840000  1.0 0.0808073751
H  H23  1  0.86610000  0.57530000  0.81190000  1.0 0.1290967087
H  H24  1  0.59970000  0.55650000  0.82590000  1.0 0.0178384316
H  H25  1  0.26040000  0.08940000  0.37050000  1.0 0.0808073751
H  H26  1  0.33550000  0.00770000  0.36920000  1.0 0.1382553188
H  H27  1  0.46770000  0.86730000  0.28770000  1.0 0.1382553188
H  H28  1  0.57930000  0.73930000  0.41950000  1.0 0.0966770536
H  H29  1  0.46340000  0.76620000  0.18590000  1.0 0.1382553188
H  H30  1  0.50950000  0.72110000  0.05980000  1.0 0.0732350997
H  H31  1  0.71370000  0.73910000  0.18650000  1.0 0.0732350997
H  H32  1  0.66760000  0.78420000  0.31250000  1.0 0.090551441
H  H33  1  0.51510000  0.64870000  0.30060000  1.0 0.1088043428
H  H34  1  0.61680000  0.81720000  0.06160000  1.0 0.0808073751
H  H35  1  0.57530000  0.86610000  0.18810000  1.0 0.1290967087
H  H36  1  0.55650000  0.59970000  0.17410000  1.0 0.0178384316
H  H37  1  0.73960000  0.91060000  0.37050000  1.0 0.0808073751
H  H38  1  0.66450000  0.99230000  0.36920000  1.0 0.1382553188
H  H39  1  0.53230000  0.13270000  0.28770000  1.0 0.1382553188
H  H40  1  0.42070000  0.26070000  0.41950000  1.0 0.0966770536
H  H41  1  0.53660000  0.23380000  0.18590000  1.0 0.1382553188
H  H42  1  0.49050000  0.27890000  0.05980000  1.0 0.0732350997
H  H43  1  0.28630000  0.26090000  0.18650000  1.0 0.0732350997
H  H44  1  0.33240000  0.21580000  0.31250000  1.0 0.090551441
H  H45  1  0.48490000  0.35130000  0.30060000  1.0 0.1088043428
H  H46  1  0.38320000  0.18280000  0.06160000  1.0 0.0808073751
H  H47  1  0.42470000  0.13390000  0.18810000  1.0 0.1290967087
H  H48  1  0.44350000  0.40030000  0.17410000  1.0 0.0178384316
H  H49  1  0.08940000  0.26040000  0.37050000  1.0 0.0808073751
H  H50  1  0.00770000  0.33550000  0.36920000  1.0 0.1382553188
H  H51  1  0.86730000  0.46770000  0.28770000  1.0 0.1382553188
H  H52  1  0.73930000  0.57930000  0.41950000  1.0 0.0966770536
H  H53  1  0.76620000  0.46340000  0.18590000  1.0 0.1382553188
H  H54  1  0.72110000  0.50950000  0.05980000  1.0 0.0732350997
H  H55  1  0.73910000  0.71370000  0.18650000  1.0 0.0732350997
H  H56  1  0.78420000  0.66760000  0.31250000  1.0 0.090551441
H  H57  1  0.64870000  0.51510000  0.30060000  1.0 0.1088043428
H  H58  1  0.81720000  0.61680000  0.06160000  1.0 0.0808073751
H  H59  1  0.86610000  0.57530000  0.18810000  1.0 0.1290967087
H  H60  1  0.59970000  0.55650000  0.17410000  1.0 0.0178384316
H  H61  1  0.91060000  0.73960000  0.37050000  1.0 0.0808073751
H  H62  1  0.99230000  0.66450000  0.36920000  1.0 0.1382553188
H  H63  1  0.13270000  0.53230000  0.28770000  1.0 0.1382553188
H  H64  1  0.26070000  0.42070000  0.41950000  1.0 0.0966770536
H  H65  1  0.23380000  0.53660000  0.18590000  1.0 0.1382553188
H  H66  1  0.27890000  0.49050000  0.05980000  1.0 0.0732350997
H  H67  1  0.26090000  0.28630000  0.18650000  1.0 0.0732350997
H  H68  1  0.21580000  0.33240000  0.31250000  1.0 0.090551441
H  H69  1  0.35130000  0.48490000  0.30060000  1.0 0.1088043428
H  H70  1  0.18280000  0.38320000  0.06160000  1.0 0.0808073751
H  H71  1  0.13390000  0.42470000  0.18810000  1.0 0.1290967087
H  H72  1  0.40030000  0.44350000  0.17410000  1.0 0.0178384316
H  H73  1  0.73960000  0.91060000  0.62950000  1.0 0.0808073751
H  H74  1  0.66450000  0.99230000  0.63080000  1.0 0.1382553188
H  H75  1  0.53230000  0.13270000  0.71230000  1.0 0.1382553188
H  H76  1  0.42070000  0.26070000  0.58050000  1.0 0.0966770536
H  H77  1  0.53660000  0.23380000  0.81410000  1.0 0.1382553188
H  H78  1  0.49050000  0.27890000  0.94020000  1.0 0.0732350997
H  H79  1  0.28630000  0.26090000  0.81350000  1.0 0.0732350997
H  H80  1  0.33240000  0.21580000  0.68750000  1.0 0.090551441
H  H81  1  0.48490000  0.35130000  0.69940000  1.0 0.1088043428
H  H82  1  0.38320000  0.18280000  0.93840000  1.0 0.0808073751
H  H83  1  0.42470000  0.13390000  0.81190000  1.0 0.1290967087
H  H84  1  0.44350000  0.40030000  0.82590000  1.0 0.0178384316
H  H85  1  0.26040000  0.08940000  0.62950000  1.0 0.0808073751
H  H86  1  0.33550000  0.00770000  0.63080000  1.0 0.1382553188
H  H87  1  0.46770000  0.86730000  0.71230000  1.0 0.1382553188
H  H88  1  0.57930000  0.73930000  0.58050000  1.0 0.0966770536
H  H89  1  0.46340000  0.76620000  0.81410000  1.0 0.1382553188
H  H90  1  0.50950000  0.72110000  0.94020000  1.0 0.0732350997
H  H91  1  0.71370000  0.73910000  0.81350000  1.0 0.0732350997
H  H92  1  0.66760000  0.78420000  0.68750000  1.0 0.090551441
H  H93  1  0.51510000  0.64870000  0.69940000  1.0 0.1088043428
H  H94  1  0.61680000  0.81720000  0.93840000  1.0 0.0808073751
H  H95  1  0.57530000  0.86610000  0.81190000  1.0 0.1290967087
H  H96  1  0.55650000  0.59970000  0.82590000  1.0 0.0178384316
C  C1  1  0.92850000  0.72530000  0.57540000  1.0 0.0096399347
C  C2  1  0.97640000  0.67980000  0.57620000  1.0 -0.1488452242
C  C3  1  0.12870000  0.54150000  0.58090000  1.0 0.1960303685
C  C4  1  0.15090000  0.51830000  0.65820000  1.0 -0.229717691
C  C5  1  0.20080000  0.47340000  0.65750000  1.0 0.090551441
C  C6  1  0.22700000  0.45140000  0.57950000  1.0 -0.2819022336
C  C7  1  0.22060000  0.43880000  0.73900000  1.0 0.090551441
C  C8  1  0.23940000  0.48580000  0.81400000  1.0 -0.0412547956
C  C9  1  0.26620000  0.45840000  0.88890000  1.0 0.0494826537
C  C10  1  0.25550000  0.33710000  0.81360000  1.0 -0.1488452242
C  C11  1  0.22870000  0.36450000  0.73880000  1.0 -0.1424196957
C  C12  1  0.23800000  0.45860000  0.74380000  1.0 0.090551441
C  C13  1  0.34620000  0.43960000  0.82310000  1.0 -0.1704958478
C  C14  1  0.31710000  0.46430000  0.74790000  1.0 -0.1203267151
C  C15  1  0.21710000  0.40390000  0.88990000  1.0 0.0393316849
C  C16  1  0.18790000  0.42850000  0.81480000  1.0 -0.0617077362
C  C17  1  0.07150000  0.27470000  0.57540000  1.0 0.0096399347
C  C18  1  0.02360000  0.32020000  0.57620000  1.0 -0.1488452242
C  C19  1  0.87130000  0.45850000  0.58090000  1.0 0.1960303685
C  C20  1  0.84910000  0.48170000  0.65820000  1.0 -0.229717691
C  C21  1  0.79920000  0.52660000  0.65750000  1.0 0.090551441
C  C22  1  0.77300000  0.54860000  0.57950000  1.0 -0.2819022336
C  C23  1  0.77940000  0.56120000  0.73900000  1.0 0.090551441
C  C24  1  0.76060000  0.51420000  0.81400000  1.0 -0.0412547956
C  C25  1  0.73380000  0.54160000  0.88890000  1.0 0.0494826537
C  C26  1  0.74450000  0.66290000  0.81360000  1.0 -0.1488452242
C  C27  1  0.77130000  0.63550000  0.73880000  1.0 -0.1424196957
C  C28  1  0.76200000  0.54140000  0.74380000  1.0 0.090551441
C  C29  1  0.65380000  0.56040000  0.82310000  1.0 -0.1704958478
C  C30  1  0.68290000  0.53570000  0.74790000  1.0 -0.1203267151
C  C31  1  0.78290000  0.59610000  0.88990000  1.0 0.0393316849
C  C32  1  0.81210000  0.57150000  0.81480000  1.0 -0.0617077362
C  C33  1  0.27470000  0.07150000  0.42460000  1.0 0.0096399347
C  C34  1  0.32020000  0.02360000  0.42380000  1.0 -0.1488452242
C  C35  1  0.45850000  0.87130000  0.41910000  1.0 0.1960303685
C  C36  1  0.48170000  0.84910000  0.34180000  1.0 -0.229717691
C  C37  1  0.52660000  0.79920000  0.34250000  1.0 0.090551441
C  C38  1  0.54860000  0.77300000  0.42050000  1.0 -0.2819022336
C  C39  1  0.56120000  0.77940000  0.26100000  1.0 0.090551441
C  C40  1  0.51420000  0.76060000  0.18600000  1.0 -0.0412547956
C  C41  1  0.54160000  0.73380000  0.11110000  1.0 0.0494826537
C  C42  1  0.66290000  0.74450000  0.18640000  1.0 -0.1488452242
C  C43  1  0.63550000  0.77130000  0.26120000  1.0 -0.1424196957
C  C44  1  0.54140000  0.76200000  0.25620000  1.0 0.090551441
C  C45  1  0.56040000  0.65380000  0.17690000  1.0 -0.1704958478
C  C46  1  0.53570000  0.68290000  0.25210000  1.0 -0.1203267151
C  C47  1  0.59610000  0.78290000  0.11010000  1.0 0.0393316849
C  C48  1  0.57150000  0.81210000  0.18520000  1.0 -0.0617077362
C  C49  1  0.72530000  0.92850000  0.42460000  1.0 0.0096399347
C  C50  1  0.67980000  0.97640000  0.42380000  1.0 -0.1488452242
C  C51  1  0.54150000  0.12870000  0.41910000  1.0 0.1960303685
C  C52  1  0.51830000  0.15090000  0.34180000  1.0 -0.229717691
C  C53  1  0.47340000  0.20080000  0.34250000  1.0 0.090551441
C  C54  1  0.45140000  0.22700000  0.42050000  1.0 -0.2819022336
C  C55  1  0.43880000  0.22060000  0.26100000  1.0 0.090551441
C  C56  1  0.48580000  0.23940000  0.18600000  1.0 -0.0412547956
C  C57  1  0.45840000  0.26620000  0.11110000  1.0 0.0494826537
C  C58  1  0.33710000  0.25550000  0.18640000  1.0 -0.1488452242
C  C59  1  0.36450000  0.22870000  0.26120000  1.0 -0.1424196957
C  C60  1  0.45860000  0.23800000  0.25620000  1.0 0.090551441
C  C61  1  0.43960000  0.34620000  0.17690000  1.0 -0.1704958478
C  C62  1  0.46430000  0.31710000  0.25210000  1.0 -0.1203267151
C  C63  1  0.40390000  0.21710000  0.11010000  1.0 0.0393316849
C  C64  1  0.42850000  0.18790000  0.18520000  1.0 -0.0617077362
C  C65  1  0.07150000  0.27470000  0.42460000  1.0 0.0096399347
C  C66  1  0.02360000  0.32020000  0.42380000  1.0 -0.1488452242
C  C67  1  0.87130000  0.45850000  0.41910000  1.0 0.1960303685
C  C68  1  0.84910000  0.48170000  0.34180000  1.0 -0.229717691
C  C69  1  0.79920000  0.52660000  0.34250000  1.0 0.090551441
C  C70  1  0.77300000  0.54860000  0.42050000  1.0 -0.2819022336
C  C71  1  0.77940000  0.56120000  0.26100000  1.0 0.090551441
C  C72  1  0.76060000  0.51420000  0.18600000  1.0 -0.0412547956
C  C73  1  0.73380000  0.54160000  0.11110000  1.0 0.0494826537
C  C74  1  0.74450000  0.66290000  0.18640000  1.0 -0.1488452242
C  C75  1  0.77130000  0.63550000  0.26120000  1.0 -0.1424196957
C  C76  1  0.76200000  0.54140000  0.25620000  1.0 0.090551441
C  C77  1  0.65380000  0.56040000  0.17690000  1.0 -0.1704958478
C  C78  1  0.68290000  0.53570000  0.25210000  1.0 -0.1203267151
C  C79  1  0.78290000  0.59610000  0.11010000  1.0 0.0393316849
C  C80  1  0.81210000  0.57150000  0.18520000  1.0 -0.0617077362
C  C81  1  0.92850000  0.72530000  0.42460000  1.0 0.0096399347
C  C82  1  0.97640000  0.67980000  0.42380000  1.0 -0.1488452242
C  C83  1  0.12870000  0.54150000  0.41910000  1.0 0.1960303685
C  C84  1  0.15090000  0.51830000  0.34180000  1.0 -0.229717691
C  C85  1  0.20080000  0.47340000  0.34250000  1.0 0.090551441
C  C86  1  0.22700000  0.45140000  0.42050000  1.0 -0.2819022336
C  C87  1  0.22060000  0.43880000  0.26100000  1.0 0.090551441
C  C88  1  0.23940000  0.48580000  0.18600000  1.0 -0.0412547956
C  C89  1  0.26620000  0.45840000  0.11110000  1.0 0.0494826537
C  C90  1  0.25550000  0.33710000  0.18640000  1.0 -0.1488452242
C  C91  1  0.22870000  0.36450000  0.26120000  1.0 -0.1424196957
C  C92  1  0.23800000  0.45860000  0.25620000  1.0 0.090551441
C  C93  1  0.34620000  0.43960000  0.17690000  1.0 -0.1704958478
C  C94  1  0.31710000  0.46430000  0.25210000  1.0 -0.1203267151
C  C95  1  0.21710000  0.40390000  0.11010000  1.0 0.0393316849
C  C96  1  0.18790000  0.42850000  0.18520000  1.0 -0.0617077362
C  C97  1  0.72530000  0.92850000  0.57540000  1.0 0.0096399347
C  C98  1  0.67980000  0.97640000  0.57620000  1.0 -0.1488452242
C  C99  1  0.54150000  0.12870000  0.58090000  1.0 0.1960303685
C  C100  1  0.51830000  0.15090000  0.65820000  1.0 -0.229717691
C  C101  1  0.47340000  0.20080000  0.65750000  1.0 0.090551441
C  C102  1  0.45140000  0.22700000  0.57950000  1.0 -0.2819022336
C  C103  1  0.43880000  0.22060000  0.73900000  1.0 0.090551441
C  C104  1  0.48580000  0.23940000  0.81400000  1.0 -0.0412547956
C  C105  1  0.45840000  0.26620000  0.88890000  1.0 0.0494826537
C  C106  1  0.33710000  0.25550000  0.81360000  1.0 -0.1488452242
C  C107  1  0.36450000  0.22870000  0.73880000  1.0 -0.1424196957
C  C108  1  0.45860000  0.23800000  0.74380000  1.0 0.090551441
C  C109  1  0.43960000  0.34620000  0.82310000  1.0 -0.1704958478
C  C110  1  0.46430000  0.31710000  0.74790000  1.0 -0.1203267151
C  C111  1  0.40390000  0.21710000  0.88990000  1.0 0.0393316849
C  C112  1  0.42850000  0.18790000  0.81480000  1.0 -0.0617077362
C  C113  1  0.27470000  0.07150000  0.57540000  1.0 0.0096399347
C  C114  1  0.32020000  0.02360000  0.57620000  1.0 -0.1488452242
C  C115  1  0.45850000  0.87130000  0.58090000  1.0 0.1960303685
C  C116  1  0.48170000  0.84910000  0.65820000  1.0 -0.229717691
C  C117  1  0.52660000  0.79920000  0.65750000  1.0 0.090551441
C  C118  1  0.54860000  0.77300000  0.57950000  1.0 -0.2819022336
C  C119  1  0.56120000  0.77940000  0.73900000  1.0 0.090551441
C  C120  1  0.51420000  0.76060000  0.81400000  1.0 -0.0412547956
C  C121  1  0.54160000  0.73380000  0.88890000  1.0 0.0494826537
C  C122  1  0.66290000  0.74450000  0.81360000  1.0 -0.1488452242
C  C123  1  0.63550000  0.77130000  0.73880000  1.0 -0.1424196957
C  C124  1  0.54140000  0.76200000  0.74380000  1.0 0.090551441
C  C125  1  0.56040000  0.65380000  0.82310000  1.0 -0.1704958478
C  C126  1  0.53570000  0.68290000  0.74790000  1.0 -0.1203267151
C  C127  1  0.59610000  0.78290000  0.88990000  1.0 0.0393316849
C  C128  1  0.57150000  0.81210000  0.81480000  1.0 -0.0617077362
C  C129  1  0.00140000  0.65660000  0.50000000  1.0 0.0732350997
C  C130  1  0.05600000  0.60800000  0.50000000  1.0 0.372390022
C  C131  1  0.20400000  0.47380000  0.50000000  1.0 0.061493182
C  C132  1  0.15320000  0.51940000  0.50000000  1.0 -0.0901681804
C  C133  1  0.99860000  0.34340000  0.50000000  1.0 0.0732350997
C  C134  1  0.94400000  0.39200000  0.50000000  1.0 0.372390022
C  C135  1  0.79600000  0.52620000  0.50000000  1.0 0.061493182
C  C136  1  0.84680000  0.48060000  0.50000000  1.0 -0.0901681804
C  C137  1  0.34340000  0.99860000  0.50000000  1.0 0.0732350997
C  C138  1  0.39200000  0.94400000  0.50000000  1.0 0.372390022
C  C139  1  0.52620000  0.79600000  0.50000000  1.0 0.061493182
C  C140  1  0.48060000  0.84680000  0.50000000  1.0 -0.0901681804
C  C141  1  0.65660000  0.00140000  0.50000000  1.0 0.0732350997
C  C142  1  0.60800000  0.05600000  0.50000000  1.0 0.372390022
C  C143  1  0.47380000  0.20400000  0.50000000  1.0 0.061493182
C  C144  1  0.51940000  0.15320000  0.50000000  1.0 -0.0901681804
C  C145  1  0.79920000  0.20080000  0.52100000  1.0 0.0966770536
C  C146  1  0.74750000  0.25250000  0.38600000  1.0 0.1290967087
C  C147  1  0.74300000  0.25700000  0.30300000  1.0 -0.1961603114
C  C148  1  0.69920000  0.30080000  0.26200000  1.0 0.0027776721
C  C149  1  0.66130000  0.33870000  0.31730000  1.0 -0.0995548466
C  C150  1  0.67190000  0.32810000  0.40980000  1.0 -0.0165318568
C  C151  1  0.63030000  0.36970000  0.45900000  1.0 0.0393316849
C  C152  1  0.63460000  0.36540000  0.55000000  1.0 0.030836409
C  C153  1  0.67900000  0.32100000  0.58500000  1.0 0.0027776721
C  C154  1  0.71320000  0.28680000  0.53400000  1.0 0.0178384316
C  C155  1  0.71290000  0.28710000  0.44900000  1.0 -0.0119108558
C  C156  1  0.69580000  0.30420000  0.17940000  1.0 0.061493182
C  C157  1  0.65320000  0.34680000  0.14300000  1.0 -0.2500677803
C  C158  1  0.64290000  0.35710000  0.05400000  1.0 -0.1915509724
C  C159  1  0.72350000  0.27650000  0.03300000  1.0 0.1290967087
C  C160  1  0.73260000  0.26740000  0.12300000  1.0 -0.1488452242
C  C161  1  0.84520000  0.15480000  0.55680000  1.0 0.0808073751
C  C162  1  0.85170000  0.14830000  0.64630000  1.0 -0.2550797263
C  C163  1  0.89220000  0.10780000  0.69170000  1.0 0.2131078518
C  C164  1  0.92410000  0.07590000  0.54710000  1.0 0.0966770536
C  C165  1  0.59240000  0.40760000  0.60290000  1.0 0.0494826537
C  C166  1  0.59420000  0.40580000  0.69320000  1.0 -0.1832679534
C  C167  1  0.55750000  0.44250000  0.74860000  1.0 -0.1488452242
C  C168  1  0.51260000  0.48740000  0.62230000  1.0 0.0966770536
C  C169  1  0.54950000  0.45050000  0.56500000  1.0 -0.1704958478
C  C170  1  0.20080000  0.79920000  0.52100000  1.0 0.0966770536
C  C171  1  0.25250000  0.74750000  0.38600000  1.0 0.1290967087
C  C172  1  0.25700000  0.74300000  0.30300000  1.0 -0.1961603114
C  C173  1  0.30080000  0.69920000  0.26200000  1.0 0.0027776721
C  C174  1  0.33870000  0.66130000  0.31730000  1.0 -0.0995548466
C  C175  1  0.32810000  0.67190000  0.40980000  1.0 -0.0165318568
C  C176  1  0.36970000  0.63030000  0.45900000  1.0 0.0393316849
C  C177  1  0.36540000  0.63460000  0.55000000  1.0 0.030836409
C  C178  1  0.32100000  0.67900000  0.58500000  1.0 0.0027776721
C  C179  1  0.28680000  0.71320000  0.53400000  1.0 0.0178384316
C  C180  1  0.28710000  0.71290000  0.44900000  1.0 -0.0119108558
C  C181  1  0.30420000  0.69580000  0.17940000  1.0 0.061493182
C  C182  1  0.34680000  0.65320000  0.14300000  1.0 -0.2500677803
C  C183  1  0.35710000  0.64290000  0.05400000  1.0 -0.1915509724
C  C184  1  0.27650000  0.72350000  0.03300000  1.0 0.1290967087
C  C185  1  0.26740000  0.73260000  0.12300000  1.0 -0.1488452242
C  C186  1  0.15480000  0.84520000  0.55680000  1.0 0.0808073751
C  C187  1  0.14830000  0.85170000  0.64630000  1.0 -0.2550797263
C  C188  1  0.10780000  0.89220000  0.69170000  1.0 0.2131078518
C  C189  1  0.07590000  0.92410000  0.54710000  1.0 0.0966770536
C  C190  1  0.40760000  0.59240000  0.60290000  1.0 0.0494826537
C  C191  1  0.40580000  0.59420000  0.69320000  1.0 -0.1832679534
C  C192  1  0.44250000  0.55750000  0.74860000  1.0 -0.1488452242
C  C193  1  0.48740000  0.51260000  0.62230000  1.0 0.0966770536
C  C194  1  0.45050000  0.54950000  0.56500000  1.0 -0.1704958478
C  C195  1  0.79920000  0.20080000  0.47900000  1.0 0.0966770536
C  C196  1  0.74750000  0.25250000  0.61400000  1.0 0.1290967087
C  C197  1  0.74300000  0.25700000  0.69700000  1.0 -0.1961603114
C  C198  1  0.69920000  0.30080000  0.73800000  1.0 0.0027776721
C  C199  1  0.66130000  0.33870000  0.68270000  1.0 -0.0995548466
C  C200  1  0.67190000  0.32810000  0.59020000  1.0 -0.0165318568
C  C201  1  0.63030000  0.36970000  0.54100000  1.0 0.0393316849
C  C202  1  0.63460000  0.36540000  0.45000000  1.0 0.030836409
C  C203  1  0.67900000  0.32100000  0.41500000  1.0 0.0027776721
C  C204  1  0.71320000  0.28680000  0.46600000  1.0 0.0178384316
C  C205  1  0.71290000  0.28710000  0.55100000  1.0 -0.0119108558
C  C206  1  0.69580000  0.30420000  0.82060000  1.0 0.061493182
C  C207  1  0.65320000  0.34680000  0.85700000  1.0 -0.2500677803
C  C208  1  0.64290000  0.35710000  0.94600000  1.0 -0.1915509724
C  C209  1  0.72350000  0.27650000  0.96700000  1.0 0.1290967087
C  C210  1  0.73260000  0.26740000  0.87700000  1.0 -0.1488452242
C  C211  1  0.84520000  0.15480000  0.44320000  1.0 0.0808073751
C  C212  1  0.85170000  0.14830000  0.35370000  1.0 -0.2550797263
C  C213  1  0.89220000  0.10780000  0.30830000  1.0 0.2131078518
C  C214  1  0.92410000  0.07590000  0.45290000  1.0 0.0966770536
C  C215  1  0.59240000  0.40760000  0.39710000  1.0 0.0494826537
C  C216  1  0.59420000  0.40580000  0.30680000  1.0 -0.1832679534
C  C217  1  0.55750000  0.44250000  0.25140000  1.0 -0.1488452242
C  C218  1  0.51260000  0.48740000  0.37770000  1.0 0.0966770536
C  C219  1  0.54950000  0.45050000  0.43500000  1.0 -0.1704958478
C  C220  1  0.20080000  0.79920000  0.47900000  1.0 0.0966770536
C  C221  1  0.25250000  0.74750000  0.61400000  1.0 0.1290967087
C  C222  1  0.25700000  0.74300000  0.69700000  1.0 -0.1961603114
C  C223  1  0.30080000  0.69920000  0.73800000  1.0 0.0027776721
C  C224  1  0.33870000  0.66130000  0.68270000  1.0 -0.0995548466
C  C225  1  0.32810000  0.67190000  0.59020000  1.0 -0.0165318568
C  C226  1  0.36970000  0.63030000  0.54100000  1.0 0.0393316849
C  C227  1  0.36540000  0.63460000  0.45000000  1.0 0.030836409
C  C228  1  0.32100000  0.67900000  0.41500000  1.0 0.0027776721
C  C229  1  0.28680000  0.71320000  0.46600000  1.0 0.0178384316
C  C230  1  0.28710000  0.71290000  0.55100000  1.0 -0.0119108558
C  C231  1  0.30420000  0.69580000  0.82060000  1.0 0.061493182
C  C232  1  0.34680000  0.65320000  0.85700000  1.0 -0.2500677803
C  C233  1  0.35710000  0.64290000  0.94600000  1.0 -0.1915509724
C  C234  1  0.27650000  0.72350000  0.96700000  1.0 0.1290967087
C  C235  1  0.26740000  0.73260000  0.87700000  1.0 -0.1488452242
C  C236  1  0.15480000  0.84520000  0.44320000  1.0 0.0808073751
C  C237  1  0.14830000  0.85170000  0.35370000  1.0 -0.2550797263
C  C238  1  0.10780000  0.89220000  0.30830000  1.0 0.2131078518
C  C239  1  0.07590000  0.92410000  0.45290000  1.0 0.0966770536
C  C240  1  0.40760000  0.59240000  0.39710000  1.0 0.0494826537
C  C241  1  0.40580000  0.59420000  0.30680000  1.0 -0.1832679534
C  C242  1  0.44250000  0.55750000  0.25140000  1.0 -0.1488452242
C  C243  1  0.48740000  0.51260000  0.37770000  1.0 0.0966770536
C  C244  1  0.45050000  0.54950000  0.43500000  1.0 -0.1704958478
C  C245  1  0.88280000  0.11720000  0.50000000  1.0 -0.0617077362
C  C246  1  0.11720000  0.88280000  0.50000000  1.0 -0.0617077362
N  N1  1  0.07800000  0.58740000  0.57860000  1.0 -0.4425640205
N  N2  1  0.27420000  0.38400000  0.88870000  1.0 -0.0119108558
N  N3  1  0.29610000  0.40950000  0.89410000  1.0 -0.0617077362
N  N4  1  0.92200000  0.41260000  0.57860000  1.0 -0.4425640205
N  N5  1  0.72580000  0.61600000  0.88870000  1.0 -0.0119108558
N  N6  1  0.70390000  0.59050000  0.89410000  1.0 -0.0617077362
N  N7  1  0.41260000  0.92200000  0.42140000  1.0 -0.4425640205
N  N8  1  0.61600000  0.72580000  0.11130000  1.0 -0.0119108558
N  N9  1  0.59050000  0.70390000  0.10590000  1.0 -0.0617077362
N  N10  1  0.58740000  0.07800000  0.42140000  1.0 -0.4425640205
N  N11  1  0.38400000  0.27420000  0.11130000  1.0 -0.0119108558
N  N12  1  0.40950000  0.29610000  0.10590000  1.0 -0.0617077362
N  N13  1  0.92200000  0.41260000  0.42140000  1.0 -0.4425640205
N  N14  1  0.72580000  0.61600000  0.11130000  1.0 -0.0119108558
N  N15  1  0.70390000  0.59050000  0.10590000  1.0 -0.0617077362
N  N16  1  0.07800000  0.58740000  0.42140000  1.0 -0.4425640205
N  N17  1  0.27420000  0.38400000  0.11130000  1.0 -0.0119108558
N  N18  1  0.29610000  0.40950000  0.10590000  1.0 -0.0617077362
N  N19  1  0.58740000  0.07800000  0.57860000  1.0 -0.4425640205
N  N20  1  0.38400000  0.27420000  0.88870000  1.0 -0.0119108558
N  N21  1  0.40950000  0.29610000  0.89410000  1.0 -0.0617077362
N  N22  1  0.41260000  0.92200000  0.57860000  1.0 -0.4425640205
N  N23  1  0.61600000  0.72580000  0.88870000  1.0 -0.0119108558
N  N24  1  0.59050000  0.70390000  0.89410000  1.0 -0.0617077362
N  N25  1  0.69400000  0.69400000  0.50000000  1.0 0.3967442712
N  N26  1  0.30600000  0.30600000  0.50000000  1.0 0.3967442712
N  N27  1  0.87400000  0.87400000  0.67300000  1.0 0.2278990846
N  N28  1  0.12600000  0.12600000  0.67300000  1.0 0.2248594663
N  N29  1  0.12600000  0.12600000  0.32700000  1.0 0.2278990846
N  N30  1  0.87400000  0.87400000  0.32700000  1.0 0.2278990846
N  N31  1  0.90670000  0.74950000  0.50000000  1.0 -0.3459161842
N  N32  1  0.09330000  0.25050000  0.50000000  1.0 -0.3459161842
N  N33  1  0.25050000  0.09330000  0.50000000  1.0 -0.3459161842
N  N34  1  0.74950000  0.90670000  0.50000000  1.0 -0.3459161842
N  N35  1  0.79450000  0.20550000  0.42830000  1.0 -0.0674667382
N  N36  1  0.76010000  0.23990000  0.57700000  1.0 0.030836409
N  N37  1  0.92960000  0.07040000  0.63770000  1.0 -0.3828432062
N  N38  1  0.51480000  0.48520000  0.71400000  1.0 0.0096399347
N  N39  1  0.20550000  0.79450000  0.42830000  1.0 -0.0617077362
N  N40  1  0.23990000  0.76010000  0.57700000  1.0 0.030836409
N  N41  1  0.07040000  0.92960000  0.63770000  1.0 -0.3828432062
N  N42  1  0.48520000  0.51480000  0.71400000  1.0 0.0096399347
N  N43  1  0.79450000  0.20550000  0.57170000  1.0 -0.0674667382
N  N44  1  0.76010000  0.23990000  0.42300000  1.0 0.0393316849
N  N45  1  0.92960000  0.07040000  0.36230000  1.0 -0.3828432062
N  N46  1  0.51480000  0.48520000  0.28600000  1.0 0.0096399347
N  N47  1  0.20550000  0.79450000  0.57170000  1.0 -0.0617077362
N  N48  1  0.23990000  0.76010000  0.42300000  1.0 0.030836409
N  N49  1  0.07040000  0.92960000  0.36230000  1.0 -0.3828432062
N  N50  1  0.48520000  0.51480000  0.28600000  1.0 0.0096399347
N  N51  1  0.67960000  0.32040000  0.00000000  1.0 0.0393316849
N  N52  1  0.32040000  0.67960000  0.00000000  1.0 0.0393316849
N  N53  1  0.50000000  0.50000000  0.00000000  1.0 0.3846194348
O  O1  1  0.56070000  0.50410000  0.03450000  1.0 -0.0119108558
O  O2  1  0.43930000  0.49590000  0.03450000  1.0 -0.0119108558
O  O3  1  0.49590000  0.43930000  0.96550000  1.0 -0.0119108558
O  O4  1  0.50410000  0.56070000  0.96550000  1.0 -0.0119108558
O  O5  1  0.43930000  0.49590000  0.96550000  1.0 -0.0119108558
O  O6  1  0.56070000  0.50410000  0.96550000  1.0 -0.0119108558
O  O7  1  0.50410000  0.56070000  0.03450000  1.0 -0.0119108558
O  O8  1  0.49590000  0.43930000  0.03450000  1.0 -0.0119108558
O  O9  1  0.63500000  0.63500000  0.50000000  1.0 -0.2229525843
O  O10  1  0.36500000  0.36500000  0.50000000  1.0 -0.2229525843
O  O11  1  0.72120000  0.72120000  0.42700000  1.0 -0.1424196957
O  O12  1  0.86900000  0.86900000  0.64700000  1.0 0.392650505
O  O13  1  0.91180000  0.91180000  0.60800000  1.0 -0.1961603114
O  O14  1  0.81300000  0.81300000  0.66100000  1.0 -0.2688475275
O  O15  1  0.89700000  0.89700000  0.75000000  1.0 -0.3135586181
O  O16  1  0.71000000  0.71000000  0.46700000  1.0 0.3028205833
O  O17  1  0.27880000  0.27880000  0.42700000  1.0 -0.1424196957
O  O18  1  0.13100000  0.13100000  0.64700000  1.0 0.392650505
O  O19  1  0.08820000  0.08820000  0.60800000  1.0 -0.1915509724
O  O20  1  0.18700000  0.18700000  0.66100000  1.0 -0.2688475275
O  O21  1  0.10300000  0.10300000  0.75000000  1.0 -0.3153621652
O  O22  1  0.29000000  0.29000000  0.46700000  1.0 0.3028205833
O  O23  1  0.27880000  0.27880000  0.57300000  1.0 -0.1424196957
O  O24  1  0.13100000  0.13100000  0.35300000  1.0 0.392650505
O  O25  1  0.08820000  0.08820000  0.39200000  1.0 -0.1915509724
O  O26  1  0.18700000  0.18700000  0.33900000  1.0 -0.2688475275
O  O27  1  0.10300000  0.10300000  0.25000000  1.0 -0.3153621652
O  O28  1  0.29000000  0.29000000  0.53300000  1.0 0.3028205833
O  O29  1  0.72120000  0.72120000  0.57300000  1.0 -0.1424196957
O  O30  1  0.86900000  0.86900000  0.35300000  1.0 0.392650505
O  O31  1  0.91180000  0.91180000  0.39200000  1.0 -0.1961603114
O  O32  1  0.81300000  0.81300000  0.33900000  1.0 -0.2688475275
O  O33  1  0.89700000  0.89700000  0.25000000  1.0 -0.3153621652
O  O34  1  0.71000000  0.71000000  0.53300000  1.0 0.3028205833
O  O35  1  0.21200000  0.21200000  0.00000000  1.0 -0.0995548466
O  O36  1  0.23800000  0.23800000  0.00000000  1.0 -0.2371616313
O  O37  1  0.55880000  0.55880000  0.00000000  1.0 0.090551441
O  O38  1  0.78800000  0.78800000  0.00000000  1.0 -0.0995548466
O  O39  1  0.76200000  0.76200000  0.00000000  1.0 -0.2371616313
O  O40  1  0.44120000  0.44120000  0.00000000  1.0 0.090551441
