# DDEC6 charges by PACMAN v1.1 (https://github.com/mtap-research/PACMAN-charge/)
data_FEDNIO_ASR_pacman
_symmetry_space_group_name_H-M   'P 1'
_cell_length_a   18.43380000
_cell_length_b   18.43380000
_cell_length_c   15.08900000
_cell_angle_alpha   79.04080000
_cell_angle_beta   100.95900000
_cell_angle_gamma   59.32710000
_symmetry_Int_Tables_number   1
_chemical_formula_structural   Cd3H60C78(N11O19)2
_chemical_formula_sum   'Cd6 H120 C156 N44 O76'
_cell_volume   4071.63569396
_cell_formula_units_Z   2
loop_
 _symmetry_equiv_pos_site_id
 _symmetry_equiv_pos_as_xyz
  1  'x, y, z'
loop_
 _atom_site_type_symbol
 _atom_site_label
 _atom_site_symmetry_multiplicity
 _atom_site_fract_x
 _atom_site_fract_y
 _atom_site_fract_z
 _atom_site_occupancy
 _atom_site_charge
Cd  Cd1  1  0.71873000  0.18287000  0.24398000  1.0 0.6547116299
Cd  Cd2  1  0.18287000  0.71873000  0.25602000  1.0 0.6555481215
Cd  Cd3  1  0.70644000  0.70644000  0.25000000  1.0 0.5169006248
Cd  Cd4  1  0.28127000  0.81713000  0.75602000  1.0 0.6555481215
Cd  Cd5  1  0.81713000  0.28127000  0.74398000  1.0 0.6547116299
Cd  Cd6  1  0.29356000  0.29356000  0.75000000  1.0 0.5098859329
H  H1  1  0.65860000  0.02920000  0.02040000  1.0 0.1092028246
H  H2  1  0.60990000  0.07410000  0.90650000  1.0 0.0904224664
H  H3  1  0.55330000  0.10590000  0.97610000  1.0 0.0818889473
H  H4  1  0.67910000  0.20290000  0.88780000  1.0 0.0818889473
H  H5  1  0.71790000  0.10010000  0.90110000  1.0 0.1186592229
H  H6  1  0.75240000  0.12600000  0.98760000  1.0 0.0700848006
H  H7  1  0.66320000  0.62160000  0.42290000  1.0 0.0904224664
H  H8  1  0.69600000  0.58720000  0.58890000  1.0 0.1186592229
H  H9  1  0.82620000  0.71000000  0.59270000  1.0 0.1403077055
H  H10  1  0.79340000  0.74440000  0.42660000  1.0 0.0818889473
H  H11  1  0.72280000  0.48000000  0.87640000  1.0 0.1092028246
H  H12  1  0.98270000  0.72750000  0.95370000  1.0 0.1403077055
H  H13  1  0.99870000  0.58470000  0.19810000  1.0 0.1092028246
H  H14  1  0.08380000  0.62200000  0.28130000  1.0 0.0904224664
H  H15  1  0.85590000  0.47110000  0.12710000  1.0 0.0904224664
H  H16  1  0.07780000  0.75460000  0.03620000  1.0 0.0637760495
H  H17  1  0.74520000  0.24020000  0.04800000  1.0 0.1047787104
H  H18  1  0.78280000  0.33060000  0.96690000  1.0 0.1092028246
H  H19  1  0.76280000  0.44760000  0.17100000  1.0 0.1186592229
H  H20  1  0.72530000  0.35730000  0.25210000  1.0 0.0904224664
H  H21  1  0.63530000  0.34130000  0.06240000  1.0 0.0904224664
H  H22  1  0.67700000  0.41200000  0.94830000  1.0 0.1279241465
H  H23  1  0.88410000  0.33630000  0.17630000  1.0 0.1279241465
H  H24  1  0.81170000  0.28470000  0.27060000  1.0 0.0700848006
H  H25  1  0.89210000  0.83230000  0.23540000  1.0 0.1092028246
H  H26  1  0.79690000  0.87830000  0.15450000  1.0 0.0904224664
H  H27  1  0.80220000  0.90600000  0.24860000  1.0 0.1092028246
H  H28  1  0.77740000  0.04520000  0.01890000  1.0 0.0818889473
H  H29  1  0.79190000  0.95030000  0.02900000  1.0 0.1186592229
H  H30  1  0.87450000  0.95930000  0.03530000  1.0 0.1186592229
H  H31  1  0.02920000  0.65860000  0.47960000  1.0 0.1092028246
H  H32  1  0.07410000  0.60990000  0.59350000  1.0 0.0904224664
H  H33  1  0.10590000  0.55330000  0.52390000  1.0 0.0818889473
H  H34  1  0.20290000  0.67910000  0.61220000  1.0 0.0818889473
H  H35  1  0.10010000  0.71790000  0.59890000  1.0 0.1186592229
H  H36  1  0.12600000  0.75240000  0.51240000  1.0 0.0700848006
H  H37  1  0.62160000  0.66320000  0.07710000  1.0 0.0904224664
H  H38  1  0.58720000  0.69600000  0.91110000  1.0 0.1186592229
H  H39  1  0.71000000  0.82620000  0.90730000  1.0 0.1403077055
H  H40  1  0.74440000  0.79340000  0.07340000  1.0 0.0818889473
H  H41  1  0.48000000  0.72280000  0.62360000  1.0 0.1092028246
H  H42  1  0.72750000  0.98270000  0.54630000  1.0 0.1403077055
H  H43  1  0.58470000  0.99870000  0.30190000  1.0 0.1092028246
H  H44  1  0.62200000  0.08380000  0.21870000  1.0 0.0904224664
H  H45  1  0.47110000  0.85590000  0.37290000  1.0 0.0904224664
H  H46  1  0.75460000  0.07780000  0.46380000  1.0 0.0637760495
H  H47  1  0.24020000  0.74520000  0.45200000  1.0 0.1047787104
H  H48  1  0.33060000  0.78280000  0.53310000  1.0 0.1092028246
H  H49  1  0.44760000  0.76280000  0.32900000  1.0 0.1186592229
H  H50  1  0.35730000  0.72530000  0.24790000  1.0 0.0904224664
H  H51  1  0.34130000  0.63530000  0.43760000  1.0 0.0904224664
H  H52  1  0.41200000  0.67700000  0.55170000  1.0 0.1279241465
H  H53  1  0.33630000  0.88410000  0.32370000  1.0 0.1279241465
H  H54  1  0.28470000  0.81170000  0.22940000  1.0 0.0700848006
H  H55  1  0.83230000  0.89210000  0.26460000  1.0 0.1092028246
H  H56  1  0.87830000  0.79690000  0.34550000  1.0 0.0904224664
H  H57  1  0.90600000  0.80220000  0.25140000  1.0 0.1092028246
H  H58  1  0.04520000  0.77740000  0.48110000  1.0 0.0818889473
H  H59  1  0.95030000  0.79190000  0.47100000  1.0 0.1186592229
H  H60  1  0.95930000  0.87450000  0.46470000  1.0 0.1186592229
H  H61  1  0.34140000  0.97080000  0.97960000  1.0 0.1092028246
H  H62  1  0.39010000  0.92590000  0.09350000  1.0 0.0904224664
H  H63  1  0.44670000  0.89410000  0.02390000  1.0 0.0818889473
H  H64  1  0.32090000  0.79710000  0.11220000  1.0 0.0818889473
H  H65  1  0.28210000  0.89990000  0.09890000  1.0 0.1186592229
H  H66  1  0.24760000  0.87400000  0.01240000  1.0 0.0700848006
H  H67  1  0.33680000  0.37840000  0.57710000  1.0 0.0904224664
H  H68  1  0.30400000  0.41280000  0.41110000  1.0 0.1186592229
H  H69  1  0.17380000  0.29000000  0.40730000  1.0 0.1403077055
H  H70  1  0.20660000  0.25560000  0.57340000  1.0 0.0818889473
H  H71  1  0.27720000  0.52000000  0.12360000  1.0 0.1092028246
H  H72  1  0.01730000  0.27250000  0.04630000  1.0 0.1403077055
H  H73  1  0.00130000  0.41530000  0.80190000  1.0 0.1092028246
H  H74  1  0.91620000  0.37800000  0.71870000  1.0 0.0904224664
H  H75  1  0.14410000  0.52890000  0.87290000  1.0 0.0904224664
H  H76  1  0.92220000  0.24540000  0.96380000  1.0 0.0637760495
H  H77  1  0.25480000  0.75980000  0.95200000  1.0 0.1047787104
H  H78  1  0.21720000  0.66940000  0.03310000  1.0 0.1092028246
H  H79  1  0.23720000  0.55240000  0.82900000  1.0 0.1186592229
H  H80  1  0.27470000  0.64270000  0.74790000  1.0 0.0904224664
H  H81  1  0.36470000  0.65870000  0.93760000  1.0 0.0904224664
H  H82  1  0.32300000  0.58800000  0.05170000  1.0 0.1279241465
H  H83  1  0.11590000  0.66370000  0.82370000  1.0 0.1279241465
H  H84  1  0.18830000  0.71530000  0.72940000  1.0 0.0700848006
H  H85  1  0.10790000  0.16770000  0.76460000  1.0 0.1092028246
H  H86  1  0.20310000  0.12170000  0.84550000  1.0 0.0904224664
H  H87  1  0.19780000  0.09400000  0.75140000  1.0 0.1092028246
H  H88  1  0.22260000  0.95480000  0.98110000  1.0 0.0818889473
H  H89  1  0.20810000  0.04970000  0.97100000  1.0 0.1186592229
H  H90  1  0.12550000  0.04070000  0.96470000  1.0 0.1186592229
H  H91  1  0.97080000  0.34140000  0.52040000  1.0 0.1092028246
H  H92  1  0.92590000  0.39010000  0.40650000  1.0 0.0904224664
H  H93  1  0.89410000  0.44670000  0.47610000  1.0 0.0818889473
H  H94  1  0.79710000  0.32090000  0.38780000  1.0 0.0818889473
H  H95  1  0.89990000  0.28210000  0.40110000  1.0 0.1186592229
H  H96  1  0.87400000  0.24760000  0.48760000  1.0 0.0700848006
H  H97  1  0.37840000  0.33680000  0.92290000  1.0 0.0904224664
H  H98  1  0.41280000  0.30400000  0.08890000  1.0 0.1186592229
H  H99  1  0.29000000  0.17380000  0.09270000  1.0 0.1403077055
H  H100  1  0.25560000  0.20660000  0.92660000  1.0 0.0818889473
H  H101  1  0.52000000  0.27720000  0.37640000  1.0 0.1092028246
H  H102  1  0.27250000  0.01730000  0.45370000  1.0 0.1403077055
H  H103  1  0.41530000  0.00130000  0.69810000  1.0 0.1092028246
H  H104  1  0.37800000  0.91620000  0.78130000  1.0 0.0904224664
H  H105  1  0.52890000  0.14410000  0.62710000  1.0 0.0904224664
H  H106  1  0.24540000  0.92220000  0.53620000  1.0 0.0637760495
H  H107  1  0.75980000  0.25480000  0.54800000  1.0 0.1047787104
H  H108  1  0.66940000  0.21720000  0.46690000  1.0 0.1092028246
H  H109  1  0.55240000  0.23720000  0.67100000  1.0 0.1186592229
H  H110  1  0.64270000  0.27470000  0.75210000  1.0 0.0904224664
H  H111  1  0.65870000  0.36470000  0.56240000  1.0 0.0904224664
H  H112  1  0.58800000  0.32300000  0.44830000  1.0 0.1279241465
H  H113  1  0.66370000  0.11590000  0.67630000  1.0 0.1279241465
H  H114  1  0.71530000  0.18830000  0.77060000  1.0 0.0700848006
H  H115  1  0.16770000  0.10790000  0.73540000  1.0 0.1092028246
H  H116  1  0.12170000  0.20310000  0.65450000  1.0 0.0904224664
H  H117  1  0.09400000  0.19780000  0.74860000  1.0 0.1092028246
H  H118  1  0.95480000  0.22260000  0.51890000  1.0 0.0818889473
H  H119  1  0.04970000  0.20810000  0.52900000  1.0 0.1186592229
H  H120  1  0.04070000  0.12550000  0.53530000  1.0 0.1186592229
C  C1  1  0.63100000  0.17500000  0.04900000  1.0 0.1279241465
C  C2  1  0.61120000  0.08520000  0.96800000  1.0 -0.3744582276
C  C3  1  0.70100000  0.14500000  0.93300000  1.0 -0.4271167557
C  C4  1  0.69630000  0.63950000  0.45730000  1.0 0.0190017714
C  C5  1  0.71580000  0.61900000  0.55600000  1.0 -0.1895387418
C  C6  1  0.76410000  0.64530000  0.60640000  1.0 0.1403077055
C  C7  1  0.79300000  0.69200000  0.55820000  1.0 -0.1610697771
C  C8  1  0.77360000  0.71240000  0.45950000  1.0 -0.01159851
C  C9  1  0.86470000  0.61790000  0.86180000  1.0 0.0486066543
C  C10  1  0.83930000  0.64210000  0.76220000  1.0 -0.0498394245
C  C11  1  0.79010000  0.61790000  0.71350000  1.0 0.0190017714
C  C12  1  0.78240000  0.54480000  0.85820000  1.0 0.0818889473
C  C13  1  0.75950000  0.57250000  0.75720000  1.0 -0.1726992403
C  C14  1  0.86330000  0.54130000  0.00940000  1.0 0.0700848006
C  C15  1  0.93470000  0.61970000  0.01170000  1.0 0.0190017714
C  C16  1  0.83540000  0.56840000  0.91040000  1.0 0.0190017714
C  C17  1  0.91230000  0.56690000  0.06060000  1.0 -0.1895387418
C  C18  1  0.79230000  0.46290000  0.00610000  1.0 0.0700848006
C  C19  1  0.76070000  0.49390000  0.90950000  1.0 -0.1776534086
C  C20  1  0.00650000  0.70170000  0.02180000  1.0 -0.1726992403
C  C21  1  0.98400000  0.64520000  0.06690000  1.0 0.1186592229
C  C22  1  0.01410000  0.62010000  0.16280000  1.0 -0.1726992403
C  C23  1  0.06530000  0.64230000  0.21320000  1.0 -0.0220407754
C  C24  1  0.83980000  0.48860000  0.05930000  1.0 -0.2379213552
C  C25  1  0.06040000  0.72080000  0.07050000  1.0 -0.0310703682
C  C26  1  0.74880000  0.28240000  0.07300000  1.0 0.0486066543
C  C27  1  0.77120000  0.33600000  0.02480000  1.0 -0.0785778913
C  C28  1  0.77640000  0.39760000  0.06130000  1.0 0.0486066543
C  C29  1  0.75930000  0.40550000  0.14600000  1.0 -0.0574049785
C  C30  1  0.73690000  0.35190000  0.19420000  1.0 -0.0373150933
C  C31  1  0.90900000  0.64600000  0.91270000  1.0 -0.0574049785
C  C32  1  0.69290000  0.33090000  0.07400000  1.0 0.0486066543
C  C33  1  0.70750000  0.38670000  0.01570000  1.0 -0.0498394245
C  C34  1  0.76740000  0.40500000  0.05750000  1.0 0.0486066543
C  C35  1  0.82880000  0.34320000  0.15110000  1.0 -0.0895006334
C  C36  1  0.80490000  0.29270000  0.20480000  1.0 0.0128694695
C  C37  1  0.80300000  0.03500000  0.17800000  1.0 0.1186592229
C  C38  1  0.83200000  0.88800000  0.20200000  1.0 -0.2094755064
C  C39  1  0.81980000  0.97980000  0.05100000  1.0 -0.3588376979
C  C40  1  0.17500000  0.63100000  0.45100000  1.0 0.1279241465
C  C41  1  0.08520000  0.61120000  0.53200000  1.0 -0.3744582276
C  C42  1  0.14500000  0.70100000  0.56700000  1.0 -0.4271167557
C  C43  1  0.63950000  0.69630000  0.04270000  1.0 0.0190017714
C  C44  1  0.61900000  0.71580000  0.94400000  1.0 -0.1895387418
C  C45  1  0.64530000  0.76410000  0.89360000  1.0 0.1403077055
C  C46  1  0.69200000  0.79300000  0.94180000  1.0 -0.1610697771
C  C47  1  0.71240000  0.77360000  0.04050000  1.0 -0.01159851
C  C48  1  0.61790000  0.86470000  0.63820000  1.0 0.0486066543
C  C49  1  0.64210000  0.83930000  0.73780000  1.0 -0.0498394245
C  C50  1  0.61790000  0.79010000  0.78650000  1.0 0.0190017714
C  C51  1  0.54480000  0.78240000  0.64180000  1.0 0.0818889473
C  C52  1  0.57250000  0.75950000  0.74280000  1.0 -0.1726992403
C  C53  1  0.54130000  0.86330000  0.49060000  1.0 0.0700848006
C  C54  1  0.61970000  0.93470000  0.48830000  1.0 0.0190017714
C  C55  1  0.56840000  0.83540000  0.58960000  1.0 0.0190017714
C  C56  1  0.56690000  0.91230000  0.43940000  1.0 -0.1895387418
C  C57  1  0.46290000  0.79230000  0.49390000  1.0 0.0700848006
C  C58  1  0.49390000  0.76070000  0.59050000  1.0 -0.1776534086
C  C59  1  0.70170000  0.00650000  0.47820000  1.0 -0.1726992403
C  C60  1  0.64520000  0.98400000  0.43310000  1.0 0.1186592229
C  C61  1  0.62010000  0.01410000  0.33720000  1.0 -0.1726992403
C  C62  1  0.64230000  0.06530000  0.28680000  1.0 -0.0220407754
C  C63  1  0.48860000  0.83980000  0.44070000  1.0 -0.2379213552
C  C64  1  0.72080000  0.06040000  0.42950000  1.0 -0.0310703682
C  C65  1  0.28240000  0.74880000  0.42700000  1.0 0.0486066543
C  C66  1  0.33600000  0.77120000  0.47520000  1.0 -0.0785778913
C  C67  1  0.39760000  0.77640000  0.43870000  1.0 0.0486066543
C  C68  1  0.40550000  0.75930000  0.35400000  1.0 -0.0574049785
C  C69  1  0.35190000  0.73690000  0.30580000  1.0 -0.0373150933
C  C70  1  0.64600000  0.90900000  0.58730000  1.0 -0.0574049785
C  C71  1  0.33090000  0.69290000  0.42600000  1.0 0.0486066543
C  C72  1  0.38670000  0.70750000  0.48430000  1.0 -0.0498394245
C  C73  1  0.40500000  0.76740000  0.44250000  1.0 0.0486066543
C  C74  1  0.34320000  0.82880000  0.34890000  1.0 -0.0895006334
C  C75  1  0.29270000  0.80490000  0.29520000  1.0 0.0128694695
C  C76  1  0.03500000  0.80300000  0.32200000  1.0 0.1186592229
C  C77  1  0.88800000  0.83200000  0.29800000  1.0 -0.2094755064
C  C78  1  0.97980000  0.81980000  0.44900000  1.0 -0.3588376979
C  C79  1  0.36900000  0.82500000  0.95100000  1.0 0.1279241465
C  C80  1  0.38880000  0.91480000  0.03200000  1.0 -0.3751539926
C  C81  1  0.29900000  0.85500000  0.06700000  1.0 -0.4271167557
C  C82  1  0.30370000  0.36050000  0.54270000  1.0 0.0190017714
C  C83  1  0.28420000  0.38100000  0.44400000  1.0 -0.1895387418
C  C84  1  0.23590000  0.35470000  0.39360000  1.0 0.1403077055
C  C85  1  0.20700000  0.30800000  0.44180000  1.0 -0.1610697771
C  C86  1  0.22640000  0.28760000  0.54050000  1.0 -0.01159851
C  C87  1  0.13530000  0.38210000  0.13820000  1.0 0.0486066543
C  C88  1  0.16070000  0.35790000  0.23780000  1.0 -0.0498394245
C  C89  1  0.20990000  0.38210000  0.28650000  1.0 0.0190017714
C  C90  1  0.21760000  0.45520000  0.14180000  1.0 0.0818889473
C  C91  1  0.24050000  0.42750000  0.24280000  1.0 -0.1726992403
C  C92  1  0.13670000  0.45870000  0.99060000  1.0 0.0700848006
C  C93  1  0.06530000  0.38030000  0.98830000  1.0 0.0190017714
C  C94  1  0.16460000  0.43160000  0.08960000  1.0 0.0190017714
C  C95  1  0.08770000  0.43310000  0.93940000  1.0 -0.1895387418
C  C96  1  0.20770000  0.53710000  0.99390000  1.0 0.0700848006
C  C97  1  0.23930000  0.50610000  0.09050000  1.0 -0.1776534086
C  C98  1  0.99350000  0.29830000  0.97820000  1.0 -0.1726992403
C  C99  1  0.01600000  0.35480000  0.93310000  1.0 0.1186592229
C  C100  1  0.98590000  0.37990000  0.83720000  1.0 -0.1726992403
C  C101  1  0.93470000  0.35770000  0.78680000  1.0 -0.0220407754
C  C102  1  0.16020000  0.51140000  0.94070000  1.0 -0.2379213552
C  C103  1  0.93960000  0.27920000  0.92950000  1.0 -0.0310703682
C  C104  1  0.25120000  0.71760000  0.92700000  1.0 0.0486066543
C  C105  1  0.22880000  0.66400000  0.97520000  1.0 -0.0785778913
C  C106  1  0.22360000  0.60240000  0.93870000  1.0 0.0486066543
C  C107  1  0.24070000  0.59450000  0.85400000  1.0 -0.0574049785
C  C108  1  0.26310000  0.64810000  0.80580000  1.0 -0.0373150933
C  C109  1  0.09100000  0.35400000  0.08730000  1.0 -0.0574049785
C  C110  1  0.30710000  0.66910000  0.92600000  1.0 0.0486066543
C  C111  1  0.29250000  0.61330000  0.98430000  1.0 -0.0498394245
C  C112  1  0.23260000  0.59500000  0.94250000  1.0 0.0486066543
C  C113  1  0.17120000  0.65680000  0.84890000  1.0 -0.0895006334
C  C114  1  0.19510000  0.70730000  0.79520000  1.0 0.0128694695
C  C115  1  0.19700000  0.96500000  0.82200000  1.0 0.1186592229
C  C116  1  0.16800000  0.11200000  0.79800000  1.0 -0.2094755064
C  C117  1  0.18020000  0.02020000  0.94900000  1.0 -0.3588376979
C  C118  1  0.82500000  0.36900000  0.54900000  1.0 0.1279241465
C  C119  1  0.91480000  0.38880000  0.46800000  1.0 -0.3744582276
C  C120  1  0.85500000  0.29900000  0.43300000  1.0 -0.4271167557
C  C121  1  0.36050000  0.30370000  0.95730000  1.0 0.0190017714
C  C122  1  0.38100000  0.28420000  0.05600000  1.0 -0.1895387418
C  C123  1  0.35470000  0.23590000  0.10640000  1.0 0.1403077055
C  C124  1  0.30800000  0.20700000  0.05820000  1.0 -0.1610697771
C  C125  1  0.28760000  0.22640000  0.95950000  1.0 -0.01159851
C  C126  1  0.38210000  0.13530000  0.36180000  1.0 0.0486066543
C  C127  1  0.35790000  0.16070000  0.26220000  1.0 -0.0498394245
C  C128  1  0.38210000  0.20990000  0.21350000  1.0 0.0190017714
C  C129  1  0.45520000  0.21760000  0.35820000  1.0 0.0818889473
C  C130  1  0.42750000  0.24050000  0.25720000  1.0 -0.1726992403
C  C131  1  0.45870000  0.13670000  0.50940000  1.0 0.0700848006
C  C132  1  0.38030000  0.06530000  0.51170000  1.0 0.0190017714
C  C133  1  0.43160000  0.16460000  0.41040000  1.0 0.0190017714
C  C134  1  0.43310000  0.08770000  0.56060000  1.0 -0.1895387418
C  C135  1  0.53710000  0.20770000  0.50610000  1.0 0.0700848006
C  C136  1  0.50610000  0.23930000  0.40950000  1.0 -0.1776534086
C  C137  1  0.29830000  0.99350000  0.52180000  1.0 -0.1726992403
C  C138  1  0.35480000  0.01600000  0.56690000  1.0 0.1186592229
C  C139  1  0.37990000  0.98590000  0.66280000  1.0 -0.1726992403
C  C140  1  0.35770000  0.93470000  0.71320000  1.0 -0.0220407754
C  C141  1  0.51140000  0.16020000  0.55930000  1.0 -0.2379213552
C  C142  1  0.27920000  0.93960000  0.57050000  1.0 -0.0310703682
C  C143  1  0.71760000  0.25120000  0.57300000  1.0 0.0486066543
C  C144  1  0.66400000  0.22880000  0.52480000  1.0 -0.0785778913
C  C145  1  0.60240000  0.22360000  0.56130000  1.0 0.0486066543
C  C146  1  0.59450000  0.24070000  0.64600000  1.0 -0.0574049785
C  C147  1  0.64810000  0.26310000  0.69420000  1.0 -0.0373150933
C  C148  1  0.35400000  0.09100000  0.41270000  1.0 -0.0574049785
C  C149  1  0.66910000  0.30710000  0.57400000  1.0 0.0486066543
C  C150  1  0.61330000  0.29250000  0.51570000  1.0 -0.0498394245
C  C151  1  0.59500000  0.23260000  0.55750000  1.0 0.0486066543
C  C152  1  0.65680000  0.17120000  0.65110000  1.0 -0.0895006334
C  C153  1  0.70730000  0.19510000  0.70480000  1.0 0.0128694695
C  C154  1  0.96500000  0.19700000  0.67800000  1.0 0.1186592229
C  C155  1  0.11200000  0.16800000  0.70200000  1.0 -0.2094755064
C  C156  1  0.02020000  0.18020000  0.55100000  1.0 -0.3588376979
N  N1  1  0.83530000  0.16390000  0.39730000  1.0 0.1186592229
N  N2  1  0.55390000  0.31790000  0.18800000  1.0 0.2409282547
N  N3  1  0.62940000  0.15340000  0.96800000  1.0 -0.0895006334
N  N4  1  0.57200000  0.88600000  0.20300000  1.0 0.3279328083
N  N5  1  0.72520000  0.68620000  0.40910000  1.0 -0.4824054356
N  N6  1  0.09000000  0.69200000  0.16860000  1.0 -0.4122724722
N  N7  1  0.73170000  0.29030000  0.15770000  1.0 -0.0310703682
N  N8  1  0.77080000  0.25580000  0.15400000  1.0 -0.0785778913
N  N9  1  0.86790000  0.09190000  0.36700000  1.0 0.2230424524
N  N10  1  0.84100000  0.95900000  0.15300000  1.0 -0.1776534086
N  N11  1  0.53290000  0.86490000  0.21200000  1.0 0.3776954372
N  N12  1  0.16390000  0.83530000  0.10270000  1.0 0.1186592229
N  N13  1  0.31790000  0.55390000  0.31200000  1.0 0.2409282547
N  N14  1  0.15340000  0.62940000  0.53200000  1.0 -0.0895006334
N  N15  1  0.88600000  0.57200000  0.29700000  1.0 0.3279328083
N  N16  1  0.68620000  0.72520000  0.09090000  1.0 -0.4824054356
N  N17  1  0.69200000  0.09000000  0.33140000  1.0 -0.4122724722
N  N18  1  0.29030000  0.73170000  0.34230000  1.0 -0.0310703682
N  N19  1  0.25580000  0.77080000  0.34600000  1.0 -0.0785778913
N  N20  1  0.09190000  0.86790000  0.13300000  1.0 0.2230424524
N  N21  1  0.95900000  0.84100000  0.34700000  1.0 -0.1776534086
N  N22  1  0.86490000  0.53290000  0.28800000  1.0 0.3776954372
N  N23  1  0.16470000  0.83610000  0.60270000  1.0 0.1186592229
N  N24  1  0.44610000  0.68210000  0.81200000  1.0 0.2409282547
N  N25  1  0.37060000  0.84660000  0.03200000  1.0 -0.0895006334
N  N26  1  0.42800000  0.11400000  0.79700000  1.0 0.3279328083
N  N27  1  0.27480000  0.31380000  0.59090000  1.0 -0.4824054356
N  N28  1  0.91000000  0.30800000  0.83140000  1.0 -0.4122724722
N  N29  1  0.26830000  0.70970000  0.84230000  1.0 -0.0310703682
N  N30  1  0.22920000  0.74420000  0.84600000  1.0 -0.0785778913
N  N31  1  0.13210000  0.90810000  0.63300000  1.0 0.2230424524
N  N32  1  0.15900000  0.04100000  0.84700000  1.0 -0.1776534086
N  N33  1  0.46710000  0.13510000  0.78800000  1.0 0.3776954372
N  N34  1  0.83610000  0.16470000  0.89730000  1.0 0.1186592229
N  N35  1  0.68210000  0.44610000  0.68800000  1.0 0.2409282547
N  N36  1  0.84660000  0.37060000  0.46800000  1.0 -0.0895006334
N  N37  1  0.11400000  0.42800000  0.70300000  1.0 0.3279328083
N  N38  1  0.31380000  0.27480000  0.90910000  1.0 -0.4824054356
N  N39  1  0.30800000  0.91000000  0.66860000  1.0 -0.4122724722
N  N40  1  0.70970000  0.26830000  0.65770000  1.0 -0.0310703682
N  N41  1  0.74420000  0.22920000  0.65400000  1.0 -0.0785778913
N  N42  1  0.90810000  0.13210000  0.86700000  1.0 0.2230424524
N  N43  1  0.04100000  0.15900000  0.65300000  1.0 -0.1776534086
N  N44  1  0.13510000  0.46710000  0.71200000  1.0 0.3776954372
O  O1  1  0.75280000  0.22920000  0.38100000  1.0 -0.2475062564
O  O2  1  0.85640000  0.12080000  0.33600000  1.0 0.2557001074
O  O3  1  0.89890000  0.14090000  0.47400000  1.0 -0.2475062564
O  O4  1  0.60910000  0.30390000  0.27300000  1.0 -0.4729807715
O  O5  1  0.57860000  0.26260000  0.13500000  1.0 -0.283282433
O  O6  1  0.46970000  0.39570000  0.14900000  1.0 -0.3428652625
O  O7  1  0.69600000  0.13600000  0.12500000  1.0 -0.0498394245
O  O8  1  0.55670000  0.82470000  0.22200000  1.0 0.230519395
O  O9  1  0.65410000  0.86410000  0.22300000  1.0 -0.1216670352
O  O10  1  0.50610000  0.97010000  0.16300000  1.0 -0.1411833207
O  O11  1  0.75480000  0.82080000  0.24100000  1.0 -0.1610697771
O  O12  1  0.81900000  0.16100000  0.39500000  1.0 0.2409282547
O  O13  1  0.85860000  0.07220000  0.28800000  1.0 -0.3130573075
O  O14  1  0.95060000  0.03860000  0.42900000  1.0 -0.2094755064
O  O15  1  0.54400000  0.30000000  0.16700000  1.0 0.3216980655
O  O16  1  0.74000000  0.11200000  0.12400000  1.0 -0.0498394245
O  O17  1  0.55080000  0.78480000  0.22800000  1.0 -0.1776534086
O  O18  1  0.60300000  0.86900000  0.21800000  1.0 0.2230424524
O  O19  1  0.45830000  0.94030000  0.20500000  1.0 -0.1726992403
O  O20  1  0.22920000  0.75280000  0.11900000  1.0 -0.2475062564
O  O21  1  0.12080000  0.85640000  0.16400000  1.0 0.2557001074
O  O22  1  0.14090000  0.89890000  0.02600000  1.0 -0.2475062564
O  O23  1  0.30390000  0.60910000  0.22700000  1.0 -0.4729807715
O  O24  1  0.26260000  0.57860000  0.36500000  1.0 -0.283282433
O  O25  1  0.39570000  0.46970000  0.35100000  1.0 -0.3428652625
O  O26  1  0.13600000  0.69600000  0.37500000  1.0 -0.0498394245
O  O27  1  0.82470000  0.55670000  0.27800000  1.0 0.230519395
O  O28  1  0.86410000  0.65410000  0.27700000  1.0 -0.1216670352
O  O29  1  0.97010000  0.50610000  0.33700000  1.0 -0.1411833207
O  O30  1  0.82080000  0.75480000  0.25900000  1.0 -0.1610697771
O  O31  1  0.16100000  0.81900000  0.10500000  1.0 0.2409282547
O  O32  1  0.07220000  0.85860000  0.21200000  1.0 -0.3130573075
O  O33  1  0.03860000  0.95060000  0.07100000  1.0 -0.2045204233
O  O34  1  0.30000000  0.54400000  0.33300000  1.0 0.3216980655
O  O35  1  0.11200000  0.74000000  0.37600000  1.0 -0.0498394245
O  O36  1  0.78480000  0.55080000  0.27200000  1.0 -0.1776534086
O  O37  1  0.86900000  0.60300000  0.28200000  1.0 0.2230424524
O  O38  1  0.94030000  0.45830000  0.29500000  1.0 -0.1726992403
O  O39  1  0.24720000  0.77080000  0.61900000  1.0 -0.2475062564
O  O40  1  0.14360000  0.87920000  0.66400000  1.0 0.2557001074
O  O41  1  0.10110000  0.85910000  0.52600000  1.0 -0.2475062564
O  O42  1  0.39090000  0.69610000  0.72700000  1.0 -0.4729807715
O  O43  1  0.42140000  0.73740000  0.86500000  1.0 -0.283282433
O  O44  1  0.53030000  0.60430000  0.85100000  1.0 -0.3428652625
O  O45  1  0.30400000  0.86400000  0.87500000  1.0 -0.0498394245
O  O46  1  0.44330000  0.17530000  0.77800000  1.0 0.230519395
O  O47  1  0.34590000  0.13590000  0.77700000  1.0 -0.1216670352
O  O48  1  0.49390000  0.02990000  0.83700000  1.0 -0.1411833207
O  O49  1  0.24520000  0.17920000  0.75900000  1.0 -0.1610697771
O  O50  1  0.18100000  0.83900000  0.60500000  1.0 0.2409282547
O  O51  1  0.14140000  0.92780000  0.71200000  1.0 -0.3130573075
O  O52  1  0.04940000  0.96140000  0.57100000  1.0 -0.2045204233
O  O53  1  0.45600000  0.70000000  0.83300000  1.0 0.3216980655
O  O54  1  0.26000000  0.88800000  0.87600000  1.0 -0.0498394245
O  O55  1  0.44920000  0.21520000  0.77200000  1.0 -0.1776534086
O  O56  1  0.39700000  0.13100000  0.78200000  1.0 0.2230424524
O  O57  1  0.54170000  0.05970000  0.79500000  1.0 -0.1726992403
O  O58  1  0.77080000  0.24720000  0.88100000  1.0 -0.2379213552
O  O59  1  0.87920000  0.14360000  0.83600000  1.0 0.2557001074
O  O60  1  0.85910000  0.10110000  0.97400000  1.0 -0.2475062564
O  O61  1  0.69610000  0.39090000  0.77300000  1.0 -0.4729807715
O  O62  1  0.73740000  0.42140000  0.63500000  1.0 -0.283282433
O  O63  1  0.60430000  0.53030000  0.64900000  1.0 -0.3428652625
O  O64  1  0.86400000  0.30400000  0.62500000  1.0 -0.0498394245
O  O65  1  0.17530000  0.44330000  0.72200000  1.0 0.230519395
O  O66  1  0.13590000  0.34590000  0.72300000  1.0 -0.1216670352
O  O67  1  0.02990000  0.49390000  0.66300000  1.0 -0.1411833207
O  O68  1  0.17920000  0.24520000  0.74100000  1.0 -0.1610697771
O  O69  1  0.83900000  0.18100000  0.89500000  1.0 0.2409282547
O  O70  1  0.92780000  0.14140000  0.78800000  1.0 -0.3130573075
O  O71  1  0.96140000  0.04940000  0.92900000  1.0 -0.2094755064
O  O72  1  0.70000000  0.45600000  0.66700000  1.0 0.3216980655
O  O73  1  0.88800000  0.26000000  0.62400000  1.0 -0.0498394245
O  O74  1  0.21520000  0.44920000  0.72800000  1.0 -0.1776534086
O  O75  1  0.13100000  0.39700000  0.71800000  1.0 0.2230424524
O  O76  1  0.05970000  0.54170000  0.70500000  1.0 -0.1726992403
