# DDEC6 charges by PACMAN v1.1 (https://github.com/mtap-research/PACMAN-charge/)
data_FEDQUE_ASR_pacman
_symmetry_space_group_name_H-M   'P 1'
_cell_length_a   32.18660000
_cell_length_b   32.18660000
_cell_length_c   32.18660000
_cell_angle_alpha   130.52800000
_cell_angle_beta   128.50200000
_cell_angle_gamma   74.19480000
_symmetry_Int_Tables_number   1
_chemical_formula_structural   Zr3H64C85O12
_chemical_formula_sum   'Zr12 H256 C340 O48'
_cell_volume   19338.68229586
_cell_formula_units_Z   4
loop_
 _symmetry_equiv_pos_site_id
 _symmetry_equiv_pos_as_xyz
  1  'x, y, z'
loop_
 _atom_site_type_symbol
 _atom_site_label
 _atom_site_symmetry_multiplicity
 _atom_site_fract_x
 _atom_site_fract_y
 _atom_site_fract_z
 _atom_site_occupancy
 _atom_site_charge
Zr  Zr1  1  0.47785000  0.79125000  0.67260000  1.0 2.3401188022
Zr  Zr2  1  0.38135000  0.69475000  0.67260000  1.0 2.3401188022
Zr  Zr3  1  0.40839000  0.65667000  0.56506000  1.0 2.3401188022
Zr  Zr4  1  0.33921000  0.76348000  0.60269000  1.0 2.4795409804
Zr  Zr5  1  0.45132000  0.82937000  0.78069000  1.0 2.4710284835
Zr  Zr6  1  0.51970000  0.72154000  0.74124000  1.0 2.4710284835
Zr  Zr7  1  0.52215000  0.19475000  0.31340000  1.0 2.3401188022
Zr  Zr8  1  0.61865000  0.29125000  0.31340000  1.0 2.3401188022
Zr  Zr9  1  0.59161000  0.15667000  0.24828000  1.0 2.3401188022
Zr  Zr10  1  0.66079000  0.26348000  0.42427000  1.0 2.4795409804
Zr  Zr11  1  0.54868000  0.32937000  0.37805000  1.0 2.4710284835
Zr  Zr12  1  0.48030000  0.22154000  0.20184000  1.0 2.4710284835
H  H1  1  0.69782000  0.76839000  0.84219000  1.0 0.119343185
H  H2  1  0.64832000  0.85088000  0.76972000  1.0 0.1276819816
H  H3  1  0.78748000  0.79908000  0.89662000  1.0 0.1276819816
H  H4  1  0.73798000  0.88157000  0.82415000  1.0 0.119343185
H  H5  1  0.83066000  0.83788000  0.83360000  1.0 0.1276819816
H  H6  1  0.94474000  0.95560000  0.07252000  1.0 0.1276819816
H  H7  1  0.80895000  0.93638000  0.99965000  1.0 0.119343185
H  H8  1  0.84875000  0.91096000  0.03551000  1.0 0.1276819816
H  H9  1  0.86747000  0.97188000  0.06899000  1.0 0.1276819816
H  H10  1  0.95808000  0.85443000  0.89323000  1.0 0.1386547651
H  H11  1  0.90049000  0.85300000  0.83743000  1.0 0.1386547651
H  H12  1  0.94279000  0.91025000  0.90572000  1.0 0.1276819816
H  H13  1  0.03225000  0.87085000  0.03128000  1.0 0.119343185
H  H14  1  0.00071000  0.01395000  0.06044000  1.0 0.119343185
H  H15  1  0.12482000  0.90733000  0.10423000  1.0 0.119343185
H  H16  1  0.09328000  0.05043000  0.13339000  1.0 0.1120037313
H  H17  1  0.28216000  0.03310000  0.22228000  1.0 0.119343185
H  H18  1  0.14333000  0.91590000  0.04749000  1.0 0.1120037313
H  H19  1  0.15725000  0.01894000  0.24831000  1.0 0.119343185
H  H20  1  0.27490000  0.95873000  0.22637000  1.0 0.119343185
H  H21  1  0.23070000  0.09313000  0.30969000  1.0 0.1120037313
H  H22  1  0.16695000  0.05701000  0.13272000  1.0 0.119343185
H  H23  1  0.31923000  0.99469000  0.16450000  1.0 0.119343185
H  H24  1  0.18040000  0.87749000  0.98971000  1.0 0.119343185
H  H25  1  0.19081000  0.00058000  0.32167000  1.0 0.1276819816
H  H26  1  0.30847000  0.94037000  0.29974000  1.0 0.1276819816
H  H27  1  0.25355000  0.18754000  0.36807000  1.0 0.119343185
H  H28  1  0.18982000  0.15143000  0.19111000  1.0 0.119343185
H  H29  1  0.28274000  0.98525000  0.05547000  1.0 0.119343185
H  H30  1  0.22622000  0.87950000  0.28916000  1.0 0.119343185
H  H31  1  0.19382000  0.25912000  0.35130000  1.0 0.1276819816
H  H32  1  0.31626000  0.80651000  0.95299000  1.0 0.1276819816
H  H33  1  0.27294000  0.84032000  0.04904000  1.0 0.119343185
H  H34  1  0.25166000  0.78889000  0.97311000  1.0 0.1276819816
H  H35  1  0.31388000  0.80720000  0.03420000  1.0 0.1276819816
H  H36  1  0.35076000  0.00444000  0.52572000  1.0 0.119343185
H  H37  1  0.31984000  0.07178000  0.50030000  1.0 0.1017884592
H  H38  1  0.37310000  0.05395000  0.50773000  1.0 0.0918266966
H  H39  1  0.32575000  0.05279000  0.44568000  1.0 0.0918266966
H  H40  1  0.31537000  0.32670000  0.36475000  1.0 0.119343185
H  H41  1  0.28189000  0.21048000  0.24775000  1.0 0.1386547651
H  H42  1  0.33860000  0.24528000  0.32064000  1.0 0.1386547651
H  H43  1  0.31006000  0.19095000  0.29159000  1.0 0.1386547651
H  H44  1  0.30322000  0.95681000  0.95197000  1.0 0.1386547651
H  H45  1  0.30495000  0.00507000  0.01676000  1.0 0.1276819816
H  H46  1  0.35846000  0.98569000  0.02617000  1.0 0.1276819816
H  H47  1  0.23765000  0.81666000  0.34513000  1.0 0.1017884592
H  H48  1  0.21608000  0.80744000  0.27998000  1.0 0.1120037313
H  H49  1  0.27417000  0.79863000  0.32160000  1.0 0.119343185
H  H50  1  0.21765000  0.36728000  0.45937000  1.0 0.1276819816
H  H51  1  0.21096000  0.40204000  0.43798000  1.0 0.119343185
H  H52  1  0.16576000  0.34921000  0.38735000  1.0 0.1276819816
H  H53  1  0.40283000  0.92253000  0.00115000  1.0 0.119343185
H  H54  1  0.27965000  0.78690000  0.84543000  1.0 0.119343185
H  H55  1  0.41176000  0.91451000  0.53461000  1.0 0.119343185
H  H56  1  0.25573000  0.88384000  0.45495000  1.0 0.119343185
H  H57  1  0.30363000  0.43489000  0.51896000  1.0 0.119343185
H  H58  1  0.27424000  0.39829000  0.35619000  1.0 0.1276819816
H  H59  1  0.43139000  0.88713000  0.93506000  1.0 0.119343185
H  H60  1  0.30821000  0.75151000  0.77934000  1.0 0.119343185
H  H61  1  0.43626000  0.88012000  0.59014000  1.0 0.1120037313
H  H62  1  0.28023000  0.84945000  0.51048000  1.0 0.1120037313
H  H63  1  0.33583000  0.52858000  0.58299000  1.0 0.1276819816
H  H64  1  0.30645000  0.49199000  0.42022000  1.0 0.1120037313
H  H65  1  0.57380000  0.64437000  0.84219000  1.0 0.119343185
H  H66  1  0.41884000  0.62140000  0.76972000  1.0 0.1276819816
H  H67  1  0.59754000  0.60914000  0.89662000  1.0 0.1276819816
H  H68  1  0.44258000  0.58617000  0.82415000  1.0 0.119343185
H  H69  1  0.49572000  0.50294000  0.83360000  1.0 0.1276819816
H  H70  1  0.61692000  0.62778000  0.07252000  1.0 0.1276819816
H  H71  1  0.56327000  0.69070000  0.99965000  1.0 0.119343185
H  H72  1  0.62455000  0.68676000  0.03551000  1.0 0.1276819816
H  H73  1  0.59711000  0.70152000  0.06899000  1.0 0.1276819816
H  H74  1  0.53880000  0.43515000  0.89323000  1.0 0.1386547651
H  H75  1  0.48443000  0.43694000  0.83743000  1.0 0.1386547651
H  H76  1  0.49547000  0.46293000  0.90572000  1.0 0.1276819816
H  H77  1  0.66043000  0.49903000  0.03128000  1.0 0.119343185
H  H78  1  0.54649000  0.55973000  0.06044000  1.0 0.119343185
H  H79  1  0.69690000  0.47941000  0.10423000  1.0 0.119343185
H  H80  1  0.58296000  0.54011000  0.13339000  1.0 0.1120037313
H  H81  1  0.68918000  0.44012000  0.22228000  1.0 0.119343185
H  H82  1  0.63159000  0.40416000  0.04749000  1.0 0.1120037313
H  H83  1  0.72937000  0.59106000  0.24831000  1.0 0.119343185
H  H84  1  0.76764000  0.45147000  0.22637000  1.0 0.119343185
H  H85  1  0.71656000  0.57899000  0.30969000  1.0 0.1120037313
H  H86  1  0.57571000  0.46577000  0.13272000  1.0 0.119343185
H  H87  1  0.66981000  0.34527000  0.16450000  1.0 0.119343185
H  H88  1  0.61222000  0.30931000  0.98971000  1.0 0.119343185
H  H89  1  0.82109000  0.63086000  0.32167000  1.0 0.1276819816
H  H90  1  0.85937000  0.49127000  0.29974000  1.0 0.1276819816
H  H91  1  0.68053000  0.61452000  0.36807000  1.0 0.119343185
H  H92  1  0.53968000  0.50129000  0.19111000  1.0 0.119343185
H  H93  1  0.57022000  0.27273000  0.05547000  1.0 0.119343185
H  H94  1  0.90966000  0.56294000  0.28916000  1.0 0.119343185
H  H95  1  0.59218000  0.65748000  0.35130000  1.0 0.1276819816
H  H96  1  0.64648000  0.13673000  0.95299000  1.0 0.1276819816
H  H97  1  0.70872000  0.27610000  0.04904000  1.0 0.1276819816
H  H98  1  0.68422000  0.22145000  0.97311000  1.0 0.1276819816
H  H99  1  0.72700000  0.22032000  0.03420000  1.0 0.1276819816
H  H100  1  0.02128000  0.67496000  0.52572000  1.0 0.119343185
H  H101  1  0.92852000  0.68046000  0.50030000  1.0 0.1017884592
H  H102  1  0.95378000  0.63463000  0.50773000  1.0 0.0918266966
H  H103  1  0.89289000  0.61993000  0.44568000  1.0 0.0918266966
H  H104  1  0.53805000  0.54938000  0.36475000  1.0 0.119343185
H  H105  1  0.53727000  0.46586000  0.24775000  1.0 0.1386547651
H  H106  1  0.57536000  0.48204000  0.32064000  1.0 0.1386547651
H  H107  1  0.60064000  0.48153000  0.29159000  1.0 0.1386547651
H  H108  1  0.49516000  0.14875000  0.95197000  1.0 0.1386547651
H  H109  1  0.51169000  0.21181000  0.01676000  1.0 0.1276819816
H  H110  1  0.54048000  0.16771000  0.02617000  1.0 0.1276819816
H  H111  1  0.02847000  0.60748000  0.34513000  1.0 0.1017884592
H  H112  1  0.97254000  0.56390000  0.27998000  1.0 0.1120037313
H  H113  1  0.02297000  0.54743000  0.32160000  1.0 0.119343185
H  H114  1  0.59209000  0.74172000  0.45937000  1.0 0.1276819816
H  H115  1  0.53594000  0.72702000  0.43798000  1.0 0.119343185
H  H116  1  0.53814000  0.72159000  0.38735000  1.0 0.1276819816
H  H117  1  0.57862000  0.09832000  0.00115000  1.0 0.119343185
H  H118  1  0.55853000  0.06578000  0.84543000  1.0 0.119343185
H  H119  1  0.12010000  0.62285000  0.53461000  1.0 0.119343185
H  H120  1  0.07111000  0.69922000  0.45495000  1.0 0.119343185
H  H121  1  0.58407000  0.71533000  0.51896000  1.0 0.119343185
H  H122  1  0.45790000  0.58195000  0.35619000  1.0 0.1276819816
H  H123  1  0.54793000  0.00367000  0.93506000  1.0 0.119343185
H  H124  1  0.52783000  0.97113000  0.77934000  1.0 0.119343185
H  H125  1  0.21002000  0.65388000  0.59014000  1.0 0.1120037313
H  H126  1  0.16103000  0.73025000  0.51048000  1.0 0.1120037313
H  H127  1  0.55441000  0.74716000  0.58299000  1.0 0.1276819816
H  H128  1  0.42823000  0.61377000  0.42022000  1.0 0.1120037313
H  H129  1  0.30218000  0.14437000  0.07057000  1.0 0.119343185
H  H130  1  0.35168000  0.12140000  0.20256000  1.0 0.1276819816
H  H131  1  0.21252000  0.10914000  0.01160000  1.0 0.1276819816
H  H132  1  0.26202000  0.08617000  0.14359000  1.0 0.119343185
H  H133  1  0.16934000  0.00294000  0.00722000  1.0 0.1276819816
H  H134  1  0.05526000  0.12778000  0.01086000  1.0 0.1276819816
H  H135  1  0.19105000  0.19070000  0.12743000  1.0 0.119343185
H  H136  1  0.15125000  0.18676000  0.06221000  1.0 0.1276819816
H  H137  1  0.13253000  0.20152000  0.10441000  1.0 0.1276819816
H  H138  1  0.04192000  0.93515000  0.89635000  1.0 0.1386547651
H  H139  1  0.09951000  0.93694000  0.95251000  1.0 0.1386547651
H  H140  1  0.05721000  0.96293000  0.96746000  1.0 0.1276819816
H  H141  1  0.96775000  0.99903000  0.83860000  1.0 0.119343185
H  H142  1  0.99929000  0.05973000  0.01324000  1.0 0.119343185
H  H143  1  0.87518000  0.97941000  0.78251000  1.0 0.119343185
H  H144  1  0.90672000  0.04011000  0.95715000  1.0 0.1120037313
H  H145  1  0.71784000  0.94012000  0.75094000  1.0 0.119343185
H  H146  1  0.85667000  0.90416000  0.77257000  1.0 0.1120037313
H  H147  1  0.84275000  0.09106000  0.86169000  1.0 0.119343185
H  H148  1  0.72510000  0.95147000  0.68383000  1.0 0.119343185
H  H149  1  0.76930000  0.07899000  0.86243000  1.0 0.1120037313
H  H150  1  0.83305000  0.96577000  0.89006000  1.0 0.119343185
H  H151  1  0.68077000  0.84527000  0.67546000  1.0 0.119343185
H  H152  1  0.81960000  0.80931000  0.69709000  1.0 0.119343185
H  H153  1  0.80919000  0.13086000  0.80977000  1.0 0.1276819816
H  H154  1  0.69153000  0.99127000  0.63190000  1.0 0.1276819816
H  H155  1  0.74645000  0.11452000  0.93399000  1.0 0.119343185
H  H156  1  0.81018000  0.00129000  0.96161000  1.0 0.119343185
H  H157  1  0.71726000  0.77273000  0.70251000  1.0 0.119343185
H  H158  1  0.77378000  0.06294000  0.65328000  1.0 0.119343185
H  H159  1  0.80618000  0.15748000  0.06530000  1.0 0.1276819816
H  H160  1  0.68374000  0.63673000  0.49025000  1.0 0.1276819816
H  H161  1  0.72706000  0.77610000  0.56738000  1.0 0.119343185
H  H162  1  0.74834000  0.72145000  0.53723000  1.0 0.1276819816
H  H163  1  0.68612000  0.72032000  0.49332000  1.0 0.1276819816
H  H164  1  0.64924000  0.17496000  0.65368000  1.0 0.119343185
H  H165  1  0.68016000  0.18046000  0.75194000  1.0 0.1017884592
H  H166  1  0.62690000  0.13463000  0.68085000  1.0 0.0918266966
H  H167  1  0.67425000  0.11993000  0.72704000  1.0 0.0918266966
H  H168  1  0.68463000  0.04938000  0.01133000  1.0 0.119343185
H  H169  1  0.71811000  0.96586000  0.92859000  1.0 0.1386547651
H  H170  1  0.66140000  0.98204000  0.90668000  1.0 0.1386547651
H  H171  1  0.68994000  0.98153000  0.88089000  1.0 0.1386547651
H  H172  1  0.69678000  0.64875000  0.65359000  1.0 0.1386547651
H  H173  1  0.69505000  0.71181000  0.70012000  1.0 0.1276819816
H  H174  1  0.64154000  0.66771000  0.62723000  1.0 0.1276819816
H  H175  1  0.76235000  0.10748000  0.57901000  1.0 0.1017884592
H  H176  1  0.78392000  0.06390000  0.59136000  1.0 0.1120037313
H  H177  1  0.72583000  0.04743000  0.52446000  1.0 0.119343185
H  H178  1  0.78235000  0.24172000  0.14963000  1.0 0.1276819816
H  H179  1  0.78904000  0.22702000  0.19108000  1.0 0.119343185
H  H180  1  0.83424000  0.22159000  0.18345000  1.0 0.1276819816
H  H181  1  0.59716000  0.59832000  0.51969000  1.0 0.119343185
H  H182  1  0.72035000  0.56578000  0.50725000  1.0 0.119343185
H  H183  1  0.58824000  0.12285000  0.50275000  1.0 0.119343185
H  H184  1  0.74427000  0.19922000  0.62811000  1.0 0.119343185
H  H185  1  0.69637000  0.21533000  0.13126000  1.0 0.119343185
H  H186  1  0.72576000  0.08195000  0.12405000  1.0 0.1276819816
H  H187  1  0.56861000  0.50367000  0.45574000  1.0 0.119343185
H  H188  1  0.69179000  0.47113000  0.44330000  1.0 0.119343185
H  H189  1  0.56374000  0.15388000  0.44386000  1.0 0.119343185
H  H190  1  0.71977000  0.23025000  0.56922000  1.0 0.1120037313
H  H191  1  0.66417000  0.24716000  0.19275000  1.0 0.1276819816
H  H192  1  0.69355000  0.11377000  0.18554000  1.0 0.1120037313
H  H193  1  0.42620000  0.26839000  0.07057000  1.0 0.119343185
H  H194  1  0.58116000  0.35088000  0.20256000  1.0 0.1276819816
H  H195  1  0.40246000  0.29908000  0.01160000  1.0 0.1276819816
H  H196  1  0.55742000  0.38157000  0.14359000  1.0 0.119343185
H  H197  1  0.50428000  0.33788000  0.00722000  1.0 0.1276819816
H  H198  1  0.38308000  0.45560000  0.01086000  1.0 0.1276819816
H  H199  1  0.43673000  0.43638000  0.12743000  1.0 0.119343185
H  H200  1  0.37545000  0.41096000  0.06221000  1.0 0.1276819816
H  H201  1  0.40289000  0.47188000  0.10441000  1.0 0.1276819816
H  H202  1  0.46120000  0.35443000  0.89635000  1.0 0.1386547651
H  H203  1  0.51557000  0.35300000  0.95251000  1.0 0.1386547651
H  H204  1  0.50453000  0.41025000  0.96746000  1.0 0.1276819816
H  H205  1  0.33957000  0.37085000  0.83860000  1.0 0.119343185
H  H206  1  0.45351000  0.51395000  0.01324000  1.0 0.119343185
H  H207  1  0.30310000  0.40733000  0.78251000  1.0 0.119343185
H  H208  1  0.41704000  0.55043000  0.95715000  1.0 0.1120037313
H  H209  1  0.31082000  0.53310000  0.75094000  1.0 0.119343185
H  H210  1  0.36841000  0.41590000  0.77257000  1.0 0.1120037313
H  H211  1  0.27063000  0.51894000  0.86169000  1.0 0.119343185
H  H212  1  0.23236000  0.45873000  0.68383000  1.0 0.119343185
H  H213  1  0.28344000  0.59313000  0.86243000  1.0 0.1120037313
H  H214  1  0.42429000  0.55701000  0.89006000  1.0 0.119343185
H  H215  1  0.33019000  0.49469000  0.67546000  1.0 0.119343185
H  H216  1  0.38778000  0.37749000  0.69709000  1.0 0.119343185
H  H217  1  0.17891000  0.50058000  0.80977000  1.0 0.1276819816
H  H218  1  0.14063000  0.44037000  0.63190000  1.0 0.1276819816
H  H219  1  0.31947000  0.68754000  0.93399000  1.0 0.119343185
H  H220  1  0.46032000  0.65143000  0.96161000  1.0 0.119343185
H  H221  1  0.42978000  0.48525000  0.70251000  1.0 0.119343185
H  H222  1  0.09034000  0.37950000  0.65328000  1.0 0.119343185
H  H223  1  0.40782000  0.75912000  0.06530000  1.0 0.1276819816
H  H224  1  0.35352000  0.30651000  0.49025000  1.0 0.1276819816
H  H225  1  0.29128000  0.34032000  0.56738000  1.0 0.119343185
H  H226  1  0.31578000  0.28889000  0.53723000  1.0 0.1276819816
H  H227  1  0.27300000  0.30720000  0.49332000  1.0 0.1276819816
H  H228  1  0.97872000  0.50444000  0.65368000  1.0 0.119343185
H  H229  1  0.07148000  0.57178000  0.75194000  1.0 0.1017884592
H  H230  1  0.04622000  0.55395000  0.68085000  1.0 0.0918266966
H  H231  1  0.10711000  0.55279000  0.72704000  1.0 0.0918266966
H  H232  1  0.46195000  0.82670000  0.01133000  1.0 0.119343185
H  H233  1  0.46273000  0.71048000  0.92859000  1.0 0.1386547651
H  H234  1  0.42464000  0.74528000  0.90668000  1.0 0.1386547651
H  H235  1  0.39936000  0.69095000  0.88089000  1.0 0.1386547651
H  H236  1  0.50484000  0.45681000  0.65359000  1.0 0.1386547651
H  H237  1  0.48831000  0.50507000  0.70012000  1.0 0.1276819816
H  H238  1  0.45952000  0.48569000  0.62723000  1.0 0.1276819816
H  H239  1  0.97153000  0.31666000  0.57901000  1.0 0.1017884592
H  H240  1  0.02746000  0.30744000  0.59136000  1.0 0.1120037313
H  H241  1  0.97703000  0.29863000  0.52446000  1.0 0.119343185
H  H242  1  0.40791000  0.86728000  0.14963000  1.0 0.1276819816
H  H243  1  0.46406000  0.90204000  0.19108000  1.0 0.119343185
H  H244  1  0.46186000  0.84921000  0.18345000  1.0 0.1276819816
H  H245  1  0.42137000  0.42253000  0.51969000  1.0 0.119343185
H  H246  1  0.44147000  0.28690000  0.50725000  1.0 0.119343185
H  H247  1  0.87990000  0.41451000  0.50275000  1.0 0.119343185
H  H248  1  0.92889000  0.38384000  0.62811000  1.0 0.119343185
H  H249  1  0.41593000  0.93489000  0.13126000  1.0 0.119343185
H  H250  1  0.54210000  0.89829000  0.12405000  1.0 0.1276819816
H  H251  1  0.45207000  0.38713000  0.45574000  1.0 0.119343185
H  H252  1  0.47217000  0.25151000  0.44330000  1.0 0.119343185
H  H253  1  0.78998000  0.38012000  0.44386000  1.0 0.119343185
H  H254  1  0.83897000  0.34945000  0.56922000  1.0 0.1120037313
H  H255  1  0.44559000  0.02858000  0.19275000  1.0 0.1276819816
H  H256  1  0.57177000  0.99199000  0.18554000  1.0 0.1120037313
C  C1  1  0.60272000  0.78897000  0.76535000  1.0 0.6192703163
C  C2  1  0.66418000  0.80659000  0.80057000  1.0 -0.0269684664
C  C3  1  0.70587000  0.79107000  0.83858000  1.0 -0.1001757231
C  C4  1  0.67622000  0.84050000  0.79516000  1.0 -0.1001757231
C  C5  1  0.75959000  0.80946000  0.87119000  1.0 -0.1685482148
C  C6  1  0.72993000  0.85888000  0.82777000  1.0 -0.1685482148
C  C7  1  0.77162000  0.84337000  0.86579000  1.0 0.0788074779
C  C8  1  0.83300000  0.87727000  0.91607000  1.0 0.0011170337
C  C9  1  0.86717000  0.91254000  0.98765000  1.0 0.0918266966
C  C10  1  0.85353000  0.86148000  0.88149000  1.0 -0.2262579286
C  C11  1  0.92188000  0.93201000  0.02463000  1.0 -0.2191802347
C  C12  1  0.84630000  0.93480000  0.02630000  1.0 -0.4205664927
C  C13  1  0.90824000  0.88095000  0.91847000  1.0 0.1017884592
C  C14  1  0.94241000  0.91622000  0.99005000  1.0 0.0103042284
C  C15  1  0.92913000  0.87413000  0.88600000  1.0 -0.4491343694
C  C16  1  0.00730000  0.93878000  0.03862000  1.0 0.0688777371
C  C17  1  0.04448000  0.90684000  0.05174000  1.0 -0.1503818636
C  C18  1  0.02558000  0.99258000  0.06922000  1.0 -0.1598325213
C  C19  1  0.09995000  0.92871000  0.09546000  1.0 -0.1598325213
C  C20  1  0.08105000  0.01444000  0.11293000  1.0 -0.1503818636
C  C21  1  0.11823000  0.98250000  0.12605000  1.0 0.0589588201
C  C22  1  0.18391000  0.00371000  0.17710000  1.0 -0.0117931799
C  C23  1  0.20907000  0.97831000  0.14062000  1.0 0.0478682174
C  C24  1  0.21275000  0.99066000  0.23007000  1.0 0.0478682174
C  C25  1  0.19655000  0.06571000  0.21542000  1.0 0.0478682174
C  C26  1  0.26177000  0.00192000  0.17567000  1.0 -0.1598325213
C  C27  1  0.17859000  0.93170000  0.07095000  1.0 -0.1503818636
C  C28  1  0.18756000  0.00320000  0.25862000  1.0 -0.1598325213
C  C29  1  0.25805000  0.96712000  0.24547000  1.0 -0.1598325213
C  C30  1  0.22250000  0.10482000  0.28592000  1.0 -0.1503818636
C  C31  1  0.18430000  0.08317000  0.17989000  1.0 -0.1598325213
C  C32  1  0.28397000  0.97890000  0.14105000  1.0 -0.1503818636
C  C33  1  0.20080000  0.90869000  0.03633000  1.0 -0.1410413841
C  C34  1  0.20767000  0.99220000  0.30257000  1.0 -0.1503818636
C  C35  1  0.27819000  0.95613000  0.28946000  1.0 -0.1503818636
C  C36  1  0.23620000  0.16138000  0.32090000  1.0 -0.1410413841
C  C37  1  0.19801000  0.13974000  0.21487000  1.0 -0.125921444
C  C38  1  0.25349000  0.93229000  0.07138000  1.0 0.0688777371
C  C39  1  0.25297000  0.96865000  0.31798000  1.0 0.0918266966
C  C40  1  0.22395000  0.17884000  0.28537000  1.0 0.0589588201
C  C41  1  0.28002000  0.91435000  0.04071000  1.0 -0.0117931799
C  C42  1  0.27520000  0.95470000  0.36610000  1.0 -0.0362212741
C  C43  1  0.24078000  0.23578000  0.32074000  1.0 0.0011170337
C  C44  1  0.28946000  0.94943000  0.03493000  1.0 -0.211791248
C  C45  1  0.29006000  0.86080000  0.01002000  1.0 0.119343185
C  C46  1  0.30842000  0.98442000  0.43140000  1.0 0.0688777371
C  C47  1  0.25447000  0.90297000  0.33630000  1.0 -0.2191802347
C  C48  1  0.21817000  0.27266000  0.35399000  1.0 -0.211791248
C  C49  1  0.27720000  0.25603000  0.32477000  1.0 0.1017884592
C  C50  1  0.30894000  0.93096000  0.99844000  1.0 0.119343185
C  C51  1  0.30954000  0.84233000  0.97353000  1.0 -0.2191802347
C  C52  1  0.28123000  0.82033000  0.01730000  1.0 -0.4359320933
C  C53  1  0.32868000  0.97658000  0.47810000  1.0 -0.1910427445
C  C54  1  0.33430000  0.04680000  0.47550000  1.0 -0.3767786407
C  C55  1  0.27222000  0.88242000  0.37080000  1.0 0.1120037313
C  C56  1  0.23198000  0.32979000  0.39127000  1.0 0.1017884592
C  C57  1  0.29100000  0.31315000  0.36205000  1.0 -0.2045395048
C  C58  1  0.30417000  0.22287000  0.29350000  1.0 -0.4560205275
C  C59  1  0.31898000  0.87740000  0.96774000  1.0 0.0011170337
C  C60  1  0.31992000  0.97352000  0.99840000  1.0 -0.4491343694
C  C61  1  0.31101000  0.92061000  0.44300000  1.0 -0.0269684664
C  C62  1  0.24780000  0.82050000  0.32510000  1.0 -0.4080299893
C  C63  1  0.26840000  0.35004000  0.39530000  1.0 0.0011170337
C  C64  1  0.20416000  0.36506000  0.42150000  1.0 -0.4263623292
C  C65  1  0.33841000  0.85822000  0.92983000  1.0 0.0788074779
C  C66  1  0.33131000  0.90261000  0.48930000  1.0 0.0918266966
C  C67  1  0.28574000  0.40731000  0.43123000  1.0 0.0688777371
C  C68  1  0.38387000  0.88824000  0.95669000  1.0 -0.1598325213
C  C69  1  0.31006000  0.80699000  0.86339000  1.0 -0.1598325213
C  C70  1  0.38540000  0.90145000  0.52975000  1.0 -0.1685482148
C  C71  1  0.29191000  0.88308000  0.48203000  1.0 -0.1598325213
C  C72  1  0.30420000  0.44634000  0.49918000  1.0 -0.1503818636
C  C73  1  0.28659000  0.42442000  0.40165000  1.0 -0.1598325213
C  C74  1  0.40098000  0.86704000  0.91710000  1.0 -0.0874574845
C  C75  1  0.32717000  0.78578000  0.82379000  1.0 -0.0796389198
C  C76  1  0.40008000  0.88085000  0.56303000  1.0 -0.1001757231
C  C77  1  0.30660000  0.86249000  0.51531000  1.0 -0.1001757231
C  C78  1  0.32349000  0.50247000  0.53754000  1.0 -0.1001757231
C  C79  1  0.30589000  0.48055000  0.44002000  1.0 -0.1001757231
C  C80  1  0.37264000  0.81581000  0.85065000  1.0 -0.0796389198
C  C81  1  0.36068000  0.86142000  0.55586000  1.0 -0.0269684664
C  C82  1  0.32434000  0.51958000  0.50796000  1.0 -0.0362212741
C  C83  1  0.38903000  0.79420000  0.80845000  1.0 0.6019467702
C  C84  1  0.38059000  0.83703000  0.59316000  1.0 0.6192703163
C  C85  1  0.34425000  0.57976000  0.54711000  1.0 0.6019467702
C  C86  1  0.47638000  0.66263000  0.76535000  1.0 0.6192703163
C  C87  1  0.49398000  0.63639000  0.80057000  1.0 -0.0269684664
C  C88  1  0.54751000  0.63271000  0.83858000  1.0 -0.1001757231
C  C89  1  0.45466000  0.61894000  0.79516000  1.0 -0.1001757231
C  C90  1  0.56173000  0.61160000  0.87119000  1.0 -0.1685482148
C  C91  1  0.46889000  0.59784000  0.82777000  1.0 -0.1685482148
C  C92  1  0.52242000  0.59417000  0.86579000  1.0 0.0788074779
C  C93  1  0.53880000  0.58307000  0.91607000  1.0 0.0011170337
C  C94  1  0.57511000  0.62048000  0.98765000  1.0 0.0918266966
C  C95  1  0.52001000  0.52796000  0.88149000  1.0 -0.2262579286
C  C96  1  0.59262000  0.60275000  0.02463000  1.0 -0.2191802347
C  C97  1  0.59150000  0.68000000  0.02630000  1.0 -0.4205664927
C  C98  1  0.53752000  0.51023000  0.91847000  1.0 0.1017884592
C  C99  1  0.57383000  0.54764000  0.99005000  1.0 0.0103042284
C  C100  1  0.51187000  0.45687000  0.88600000  1.0 -0.4491343694
C  C101  1  0.59984000  0.53132000  0.03862000  1.0 0.0688777371
C  C102  1  0.64490000  0.50726000  0.05174000  1.0 -0.1503818636
C  C103  1  0.57664000  0.54364000  0.06922000  1.0 -0.1598325213
C  C104  1  0.66675000  0.49551000  0.09546000  1.0 -0.1598325213
C  C105  1  0.59849000  0.53188000  0.11293000  1.0 -0.1503818636
C  C106  1  0.64355000  0.50782000  0.12605000  1.0 0.0589588201
C  C107  1  0.67339000  0.49319000  0.17710000  1.0 -0.0117931799
C  C108  1  0.66231000  0.43155000  0.14062000  1.0 0.0478682174
C  C109  1  0.73941000  0.51732000  0.23007000  1.0 0.0478682174
C  C110  1  0.64971000  0.51887000  0.21542000  1.0 0.0478682174
C  C111  1  0.67375000  0.41390000  0.17567000  1.0 -0.1598325213
C  C112  1  0.63925000  0.39236000  0.07095000  1.0 -0.1503818636
C  C113  1  0.75542000  0.57106000  0.25862000  1.0 -0.1598325213
C  C114  1  0.77835000  0.48742000  0.24547000  1.0 -0.1598325213
C  C115  1  0.68110000  0.56342000  0.28592000  1.0 -0.1503818636
C  C116  1  0.59672000  0.49559000  0.17989000  1.0 -0.1598325213
C  C117  1  0.66215000  0.35708000  0.14105000  1.0 -0.1503818636
C  C118  1  0.62764000  0.33553000  0.03633000  1.0 -0.1410413841
C  C119  1  0.81037000  0.59490000  0.30257000  1.0 -0.1503818636
C  C120  1  0.83333000  0.51127000  0.28946000  1.0 -0.1503818636
C  C121  1  0.65952000  0.58470000  0.32090000  1.0 -0.1410413841
C  C122  1  0.57513000  0.51686000  0.21487000  1.0 -0.125921444
C  C123  1  0.63909000  0.31789000  0.07138000  1.0 0.0688777371
C  C124  1  0.84933000  0.56501000  0.31798000  1.0 0.0918266966
C  C125  1  0.60653000  0.56142000  0.28537000  1.0 0.0589588201
C  C126  1  0.62636000  0.26069000  0.04071000  1.0 -0.0117931799
C  C127  1  0.91140000  0.59090000  0.36610000  1.0 -0.0362212741
C  C128  1  0.58496000  0.57996000  0.32074000  1.0 0.0011170337
C  C129  1  0.58550000  0.24547000  0.03493000  1.0 -0.211791248
C  C130  1  0.64922000  0.21996000  0.01002000  1.0 0.119343185
C  C131  1  0.94698000  0.62298000  0.43140000  1.0 0.0688777371
C  C132  1  0.93333000  0.58183000  0.33630000  1.0 -0.2191802347
C  C133  1  0.58133000  0.63582000  0.35399000  1.0 -0.211791248
C  C134  1  0.56874000  0.54757000  0.32477000  1.0 0.1017884592
C  C135  1  0.56748000  0.18950000  0.99844000  1.0 0.119343185
C  C136  1  0.63120000  0.16399000  0.97353000  1.0 -0.2191802347
C  C137  1  0.69697000  0.23607000  0.01730000  1.0 -0.4359320933
C  C138  1  0.00152000  0.64942000  0.47810000  1.0 -0.1910427445
C  C139  1  0.92870000  0.64120000  0.47550000  1.0 -0.3767786407
C  C140  1  0.98838000  0.59858000  0.37080000  1.0 0.1120037313
C  C141  1  0.56148000  0.65929000  0.39127000  1.0 0.1017884592
C  C142  1  0.54890000  0.57105000  0.36205000  1.0 -0.2045395048
C  C143  1  0.57063000  0.48933000  0.29350000  1.0 -0.4560205275
C  C144  1  0.59034000  0.14876000  0.96774000  1.0 0.0011170337
C  C145  1  0.52488000  0.17848000  0.99840000  1.0 -0.4491343694
C  C146  1  0.02239000  0.63199000  0.44300000  1.0 -0.0269684664
C  C147  1  0.00460000  0.57730000  0.32510000  1.0 -0.4080299893
C  C148  1  0.54526000  0.62690000  0.39530000  1.0 0.0011170337
C  C149  1  0.55644000  0.71734000  0.42150000  1.0 -0.4263623292
C  C150  1  0.57161000  0.09142000  0.92983000  1.0 0.0788074779
C  C151  1  0.08669000  0.65799000  0.48930000  1.0 0.0918266966
C  C152  1  0.52392000  0.64549000  0.43123000  1.0 0.0688777371
C  C153  1  0.56845000  0.07282000  0.95669000  1.0 -0.1598325213
C  C154  1  0.55640000  0.05333000  0.86339000  1.0 -0.1598325213
C  C155  1  0.12830000  0.64435000  0.52975000  1.0 -0.1685482148
C  C156  1  0.09895000  0.69012000  0.48203000  1.0 -0.1598325213
C  C157  1  0.55284000  0.69498000  0.49918000  1.0 -0.1503818636
C  C158  1  0.47723000  0.61506000  0.40165000  1.0 -0.1598325213
C  C159  1  0.55006000  0.01612000  0.91710000  1.0 -0.0874574845
C  C160  1  0.53801000  0.99662000  0.82379000  1.0 -0.0796389198
C  C161  1  0.18218000  0.66295000  0.56303000  1.0 -0.1001757231
C  C162  1  0.15282000  0.70871000  0.51531000  1.0 -0.1001757231
C  C163  1  0.53507000  0.71405000  0.53754000  1.0 -0.1001757231
C  C164  1  0.45947000  0.63413000  0.44002000  1.0 -0.1001757231
C  C165  1  0.53484000  0.97801000  0.85065000  1.0 -0.0796389198
C  C166  1  0.19444000  0.69518000  0.55586000  1.0 -0.0269684664
C  C167  1  0.48838000  0.68362000  0.50796000  1.0 -0.0362212741
C  C168  1  0.51425000  0.91942000  0.80845000  1.0 0.6019467702
C  C169  1  0.25613000  0.71257000  0.59316000  1.0 0.6192703163
C  C170  1  0.46735000  0.70286000  0.54711000  1.0 0.6019467702
C  C171  1  0.39728000  0.16263000  0.18625000  1.0 0.6192703163
C  C172  1  0.33582000  0.13639000  0.14241000  1.0 -0.0269684664
C  C173  1  0.29413000  0.13271000  0.08520000  1.0 -0.1001757231
C  C174  1  0.32378000  0.11894000  0.16428000  1.0 -0.1001757231
C  C175  1  0.24041000  0.11160000  0.04987000  1.0 -0.1685482148
C  C176  1  0.27007000  0.09784000  0.12895000  1.0 -0.1685482148
C  C177  1  0.22838000  0.09417000  0.07175000  1.0 0.0788074779
C  C178  1  0.16700000  0.08307000  0.04427000  1.0 0.0011170337
C  C179  1  0.13283000  0.12048000  0.04537000  1.0 0.0918266966
C  C180  1  0.14647000  0.02796000  0.00795000  1.0 -0.2262579286
C  C181  1  0.07812000  0.10275000  0.01013000  1.0 -0.2191802347
C  C182  1  0.15370000  0.18000000  0.08850000  1.0 -0.4205664927
C  C183  1  0.09176000  0.01023000  0.97271000  1.0 0.1017884592
C  C184  1  0.05759000  0.04764000  0.97381000  1.0 0.0103042284
C  C185  1  0.07087000  0.95687000  0.94500000  1.0 -0.4491343694
C  C186  1  0.99270000  0.03132000  0.93148000  1.0 0.0688777371
C  C187  1  0.95552000  0.00726000  0.86236000  1.0 -0.1503818636
C  C188  1  0.97442000  0.04364000  0.96700000  1.0 -0.1598325213
C  C189  1  0.90005000  0.99551000  0.82876000  1.0 -0.1598325213
C  C190  1  0.91895000  0.03188000  0.93339000  1.0 -0.1503818636
C  C191  1  0.88177000  0.00782000  0.86427000  1.0 0.0589588201
C  C192  1  0.81609000  0.99319000  0.81980000  1.0 -0.0117931799
C  C193  1  0.79093000  0.93155000  0.76924000  1.0 0.0478682174
C  C194  1  0.78725000  0.01732000  0.77791000  1.0 0.0478682174
C  C195  1  0.80345000  0.01887000  0.86916000  1.0 0.0478682174
C  C196  1  0.73823000  0.91390000  0.74015000  1.0 -0.1598325213
C  C197  1  0.82141000  0.89236000  0.75311000  1.0 -0.1503818636
C  C198  1  0.81244000  0.07106000  0.81564000  1.0 -0.1598325213
C  C199  1  0.74195000  0.98742000  0.70907000  1.0 -0.1598325213
C  C200  1  0.77750000  0.06342000  0.88232000  1.0 -0.1503818636
C  C201  1  0.81570000  0.99559000  0.89887000  1.0 -0.1598325213
C  C202  1  0.71603000  0.85708000  0.69493000  1.0 -0.1503818636
C  C203  1  0.79920000  0.83553000  0.70789000  1.0 -0.1410413841
C  C204  1  0.79233000  0.09490000  0.78453000  1.0 -0.1503818636
C  C205  1  0.72181000  0.01127000  0.67794000  1.0 -0.1503818636
C  C206  1  0.76380000  0.08470000  0.92518000  1.0 -0.1410413841
C  C207  1  0.80199000  0.01686000  0.94173000  1.0 -0.125921444
C  C208  1  0.74651000  0.81789000  0.67880000  1.0 0.0688777371
C  C209  1  0.74703000  0.06501000  0.71568000  1.0 0.0918266966
C  C210  1  0.77605000  0.06142000  0.95489000  1.0 0.0589588201
C  C211  1  0.71998000  0.76069000  0.63433000  1.0 -0.0117931799
C  C212  1  0.72480000  0.09090000  0.67950000  1.0 -0.0362212741
C  C213  1  0.75922000  0.07996000  0.99500000  1.0 0.0011170337
C  C214  1  0.71054000  0.74547000  0.65997000  1.0 -0.211791248
C  C215  1  0.70994000  0.71996000  0.57074000  1.0 0.119343185
C  C216  1  0.69158000  0.12298000  0.67600000  1.0 0.0688777371
C  C217  1  0.74553000  0.08183000  0.64850000  1.0 -0.2191802347
C  C218  1  0.78183000  0.13582000  0.05449000  1.0 -0.211791248
C  C219  1  0.72280000  0.04757000  0.97883000  1.0 0.1017884592
C  C220  1  0.69106000  0.68950000  0.62202000  1.0 0.119343185
C  C221  1  0.69046000  0.66399000  0.53279000  1.0 -0.2191802347
C  C222  1  0.71877000  0.73607000  0.53910000  1.0 -0.4359320933
C  C223  1  0.67132000  0.14942000  0.64790000  1.0 -0.1910427445
C  C224  1  0.66570000  0.14120000  0.71250000  1.0 -0.3767786407
C  C225  1  0.72778000  0.09858000  0.61020000  1.0 0.1120037313
C  C226  1  0.76802000  0.15929000  0.09781000  1.0 0.1017884592
C  C227  1  0.70900000  0.07105000  0.02215000  1.0 -0.2045395048
C  C228  1  0.69583000  0.98933000  0.91870000  1.0 -0.4560205275
C  C229  1  0.68102000  0.64876000  0.55842000  1.0 0.0011170337
C  C230  1  0.68008000  0.67848000  0.65360000  1.0 -0.4491343694
C  C231  1  0.68899000  0.13199000  0.60960000  1.0 -0.0269684664
C  C232  1  0.75220000  0.07730000  0.57270000  1.0 -0.4080299893
C  C233  1  0.73160000  0.12690000  0.08164000  1.0 0.0011170337
C  C234  1  0.79584000  0.21734000  0.16090000  1.0 -0.4263623292
C  C235  1  0.66159000  0.59142000  0.51981000  1.0 0.0788074779
C  C236  1  0.66869000  0.15799000  0.57130000  1.0 0.0918266966
C  C237  1  0.71426000  0.14549000  0.12157000  1.0 0.0688777371
C  C238  1  0.61613000  0.57282000  0.50437000  1.0 -0.1598325213
C  C239  1  0.68994000  0.55333000  0.49693000  1.0 -0.1598325213
C  C240  1  0.61460000  0.14435000  0.51605000  1.0 -0.1685482148
C  C241  1  0.70809000  0.19012000  0.59117000  1.0 -0.1598325213
C  C242  1  0.69580000  0.19498000  0.14214000  1.0 -0.1503818636
C  C243  1  0.71341000  0.11506000  0.13783000  1.0 -0.1598325213
C  C244  1  0.59902000  0.51612000  0.46606000  1.0 -0.0874574845
C  C245  1  0.67283000  0.49662000  0.45861000  1.0 -0.0796389198
C  C246  1  0.59992000  0.16295000  0.48077000  1.0 -0.1001757231
C  C247  1  0.69340000  0.20871000  0.55589000  1.0 -0.1001757231
C  C248  1  0.67651000  0.21405000  0.17898000  1.0 -0.1001757231
C  C249  1  0.69411000  0.13413000  0.17466000  1.0 -0.1001757231
C  C250  1  0.62736000  0.47801000  0.44317000  1.0 -0.0796389198
C  C251  1  0.63932000  0.19518000  0.50074000  1.0 -0.0269684664
C  C252  1  0.67566000  0.18362000  0.19524000  1.0 -0.0362212741
C  C253  1  0.61097000  0.41942000  0.40517000  1.0 0.6019467702
C  C254  1  0.61941000  0.21257000  0.45644000  1.0 0.6192703163
C  C255  1  0.65575000  0.20286000  0.23551000  1.0 0.6019467702
C  C256  1  0.52362000  0.28897000  0.18625000  1.0 0.6192703163
C  C257  1  0.50602000  0.30659000  0.14241000  1.0 -0.0269684664
C  C258  1  0.45249000  0.29107000  0.08520000  1.0 -0.1001757231
C  C259  1  0.54534000  0.34050000  0.16428000  1.0 -0.1001757231
C  C260  1  0.43827000  0.30946000  0.04987000  1.0 -0.1685482148
C  C261  1  0.53111000  0.35888000  0.12895000  1.0 -0.1685482148
C  C262  1  0.47758000  0.34337000  0.07175000  1.0 0.0788074779
C  C263  1  0.46120000  0.37727000  0.04427000  1.0 0.0011170337
C  C264  1  0.42489000  0.41254000  0.04537000  1.0 0.0918266966
C  C265  1  0.47999000  0.36148000  0.00795000  1.0 -0.2262579286
C  C266  1  0.40738000  0.43201000  0.01013000  1.0 -0.2191802347
C  C267  1  0.40850000  0.43480000  0.08850000  1.0 -0.4205664927
C  C268  1  0.46248000  0.38095000  0.97271000  1.0 0.1017884592
C  C269  1  0.42617000  0.41622000  0.97381000  1.0 0.0103042284
C  C270  1  0.48813000  0.37413000  0.94500000  1.0 -0.4491343694
C  C271  1  0.40016000  0.43878000  0.93148000  1.0 0.0688777371
C  C272  1  0.35510000  0.40684000  0.86236000  1.0 -0.1503818636
C  C273  1  0.42336000  0.49258000  0.96700000  1.0 -0.1598325213
C  C274  1  0.33325000  0.42871000  0.82876000  1.0 -0.1598325213
C  C275  1  0.40151000  0.51444000  0.93339000  1.0 -0.1503818636
C  C276  1  0.35645000  0.48250000  0.86427000  1.0 0.0589588201
C  C277  1  0.32661000  0.50371000  0.81980000  1.0 -0.0117931799
C  C278  1  0.33769000  0.47831000  0.76924000  1.0 0.0478682174
C  C279  1  0.26059000  0.49066000  0.77791000  1.0 0.0478682174
C  C280  1  0.35029000  0.56571000  0.86916000  1.0 0.0478682174
C  C281  1  0.32625000  0.50192000  0.74015000  1.0 -0.1598325213
C  C282  1  0.36075000  0.43170000  0.75311000  1.0 -0.1503818636
C  C283  1  0.24458000  0.50320000  0.81564000  1.0 -0.1598325213
C  C284  1  0.22165000  0.46712000  0.70907000  1.0 -0.1598325213
C  C285  1  0.31890000  0.60482000  0.88232000  1.0 -0.1503818636
C  C286  1  0.40328000  0.58317000  0.89887000  1.0 -0.1598325213
C  C287  1  0.33785000  0.47890000  0.69493000  1.0 -0.1503818636
C  C288  1  0.37236000  0.40869000  0.70789000  1.0 -0.1410413841
C  C289  1  0.18963000  0.49220000  0.78453000  1.0 -0.1503818636
C  C290  1  0.16667000  0.45613000  0.67794000  1.0 -0.1503818636
C  C291  1  0.34048000  0.66138000  0.92518000  1.0 -0.1410413841
C  C292  1  0.42487000  0.63974000  0.94173000  1.0 -0.125921444
C  C293  1  0.36091000  0.43229000  0.67880000  1.0 0.0688777371
C  C294  1  0.15067000  0.46865000  0.71568000  1.0 0.0918266966
C  C295  1  0.39347000  0.67884000  0.95489000  1.0 0.0589588201
C  C296  1  0.37364000  0.41435000  0.63433000  1.0 -0.0117931799
C  C297  1  0.08860000  0.45470000  0.67950000  1.0 -0.0362212741
C  C298  1  0.41504000  0.73578000  0.99500000  1.0 0.0011170337
C  C299  1  0.41450000  0.44943000  0.65997000  1.0 -0.211791248
C  C300  1  0.35078000  0.36080000  0.57074000  1.0 0.119343185
C  C301  1  0.05302000  0.48442000  0.67600000  1.0 0.0688777371
C  C302  1  0.06667000  0.40297000  0.64850000  1.0 -0.2191802347
C  C303  1  0.41867000  0.77266000  0.05449000  1.0 -0.211791248
C  C304  1  0.43126000  0.75603000  0.97883000  1.0 0.1017884592
C  C305  1  0.43252000  0.43096000  0.62202000  1.0 0.119343185
C  C306  1  0.36880000  0.34233000  0.53279000  1.0 -0.2191802347
C  C307  1  0.30303000  0.32033000  0.53910000  1.0 -0.4359320933
C  C308  1  0.99848000  0.47658000  0.64790000  1.0 -0.1910427445
C  C309  1  0.07130000  0.54680000  0.71250000  1.0 -0.3767786407
C  C310  1  0.01162000  0.38242000  0.61020000  1.0 0.1120037313
C  C311  1  0.43852000  0.82979000  0.09781000  1.0 0.1017884592
C  C312  1  0.45110000  0.81315000  0.02215000  1.0 -0.2045395048
C  C313  1  0.42937000  0.72287000  0.91870000  1.0 -0.4560205275
C  C314  1  0.40966000  0.37740000  0.55842000  1.0 0.0011170337
C  C315  1  0.47512000  0.47352000  0.65360000  1.0 -0.4491343694
C  C316  1  0.97761000  0.42061000  0.60960000  1.0 -0.0269684664
C  C317  1  0.99540000  0.32050000  0.57270000  1.0 -0.4080299893
C  C318  1  0.45474000  0.85004000  0.08164000  1.0 0.0011170337
C  C319  1  0.44356000  0.86506000  0.16090000  1.0 -0.4263623292
C  C320  1  0.42839000  0.35822000  0.51981000  1.0 0.0788074779
C  C321  1  0.91331000  0.40261000  0.57130000  1.0 0.0918266966
C  C322  1  0.47608000  0.90731000  0.12157000  1.0 0.0688777371
C  C323  1  0.43155000  0.38824000  0.50437000  1.0 -0.1598325213
C  C324  1  0.44360000  0.30699000  0.49693000  1.0 -0.1598325213
C  C325  1  0.87170000  0.40145000  0.51605000  1.0 -0.1685482148
C  C326  1  0.90105000  0.38308000  0.59117000  1.0 -0.1598325213
C  C327  1  0.44716000  0.94634000  0.14214000  1.0 -0.1503818636
C  C328  1  0.52277000  0.92442000  0.13783000  1.0 -0.1598325213
C  C329  1  0.44994000  0.36704000  0.46606000  1.0 -0.0874574845
C  C330  1  0.46199000  0.28578000  0.45861000  1.0 -0.0796389198
C  C331  1  0.81782000  0.38085000  0.48077000  1.0 -0.1001757231
C  C332  1  0.84718000  0.36249000  0.55589000  1.0 -0.1001757231
C  C333  1  0.46493000  0.00247000  0.17898000  1.0 -0.1001757231
C  C334  1  0.54053000  0.98055000  0.17466000  1.0 -0.1001757231
C  C335  1  0.46516000  0.31581000  0.44317000  1.0 -0.0796389198
C  C336  1  0.80556000  0.36142000  0.50074000  1.0 -0.0269684664
C  C337  1  0.51162000  0.01958000  0.19524000  1.0 -0.0362212741
C  C338  1  0.48575000  0.29420000  0.40517000  1.0 0.6019467702
C  C339  1  0.74387000  0.33703000  0.45644000  1.0 0.6192703163
C  C340  1  0.53265000  0.07976000  0.23551000  1.0 0.6019467702
O  O1  1  0.56634000  0.80225000  0.72911000  1.0 -0.5573538476
O  O2  1  0.39691000  0.73759000  0.58770000  1.0 -1.1793081397
O  O3  1  0.41688000  0.82459000  0.69541000  1.0 -1.1247452134
O  O4  1  0.50618000  0.80328000  0.76312000  1.0 -1.1523775095
O  O5  1  0.48760000  0.71767000  0.65811000  1.0 -1.168651465
O  O6  1  0.48392000  0.75053000  0.59575000  1.0 -0.5149609679
O  O7  1  0.51417000  0.88507000  0.75944000  1.0 -0.5224950785
O  O8  1  0.43045000  0.83410000  0.62595000  1.0 -0.5792101854
O  O9  1  0.59589000  0.76134000  0.77647000  1.0 -0.6039495254
O  O10  1  0.36028000  0.58671000  0.52665000  1.0 -0.5524926418
O  O11  1  0.34185000  0.81826000  0.58041000  1.0 -0.6039495254
O  O12  1  0.42162000  0.83404000  0.83102000  1.0 -0.6557943756
O  O13  1  0.42686000  0.66277000  0.72911000  1.0 -0.5573538476
O  O14  1  0.35011000  0.69079000  0.58770000  1.0 -1.1793081397
O  O15  1  0.37082000  0.77853000  0.69541000  1.0 -1.1247452134
O  O16  1  0.45984000  0.75694000  0.76312000  1.0 -1.1523775095
O  O17  1  0.44044000  0.67051000  0.65811000  1.0 -1.1647579306
O  O18  1  0.34522000  0.61183000  0.59575000  1.0 -0.5224950785
O  O19  1  0.37437000  0.74527000  0.75944000  1.0 -0.5224950785
O  O20  1  0.29185000  0.69550000  0.62595000  1.0 -0.5792101854
O  O21  1  0.51513000  0.68058000  0.77647000  1.0 -0.6039495254
O  O22  1  0.43994000  0.66637000  0.52665000  1.0 -0.5524926418
O  O23  1  0.26215000  0.73856000  0.58041000  1.0 -0.6039495254
O  O24  1  0.49698000  0.90940000  0.83102000  1.0 -0.6557943756
O  O25  1  0.43366000  0.16277000  0.23591000  1.0 -0.5573538476
O  O26  1  0.60309000  0.19079000  0.34068000  1.0 -1.1793081397
O  O27  1  0.58312000  0.27853000  0.40771000  1.0 -1.1247452134
O  O28  1  0.49382000  0.25694000  0.29710000  1.0 -1.1523775095
O  O29  1  0.51240000  0.17051000  0.23007000  1.0 -1.168651465
O  O30  1  0.51608000  0.11183000  0.26661000  1.0 -0.5149609679
O  O31  1  0.48583000  0.24527000  0.37090000  1.0 -0.5224950785
O  O32  1  0.56955000  0.19550000  0.40365000  1.0 -0.5792101854
O  O33  1  0.40411000  0.18058000  0.16545000  1.0 -0.6039495254
O  O34  1  0.63972000  0.16637000  0.22643000  1.0 -0.5524926418
O  O35  1  0.65815000  0.23856000  0.47641000  1.0 -0.6039495254
O  O36  1  0.57838000  0.40940000  0.41242000  1.0 -0.6557943756
O  O37  1  0.57314000  0.30225000  0.23591000  1.0 -0.5573538476
O  O38  1  0.64989000  0.23759000  0.34068000  1.0 -1.1793081397
O  O39  1  0.62918000  0.32459000  0.40771000  1.0 -1.1247452134
O  O40  1  0.54016000  0.30328000  0.29710000  1.0 -1.1523775095
O  O41  1  0.55956000  0.21767000  0.23007000  1.0 -1.168651465
O  O42  1  0.65478000  0.25053000  0.26661000  1.0 -0.5149609679
O  O43  1  0.62563000  0.38507000  0.37090000  1.0 -0.5224950785
O  O44  1  0.70815000  0.33410000  0.40365000  1.0 -0.5792101854
O  O45  1  0.48487000  0.26134000  0.16545000  1.0 -0.6039495254
O  O46  1  0.56006000  0.08671000  0.22643000  1.0 -0.5524926418
O  O47  1  0.73785000  0.31826000  0.47641000  1.0 -0.6039495254
O  O48  1  0.50302000  0.33404000  0.41242000  1.0 -0.6557943756
