# DDEC6 charges by PACMAN v1.1 (https://github.com/mtap-research/PACMAN-charge/)
data_FEGDIH_FSR_pacman
_symmetry_space_group_name_H-M   'P 1'
_cell_length_a   18.64950000
_cell_length_b   18.64950000
_cell_length_c   6.94160000
_cell_angle_alpha   90.00000000
_cell_angle_beta   90.00000000
_cell_angle_gamma   120.00000000
_symmetry_Int_Tables_number   1
_chemical_formula_structural   CuH9(C7O3)2
_chemical_formula_sum   'Cu6 H54 C84 O36'
_cell_volume   2090.85830191
_cell_formula_units_Z   6
loop_
 _symmetry_equiv_pos_site_id
 _symmetry_equiv_pos_as_xyz
  1  'x, y, z'
loop_
 _atom_site_type_symbol
 _atom_site_label
 _atom_site_symmetry_multiplicity
 _atom_site_fract_x
 _atom_site_fract_y
 _atom_site_fract_z
 _atom_site_occupancy
 _atom_site_charge
Cu  Cu1  1  0.04650000  0.52325000  0.65429000  1.0 0.7475772546
Cu  Cu2  1  0.47675000  0.95350000  0.65429000  1.0 0.7475772546
Cu  Cu3  1  0.47675000  0.52325000  0.65429000  1.0 0.7475772546
Cu  Cu4  1  0.52325000  0.47675000  0.34571000  1.0 0.7475772546
Cu  Cu5  1  0.52325000  0.04650000  0.34571000  1.0 0.7475772546
Cu  Cu6  1  0.95350000  0.47675000  0.34571000  1.0 0.7475772546
H  H1  1  0.07850000  0.37210000  0.02150000  1.0 0.1387935046
H  H2  1  0.10100000  0.57950000  0.99600000  1.0 0.1782925299
H  H3  1  0.25360000  0.30170000  0.77840000  1.0 0.1150965737
H  H4  1  0.17160000  0.59930000  0.88440000  1.0 0.1902415352
H  H5  1  0.29360000  0.92150000  0.02150000  1.0 0.1387935046
H  H6  1  0.47850000  0.89900000  0.99600000  1.0 0.1782925299
H  H7  1  0.04810000  0.74640000  0.77840000  1.0 0.1150965737
H  H8  1  0.42770000  0.82840000  0.88440000  1.0 0.1902415352
H  H9  1  0.62790000  0.70640000  0.02150000  1.0 0.1387935046
H  H10  1  0.42050000  0.52150000  0.99600000  1.0 0.1782925299
H  H11  1  0.69830000  0.95190000  0.77840000  1.0 0.1150965737
H  H12  1  0.40070000  0.57230000  0.88440000  1.0 0.1902415352
H  H13  1  0.70640000  0.62790000  0.97850000  1.0 0.1387935046
H  H14  1  0.52150000  0.42050000  0.00400000  1.0 0.1782925299
H  H15  1  0.95190000  0.69830000  0.22160000  1.0 0.1150965737
H  H16  1  0.57230000  0.40070000  0.11560000  1.0 0.1902415352
H  H17  1  0.37210000  0.07850000  0.97850000  1.0 0.1387935046
H  H18  1  0.57950000  0.10100000  0.00400000  1.0 0.1782925299
H  H19  1  0.30170000  0.25360000  0.22160000  1.0 0.1150965737
H  H20  1  0.59930000  0.17160000  0.11560000  1.0 0.1902415352
H  H21  1  0.92150000  0.29360000  0.97850000  1.0 0.1387935046
H  H22  1  0.89900000  0.47850000  0.00400000  1.0 0.1782925299
H  H23  1  0.74640000  0.04810000  0.22160000  1.0 0.1150965737
H  H24  1  0.82840000  0.42770000  0.11560000  1.0 0.1902415352
H  H25  1  0.92150000  0.62790000  0.97850000  1.0 0.1387935046
H  H26  1  0.89900000  0.42050000  0.00400000  1.0 0.1782925299
H  H27  1  0.74640000  0.69830000  0.22160000  1.0 0.1150965737
H  H28  1  0.82840000  0.40070000  0.11560000  1.0 0.1902415352
H  H29  1  0.70640000  0.07850000  0.97850000  1.0 0.1387935046
H  H30  1  0.52150000  0.10100000  0.00400000  1.0 0.1782925299
H  H31  1  0.95190000  0.25360000  0.22160000  1.0 0.1150965737
H  H32  1  0.57230000  0.17160000  0.11560000  1.0 0.1902415352
H  H33  1  0.37210000  0.29360000  0.97850000  1.0 0.1387935046
H  H34  1  0.57950000  0.47850000  0.00400000  1.0 0.1782925299
H  H35  1  0.30170000  0.04810000  0.22160000  1.0 0.1150965737
H  H36  1  0.59930000  0.42770000  0.11560000  1.0 0.1902415352
H  H37  1  0.29360000  0.37210000  0.02150000  1.0 0.1387935046
H  H38  1  0.47850000  0.57950000  0.99600000  1.0 0.1782925299
H  H39  1  0.04810000  0.30170000  0.77840000  1.0 0.1150965737
H  H40  1  0.42770000  0.59930000  0.88440000  1.0 0.1902415352
H  H41  1  0.62790000  0.92150000  0.02150000  1.0 0.1387935046
H  H42  1  0.42050000  0.89900000  0.99600000  1.0 0.1782925299
H  H43  1  0.69830000  0.74640000  0.77840000  1.0 0.1150965737
H  H44  1  0.40070000  0.82840000  0.88440000  1.0 0.1902415352
H  H45  1  0.07850000  0.70640000  0.02150000  1.0 0.1387935046
H  H46  1  0.10100000  0.52150000  0.99600000  1.0 0.1782925299
H  H47  1  0.25360000  0.95190000  0.77840000  1.0 0.1150965737
H  H48  1  0.17160000  0.57230000  0.88440000  1.0 0.1902415352
H  H49  1  0.23610000  0.47220000  0.46850000  1.0 0.1387935046
H  H50  1  0.23610000  0.76390000  0.46850000  1.0 0.1387935046
H  H51  1  0.52780000  0.76390000  0.46850000  1.0 0.1387935046
H  H52  1  0.76390000  0.52780000  0.53150000  1.0 0.1387935046
H  H53  1  0.47220000  0.23610000  0.53150000  1.0 0.1387935046
H  H54  1  0.76390000  0.23610000  0.53150000  1.0 0.1387935046
C  C1  1  0.09140000  0.45120000  0.34980000  1.0 0.5453113662
C  C2  1  0.14800000  0.42490000  0.25930000  1.0 0.0014826398
C  C3  1  0.12800000  0.38500000  0.08220000  1.0 -0.2396932645
C  C4  1  0.20150000  0.29100000  0.73900000  1.0 -0.0601662687
C  C5  1  0.23400000  0.21500000  0.56400000  1.0 -0.0443029444
C  C6  1  0.15800000  0.23800000  0.58200000  1.0 0.0247498375
C  C7  1  0.35980000  0.90860000  0.34980000  1.0 0.5453113662
C  C8  1  0.27690000  0.85200000  0.25930000  1.0 0.0014826398
C  C9  1  0.25700000  0.87200000  0.08220000  1.0 -0.2396932645
C  C10  1  0.08950000  0.79850000  0.73900000  1.0 -0.0601662687
C  C11  1  0.98100000  0.76600000  0.56400000  1.0 -0.0443029444
C  C12  1  0.08000000  0.84200000  0.58200000  1.0 0.0247498375
C  C13  1  0.54880000  0.64020000  0.34980000  1.0 0.5453113662
C  C14  1  0.57510000  0.72310000  0.25930000  1.0 0.0014826398
C  C15  1  0.61500000  0.74300000  0.08220000  1.0 -0.2396932645
C  C16  1  0.70900000  0.91050000  0.73900000  1.0 -0.0601662687
C  C17  1  0.78500000  0.01900000  0.56400000  1.0 -0.0443029444
C  C18  1  0.76200000  0.92000000  0.58200000  1.0 0.0247498375
C  C19  1  0.64020000  0.54880000  0.65020000  1.0 0.5453113662
C  C20  1  0.72310000  0.57510000  0.74070000  1.0 0.0014826398
C  C21  1  0.74300000  0.61500000  0.91780000  1.0 -0.2396932645
C  C22  1  0.91050000  0.70900000  0.26100000  1.0 -0.0601662687
C  C23  1  0.01900000  0.78500000  0.43600000  1.0 -0.0443029444
C  C24  1  0.92000000  0.76200000  0.41800000  1.0 0.0247498375
C  C25  1  0.45120000  0.09140000  0.65020000  1.0 0.5453113662
C  C26  1  0.42490000  0.14800000  0.74070000  1.0 0.0014826398
C  C27  1  0.38500000  0.12800000  0.91780000  1.0 -0.2396932645
C  C28  1  0.29100000  0.20150000  0.26100000  1.0 -0.0601662687
C  C29  1  0.21500000  0.23400000  0.43600000  1.0 -0.0443029444
C  C30  1  0.23800000  0.15800000  0.41800000  1.0 0.0247498375
C  C31  1  0.90860000  0.35980000  0.65020000  1.0 0.5453113662
C  C32  1  0.85200000  0.27690000  0.74070000  1.0 0.0014826398
C  C33  1  0.87200000  0.25700000  0.91780000  1.0 -0.2396932645
C  C34  1  0.79850000  0.08950000  0.26100000  1.0 -0.0601662687
C  C35  1  0.76600000  0.98100000  0.43600000  1.0 -0.0443029444
C  C36  1  0.84200000  0.08000000  0.41800000  1.0 0.0247498375
C  C37  1  0.90860000  0.54880000  0.65020000  1.0 0.5453113662
C  C38  1  0.85200000  0.57510000  0.74070000  1.0 0.0014826398
C  C39  1  0.87200000  0.61500000  0.91780000  1.0 -0.2396932645
C  C40  1  0.79850000  0.70900000  0.26100000  1.0 -0.0601662687
C  C41  1  0.76600000  0.78500000  0.43600000  1.0 -0.0443029444
C  C42  1  0.84200000  0.76200000  0.41800000  1.0 0.0247498375
C  C43  1  0.64020000  0.09140000  0.65020000  1.0 0.5453113662
C  C44  1  0.72310000  0.14800000  0.74070000  1.0 0.0014826398
C  C45  1  0.74300000  0.12800000  0.91780000  1.0 -0.2396932645
C  C46  1  0.91050000  0.20150000  0.26100000  1.0 -0.0601662687
C  C47  1  0.01900000  0.23400000  0.43600000  1.0 -0.0443029444
C  C48  1  0.92000000  0.15800000  0.41800000  1.0 0.0247498375
C  C49  1  0.45120000  0.35980000  0.65020000  1.0 0.5453113662
C  C50  1  0.42490000  0.27690000  0.74070000  1.0 0.0014826398
C  C51  1  0.38500000  0.25700000  0.91780000  1.0 -0.2396932645
C  C52  1  0.29100000  0.08950000  0.26100000  1.0 -0.0601662687
C  C53  1  0.21500000  0.98100000  0.43600000  1.0 -0.0443029444
C  C54  1  0.23800000  0.08000000  0.41800000  1.0 0.0247498375
C  C55  1  0.35980000  0.45120000  0.34980000  1.0 0.5453113662
C  C56  1  0.27690000  0.42490000  0.25930000  1.0 0.0014826398
C  C57  1  0.25700000  0.38500000  0.08220000  1.0 -0.2396932645
C  C58  1  0.08950000  0.29100000  0.73900000  1.0 -0.0601662687
C  C59  1  0.98100000  0.21500000  0.56400000  1.0 -0.0443029444
C  C60  1  0.08000000  0.23800000  0.58200000  1.0 0.0247498375
C  C61  1  0.54880000  0.90860000  0.34980000  1.0 0.5453113662
C  C62  1  0.57510000  0.85200000  0.25930000  1.0 0.0014826398
C  C63  1  0.61500000  0.87200000  0.08220000  1.0 -0.2396932645
C  C64  1  0.70900000  0.79850000  0.73900000  1.0 -0.0601662687
C  C65  1  0.78500000  0.76600000  0.56400000  1.0 -0.0443029444
C  C66  1  0.76200000  0.84200000  0.58200000  1.0 0.0247498375
C  C67  1  0.09140000  0.64020000  0.34980000  1.0 0.5453113662
C  C68  1  0.14800000  0.72310000  0.25930000  1.0 0.0014826398
C  C69  1  0.12800000  0.74300000  0.08220000  1.0 -0.2396932645
C  C70  1  0.20150000  0.91050000  0.73900000  1.0 -0.0601662687
C  C71  1  0.23400000  0.01900000  0.56400000  1.0 -0.0443029444
C  C72  1  0.15800000  0.92000000  0.58200000  1.0 0.0247498375
C  C73  1  0.22270000  0.44540000  0.34990000  1.0 -0.1431342913
C  C74  1  0.18230000  0.36460000  0.99730000  1.0 0.2138007031
C  C75  1  0.22270000  0.77730000  0.34990000  1.0 -0.1431342913
C  C76  1  0.18230000  0.81770000  0.99730000  1.0 0.2138007031
C  C77  1  0.55460000  0.77730000  0.34990000  1.0 -0.1431342913
C  C78  1  0.63540000  0.81770000  0.99730000  1.0 0.2138007031
C  C79  1  0.77730000  0.55460000  0.65010000  1.0 -0.1431342913
C  C80  1  0.81770000  0.63540000  0.00270000  1.0 0.2138007031
C  C81  1  0.44540000  0.22270000  0.65010000  1.0 -0.1431342913
C  C82  1  0.36460000  0.18230000  0.00270000  1.0 0.2138007031
C  C83  1  0.77730000  0.22270000  0.65010000  1.0 -0.1431342913
C  C84  1  0.81770000  0.18230000  0.00270000  1.0 0.2138007031
O  O1  1  0.10830000  0.47990000  0.51750000  1.0 -0.5304595881
O  O2  1  0.03130000  0.44190000  0.25240000  1.0 -0.517142023
O  O3  1  0.37160000  0.89170000  0.51750000  1.0 -0.5304595881
O  O4  1  0.41060000  0.96870000  0.25240000  1.0 -0.517142023
O  O5  1  0.52010000  0.62840000  0.51750000  1.0 -0.5304595881
O  O6  1  0.55810000  0.58940000  0.25240000  1.0 -0.517142023
O  O7  1  0.62840000  0.52010000  0.48250000  1.0 -0.5304595881
O  O8  1  0.58940000  0.55810000  0.74760000  1.0 -0.517142023
O  O9  1  0.47990000  0.10830000  0.48250000  1.0 -0.5304595881
O  O10  1  0.44190000  0.03130000  0.74760000  1.0 -0.517142023
O  O11  1  0.89170000  0.37160000  0.48250000  1.0 -0.5304595881
O  O12  1  0.96870000  0.41060000  0.74760000  1.0 -0.517142023
O  O13  1  0.89170000  0.52010000  0.48250000  1.0 -0.5304595881
O  O14  1  0.96870000  0.55810000  0.74760000  1.0 -0.517142023
O  O15  1  0.62840000  0.10830000  0.48250000  1.0 -0.5304595881
O  O16  1  0.58940000  0.03130000  0.74760000  1.0 -0.517142023
O  O17  1  0.47990000  0.37160000  0.48250000  1.0 -0.5304595881
O  O18  1  0.44190000  0.41060000  0.74760000  1.0 -0.517142023
O  O19  1  0.37160000  0.47990000  0.51750000  1.0 -0.5304595881
O  O20  1  0.41060000  0.44190000  0.25240000  1.0 -0.517142023
O  O21  1  0.52010000  0.89170000  0.51750000  1.0 -0.5304595881
O  O22  1  0.55810000  0.96870000  0.25240000  1.0 -0.517142023
O  O23  1  0.10830000  0.62840000  0.51750000  1.0 -0.5304595881
O  O24  1  0.03130000  0.58940000  0.25240000  1.0 -0.517142023
O  O25  1  0.16150000  0.32300000  0.82320000  1.0 -0.0443029444
O  O26  1  0.16150000  0.83850000  0.82320000  1.0 -0.0443029444
O  O27  1  0.67700000  0.83850000  0.82320000  1.0 -0.0443029444
O  O28  1  0.83850000  0.67700000  0.17680000  1.0 -0.0443029444
O  O29  1  0.32300000  0.16150000  0.17680000  1.0 -0.0443029444
O  O30  1  0.83850000  0.16150000  0.17680000  1.0 -0.0443029444
O  O31  1  0.12140000  0.56070000  0.91070000  1.0 -0.517142023
O  O32  1  0.43930000  0.87860000  0.91070000  1.0 -0.517142023
O  O33  1  0.43930000  0.56070000  0.91070000  1.0 -0.517142023
O  O34  1  0.56070000  0.43930000  0.08930000  1.0 -0.517142023
O  O35  1  0.56070000  0.12140000  0.08930000  1.0 -0.517142023
O  O36  1  0.87860000  0.43930000  0.08930000  1.0 -0.517142023
