# DDEC6 charges by PACMAN v1.1 (https://github.com/mtap-research/PACMAN-charge/)
data_FEGDED_FSR_pacman
_symmetry_space_group_name_H-M   'P 1'
_cell_length_a   19.10570000
_cell_length_b   19.10570000
_cell_length_c   6.71290000
_cell_angle_alpha   90.00000000
_cell_angle_beta   90.00000000
_cell_angle_gamma   90.00000000
_symmetry_Int_Tables_number   1
_chemical_formula_structural   CuH9(C5O3)2
_chemical_formula_sum   'Cu8 H72 C80 O48'
_cell_volume   2450.39493395
_cell_formula_units_Z   8
loop_
 _symmetry_equiv_pos_site_id
 _symmetry_equiv_pos_as_xyz
  1  'x, y, z'
loop_
 _atom_site_type_symbol
 _atom_site_label
 _atom_site_symmetry_multiplicity
 _atom_site_fract_x
 _atom_site_fract_y
 _atom_site_fract_z
 _atom_site_occupancy
 _atom_site_charge
Cu  Cu1  1  0.21891000  0.71891000  0.35140000  1.0 0.7719860591
Cu  Cu2  1  0.78109000  0.28109000  0.35140000  1.0 0.7719860591
Cu  Cu3  1  0.21891000  0.28109000  0.35140000  1.0 0.7719860591
Cu  Cu4  1  0.78109000  0.71891000  0.35140000  1.0 0.7719860591
Cu  Cu5  1  0.71891000  0.78109000  0.64860000  1.0 0.7719860591
Cu  Cu6  1  0.28109000  0.21891000  0.64860000  1.0 0.7719860591
Cu  Cu7  1  0.71891000  0.21891000  0.64860000  1.0 0.7719860591
Cu  Cu8  1  0.28109000  0.78109000  0.64860000  1.0 0.7719860591
H  H1  1  0.19490000  0.63470000  0.06020000  1.0 0.1811685965
H  H2  1  0.31110000  0.60480000  0.02130000  1.0 0.1343008272
H  H3  1  0.40480000  0.58700000  0.34180000  1.0 0.1079363415
H  H4  1  0.18190000  0.70320000  0.98640000  1.0 0.1045601584
H  H5  1  0.80510000  0.36530000  0.06020000  1.0 0.1811685965
H  H6  1  0.68890000  0.39520000  0.02130000  1.0 0.1343008272
H  H7  1  0.59520000  0.41300000  0.34180000  1.0 0.1079363415
H  H8  1  0.81810000  0.29680000  0.98640000  1.0 0.1045601584
H  H9  1  0.13470000  0.30510000  0.06020000  1.0 0.1811685965
H  H10  1  0.10480000  0.18890000  0.02130000  1.0 0.1343008272
H  H11  1  0.08700000  0.09520000  0.34180000  1.0 0.1079363415
H  H12  1  0.20320000  0.31810000  0.98640000  1.0 0.1045601584
H  H13  1  0.86530000  0.69490000  0.06020000  1.0 0.1811685965
H  H14  1  0.89520000  0.81110000  0.02130000  1.0 0.1343008272
H  H15  1  0.91300000  0.90480000  0.34180000  1.0 0.1079363415
H  H16  1  0.79680000  0.68190000  0.98640000  1.0 0.1045601584
H  H17  1  0.69490000  0.86530000  0.93980000  1.0 0.1811685965
H  H18  1  0.81110000  0.89520000  0.97870000  1.0 0.1343008272
H  H19  1  0.90480000  0.91300000  0.65820000  1.0 0.1079363415
H  H20  1  0.68190000  0.79680000  0.01360000  1.0 0.1045601584
H  H21  1  0.30510000  0.13470000  0.93980000  1.0 0.1811685965
H  H22  1  0.18890000  0.10480000  0.97870000  1.0 0.1343008272
H  H23  1  0.09520000  0.08700000  0.65820000  1.0 0.1079363415
H  H24  1  0.31810000  0.20320000  0.01360000  1.0 0.1045601584
H  H25  1  0.63470000  0.19490000  0.93980000  1.0 0.1811685965
H  H26  1  0.60480000  0.31110000  0.97870000  1.0 0.1343008272
H  H27  1  0.58700000  0.40480000  0.65820000  1.0 0.1079363415
H  H28  1  0.70320000  0.18190000  0.01360000  1.0 0.1045601584
H  H29  1  0.36530000  0.80510000  0.93980000  1.0 0.1811685965
H  H30  1  0.39520000  0.68890000  0.97870000  1.0 0.1343008272
H  H31  1  0.41300000  0.59520000  0.65820000  1.0 0.1079363415
H  H32  1  0.29680000  0.81810000  0.01360000  1.0 0.1045601584
H  H33  1  0.30510000  0.86530000  0.93980000  1.0 0.1811685965
H  H34  1  0.18890000  0.89520000  0.97870000  1.0 0.1343008272
H  H35  1  0.09520000  0.91300000  0.65820000  1.0 0.1079363415
H  H36  1  0.31810000  0.79680000  0.01360000  1.0 0.1045601584
H  H37  1  0.69490000  0.13470000  0.93980000  1.0 0.1811685965
H  H38  1  0.81110000  0.10480000  0.97870000  1.0 0.1343008272
H  H39  1  0.90480000  0.08700000  0.65820000  1.0 0.1079363415
H  H40  1  0.68190000  0.20320000  0.01360000  1.0 0.1045601584
H  H41  1  0.36530000  0.19490000  0.93980000  1.0 0.1811685965
H  H42  1  0.39520000  0.31110000  0.97870000  1.0 0.1343008272
H  H43  1  0.41300000  0.40480000  0.65820000  1.0 0.1079363415
H  H44  1  0.29680000  0.18190000  0.01360000  1.0 0.1045601584
H  H45  1  0.63470000  0.80510000  0.93980000  1.0 0.1811685965
H  H46  1  0.60480000  0.68890000  0.97870000  1.0 0.1343008272
H  H47  1  0.58700000  0.59520000  0.65820000  1.0 0.1079363415
H  H48  1  0.70320000  0.81810000  0.01360000  1.0 0.1045601584
H  H49  1  0.80510000  0.63470000  0.06020000  1.0 0.1811685965
H  H50  1  0.68890000  0.60480000  0.02130000  1.0 0.1343008272
H  H51  1  0.59520000  0.58700000  0.34180000  1.0 0.1079363415
H  H52  1  0.81810000  0.70320000  0.98640000  1.0 0.1045601584
H  H53  1  0.19490000  0.36530000  0.06020000  1.0 0.1811685965
H  H54  1  0.31110000  0.39520000  0.02130000  1.0 0.1343008272
H  H55  1  0.40480000  0.41300000  0.34180000  1.0 0.1079363415
H  H56  1  0.18190000  0.29680000  0.98640000  1.0 0.1045601584
H  H57  1  0.86530000  0.30510000  0.06020000  1.0 0.1811685965
H  H58  1  0.89520000  0.18890000  0.02130000  1.0 0.1343008272
H  H59  1  0.91300000  0.09520000  0.34180000  1.0 0.1079363415
H  H60  1  0.79680000  0.31810000  0.98640000  1.0 0.1045601584
H  H61  1  0.13470000  0.69490000  0.06020000  1.0 0.1811685965
H  H62  1  0.10480000  0.81110000  0.02130000  1.0 0.1343008272
H  H63  1  0.08700000  0.90480000  0.34180000  1.0 0.1079363415
H  H64  1  0.20320000  0.68190000  0.98640000  1.0 0.1045601584
H  H65  1  0.24240000  0.50000000  0.54510000  1.0 0.1362285905
H  H66  1  0.75760000  0.50000000  0.54510000  1.0 0.1362285905
H  H67  1  0.00000000  0.25760000  0.54510000  1.0 0.1362285905
H  H68  1  0.00000000  0.74240000  0.54510000  1.0 0.1362285905
H  H69  1  0.74240000  0.00000000  0.45490000  1.0 0.1362285905
H  H70  1  0.25760000  0.00000000  0.45490000  1.0 0.1362285905
H  H71  1  0.50000000  0.24240000  0.45490000  1.0 0.1362285905
H  H72  1  0.50000000  0.75760000  0.45490000  1.0 0.1362285905
C  C1  1  0.26290000  0.63160000  0.66540000  1.0 0.53331948
C  C2  1  0.27590000  0.56290000  0.76530000  1.0 -0.0125911906
C  C3  1  0.30330000  0.56260000  0.95590000  1.0 -0.2524318162
C  C4  1  0.38800000  0.54260000  0.31100000  1.0 -0.0125911906
C  C5  1  0.73710000  0.36840000  0.66540000  1.0 0.53331948
C  C6  1  0.72410000  0.43710000  0.76530000  1.0 -0.0125911906
C  C7  1  0.69670000  0.43740000  0.95590000  1.0 -0.2524318162
C  C8  1  0.61200000  0.45740000  0.31100000  1.0 -0.0125911906
C  C9  1  0.13160000  0.23710000  0.66540000  1.0 0.53331948
C  C10  1  0.06290000  0.22410000  0.76530000  1.0 -0.0125911906
C  C11  1  0.06260000  0.19670000  0.95590000  1.0 -0.2524318162
C  C12  1  0.04260000  0.11200000  0.31100000  1.0 -0.0125911906
C  C13  1  0.86840000  0.76290000  0.66540000  1.0 0.53331948
C  C14  1  0.93710000  0.77590000  0.76530000  1.0 -0.0125911906
C  C15  1  0.93740000  0.80330000  0.95590000  1.0 -0.2524318162
C  C16  1  0.95740000  0.88800000  0.31100000  1.0 -0.0125911906
C  C17  1  0.76290000  0.86840000  0.33460000  1.0 0.53331948
C  C18  1  0.77590000  0.93710000  0.23470000  1.0 -0.0125911906
C  C19  1  0.80330000  0.93740000  0.04410000  1.0 -0.2524318162
C  C20  1  0.88800000  0.95740000  0.68900000  1.0 -0.0125911906
C  C21  1  0.23710000  0.13160000  0.33460000  1.0 0.53331948
C  C22  1  0.22410000  0.06290000  0.23470000  1.0 -0.0125911906
C  C23  1  0.19670000  0.06260000  0.04410000  1.0 -0.2524318162
C  C24  1  0.11200000  0.04260000  0.68900000  1.0 -0.0125911906
C  C25  1  0.63160000  0.26290000  0.33460000  1.0 0.53331948
C  C26  1  0.56290000  0.27590000  0.23470000  1.0 -0.0125911906
C  C27  1  0.56260000  0.30330000  0.04410000  1.0 -0.2524318162
C  C28  1  0.54260000  0.38800000  0.68900000  1.0 -0.0125911906
C  C29  1  0.36840000  0.73710000  0.33460000  1.0 0.53331948
C  C30  1  0.43710000  0.72410000  0.23470000  1.0 -0.0125911906
C  C31  1  0.43740000  0.69670000  0.04410000  1.0 -0.2524318162
C  C32  1  0.45740000  0.61200000  0.68900000  1.0 -0.0125911906
C  C33  1  0.23710000  0.86840000  0.33460000  1.0 0.53331948
C  C34  1  0.22410000  0.93710000  0.23470000  1.0 -0.0125911906
C  C35  1  0.19670000  0.93740000  0.04410000  1.0 -0.2524318162
C  C36  1  0.11200000  0.95740000  0.68900000  1.0 -0.0125911906
C  C37  1  0.76290000  0.13160000  0.33460000  1.0 0.53331948
C  C38  1  0.77590000  0.06290000  0.23470000  1.0 -0.0125911906
C  C39  1  0.80330000  0.06260000  0.04410000  1.0 -0.2524318162
C  C40  1  0.88800000  0.04260000  0.68900000  1.0 -0.0125911906
C  C41  1  0.36840000  0.26290000  0.33460000  1.0 0.53331948
C  C42  1  0.43710000  0.27590000  0.23470000  1.0 -0.0125911906
C  C43  1  0.43740000  0.30330000  0.04410000  1.0 -0.2524318162
C  C44  1  0.45740000  0.38800000  0.68900000  1.0 -0.0125911906
C  C45  1  0.63160000  0.73710000  0.33460000  1.0 0.53331948
C  C46  1  0.56290000  0.72410000  0.23470000  1.0 -0.0125911906
C  C47  1  0.56260000  0.69670000  0.04410000  1.0 -0.2524318162
C  C48  1  0.54260000  0.61200000  0.68900000  1.0 -0.0125911906
C  C49  1  0.73710000  0.63160000  0.66540000  1.0 0.53331948
C  C50  1  0.72410000  0.56290000  0.76530000  1.0 -0.0125911906
C  C51  1  0.69670000  0.56260000  0.95590000  1.0 -0.2524318162
C  C52  1  0.61200000  0.54260000  0.31100000  1.0 -0.0125911906
C  C53  1  0.26290000  0.36840000  0.66540000  1.0 0.53331948
C  C54  1  0.27590000  0.43710000  0.76530000  1.0 -0.0125911906
C  C55  1  0.30330000  0.43740000  0.95590000  1.0 -0.2524318162
C  C56  1  0.38800000  0.45740000  0.31100000  1.0 -0.0125911906
C  C57  1  0.86840000  0.23710000  0.66540000  1.0 0.53331948
C  C58  1  0.93710000  0.22410000  0.76530000  1.0 -0.0125911906
C  C59  1  0.93740000  0.19670000  0.95590000  1.0 -0.2524318162
C  C60  1  0.95740000  0.11200000  0.31100000  1.0 -0.0125911906
C  C61  1  0.13160000  0.76290000  0.66540000  1.0 0.53331948
C  C62  1  0.06290000  0.77590000  0.76530000  1.0 -0.0125911906
C  C63  1  0.06260000  0.80330000  0.95590000  1.0 -0.2524318162
C  C64  1  0.04260000  0.88800000  0.31100000  1.0 -0.0125911906
C  C65  1  0.31940000  0.50000000  0.05100000  1.0 0.2226702191
C  C66  1  0.26170000  0.50000000  0.67230000  1.0 -0.1369123168
C  C67  1  0.68060000  0.50000000  0.05100000  1.0 0.2226702191
C  C68  1  0.73830000  0.50000000  0.67230000  1.0 -0.1369123168
C  C69  1  0.00000000  0.18060000  0.05100000  1.0 0.2226702191
C  C70  1  0.00000000  0.23830000  0.67230000  1.0 -0.1369123168
C  C71  1  0.00000000  0.81940000  0.05100000  1.0 0.2226702191
C  C72  1  0.00000000  0.76170000  0.67230000  1.0 -0.1369123168
C  C73  1  0.81940000  0.00000000  0.94900000  1.0 0.2226702191
C  C74  1  0.76170000  0.00000000  0.32770000  1.0 -0.1369123168
C  C75  1  0.18060000  0.00000000  0.94900000  1.0 0.2226702191
C  C76  1  0.23830000  0.00000000  0.32770000  1.0 -0.1369123168
C  C77  1  0.50000000  0.31940000  0.94900000  1.0 0.2226702191
C  C78  1  0.50000000  0.26170000  0.32770000  1.0 -0.1369123168
C  C79  1  0.50000000  0.68060000  0.94900000  1.0 0.2226702191
C  C80  1  0.50000000  0.73830000  0.32770000  1.0 -0.1369123168
O  O1  1  0.23280000  0.63100000  0.49790000  1.0 -0.4936436944
O  O2  1  0.28610000  0.68480000  0.74790000  1.0 -0.5173174783
O  O3  1  0.76720000  0.36900000  0.49790000  1.0 -0.4936436944
O  O4  1  0.71390000  0.31520000  0.74790000  1.0 -0.5173174783
O  O5  1  0.13100000  0.26720000  0.49790000  1.0 -0.4936436944
O  O6  1  0.18480000  0.21390000  0.74790000  1.0 -0.5173174783
O  O7  1  0.86900000  0.73280000  0.49790000  1.0 -0.4936436944
O  O8  1  0.81520000  0.78610000  0.74790000  1.0 -0.5173174783
O  O9  1  0.73280000  0.86900000  0.50210000  1.0 -0.4936436944
O  O10  1  0.78610000  0.81520000  0.25210000  1.0 -0.5173174783
O  O11  1  0.26720000  0.13100000  0.50210000  1.0 -0.4936436944
O  O12  1  0.21390000  0.18480000  0.25210000  1.0 -0.5173174783
O  O13  1  0.63100000  0.23280000  0.50210000  1.0 -0.4936436944
O  O14  1  0.68480000  0.28610000  0.25210000  1.0 -0.5173174783
O  O15  1  0.36900000  0.76720000  0.50210000  1.0 -0.4936436944
O  O16  1  0.31520000  0.71390000  0.25210000  1.0 -0.5173174783
O  O17  1  0.26720000  0.86900000  0.50210000  1.0 -0.4936436944
O  O18  1  0.21390000  0.81520000  0.25210000  1.0 -0.5173174783
O  O19  1  0.73280000  0.13100000  0.50210000  1.0 -0.4936436944
O  O20  1  0.78610000  0.18480000  0.25210000  1.0 -0.5173174783
O  O21  1  0.36900000  0.23280000  0.50210000  1.0 -0.4936436944
O  O22  1  0.31520000  0.28610000  0.25210000  1.0 -0.5173174783
O  O23  1  0.63100000  0.76720000  0.50210000  1.0 -0.4936436944
O  O24  1  0.68480000  0.71390000  0.25210000  1.0 -0.5173174783
O  O25  1  0.76720000  0.63100000  0.49790000  1.0 -0.4936436944
O  O26  1  0.71390000  0.68480000  0.74790000  1.0 -0.5173174783
O  O27  1  0.23280000  0.36900000  0.49790000  1.0 -0.4936436944
O  O28  1  0.28610000  0.31520000  0.74790000  1.0 -0.5173174783
O  O29  1  0.86900000  0.26720000  0.49790000  1.0 -0.4936436944
O  O30  1  0.81520000  0.21390000  0.74790000  1.0 -0.5173174783
O  O31  1  0.13100000  0.73280000  0.49790000  1.0 -0.4936436944
O  O32  1  0.18480000  0.78610000  0.74790000  1.0 -0.5173174783
O  O33  1  0.17520000  0.67520000  0.08890000  1.0 -0.5067674898
O  O34  1  0.82480000  0.32480000  0.08890000  1.0 -0.5067674898
O  O35  1  0.17520000  0.32480000  0.08890000  1.0 -0.5067674898
O  O36  1  0.82480000  0.67520000  0.08890000  1.0 -0.5067674898
O  O37  1  0.67520000  0.82480000  0.91110000  1.0 -0.5067674898
O  O38  1  0.32480000  0.17520000  0.91110000  1.0 -0.5067674898
O  O39  1  0.67520000  0.17520000  0.91110000  1.0 -0.5067674898
O  O40  1  0.32480000  0.82480000  0.91110000  1.0 -0.5067674898
O  O41  1  0.34740000  0.50000000  0.23490000  1.0 -0.032625129
O  O42  1  0.65260000  0.50000000  0.23490000  1.0 -0.032625129
O  O43  1  0.00000000  0.15260000  0.23490000  1.0 -0.032625129
O  O44  1  0.00000000  0.84740000  0.23490000  1.0 -0.032625129
O  O45  1  0.84740000  0.00000000  0.76510000  1.0 -0.032625129
O  O46  1  0.15260000  0.00000000  0.76510000  1.0 -0.032625129
O  O47  1  0.50000000  0.34740000  0.76510000  1.0 -0.032625129
O  O48  1  0.50000000  0.65260000  0.76510000  1.0 -0.032625129
