# DDEC6 charges by PACMAN v1.1 (https://github.com/mtap-research/PACMAN-charge/)
data_FEJJEN01_ASR_pacman
_symmetry_space_group_name_H-M   'P 1'
_cell_length_a   11.66500000
_cell_length_b   11.66500000
_cell_length_c   11.66500000
_cell_angle_alpha   105.14400000
_cell_angle_beta   105.14400000
_cell_angle_gamma   105.14400000
_symmetry_Int_Tables_number   1
_chemical_formula_structural   Zn2CdH54C36(N4O9)2
_chemical_formula_sum   'Zn2 Cd1 H54 C36 N8 O18'
_cell_volume   1383.38937423
_cell_formula_units_Z   1
loop_
 _symmetry_equiv_pos_site_id
 _symmetry_equiv_pos_as_xyz
  1  'x, y, z'
loop_
 _atom_site_type_symbol
 _atom_site_label
 _atom_site_symmetry_multiplicity
 _atom_site_fract_x
 _atom_site_fract_y
 _atom_site_fract_z
 _atom_site_occupancy
 _atom_site_charge
Zn  Zn1  1  0.23990000  0.23990000  0.23990000  1.0 0.7700206117
Zn  Zn2  1  0.76010000  0.76010000  0.76010000  1.0 0.7700206117
Cd  Cd1  1  0.50000000  0.50000000  0.50000000  1.0 1.4416332023
H  H1  1  0.69680000  0.65840000  0.05740000  1.0 0.1134693996
H  H2  1  0.69360000  0.55900000  0.28270000  1.0 0.2016753829
H  H3  1  0.74160000  0.68040000  0.25190000  1.0 0.210801013
H  H4  1  0.63260000  0.66220000  0.30590000  1.0 0.210801013
H  H5  1  0.63350000  0.60050000  0.21580000  1.0 0.0095064179
H  H6  1  0.06750000  0.96070000  0.17630000  1.0 0.1165971931
H  H7  1  0.16720000  0.95690000  0.11100000  1.0 0.0834603522
H  H8  1  0.98760000  0.06810000  0.20160000  1.0 0.0834603522
H  H9  1  0.06180000  0.97570000  0.18920000  1.0 0.1165971931
H  H10  1  0.65840000  0.05740000  0.69680000  1.0 0.1134693996
H  H11  1  0.55900000  0.28270000  0.69360000  1.0 0.2016753829
H  H12  1  0.68040000  0.25190000  0.74160000  1.0 0.210801013
H  H13  1  0.66220000  0.30590000  0.63260000  1.0 0.210801013
H  H14  1  0.60050000  0.21580000  0.63350000  1.0 0.0095064179
H  H15  1  0.96070000  0.17630000  0.06750000  1.0 0.1165971931
H  H16  1  0.95690000  0.11100000  0.16720000  1.0 0.0834603522
H  H17  1  0.06810000  0.20160000  0.98760000  1.0 0.0834603522
H  H18  1  0.97570000  0.18920000  0.06180000  1.0 0.1165971931
H  H19  1  0.05740000  0.69680000  0.65840000  1.0 0.1134693996
H  H20  1  0.28270000  0.69360000  0.55900000  1.0 0.2016753829
H  H21  1  0.25190000  0.74160000  0.68040000  1.0 0.210801013
H  H22  1  0.30590000  0.63260000  0.66220000  1.0 0.210801013
H  H23  1  0.21580000  0.63350000  0.60050000  1.0 0.0095064179
H  H24  1  0.17630000  0.06750000  0.96070000  1.0 0.1165971931
H  H25  1  0.11100000  0.16720000  0.95690000  1.0 0.0834603522
H  H26  1  0.20160000  0.98760000  0.06810000  1.0 0.0834603522
H  H27  1  0.18920000  0.06180000  0.97570000  1.0 0.1165971931
H  H28  1  0.30320000  0.34160000  0.94260000  1.0 0.1134693996
H  H29  1  0.30640000  0.44100000  0.71730000  1.0 0.2016753829
H  H30  1  0.25840000  0.31960000  0.74810000  1.0 0.210801013
H  H31  1  0.36740000  0.33780000  0.69410000  1.0 0.210801013
H  H32  1  0.36650000  0.39950000  0.78420000  1.0 0.0095064179
H  H33  1  0.93250000  0.03930000  0.82370000  1.0 0.1165971931
H  H34  1  0.83280000  0.04310000  0.88900000  1.0 0.0834603522
H  H35  1  0.01240000  0.93190000  0.79840000  1.0 0.0834603522
H  H36  1  0.93820000  0.02430000  0.81080000  1.0 0.1165971931
H  H37  1  0.34160000  0.94260000  0.30320000  1.0 0.1134693996
H  H38  1  0.44100000  0.71730000  0.30640000  1.0 0.2016753829
H  H39  1  0.31960000  0.74810000  0.25840000  1.0 0.210801013
H  H40  1  0.33780000  0.69410000  0.36740000  1.0 0.2156158463
H  H41  1  0.39950000  0.78420000  0.36650000  1.0 0.0095064179
H  H42  1  0.03930000  0.82370000  0.93250000  1.0 0.1165971931
H  H43  1  0.04310000  0.88900000  0.83280000  1.0 0.0834603522
H  H44  1  0.93190000  0.79840000  0.01240000  1.0 0.0834603522
H  H45  1  0.02430000  0.81080000  0.93820000  1.0 0.1165971931
H  H46  1  0.94260000  0.30320000  0.34160000  1.0 0.1134693996
H  H47  1  0.71730000  0.30640000  0.44100000  1.0 0.2016753829
H  H48  1  0.74810000  0.25840000  0.31960000  1.0 0.210801013
H  H49  1  0.69410000  0.36740000  0.33780000  1.0 0.210801013
H  H50  1  0.78420000  0.36650000  0.39950000  1.0 0.0095064179
H  H51  1  0.82370000  0.93250000  0.03930000  1.0 0.1165971931
H  H52  1  0.88900000  0.83280000  0.04310000  1.0 0.0834603522
H  H53  1  0.79840000  0.01240000  0.93190000  1.0 0.0834603522
H  H54  1  0.81080000  0.93820000  0.02430000  1.0 0.1165971931
C  C1  1  0.41722000  0.42227000  0.18989000  1.0 0.5730884449
C  C2  1  0.46072000  0.46497000  0.09325000  1.0 -0.00038058
C  C3  1  0.57968000  0.56018000  0.12916000  1.0 0.130312192
C  C4  1  0.61666000  0.59369000  0.03422000  1.0 -0.1944679343
C  C5  1  0.08682000  0.96498000  0.10290000  1.0 -0.0918902232
C  C6  1  0.01380000  0.01525000  0.14485000  1.0 -0.1281510913
C  C7  1  0.42227000  0.18989000  0.41722000  1.0 0.5730884449
C  C8  1  0.46497000  0.09325000  0.46072000  1.0 0.0004335841
C  C9  1  0.56018000  0.12916000  0.57968000  1.0 0.130312192
C  C10  1  0.59369000  0.03422000  0.61666000  1.0 -0.1944679343
C  C11  1  0.96498000  0.10290000  0.08682000  1.0 -0.0918902232
C  C12  1  0.01525000  0.14485000  0.01380000  1.0 -0.1281510913
C  C13  1  0.18989000  0.41722000  0.42227000  1.0 0.5730884449
C  C14  1  0.09325000  0.46072000  0.46497000  1.0 -0.00038058
C  C15  1  0.12916000  0.57968000  0.56018000  1.0 0.130312192
C  C16  1  0.03422000  0.61666000  0.59369000  1.0 -0.1944679343
C  C17  1  0.10290000  0.08682000  0.96498000  1.0 -0.0918902232
C  C18  1  0.14485000  0.01380000  0.01525000  1.0 -0.1281510913
C  C19  1  0.58278000  0.57773000  0.81011000  1.0 0.5730884449
C  C20  1  0.53928000  0.53503000  0.90675000  1.0 0.0004335841
C  C21  1  0.42032000  0.43982000  0.87084000  1.0 0.130312192
C  C22  1  0.38334000  0.40631000  0.96578000  1.0 -0.1944679343
C  C23  1  0.91318000  0.03502000  0.89710000  1.0 -0.0918902232
C  C24  1  0.98620000  0.98475000  0.85515000  1.0 -0.1281510913
C  C25  1  0.57773000  0.81011000  0.58278000  1.0 0.5730884449
C  C26  1  0.53503000  0.90675000  0.53928000  1.0 -0.00038058
C  C27  1  0.43982000  0.87084000  0.42032000  1.0 0.130312192
C  C28  1  0.40631000  0.96578000  0.38334000  1.0 -0.1944679343
C  C29  1  0.03502000  0.89710000  0.91318000  1.0 -0.0918902232
C  C30  1  0.98475000  0.85515000  0.98620000  1.0 -0.1281510913
C  C31  1  0.81011000  0.58278000  0.57773000  1.0 0.5730884449
C  C32  1  0.90675000  0.53928000  0.53503000  1.0 0.0004335841
C  C33  1  0.87084000  0.42032000  0.43982000  1.0 0.130312192
C  C34  1  0.96578000  0.38334000  0.40631000  1.0 -0.1944679343
C  C35  1  0.89710000  0.91318000  0.03502000  1.0 -0.0918902232
C  C36  1  0.85515000  0.98620000  0.98475000  1.0 -0.1281510913
N  N1  1  0.66905000  0.62013000  0.25221000  1.0 -0.3957761848
N  N2  1  0.62013000  0.25221000  0.66905000  1.0 -0.394171886
N  N3  1  0.25221000  0.66905000  0.62013000  1.0 -0.3957761848
N  N4  1  0.33095000  0.37987000  0.74779000  1.0 -0.394171886
N  N5  1  0.37987000  0.74779000  0.33095000  1.0 -0.394171886
N  N6  1  0.74779000  0.33095000  0.37987000  1.0 -0.3957761848
N  N7  1  0.09215000  0.09215000  0.09215000  1.0 -0.0918902232
N  N8  1  0.90785000  0.90785000  0.90785000  1.0 -0.0918902232
O  O1  1  0.30339000  0.34609000  0.15127000  1.0 -0.5653118117
O  O2  1  0.49690000  0.45590000  0.29900000  1.0 -0.4797622337
O  O3  1  0.48560000  0.47480000  0.30400000  1.0 -0.4624348207
O  O4  1  0.34609000  0.15127000  0.30339000  1.0 -0.5653118117
O  O5  1  0.45590000  0.29900000  0.49690000  1.0 -0.4797622337
O  O6  1  0.47480000  0.30400000  0.48560000  1.0 -0.4624348207
O  O7  1  0.15127000  0.30339000  0.34609000  1.0 -0.5653118117
O  O8  1  0.29900000  0.49690000  0.45590000  1.0 -0.4797622337
O  O9  1  0.30400000  0.48560000  0.47480000  1.0 -0.4624348207
O  O10  1  0.69661000  0.65391000  0.84873000  1.0 -0.5648404582
O  O11  1  0.50310000  0.54410000  0.70100000  1.0 -0.4797622337
O  O12  1  0.51440000  0.52520000  0.69600000  1.0 -0.4624348207
O  O13  1  0.65391000  0.84873000  0.69661000  1.0 -0.5653118117
O  O14  1  0.54410000  0.70100000  0.50310000  1.0 -0.4797622337
O  O15  1  0.52520000  0.69600000  0.51440000  1.0 -0.4624348207
O  O16  1  0.84873000  0.69661000  0.65391000  1.0 -0.5653118117
O  O17  1  0.70100000  0.50310000  0.54410000  1.0 -0.4797622337
O  O18  1  0.69600000  0.51440000  0.52520000  1.0 -0.4624348207
