# DDEC6 charges by PACMAN v1.1 (https://github.com/mtap-research/PACMAN-charge/)
data_FEJJEN_FSR_pacman
_symmetry_space_group_name_H-M   'P 1'
_cell_length_a   11.70350000
_cell_length_b   11.70350000
_cell_length_c   11.70350000
_cell_angle_alpha   104.88800000
_cell_angle_beta   104.88800000
_cell_angle_gamma   104.88800000
_symmetry_Int_Tables_number   1
_chemical_formula_structural   Zn2CdH54C36(N4O9)2
_chemical_formula_sum   'Zn2 Cd1 H54 C36 N8 O18'
_cell_volume   1404.87872240
_cell_formula_units_Z   1
loop_
 _symmetry_equiv_pos_site_id
 _symmetry_equiv_pos_as_xyz
  1  'x, y, z'
loop_
 _atom_site_type_symbol
 _atom_site_label
 _atom_site_symmetry_multiplicity
 _atom_site_fract_x
 _atom_site_fract_y
 _atom_site_fract_z
 _atom_site_occupancy
 _atom_site_charge
Zn  Zn1  1  0.76211000  0.76211000  0.76211000  1.0 0.6985677087
Zn  Zn2  1  0.23789000  0.23789000  0.23789000  1.0 0.6985677087
Cd  Cd1  1  0.50000000  0.50000000  0.50000000  1.0 1.0594191157
H  H1  1  0.30810000  0.94140000  0.34220000  1.0 0.1166822367
H  H2  1  0.31740000  0.71400000  0.43610000  1.0 0.1864745073
H  H3  1  0.26840000  0.74760000  0.31710000  1.0 0.2137669228
H  H4  1  0.38180000  0.70010000  0.33520000  1.0 0.1984789722
H  H5  1  0.37350000  0.78550000  0.39820000  1.0 0.0388609074
H  H6  1  0.80780000  0.01890000  0.94310000  1.0 0.1036937885
H  H7  1  0.80550000  0.92840000  0.01940000  1.0 0.0699006521
H  H8  1  0.89450000  0.04420000  0.83470000  1.0 0.0699006521
H  H9  1  0.82330000  0.03770000  0.92920000  1.0 0.1054882385
H  H10  1  0.94140000  0.34220000  0.30810000  1.0 0.1166822367
H  H11  1  0.71400000  0.43610000  0.31740000  1.0 0.1864745073
H  H12  1  0.74760000  0.31710000  0.26840000  1.0 0.2137669228
H  H13  1  0.70010000  0.33520000  0.38180000  1.0 0.1984789722
H  H14  1  0.78550000  0.39820000  0.37350000  1.0 0.0388609074
H  H15  1  0.01890000  0.94310000  0.80780000  1.0 0.1036937885
H  H16  1  0.92840000  0.01940000  0.80550000  1.0 0.0699006521
H  H17  1  0.04420000  0.83470000  0.89450000  1.0 0.0699006521
H  H18  1  0.03770000  0.92920000  0.82330000  1.0 0.1054882385
H  H19  1  0.34220000  0.30810000  0.94140000  1.0 0.1166822367
H  H20  1  0.43610000  0.31740000  0.71400000  1.0 0.1864745073
H  H21  1  0.31710000  0.26840000  0.74760000  1.0 0.2137669228
H  H22  1  0.33520000  0.38180000  0.70010000  1.0 0.1984789722
H  H23  1  0.39820000  0.37350000  0.78550000  1.0 0.0388609074
H  H24  1  0.94310000  0.80780000  0.01890000  1.0 0.1036937885
H  H25  1  0.01940000  0.80550000  0.92840000  1.0 0.0699006521
H  H26  1  0.83470000  0.89450000  0.04420000  1.0 0.0699006521
H  H27  1  0.92920000  0.82330000  0.03770000  1.0 0.1054882385
H  H28  1  0.69190000  0.05860000  0.65780000  1.0 0.1166822367
H  H29  1  0.68260000  0.28600000  0.56390000  1.0 0.1864745073
H  H30  1  0.73160000  0.25240000  0.68290000  1.0 0.2137669228
H  H31  1  0.61820000  0.29990000  0.66480000  1.0 0.1984789722
H  H32  1  0.62650000  0.21450000  0.60180000  1.0 0.0388609074
H  H33  1  0.19220000  0.98110000  0.05690000  1.0 0.1036937885
H  H34  1  0.19450000  0.07160000  0.98060000  1.0 0.0699006521
H  H35  1  0.10550000  0.95580000  0.16530000  1.0 0.0699006521
H  H36  1  0.17670000  0.96230000  0.07080000  1.0 0.1054882385
H  H37  1  0.05860000  0.65780000  0.69190000  1.0 0.1166822367
H  H38  1  0.28600000  0.56390000  0.68260000  1.0 0.1864745073
H  H39  1  0.25240000  0.68290000  0.73160000  1.0 0.2137669228
H  H40  1  0.29990000  0.66480000  0.61820000  1.0 0.1984789722
H  H41  1  0.21450000  0.60180000  0.62650000  1.0 0.0388609074
H  H42  1  0.98110000  0.05690000  0.19220000  1.0 0.1036937885
H  H43  1  0.07160000  0.98060000  0.19450000  1.0 0.0699006521
H  H44  1  0.95580000  0.16530000  0.10550000  1.0 0.0699006521
H  H45  1  0.96230000  0.07080000  0.17670000  1.0 0.1054882385
H  H46  1  0.65780000  0.69190000  0.05860000  1.0 0.1166822367
H  H47  1  0.56390000  0.68260000  0.28600000  1.0 0.1864745073
H  H48  1  0.68290000  0.73160000  0.25240000  1.0 0.2137669228
H  H49  1  0.66480000  0.61820000  0.29990000  1.0 0.1984789722
H  H50  1  0.60180000  0.62650000  0.21450000  1.0 0.0388609074
H  H51  1  0.05690000  0.19220000  0.98110000  1.0 0.1036937885
H  H52  1  0.98060000  0.19450000  0.07160000  1.0 0.0699006521
H  H53  1  0.16530000  0.10550000  0.95580000  1.0 0.0699006521
H  H54  1  0.07080000  0.17670000  0.96230000  1.0 0.1054882385
C  C1  1  0.58760000  0.81164000  0.57595000  1.0 0.4940342558
C  C2  1  0.54172000  0.90792000  0.53422000  1.0 -0.0765537269
C  C3  1  0.42478000  0.87179000  0.43922000  1.0 0.1301031513
C  C4  1  0.38562000  0.96599000  0.40665000  1.0 -0.2158478296
C  C5  1  0.85690000  0.98210000  0.98990000  1.0 -0.1411440518
C  C6  1  0.89850000  0.03470000  0.91370000  1.0 -0.105758473
C  C7  1  0.81164000  0.57595000  0.58760000  1.0 0.4940342558
C  C8  1  0.90792000  0.53422000  0.54172000  1.0 -0.0765537269
C  C9  1  0.87179000  0.43922000  0.42478000  1.0 0.1301031513
C  C10  1  0.96599000  0.40665000  0.38562000  1.0 -0.2158478296
C  C11  1  0.98210000  0.98990000  0.85690000  1.0 -0.1411440518
C  C12  1  0.03470000  0.91370000  0.89850000  1.0 -0.105758473
C  C13  1  0.57595000  0.58760000  0.81164000  1.0 0.4940342558
C  C14  1  0.53422000  0.54172000  0.90792000  1.0 -0.0765537269
C  C15  1  0.43922000  0.42478000  0.87179000  1.0 0.1301031513
C  C16  1  0.40665000  0.38562000  0.96599000  1.0 -0.2158478296
C  C17  1  0.98990000  0.85690000  0.98210000  1.0 -0.1411440518
C  C18  1  0.91370000  0.89850000  0.03470000  1.0 -0.105758473
C  C19  1  0.41240000  0.18836000  0.42405000  1.0 0.4940342558
C  C20  1  0.45828000  0.09208000  0.46578000  1.0 -0.0765537269
C  C21  1  0.57522000  0.12821000  0.56078000  1.0 0.1301031513
C  C22  1  0.61438000  0.03401000  0.59335000  1.0 -0.2158478296
C  C23  1  0.14310000  0.01790000  0.01010000  1.0 -0.1411440518
C  C24  1  0.10150000  0.96530000  0.08630000  1.0 -0.105758473
C  C25  1  0.18836000  0.42405000  0.41240000  1.0 0.4940342558
C  C26  1  0.09208000  0.46578000  0.45828000  1.0 -0.0765537269
C  C27  1  0.12821000  0.56078000  0.57522000  1.0 0.1301031513
C  C28  1  0.03401000  0.59335000  0.61438000  1.0 -0.2158478296
C  C29  1  0.01790000  0.01010000  0.14310000  1.0 -0.1411440518
C  C30  1  0.96530000  0.08630000  0.10150000  1.0 -0.105758473
C  C31  1  0.42405000  0.41240000  0.18836000  1.0 0.4940342558
C  C32  1  0.46578000  0.45828000  0.09208000  1.0 -0.0765537269
C  C33  1  0.56078000  0.57522000  0.12821000  1.0 0.1301031513
C  C34  1  0.59335000  0.61438000  0.03401000  1.0 -0.2158478296
C  C35  1  0.01010000  0.14310000  0.01790000  1.0 -0.1411440518
C  C36  1  0.08630000  0.10150000  0.96530000  1.0 -0.105758473
N  N1  1  0.34130000  0.74870000  0.37720000  1.0 -0.4370928205
N  N2  1  0.74870000  0.37720000  0.34130000  1.0 -0.4370928205
N  N3  1  0.37720000  0.34130000  0.74870000  1.0 -0.4370928205
N  N4  1  0.65870000  0.25130000  0.62280000  1.0 -0.4370928205
N  N5  1  0.25130000  0.62280000  0.65870000  1.0 -0.4370928205
N  N6  1  0.62280000  0.65870000  0.25130000  1.0 -0.4370928205
N  N7  1  0.90860000  0.90860000  0.90860000  1.0 -0.0886359162
N  N8  1  0.09140000  0.09140000  0.09140000  1.0 -0.0886359162
O  O1  1  0.69254000  0.85226000  0.66250000  1.0 -0.5509890811
O  O2  1  0.51210000  0.70150000  0.53680000  1.0 -0.2950622834
O  O3  1  0.53280000  0.69920000  0.51000000  1.0 -0.2848164684
O  O4  1  0.85226000  0.66250000  0.69254000  1.0 -0.5509890811
O  O5  1  0.70150000  0.53680000  0.51210000  1.0 -0.2950622834
O  O6  1  0.69920000  0.51000000  0.53280000  1.0 -0.2848164684
O  O7  1  0.66250000  0.69254000  0.85226000  1.0 -0.5509890811
O  O8  1  0.53680000  0.51210000  0.70150000  1.0 -0.2950622834
O  O9  1  0.51000000  0.53280000  0.69920000  1.0 -0.2848164684
O  O10  1  0.30746000  0.14774000  0.33750000  1.0 -0.5509890811
O  O11  1  0.48790000  0.29850000  0.46320000  1.0 -0.2950622834
O  O12  1  0.46720000  0.30080000  0.49000000  1.0 -0.2848164684
O  O13  1  0.14774000  0.33750000  0.30746000  1.0 -0.5509890811
O  O14  1  0.29850000  0.46320000  0.48790000  1.0 -0.2950622834
O  O15  1  0.30080000  0.49000000  0.46720000  1.0 -0.2848164684
O  O16  1  0.33750000  0.30746000  0.14774000  1.0 -0.5509890811
O  O17  1  0.46320000  0.48790000  0.29850000  1.0 -0.2950622834
O  O18  1  0.49000000  0.46720000  0.30080000  1.0 -0.2848164684
