# DDEC6 charges by PACMAN v1.1 (https://github.com/mtap-research/PACMAN-charge/)
data_FELWAW_ASR_pacman
_symmetry_space_group_name_H-M   'P 1'
_cell_length_a   18.62500000
_cell_length_b   18.62500000
_cell_length_c   18.62500000
_cell_angle_alpha   60.00000000
_cell_angle_beta   60.00000000
_cell_angle_gamma   60.00000000
_symmetry_Int_Tables_number   1
_chemical_formula_structural   CaLuH12(C4O5)3
_chemical_formula_sum   'Ca8 Lu8 H96 C96 O120'
_cell_volume   4568.50228461
_cell_formula_units_Z   8
loop_
 _symmetry_equiv_pos_site_id
 _symmetry_equiv_pos_as_xyz
  1  'x, y, z'
loop_
 _atom_site_type_symbol
 _atom_site_label
 _atom_site_symmetry_multiplicity
 _atom_site_fract_x
 _atom_site_fract_y
 _atom_site_fract_z
 _atom_site_occupancy
 _atom_site_charge
Ca  Ca1  1  0.37500000  0.37500000  0.37500000  1.0 1.391457872
Ca  Ca2  1  0.37500000  0.37500000  0.87500000  1.0 1.391457872
Ca  Ca3  1  0.37500000  0.87500000  0.37500000  1.0 1.391457872
Ca  Ca4  1  0.87500000  0.37500000  0.37500000  1.0 1.391457872
Ca  Ca5  1  0.87500000  0.87500000  0.37500000  1.0 1.391457872
Ca  Ca6  1  0.87500000  0.87500000  0.87500000  1.0 1.391457872
Ca  Ca7  1  0.87500000  0.37500000  0.87500000  1.0 1.391457872
Ca  Ca8  1  0.37500000  0.87500000  0.87500000  1.0 1.391457872
Lu  Lu1  1  0.62500000  0.12500000  0.12500000  1.0 1.3991037771
Lu  Lu2  1  0.12500000  0.62500000  0.12500000  1.0 1.3991037771
Lu  Lu3  1  0.12500000  0.12500000  0.62500000  1.0 1.3991037771
Lu  Lu4  1  0.12500000  0.12500000  0.12500000  1.0 1.3991037771
Lu  Lu5  1  0.12500000  0.62500000  0.62500000  1.0 1.3991037771
Lu  Lu6  1  0.62500000  0.12500000  0.62500000  1.0 1.3991037771
Lu  Lu7  1  0.62500000  0.62500000  0.12500000  1.0 1.3991037771
Lu  Lu8  1  0.62500000  0.62500000  0.62500000  1.0 1.3991037771
H  H1  1  0.59790000  0.21970000  0.29110000  1.0 0.1401124974
H  H2  1  0.21970000  0.59790000  0.89130000  1.0 0.1401124974
H  H3  1  0.29110000  0.89130000  0.59790000  1.0 0.1401124974
H  H4  1  0.89130000  0.29110000  0.21970000  1.0 0.1401124974
H  H5  1  0.29110000  0.59790000  0.21970000  1.0 0.1401124974
H  H6  1  0.89130000  0.21970000  0.59790000  1.0 0.1401124974
H  H7  1  0.59790000  0.29110000  0.89130000  1.0 0.1401124974
H  H8  1  0.21970000  0.89130000  0.29110000  1.0 0.1401124974
H  H9  1  0.21970000  0.29110000  0.59790000  1.0 0.1401124974
H  H10  1  0.59790000  0.89130000  0.21970000  1.0 0.1401124974
H  H11  1  0.89130000  0.59790000  0.29110000  1.0 0.1401124974
H  H12  1  0.29110000  0.21970000  0.89130000  1.0 0.1401124974
H  H13  1  0.65210000  0.03030000  0.35870000  1.0 0.1401124974
H  H14  1  0.03030000  0.65210000  0.95890000  1.0 0.1401124974
H  H15  1  0.95890000  0.35870000  0.03030000  1.0 0.1401124974
H  H16  1  0.35870000  0.95890000  0.65210000  1.0 0.1401124974
H  H17  1  0.95890000  0.65210000  0.35870000  1.0 0.1401124974
H  H18  1  0.35870000  0.03030000  0.95890000  1.0 0.1401124974
H  H19  1  0.65210000  0.95890000  0.03030000  1.0 0.1401124974
H  H20  1  0.03030000  0.35870000  0.65210000  1.0 0.1401124974
H  H21  1  0.03030000  0.95890000  0.35870000  1.0 0.1401124974
H  H22  1  0.65210000  0.35870000  0.95890000  1.0 0.1401124974
H  H23  1  0.35870000  0.65210000  0.03030000  1.0 0.1401124974
H  H24  1  0.95890000  0.03030000  0.65210000  1.0 0.1401124974
H  H25  1  0.15210000  0.53030000  0.45890000  1.0 0.1401124974
H  H26  1  0.53030000  0.15210000  0.85870000  1.0 0.1401124974
H  H27  1  0.45890000  0.85870000  0.15210000  1.0 0.1401124974
H  H28  1  0.85870000  0.45890000  0.53030000  1.0 0.1401124974
H  H29  1  0.45890000  0.15210000  0.53030000  1.0 0.1401124974
H  H30  1  0.85870000  0.53030000  0.15210000  1.0 0.1401124974
H  H31  1  0.15210000  0.45890000  0.85870000  1.0 0.1401124974
H  H32  1  0.53030000  0.85870000  0.45890000  1.0 0.1401124974
H  H33  1  0.53030000  0.45890000  0.15210000  1.0 0.1401124974
H  H34  1  0.15210000  0.85870000  0.53030000  1.0 0.1401124974
H  H35  1  0.85870000  0.15210000  0.45890000  1.0 0.1401124974
H  H36  1  0.45890000  0.53030000  0.85870000  1.0 0.1401124974
H  H37  1  0.09790000  0.71970000  0.39130000  1.0 0.1401124974
H  H38  1  0.71970000  0.09790000  0.79110000  1.0 0.1401124974
H  H39  1  0.79110000  0.39130000  0.71970000  1.0 0.1401124974
H  H40  1  0.39130000  0.79110000  0.09790000  1.0 0.1401124974
H  H41  1  0.79110000  0.09790000  0.39130000  1.0 0.1401124974
H  H42  1  0.39130000  0.71970000  0.79110000  1.0 0.1401124974
H  H43  1  0.09790000  0.79110000  0.71970000  1.0 0.1401124974
H  H44  1  0.71970000  0.39130000  0.09790000  1.0 0.1401124974
H  H45  1  0.71970000  0.79110000  0.39130000  1.0 0.1401124974
H  H46  1  0.09790000  0.39130000  0.79110000  1.0 0.1401124974
H  H47  1  0.39130000  0.09790000  0.71970000  1.0 0.1401124974
H  H48  1  0.79110000  0.71970000  0.09790000  1.0 0.1401124974
H  H49  1  0.52940000  0.16960000  0.34860000  1.0 0.1401124974
H  H50  1  0.16960000  0.52940000  0.95240000  1.0 0.1401124974
H  H51  1  0.34860000  0.95240000  0.52940000  1.0 0.1401124974
H  H52  1  0.95240000  0.34860000  0.16960000  1.0 0.1401124974
H  H53  1  0.34860000  0.52940000  0.16960000  1.0 0.1401124974
H  H54  1  0.95240000  0.16960000  0.52940000  1.0 0.1401124974
H  H55  1  0.52940000  0.34860000  0.95240000  1.0 0.1401124974
H  H56  1  0.16960000  0.95240000  0.34860000  1.0 0.1401124974
H  H57  1  0.16960000  0.34860000  0.52940000  1.0 0.1401124974
H  H58  1  0.52940000  0.95240000  0.16960000  1.0 0.1401124974
H  H59  1  0.95240000  0.52940000  0.34860000  1.0 0.1401124974
H  H60  1  0.34860000  0.16960000  0.95240000  1.0 0.1401124974
H  H61  1  0.72060000  0.08040000  0.29760000  1.0 0.1401124974
H  H62  1  0.08040000  0.72060000  0.90140000  1.0 0.1401124974
H  H63  1  0.90140000  0.29760000  0.08040000  1.0 0.1401124974
H  H64  1  0.29760000  0.90140000  0.72060000  1.0 0.1401124974
H  H65  1  0.90140000  0.72060000  0.29760000  1.0 0.1401124974
H  H66  1  0.29760000  0.08040000  0.90140000  1.0 0.1401124974
H  H67  1  0.72060000  0.90140000  0.08040000  1.0 0.1401124974
H  H68  1  0.08040000  0.29760000  0.72060000  1.0 0.1401124974
H  H69  1  0.08040000  0.90140000  0.29760000  1.0 0.1401124974
H  H70  1  0.72060000  0.29760000  0.90140000  1.0 0.1401124974
H  H71  1  0.29760000  0.72060000  0.08040000  1.0 0.1401124974
H  H72  1  0.90140000  0.08040000  0.72060000  1.0 0.1401124974
H  H73  1  0.22060000  0.58040000  0.40140000  1.0 0.1401124974
H  H74  1  0.58040000  0.22060000  0.79760000  1.0 0.1401124974
H  H75  1  0.40140000  0.79760000  0.22060000  1.0 0.1401124974
H  H76  1  0.79760000  0.40140000  0.58040000  1.0 0.1401124974
H  H77  1  0.40140000  0.22060000  0.58040000  1.0 0.1401124974
H  H78  1  0.79760000  0.58040000  0.22060000  1.0 0.1401124974
H  H79  1  0.22060000  0.40140000  0.79760000  1.0 0.1401124974
H  H80  1  0.58040000  0.79760000  0.40140000  1.0 0.1401124974
H  H81  1  0.58040000  0.40140000  0.22060000  1.0 0.1401124974
H  H82  1  0.22060000  0.79760000  0.58040000  1.0 0.1401124974
H  H83  1  0.79760000  0.22060000  0.40140000  1.0 0.1401124974
H  H84  1  0.40140000  0.58040000  0.79760000  1.0 0.1401124974
H  H85  1  0.02940000  0.66960000  0.45240000  1.0 0.1401124974
H  H86  1  0.66960000  0.02940000  0.84860000  1.0 0.1401124974
H  H87  1  0.84860000  0.45240000  0.66960000  1.0 0.1401124974
H  H88  1  0.45240000  0.84860000  0.02940000  1.0 0.1401124974
H  H89  1  0.84860000  0.02940000  0.45240000  1.0 0.1401124974
H  H90  1  0.45240000  0.66960000  0.84860000  1.0 0.1401124974
H  H91  1  0.02940000  0.84860000  0.66960000  1.0 0.1401124974
H  H92  1  0.66960000  0.45240000  0.02940000  1.0 0.1401124974
H  H93  1  0.66960000  0.84860000  0.45240000  1.0 0.1401124974
H  H94  1  0.02940000  0.45240000  0.84860000  1.0 0.1401124974
H  H95  1  0.45240000  0.02940000  0.66960000  1.0 0.1401124974
H  H96  1  0.84860000  0.66960000  0.02940000  1.0 0.1401124974
C  C1  1  0.56588000  0.19292000  0.28916000  1.0 -0.1811634847
C  C2  1  0.19292000  0.56588000  0.95204000  1.0 -0.1811634847
C  C3  1  0.28916000  0.95204000  0.56588000  1.0 -0.1811634847
C  C4  1  0.95204000  0.28916000  0.19292000  1.0 -0.1811634847
C  C5  1  0.28916000  0.56588000  0.19292000  1.0 -0.1811634847
C  C6  1  0.95204000  0.19292000  0.56588000  1.0 -0.1811634847
C  C7  1  0.56588000  0.28916000  0.95204000  1.0 -0.1811634847
C  C8  1  0.19292000  0.95204000  0.28916000  1.0 -0.1811634847
C  C9  1  0.19292000  0.28916000  0.56588000  1.0 -0.1811634847
C  C10  1  0.56588000  0.95204000  0.19292000  1.0 -0.1811634847
C  C11  1  0.95204000  0.56588000  0.28916000  1.0 -0.1811634847
C  C12  1  0.28916000  0.19292000  0.95204000  1.0 -0.1811634847
C  C13  1  0.68412000  0.05708000  0.29796000  1.0 -0.1811634847
C  C14  1  0.05708000  0.68412000  0.96084000  1.0 -0.1811634847
C  C15  1  0.96084000  0.29796000  0.05708000  1.0 -0.1811634847
C  C16  1  0.29796000  0.96084000  0.68412000  1.0 -0.1811634847
C  C17  1  0.96084000  0.68412000  0.29796000  1.0 -0.1811634847
C  C18  1  0.29796000  0.05708000  0.96084000  1.0 -0.1811634847
C  C19  1  0.68412000  0.96084000  0.05708000  1.0 -0.1811634847
C  C20  1  0.05708000  0.29796000  0.68412000  1.0 -0.1811634847
C  C21  1  0.05708000  0.96084000  0.29796000  1.0 -0.1811634847
C  C22  1  0.68412000  0.29796000  0.96084000  1.0 -0.1811634847
C  C23  1  0.29796000  0.68412000  0.05708000  1.0 -0.1811634847
C  C24  1  0.96084000  0.05708000  0.68412000  1.0 -0.1811634847
C  C25  1  0.18412000  0.55708000  0.46084000  1.0 -0.1811634847
C  C26  1  0.55708000  0.18412000  0.79796000  1.0 -0.1811634847
C  C27  1  0.46084000  0.79796000  0.18412000  1.0 -0.1811634847
C  C28  1  0.79796000  0.46084000  0.55708000  1.0 -0.1811634847
C  C29  1  0.46084000  0.18412000  0.55708000  1.0 -0.1811634847
C  C30  1  0.79796000  0.55708000  0.18412000  1.0 -0.1811634847
C  C31  1  0.18412000  0.46084000  0.79796000  1.0 -0.1811634847
C  C32  1  0.55708000  0.79796000  0.46084000  1.0 -0.1811634847
C  C33  1  0.55708000  0.46084000  0.18412000  1.0 -0.1811634847
C  C34  1  0.18412000  0.79796000  0.55708000  1.0 -0.1811634847
C  C35  1  0.79796000  0.18412000  0.46084000  1.0 -0.1811634847
C  C36  1  0.46084000  0.55708000  0.79796000  1.0 -0.1811634847
C  C37  1  0.06588000  0.69292000  0.45204000  1.0 -0.1811634847
C  C38  1  0.69292000  0.06588000  0.78916000  1.0 -0.1811634847
C  C39  1  0.78916000  0.45204000  0.69292000  1.0 -0.1811634847
C  C40  1  0.45204000  0.78916000  0.06588000  1.0 -0.1811634847
C  C41  1  0.78916000  0.06588000  0.45204000  1.0 -0.1811634847
C  C42  1  0.45204000  0.69292000  0.78916000  1.0 -0.1811634847
C  C43  1  0.06588000  0.78916000  0.69292000  1.0 -0.1811634847
C  C44  1  0.69292000  0.45204000  0.06588000  1.0 -0.1811634847
C  C45  1  0.69292000  0.78916000  0.45204000  1.0 -0.1811634847
C  C46  1  0.06588000  0.45204000  0.78916000  1.0 -0.1811634847
C  C47  1  0.45204000  0.06588000  0.69292000  1.0 -0.1811634847
C  C48  1  0.78916000  0.69292000  0.06588000  1.0 -0.1811634847
C  C49  1  0.50928000  0.26052000  0.23328000  1.0 0.6461061054
C  C50  1  0.26052000  0.50928000  0.99692000  1.0 0.6461061054
C  C51  1  0.23328000  0.99692000  0.50928000  1.0 0.6461061054
C  C52  1  0.99692000  0.23328000  0.26052000  1.0 0.6461061054
C  C53  1  0.23328000  0.50928000  0.26052000  1.0 0.6461061054
C  C54  1  0.99692000  0.26052000  0.50928000  1.0 0.6461061054
C  C55  1  0.50928000  0.23328000  0.99692000  1.0 0.6461061054
C  C56  1  0.26052000  0.99692000  0.23328000  1.0 0.6461061054
C  C57  1  0.26052000  0.23328000  0.50928000  1.0 0.6461061054
C  C58  1  0.50928000  0.99692000  0.26052000  1.0 0.6461061054
C  C59  1  0.99692000  0.50928000  0.23328000  1.0 0.6461061054
C  C60  1  0.23328000  0.26052000  0.99692000  1.0 0.6461061054
C  C61  1  0.74072000  0.98948000  0.25308000  1.0 0.6461061054
C  C62  1  0.98948000  0.74072000  0.01672000  1.0 0.6461061054
C  C63  1  0.01672000  0.25308000  0.98948000  1.0 0.6461061054
C  C64  1  0.25308000  0.01672000  0.74072000  1.0 0.6461061054
C  C65  1  0.01672000  0.74072000  0.25308000  1.0 0.6461061054
C  C66  1  0.25308000  0.98948000  0.01672000  1.0 0.6461061054
C  C67  1  0.74072000  0.01672000  0.98948000  1.0 0.6461061054
C  C68  1  0.98948000  0.25308000  0.74072000  1.0 0.6461061054
C  C69  1  0.98948000  0.01672000  0.25308000  1.0 0.6461061054
C  C70  1  0.74072000  0.25308000  0.01672000  1.0 0.6461061054
C  C71  1  0.25308000  0.74072000  0.98948000  1.0 0.6461061054
C  C72  1  0.01672000  0.98948000  0.74072000  1.0 0.6461061054
C  C73  1  0.24072000  0.48948000  0.51672000  1.0 0.6461061054
C  C74  1  0.48948000  0.24072000  0.75308000  1.0 0.6461061054
C  C75  1  0.51672000  0.75308000  0.24072000  1.0 0.6461061054
C  C76  1  0.75308000  0.51672000  0.48948000  1.0 0.6461061054
C  C77  1  0.51672000  0.24072000  0.48948000  1.0 0.6461061054
C  C78  1  0.75308000  0.48948000  0.24072000  1.0 0.6461061054
C  C79  1  0.24072000  0.51672000  0.75308000  1.0 0.6461061054
C  C80  1  0.48948000  0.75308000  0.51672000  1.0 0.6461061054
C  C81  1  0.48948000  0.51672000  0.24072000  1.0 0.6461061054
C  C82  1  0.24072000  0.75308000  0.48948000  1.0 0.6461061054
C  C83  1  0.75308000  0.24072000  0.51672000  1.0 0.6461061054
C  C84  1  0.51672000  0.48948000  0.75308000  1.0 0.6461061054
C  C85  1  0.00928000  0.76052000  0.49692000  1.0 0.6461061054
C  C86  1  0.76052000  0.00928000  0.73328000  1.0 0.6461061054
C  C87  1  0.73328000  0.49692000  0.76052000  1.0 0.6461061054
C  C88  1  0.49692000  0.73328000  0.00928000  1.0 0.6461061054
C  C89  1  0.73328000  0.00928000  0.49692000  1.0 0.6461061054
C  C90  1  0.49692000  0.76052000  0.73328000  1.0 0.6461061054
C  C91  1  0.00928000  0.73328000  0.76052000  1.0 0.6461061054
C  C92  1  0.76052000  0.49692000  0.00928000  1.0 0.6461061054
C  C93  1  0.76052000  0.73328000  0.49692000  1.0 0.6461061054
C  C94  1  0.00928000  0.49692000  0.73328000  1.0 0.6461061054
C  C95  1  0.49692000  0.00928000  0.76052000  1.0 0.6461061054
C  C96  1  0.73328000  0.76052000  0.00928000  1.0 0.6461061054
O  O1  1  0.62500000  0.12500000  0.25426000  1.0 -0.1554035415
O  O2  1  0.12500000  0.62500000  0.99574000  1.0 -0.1554035415
O  O3  1  0.25426000  0.99574000  0.62500000  1.0 -0.1554035415
O  O4  1  0.99574000  0.25426000  0.12500000  1.0 -0.1545553342
O  O5  1  0.25426000  0.62500000  0.12500000  1.0 -0.1554035415
O  O6  1  0.99574000  0.12500000  0.62500000  1.0 -0.1554035415
O  O7  1  0.62500000  0.25426000  0.99574000  1.0 -0.1554035415
O  O8  1  0.12500000  0.99574000  0.25426000  1.0 -0.1554035415
O  O9  1  0.12500000  0.25426000  0.62500000  1.0 -0.1554035415
O  O10  1  0.62500000  0.99574000  0.12500000  1.0 -0.1545553342
O  O11  1  0.99574000  0.62500000  0.25426000  1.0 -0.1554035415
O  O12  1  0.25426000  0.12500000  0.99574000  1.0 -0.1554035415
O  O13  1  0.12500000  0.62500000  0.49574000  1.0 -0.1554035415
O  O14  1  0.62500000  0.12500000  0.75426000  1.0 -0.1554035415
O  O15  1  0.49574000  0.75426000  0.12500000  1.0 -0.1554035415
O  O16  1  0.75426000  0.49574000  0.62500000  1.0 -0.1554035415
O  O17  1  0.49574000  0.12500000  0.62500000  1.0 -0.1554035415
O  O18  1  0.75426000  0.62500000  0.12500000  1.0 -0.1554035415
O  O19  1  0.12500000  0.49574000  0.75426000  1.0 -0.1554035415
O  O20  1  0.62500000  0.75426000  0.49574000  1.0 -0.1554035415
O  O21  1  0.62500000  0.49574000  0.12500000  1.0 -0.1554035415
O  O22  1  0.12500000  0.75426000  0.62500000  1.0 -0.1554035415
O  O23  1  0.75426000  0.12500000  0.49574000  1.0 -0.1554035415
O  O24  1  0.49574000  0.62500000  0.75426000  1.0 -0.1554035415
O  O25  1  0.52152000  0.24614000  0.16862000  1.0 -0.5219245464
O  O26  1  0.24614000  0.52152000  0.06372000  1.0 -0.5219245464
O  O27  1  0.16862000  0.06372000  0.52152000  1.0 -0.5219245464
O  O28  1  0.06372000  0.16862000  0.24614000  1.0 -0.5219245464
O  O29  1  0.16862000  0.52152000  0.24614000  1.0 -0.5219245464
O  O30  1  0.06372000  0.24614000  0.52152000  1.0 -0.5219245464
O  O31  1  0.52152000  0.16862000  0.06372000  1.0 -0.5219245464
O  O32  1  0.24614000  0.06372000  0.16862000  1.0 -0.5219245464
O  O33  1  0.24614000  0.16862000  0.52152000  1.0 -0.5219245464
O  O34  1  0.52152000  0.06372000  0.24614000  1.0 -0.5219245464
O  O35  1  0.06372000  0.52152000  0.16862000  1.0 -0.5219245464
O  O36  1  0.16862000  0.24614000  0.06372000  1.0 -0.5219245464
O  O37  1  0.72848000  0.00386000  0.18628000  1.0 -0.5219245464
O  O38  1  0.00386000  0.72848000  0.08138000  1.0 -0.5219245464
O  O39  1  0.08138000  0.18628000  0.00386000  1.0 -0.5219245464
O  O40  1  0.18628000  0.08138000  0.72848000  1.0 -0.5219245464
O  O41  1  0.08138000  0.72848000  0.18628000  1.0 -0.5219245464
O  O42  1  0.18628000  0.00386000  0.08138000  1.0 -0.5219245464
O  O43  1  0.72848000  0.08138000  0.00386000  1.0 -0.5219245464
O  O44  1  0.00386000  0.18628000  0.72848000  1.0 -0.5219245464
O  O45  1  0.00386000  0.08138000  0.18628000  1.0 -0.5219245464
O  O46  1  0.72848000  0.18628000  0.08138000  1.0 -0.5219245464
O  O47  1  0.18628000  0.72848000  0.00386000  1.0 -0.5219245464
O  O48  1  0.08138000  0.00386000  0.72848000  1.0 -0.5219245464
O  O49  1  0.22848000  0.50386000  0.58138000  1.0 -0.5219245464
O  O50  1  0.50386000  0.22848000  0.68628000  1.0 -0.5219245464
O  O51  1  0.58138000  0.68628000  0.22848000  1.0 -0.5219245464
O  O52  1  0.68628000  0.58138000  0.50386000  1.0 -0.5219245464
O  O53  1  0.58138000  0.22848000  0.50386000  1.0 -0.5219245464
O  O54  1  0.68628000  0.50386000  0.22848000  1.0 -0.5219245464
O  O55  1  0.22848000  0.58138000  0.68628000  1.0 -0.5219245464
O  O56  1  0.50386000  0.68628000  0.58138000  1.0 -0.5219245464
O  O57  1  0.50386000  0.58138000  0.22848000  1.0 -0.5219245464
O  O58  1  0.22848000  0.68628000  0.50386000  1.0 -0.5219245464
O  O59  1  0.68628000  0.22848000  0.58138000  1.0 -0.5219245464
O  O60  1  0.58138000  0.50386000  0.68628000  1.0 -0.5219245464
O  O61  1  0.02152000  0.74614000  0.56372000  1.0 -0.5219245464
O  O62  1  0.74614000  0.02152000  0.66862000  1.0 -0.5219245464
O  O63  1  0.66862000  0.56372000  0.74614000  1.0 -0.5219245464
O  O64  1  0.56372000  0.66862000  0.02152000  1.0 -0.5219245464
O  O65  1  0.66862000  0.02152000  0.56372000  1.0 -0.5219245464
O  O66  1  0.56372000  0.74614000  0.66862000  1.0 -0.5219245464
O  O67  1  0.02152000  0.66862000  0.74614000  1.0 -0.5219245464
O  O68  1  0.74614000  0.56372000  0.02152000  1.0 -0.5219245464
O  O69  1  0.74614000  0.66862000  0.56372000  1.0 -0.5219245464
O  O70  1  0.02152000  0.56372000  0.66862000  1.0 -0.5219245464
O  O71  1  0.56372000  0.02152000  0.74614000  1.0 -0.5219245464
O  O72  1  0.66862000  0.74614000  0.02152000  1.0 -0.5219245464
O  O73  1  0.45319000  0.32671000  0.25423000  1.0 -0.6106702485
O  O74  1  0.32671000  0.45319000  0.96587000  1.0 -0.6106702485
O  O75  1  0.25423000  0.96587000  0.45319000  1.0 -0.6106702485
O  O76  1  0.96587000  0.25423000  0.32671000  1.0 -0.6106702485
O  O77  1  0.25423000  0.45319000  0.32671000  1.0 -0.6106702485
O  O78  1  0.96587000  0.32671000  0.45319000  1.0 -0.6106702485
O  O79  1  0.45319000  0.25423000  0.96587000  1.0 -0.6106702485
O  O80  1  0.32671000  0.96587000  0.25423000  1.0 -0.6106702485
O  O81  1  0.32671000  0.25423000  0.45319000  1.0 -0.6106702485
O  O82  1  0.45319000  0.96587000  0.32671000  1.0 -0.6106702485
O  O83  1  0.96587000  0.45319000  0.25423000  1.0 -0.6106702485
O  O84  1  0.25423000  0.32671000  0.96587000  1.0 -0.6106702485
O  O85  1  0.79681000  0.92329000  0.28413000  1.0 -0.6106702485
O  O86  1  0.92329000  0.79681000  0.99577000  1.0 -0.6106702485
O  O87  1  0.99577000  0.28413000  0.92329000  1.0 -0.6106702485
O  O88  1  0.28413000  0.99577000  0.79681000  1.0 -0.6106702485
O  O89  1  0.99577000  0.79681000  0.28413000  1.0 -0.6106702485
O  O90  1  0.28413000  0.92329000  0.99577000  1.0 -0.6106702485
O  O91  1  0.79681000  0.99577000  0.92329000  1.0 -0.6106702485
O  O92  1  0.92329000  0.28413000  0.79681000  1.0 -0.6106702485
O  O93  1  0.92329000  0.99577000  0.28413000  1.0 -0.6106702485
O  O94  1  0.79681000  0.28413000  0.99577000  1.0 -0.6106702485
O  O95  1  0.28413000  0.79681000  0.92329000  1.0 -0.6106702485
O  O96  1  0.99577000  0.92329000  0.79681000  1.0 -0.6106702485
O  O97  1  0.29681000  0.42329000  0.49577000  1.0 -0.6106702485
O  O98  1  0.42329000  0.29681000  0.78413000  1.0 -0.6106702485
O  O99  1  0.49577000  0.78413000  0.29681000  1.0 -0.6106702485
O  O100  1  0.78413000  0.49577000  0.42329000  1.0 -0.6106702485
O  O101  1  0.49577000  0.29681000  0.42329000  1.0 -0.6106702485
O  O102  1  0.78413000  0.42329000  0.29681000  1.0 -0.6106702485
O  O103  1  0.29681000  0.49577000  0.78413000  1.0 -0.6106702485
O  O104  1  0.42329000  0.78413000  0.49577000  1.0 -0.6106702485
O  O105  1  0.42329000  0.49577000  0.29681000  1.0 -0.6106702485
O  O106  1  0.29681000  0.78413000  0.42329000  1.0 -0.6106702485
O  O107  1  0.78413000  0.29681000  0.49577000  1.0 -0.6106702485
O  O108  1  0.49577000  0.42329000  0.78413000  1.0 -0.6106702485
O  O109  1  0.95319000  0.82671000  0.46587000  1.0 -0.6106702485
O  O110  1  0.82671000  0.95319000  0.75423000  1.0 -0.6106702485
O  O111  1  0.75423000  0.46587000  0.82671000  1.0 -0.6106702485
O  O112  1  0.46587000  0.75423000  0.95319000  1.0 -0.6106702485
O  O113  1  0.75423000  0.95319000  0.46587000  1.0 -0.6106702485
O  O114  1  0.46587000  0.82671000  0.75423000  1.0 -0.6106702485
O  O115  1  0.95319000  0.75423000  0.82671000  1.0 -0.6106702485
O  O116  1  0.82671000  0.46587000  0.95319000  1.0 -0.6106702485
O  O117  1  0.82671000  0.75423000  0.46587000  1.0 -0.6106702485
O  O118  1  0.95319000  0.46587000  0.75423000  1.0 -0.6106702485
O  O119  1  0.46587000  0.95319000  0.82671000  1.0 -0.6106702485
O  O120  1  0.75423000  0.82671000  0.95319000  1.0 -0.6106702485
