# DDEC6 charges by PACMAN v1.1 (https://github.com/mtap-research/PACMAN-charge/)
data_FEMVOM_FSR_pacman
_symmetry_space_group_name_H-M   'P 1'
_cell_length_a   11.98840000
_cell_length_b   12.15920000
_cell_length_c   13.00670000
_cell_angle_alpha   101.73900000
_cell_angle_beta   101.68900000
_cell_angle_gamma   108.71300000
_symmetry_Int_Tables_number   1
_chemical_formula_structural   TbH19C20S5(NO4)2
_chemical_formula_sum   'Tb2 H38 C40 S10 N4 O16'
_cell_volume   1683.24085271
_cell_formula_units_Z   2
loop_
 _symmetry_equiv_pos_site_id
 _symmetry_equiv_pos_as_xyz
  1  'x, y, z'
loop_
 _atom_site_type_symbol
 _atom_site_label
 _atom_site_symmetry_multiplicity
 _atom_site_fract_x
 _atom_site_fract_y
 _atom_site_fract_z
 _atom_site_occupancy
 _atom_site_charge
Tb  Tb1  1  0.45672000  0.31843000  0.45130000  1.0 2.0488422781
Tb  Tb2  1  0.54328000  0.68157000  0.54870000  1.0 2.0488422781
H  H1  1  0.30396000  0.00877000  0.05248000  1.0 0.1228176418
H  H2  1  0.23731000  0.63727000  0.54945000  1.0 0.1479675913
H  H3  1  0.43834000  0.32549000  0.09396000  1.0 0.1293186878
H  H4  1  0.70436000  0.38056000  0.69635000  1.0 0.0877142369
H  H5  1  0.50539000  0.08311000  0.73159000  1.0 0.1103670492
H  H6  1  0.61021000  0.04840000  0.69063000  1.0 0.1293186878
H  H7  1  0.51471000  0.08224000  0.61043000  1.0 0.1479675913
H  H8  1  0.78090000  0.24021000  0.85451000  1.0 0.1396989978
H  H9  1  0.66229000  0.24852000  0.88876000  1.0 0.1103670492
H  H10  1  0.75350000  0.36172000  0.86353000  1.0 0.1293186878
H  H11  1  0.23787000  0.17791000  0.56411000  1.0 0.0959632217
H  H12  1  0.04704000  0.92729000  0.57145000  1.0 0.1228176418
H  H13  1  0.11045000  0.06855000  0.63729000  1.0 0.1293186878
H  H14  1  0.15754000  0.97324000  0.68201000  1.0 0.1293186878
H  H15  1  0.16841000  0.83693000  0.46911000  1.0 0.1293186878
H  H16  1  0.28285000  0.88522000  0.57688000  1.0 0.1293186878
H  H17  1  0.30027000  0.92570000  0.46969000  1.0 0.1479675913
H  H18  1  0.31948000  0.86688000  0.82425000  1.0 0.1396989978
H  H19  1  0.43745000  0.32592000  0.83983000  1.0 0.1293186878
H  H20  1  0.69604000  0.99123000  0.94752000  1.0 0.1228176418
H  H21  1  0.76269000  0.36273000  0.45055000  1.0 0.1479675913
H  H22  1  0.56166000  0.67451000  0.90604000  1.0 0.1293186878
H  H23  1  0.29564000  0.61944000  0.30365000  1.0 0.0877142369
H  H24  1  0.49461000  0.91689000  0.26841000  1.0 0.1103670492
H  H25  1  0.38979000  0.95160000  0.30937000  1.0 0.1293186878
H  H26  1  0.48529000  0.91776000  0.38957000  1.0 0.1479675913
H  H27  1  0.21910000  0.75979000  0.14549000  1.0 0.1396989978
H  H28  1  0.33771000  0.75148000  0.11124000  1.0 0.1103670492
H  H29  1  0.24650000  0.63828000  0.13647000  1.0 0.1293186878
H  H30  1  0.76213000  0.82209000  0.43589000  1.0 0.0959632217
H  H31  1  0.95296000  0.07271000  0.42855000  1.0 0.1228176418
H  H32  1  0.88955000  0.93145000  0.36271000  1.0 0.1293186878
H  H33  1  0.84246000  0.02676000  0.31799000  1.0 0.1293186878
H  H34  1  0.83159000  0.16307000  0.53089000  1.0 0.1293186878
H  H35  1  0.71715000  0.11478000  0.42312000  1.0 0.1293186878
H  H36  1  0.69973000  0.07430000  0.53031000  1.0 0.1479675913
H  H37  1  0.68052000  0.13312000  0.17575000  1.0 0.1396989978
H  H38  1  0.56255000  0.67408000  0.16017000  1.0 0.1293186878
C  C1  1  0.47090000  0.17070000  0.26200000  1.0 0.5151493221
C  C2  1  0.48240000  0.10440000  0.15850000  1.0 -0.0290591896
C  C3  1  0.43760000  0.97940000  0.98070000  1.0 -0.0290591896
C  C4  1  0.38920000  0.02700000  0.06190000  1.0 -0.1246887252
C  C5  1  0.26540000  0.41980000  0.45040000  1.0 0.6184090047
C  C6  1  0.16020000  0.45170000  0.46490000  1.0 -0.1106105179
C  C7  1  0.16520000  0.56540000  0.51990000  1.0 -0.1733297289
C  C8  1  0.04580000  0.55660000  0.52450000  1.0 -0.0202845756
C  C9  1  0.50480000  0.51210000  0.29300000  1.0 0.6107741862
C  C10  1  0.50220000  0.50990000  0.17840000  1.0 -0.0756485604
C  C11  1  0.47700000  0.43860000  0.99210000  1.0 -0.0627149057
C  C12  1  0.46620000  0.40640000  0.08950000  1.0 -0.0927330323
C  C13  1  0.65340000  0.29720000  0.66390000  1.0 0.2854963809
C  C14  1  0.56190000  0.09980000  0.68680000  1.0 -0.3500376275
C  C15  1  0.71610000  0.27300000  0.84310000  1.0 -0.3500376275
C  C16  1  0.26210000  0.11400000  0.53480000  1.0 0.3007003635
C  C17  1  0.12480000  0.99330000  0.61600000  1.0 -0.3500376275
C  C18  1  0.24360000  0.90600000  0.51390000  1.0 -0.3346753002
C  C19  1  0.40100000  0.90500000  0.87140000  1.0 -0.2902244807
C  C20  1  0.46800000  0.41000000  0.87900000  1.0 -0.0674140744
C  C21  1  0.52910000  0.82930000  0.73800000  1.0 0.5151493221
C  C22  1  0.51760000  0.89560000  0.84150000  1.0 -0.0290591896
C  C23  1  0.56240000  0.02060000  0.01930000  1.0 -0.0290591896
C  C24  1  0.61080000  0.97300000  0.93810000  1.0 -0.126497376
C  C25  1  0.73460000  0.58020000  0.54960000  1.0 0.6184090047
C  C26  1  0.83980000  0.54830000  0.53510000  1.0 -0.1106105179
C  C27  1  0.83480000  0.43460000  0.48010000  1.0 -0.1733297289
C  C28  1  0.95420000  0.44340000  0.47550000  1.0 -0.0202845756
C  C29  1  0.49520000  0.48790000  0.70700000  1.0 0.6107741862
C  C30  1  0.49780000  0.49010000  0.82160000  1.0 -0.0756485604
C  C31  1  0.52300000  0.56140000  0.00790000  1.0 -0.0627149057
C  C32  1  0.53380000  0.59360000  0.91050000  1.0 -0.0927330323
C  C33  1  0.34660000  0.70280000  0.33610000  1.0 0.2854963809
C  C34  1  0.43810000  0.90020000  0.31320000  1.0 -0.3500376275
C  C35  1  0.28390000  0.72700000  0.15690000  1.0 -0.3500376275
C  C36  1  0.73790000  0.88600000  0.46520000  1.0 0.3007003635
C  C37  1  0.87520000  0.00670000  0.38400000  1.0 -0.3500376275
C  C38  1  0.75640000  0.09400000  0.48610000  1.0 -0.3346753002
C  C39  1  0.59900000  0.09500000  0.12860000  1.0 -0.2902244807
C  C40  1  0.53200000  0.59000000  0.12100000  1.0 -0.0674140744
S  S1  1  0.37400000  0.88210000  0.85240000  1.0 0.0506568781
S  S2  1  0.01366000  0.34070000  0.41955000  1.0 0.1228176418
S  S3  1  0.44850000  0.35793000  0.85842000  1.0 0.1228176418
S  S4  1  0.35350000  0.01940000  0.05580000  1.0 0.0767035398
S  S5  1  0.44500000  0.36760000  0.08280000  1.0 0.0767035398
S  S6  1  0.62600000  0.11790000  0.14760000  1.0 0.0506568781
S  S7  1  0.98634000  0.65930000  0.58045000  1.0 0.1228176418
S  S8  1  0.55150000  0.64207000  0.14158000  1.0 0.1228176418
S  S9  1  0.64650000  0.98060000  0.94420000  1.0 0.0767035398
S  S10  1  0.55500000  0.63240000  0.91720000  1.0 0.0767035398
N  N1  1  0.64380000  0.22600000  0.72760000  1.0 0.018414153
N  N2  1  0.21310000  0.00940000  0.55240000  1.0 0.018414153
N  N3  1  0.35620000  0.77400000  0.27240000  1.0 0.018414153
N  N4  1  0.78690000  0.99060000  0.44760000  1.0 0.018414153
O  O1  1  0.56870000  0.23750000  0.33830000  1.0 -0.569588098
O  O2  1  0.36690000  0.15870000  0.27210000  1.0 -0.5458347232
O  O3  1  0.24590000  0.30880000  0.41210000  1.0 -0.6196018339
O  O4  1  0.37160000  0.50120000  0.48130000  1.0 -0.7205102176
O  O5  1  0.45880000  0.41080000  0.30800000  1.0 -0.6196018339
O  O6  1  0.55120000  0.61530000  0.36360000  1.0 -0.6439856619
O  O7  1  0.59900000  0.26240000  0.56150000  1.0 -0.5760084719
O  O8  1  0.33750000  0.13520000  0.48260000  1.0 -0.5172058672
O  O9  1  0.43130000  0.76250000  0.66170000  1.0 -0.569588098
O  O10  1  0.63310000  0.84130000  0.72790000  1.0 -0.5458347232
O  O11  1  0.75410000  0.69120000  0.58790000  1.0 -0.6196018339
O  O12  1  0.62840000  0.49880000  0.51870000  1.0 -0.7205102176
O  O13  1  0.54120000  0.58920000  0.69200000  1.0 -0.6196018339
O  O14  1  0.44880000  0.38470000  0.63640000  1.0 -0.6439856619
O  O15  1  0.40100000  0.73760000  0.43850000  1.0 -0.5760084719
O  O16  1  0.66250000  0.86480000  0.51740000  1.0 -0.5172058672
