# DDEC6 charges by PACMAN v1.1 (https://github.com/mtap-research/PACMAN-charge/)
data_FEMVAY_FSR_pacman
_symmetry_space_group_name_H-M   'P 1'
_cell_length_a   11.94430000
_cell_length_b   12.17490000
_cell_length_c   12.91630000
_cell_angle_alpha   101.82000000
_cell_angle_beta   101.59200000
_cell_angle_gamma   108.52400000
_symmetry_Int_Tables_number   1
_chemical_formula_structural   YH19C20S5(NO4)2
_chemical_formula_sum   'Y2 H38 C40 S10 N4 O16'
_cell_volume   1670.07553670
_cell_formula_units_Z   2
loop_
 _symmetry_equiv_pos_site_id
 _symmetry_equiv_pos_as_xyz
  1  'x, y, z'
loop_
 _atom_site_type_symbol
 _atom_site_label
 _atom_site_symmetry_multiplicity
 _atom_site_fract_x
 _atom_site_fract_y
 _atom_site_fract_z
 _atom_site_occupancy
 _atom_site_charge
Y  Y1  1  0.45745000  0.31834000  0.45165000  1.0 1.7400034951
Y  Y2  1  0.54255000  0.68166000  0.54835000  1.0 1.7400034951
H  H1  1  0.30351000  0.00075000  0.05611000  1.0 0.12137489
H  H2  1  0.23629000  0.63865000  0.54864000  1.0 0.1458808618
H  H3  1  0.44600000  0.32447000  0.09366000  1.0 0.12137489
H  H4  1  0.69998000  0.37973000  0.69502000  1.0 0.0837023692
H  H5  1  0.51510000  0.08290000  0.60939000  1.0 0.1416741721
H  H6  1  0.50537000  0.08310000  0.73120000  1.0 0.1049543904
H  H7  1  0.61073000  0.04860000  0.68977000  1.0 0.1275082664
H  H8  1  0.77360000  0.23382000  0.86131000  1.0 0.1275082664
H  H9  1  0.66003000  0.26131000  0.89211000  1.0 0.1067956505
H  H10  1  0.76360000  0.36242000  0.86455000  1.0 0.12137489
H  H11  1  0.23799000  0.18077000  0.56470000  1.0 0.0892707525
H  H12  1  0.11846000  0.06966000  0.64577000  1.0 0.1275082664
H  H13  1  0.15198000  0.95976000  0.67373000  1.0 0.12137489
H  H14  1  0.04425000  0.93498000  0.56541000  1.0 0.12137489
H  H15  1  0.16916000  0.83660000  0.47403000  1.0 0.1275082664
H  H16  1  0.29283000  0.89269000  0.57464000  1.0 0.1275082664
H  H17  1  0.29381000  0.92449000  0.46050000  1.0 0.1416741721
H  H18  1  0.33118000  0.86063000  0.82415000  1.0 0.12137489
H  H19  1  0.44381000  0.33053000  0.83593000  1.0 0.1416741721
H  H20  1  0.69649000  0.99925000  0.94389000  1.0 0.12137489
H  H21  1  0.76371000  0.36135000  0.45136000  1.0 0.1458808618
H  H22  1  0.55400000  0.67553000  0.90634000  1.0 0.12137489
H  H23  1  0.30002000  0.62027000  0.30498000  1.0 0.0837023692
H  H24  1  0.48490000  0.91710000  0.39061000  1.0 0.1416741721
H  H25  1  0.49463000  0.91690000  0.26880000  1.0 0.1049543904
H  H26  1  0.38927000  0.95140000  0.31023000  1.0 0.1275082664
H  H27  1  0.22640000  0.76618000  0.13869000  1.0 0.1275082664
H  H28  1  0.33997000  0.73869000  0.10789000  1.0 0.1067956505
H  H29  1  0.23640000  0.63758000  0.13545000  1.0 0.12137489
H  H30  1  0.76201000  0.81923000  0.43530000  1.0 0.0892707525
H  H31  1  0.88154000  0.93034000  0.35423000  1.0 0.1275082664
H  H32  1  0.84802000  0.04024000  0.32627000  1.0 0.12137489
H  H33  1  0.95575000  0.06502000  0.43459000  1.0 0.12137489
H  H34  1  0.83084000  0.16340000  0.52597000  1.0 0.1275082664
H  H35  1  0.70717000  0.10731000  0.42536000  1.0 0.1275082664
H  H36  1  0.70619000  0.07551000  0.53950000  1.0 0.1416741721
H  H37  1  0.66882000  0.13937000  0.17585000  1.0 0.12137489
H  H38  1  0.55619000  0.66947000  0.16407000  1.0 0.1416741721
C  C1  1  0.47140000  0.17150000  0.26350000  1.0 0.5114215599
C  C2  1  0.48240000  0.10530000  0.15980000  1.0 -0.0587998381
C  C3  1  0.43870000  0.97920000  0.98030000  1.0 -0.0678503358
C  C4  1  0.38920000  0.02350000  0.06380000  1.0 -0.1140058948
C  C5  1  0.26830000  0.42320000  0.45230000  1.0 0.6019912051
C  C6  1  0.16080000  0.45330000  0.46590000  1.0 -0.1140058948
C  C7  1  0.16470000  0.56650000  0.51970000  1.0 -0.1926683499
C  C8  1  0.04420000  0.55650000  0.52420000  1.0 -0.0219467891
C  C9  1  0.50350000  0.51080000  0.29330000  1.0 0.5882307576
C  C10  1  0.50160000  0.50780000  0.17770000  1.0 -0.0811593235
C  C11  1  0.47710000  0.43900000  0.99030000  1.0 -0.0811593235
C  C12  1  0.46950000  0.40510000  0.08900000  1.0 -0.0811593235
C  C13  1  0.65060000  0.29610000  0.66300000  1.0 0.2891942846
C  C14  1  0.56220000  0.10000000  0.68620000  1.0 -0.3614615811
C  C15  1  0.71670000  0.27540000  0.84660000  1.0 -0.3614615811
C  C16  1  0.26300000  0.11740000  0.53510000  1.0 0.2891942846
C  C17  1  0.12490000  0.99230000  0.61410000  1.0 -0.3514004959
C  C18  1  0.24490000  0.90790000  0.51200000  1.0 -0.3432676507
C  C19  1  0.41300000  0.90290000  0.87180000  1.0 -0.1167838214
C  C20  1  0.47100000  0.41300000  0.87630000  1.0 -0.0678503358
C  C21  1  0.52860000  0.82850000  0.73650000  1.0 0.5114215599
C  C22  1  0.51760000  0.89470000  0.84020000  1.0 -0.0587998381
C  C23  1  0.56130000  0.02080000  0.01970000  1.0 -0.0678503358
C  C24  1  0.61080000  0.97650000  0.93620000  1.0 -0.1167838214
C  C25  1  0.73170000  0.57680000  0.54770000  1.0 0.6019912051
C  C26  1  0.83920000  0.54670000  0.53410000  1.0 -0.1140058948
C  C27  1  0.83530000  0.43350000  0.48030000  1.0 -0.1926683499
C  C28  1  0.95580000  0.44350000  0.47580000  1.0 -0.0219467891
C  C29  1  0.49650000  0.48920000  0.70670000  1.0 0.5882307576
C  C30  1  0.49840000  0.49220000  0.82230000  1.0 -0.0811593235
C  C31  1  0.52290000  0.56100000  0.00970000  1.0 -0.0811593235
C  C32  1  0.53050000  0.59490000  0.91100000  1.0 -0.0811593235
C  C33  1  0.34940000  0.70390000  0.33700000  1.0 0.2891942846
C  C34  1  0.43780000  0.90000000  0.31380000  1.0 -0.3614615811
C  C35  1  0.28330000  0.72460000  0.15340000  1.0 -0.3614615811
C  C36  1  0.73700000  0.88260000  0.46490000  1.0 0.2891942846
C  C37  1  0.87510000  0.00770000  0.38590000  1.0 -0.3514004959
C  C38  1  0.75510000  0.09210000  0.48800000  1.0 -0.3432676507
C  C39  1  0.58700000  0.09710000  0.12820000  1.0 -0.1167838214
C  C40  1  0.52900000  0.58700000  0.12370000  1.0 -0.0678503358
S  S1  1  0.37400000  0.88270000  0.85223000  1.0 0.0892707525
S  S2  1  0.01664000  0.34155000  0.42200000  1.0 0.1067956505
S  S3  1  0.44886000  0.35882000  0.85727000  1.0 0.12137489
S  S4  1  0.35260000  0.02190000  0.05520000  1.0 0.0731142746
S  S5  1  0.43420000  0.36960000  0.08290000  1.0 0.0555132838
S  S6  1  0.62600000  0.11730000  0.14777000  1.0 0.0892707525
S  S7  1  0.98336000  0.65845000  0.57800000  1.0 0.1067956505
S  S8  1  0.55114000  0.64118000  0.14273000  1.0 0.12137489
S  S9  1  0.64740000  0.97810000  0.94480000  1.0 0.0731142746
S  S10  1  0.56580000  0.63040000  0.91710000  1.0 0.0555132838
N  N1  1  0.64540000  0.22790000  0.72840000  1.0 -0.0021110255
N  N2  1  0.21370000  0.01090000  0.55130000  1.0 0.0107131923
N  N3  1  0.35460000  0.77210000  0.27160000  1.0 -0.0021110255
N  N4  1  0.78630000  0.98910000  0.44870000  1.0 0.0107131923
O  O1  1  0.56800000  0.23750000  0.33930000  1.0 -0.5351241542
O  O2  1  0.36700000  0.16050000  0.27360000  1.0 -0.5115104331
O  O3  1  0.25200000  0.31410000  0.41480000  1.0 -0.57321185
O  O4  1  0.37280000  0.50600000  0.48190000  1.0 -0.6246291114
O  O5  1  0.45730000  0.40970000  0.30870000  1.0 -0.57321185
O  O6  1  0.55030000  0.61290000  0.36520000  1.0 -0.5996789647
O  O7  1  0.59710000  0.26240000  0.56220000  1.0 -0.4927096976
O  O8  1  0.33960000  0.13860000  0.48360000  1.0 -0.4696782542
O  O9  1  0.43200000  0.76250000  0.66070000  1.0 -0.5351241542
O  O10  1  0.63300000  0.83950000  0.72640000  1.0 -0.5115104331
O  O11  1  0.74800000  0.68590000  0.58520000  1.0 -0.57321185
O  O12  1  0.62720000  0.49400000  0.51810000  1.0 -0.6246291114
O  O13  1  0.54270000  0.59030000  0.69130000  1.0 -0.57321185
O  O14  1  0.44970000  0.38710000  0.63480000  1.0 -0.5996789647
O  O15  1  0.40290000  0.73760000  0.43780000  1.0 -0.4927096976
O  O16  1  0.66040000  0.86140000  0.51640000  1.0 -0.4696782542
