# DDEC6 charges by PACMAN v1.1 (https://github.com/mtap-research/PACMAN-charge/)
data_FENMOD_FSR_pacman
_symmetry_space_group_name_H-M   'P 1'
_cell_length_a   16.04800000
_cell_length_b   11.87100000
_cell_length_c   24.39000000
_cell_angle_alpha   90.00000000
_cell_angle_beta   96.32500000
_cell_angle_gamma   90.00000000
_symmetry_Int_Tables_number   1
_chemical_formula_structural   CuH32C31SN13O6
_chemical_formula_sum   'Cu4 H128 C124 S4 N52 O24'
_cell_volume   4618.15370525
_cell_formula_units_Z   4
loop_
 _symmetry_equiv_pos_site_id
 _symmetry_equiv_pos_as_xyz
  1  'x, y, z'
loop_
 _atom_site_type_symbol
 _atom_site_label
 _atom_site_symmetry_multiplicity
 _atom_site_fract_x
 _atom_site_fract_y
 _atom_site_fract_z
 _atom_site_occupancy
 _atom_site_charge
Cu  Cu1  1  0.26930000  0.77552000  0.25170000  1.0 0.6475838157
Cu  Cu2  1  0.23070000  0.27552000  0.74830000  1.0 0.6475838157
Cu  Cu3  1  0.73070000  0.22448000  0.74830000  1.0 0.6475838157
Cu  Cu4  1  0.76930000  0.72448000  0.25170000  1.0 0.6475838157
H  H1  1  0.34600000  0.59130000  0.33520000  1.0 0.1291016013
H  H2  1  0.37920000  0.91250000  0.35150000  1.0 0.1116555371
H  H3  1  0.43860000  0.52260000  0.42060000  1.0 0.1191275073
H  H4  1  0.51370000  0.60630000  0.43410000  1.0 0.1291016013
H  H5  1  0.51350000  0.73470000  0.51460000  1.0 0.1116555371
H  H6  1  0.48200000  0.75200000  0.60380000  1.0 0.1191275073
H  H7  1  0.30400000  0.51720000  0.57490000  1.0 0.1116555371
H  H8  1  0.33610000  0.49910000  0.48600000  1.0 0.1191275073
H  H9  1  0.31500000  0.69380000  0.65550000  1.0 0.1291016013
H  H10  1  0.41040000  0.69420000  0.67780000  1.0 0.1390994697
H  H11  1  0.41820000  0.31940000  0.72540000  1.0 0.1191275073
H  H12  1  0.23530000  0.53140000  0.69660000  1.0 0.1191275073
H  H13  1  0.15810000  0.61860000  0.16500000  1.0 0.1191275073
H  H14  1  0.17930000  0.94300000  0.16200000  1.0 0.1116555371
H  H15  1  0.00080000  0.89400000  0.07380000  1.0 0.1191275073
H  H16  1  0.06870000  0.98880000  0.08290000  1.0 0.1191275073
H  H17  1  0.00080000  0.76750000  0.99290000  1.0 0.1191275073
H  H18  1  0.01600000  0.76510000  0.90030000  1.0 0.1191275073
H  H19  1  0.18000000  0.01840000  0.92190000  1.0 0.1191275073
H  H20  1  0.16220000  0.02290000  0.01400000  1.0 0.1191275073
H  H21  1  0.04950000  0.86290000  0.82120000  1.0 0.1291016013
H  H22  1  0.14710000  0.84760000  0.83060000  1.0 0.1291016013
H  H23  1  0.06120000  0.24820000  0.80180000  1.0 0.1116555371
H  H24  1  0.21900000  0.00840000  0.78260000  1.0 0.1291016013
H  H25  1  0.10030000  0.45760000  0.41040000  1.0 0.1291016013
H  H26  1  0.18500000  0.76010000  0.37220000  1.0 0.1116555371
H  H27  1  0.20410000  0.80660000  0.46430000  1.0 0.1116555371
H  H28  1  0.12630000  0.48840000  0.54990000  1.0 0.2923755231
H  H29  1  0.09900000  0.40940000  0.50400000  1.0 0.2982390257
H  H30  1  0.20360000  0.81570000  0.59320000  1.0 0.3582974854
H  H31  1  0.33240000  0.93380000  0.20870000  1.0 0.2782533649
H  H32  1  0.40530000  0.97150000  0.23980000  1.0 0.3582974854
H  H33  1  0.15400000  0.09130000  0.66480000  1.0 0.1191275073
H  H34  1  0.12080000  0.41250000  0.64850000  1.0 0.1116555371
H  H35  1  0.06140000  0.02260000  0.57940000  1.0 0.1191275073
H  H36  1  0.98630000  0.10630000  0.56590000  1.0 0.1291016013
H  H37  1  0.98650000  0.23470000  0.48540000  1.0 0.1116555371
H  H38  1  0.01800000  0.25200000  0.39620000  1.0 0.1191275073
H  H39  1  0.19600000  0.01720000  0.42510000  1.0 0.1116555371
H  H40  1  0.16390000  0.99910000  0.51400000  1.0 0.1191275073
H  H41  1  0.18500000  0.19380000  0.34450000  1.0 0.1291016013
H  H42  1  0.08960000  0.19420000  0.32220000  1.0 0.1390994697
H  H43  1  0.08180000  0.81940000  0.27460000  1.0 0.1191275073
H  H44  1  0.26470000  0.03140000  0.30340000  1.0 0.1191275073
H  H45  1  0.34190000  0.11860000  0.83500000  1.0 0.1191275073
H  H46  1  0.32070000  0.44300000  0.83800000  1.0 0.1116555371
H  H47  1  0.49920000  0.39400000  0.92620000  1.0 0.1191275073
H  H48  1  0.43130000  0.48880000  0.91710000  1.0 0.1191275073
H  H49  1  0.49920000  0.26750000  0.00710000  1.0 0.1291016013
H  H50  1  0.48400000  0.26510000  0.09970000  1.0 0.1191275073
H  H51  1  0.32000000  0.51840000  0.07810000  1.0 0.1191275073
H  H52  1  0.33780000  0.52290000  0.98600000  1.0 0.1191275073
H  H53  1  0.45050000  0.36290000  0.17880000  1.0 0.1291016013
H  H54  1  0.35290000  0.34760000  0.16940000  1.0 0.1291016013
H  H55  1  0.43880000  0.74820000  0.19820000  1.0 0.1116555371
H  H56  1  0.28100000  0.50840000  0.21740000  1.0 0.1291016013
H  H57  1  0.39970000  0.95760000  0.58960000  1.0 0.1291016013
H  H58  1  0.31500000  0.26010000  0.62780000  1.0 0.1116555371
H  H59  1  0.29590000  0.30660000  0.53570000  1.0 0.1116555371
H  H60  1  0.37370000  0.98840000  0.45010000  1.0 0.2923755231
H  H61  1  0.40100000  0.90940000  0.49600000  1.0 0.2982390257
H  H62  1  0.29640000  0.31570000  0.40680000  1.0 0.3582974854
H  H63  1  0.16760000  0.43380000  0.79130000  1.0 0.2782533649
H  H64  1  0.09470000  0.47150000  0.76020000  1.0 0.3582974854
H  H65  1  0.65400000  0.40870000  0.66480000  1.0 0.1191275073
H  H66  1  0.62080000  0.08750000  0.64850000  1.0 0.1116555371
H  H67  1  0.56140000  0.47740000  0.57940000  1.0 0.1191275073
H  H68  1  0.48630000  0.39370000  0.56590000  1.0 0.1291016013
H  H69  1  0.48650000  0.26530000  0.48540000  1.0 0.1116555371
H  H70  1  0.51800000  0.24800000  0.39620000  1.0 0.1191275073
H  H71  1  0.69600000  0.48280000  0.42510000  1.0 0.1116555371
H  H72  1  0.66390000  0.50090000  0.51400000  1.0 0.1191275073
H  H73  1  0.68500000  0.30620000  0.34450000  1.0 0.1291016013
H  H74  1  0.58960000  0.30580000  0.32220000  1.0 0.1390994697
H  H75  1  0.58180000  0.68060000  0.27460000  1.0 0.1191275073
H  H76  1  0.76470000  0.46860000  0.30340000  1.0 0.1191275073
H  H77  1  0.84190000  0.38140000  0.83500000  1.0 0.1191275073
H  H78  1  0.82070000  0.05700000  0.83800000  1.0 0.1116555371
H  H79  1  0.99920000  0.10600000  0.92620000  1.0 0.1191275073
H  H80  1  0.93130000  0.01120000  0.91710000  1.0 0.1191275073
H  H81  1  0.99920000  0.23250000  0.00710000  1.0 0.1291016013
H  H82  1  0.98400000  0.23490000  0.09970000  1.0 0.1191275073
H  H83  1  0.82000000  0.98160000  0.07810000  1.0 0.1191275073
H  H84  1  0.83780000  0.97710000  0.98600000  1.0 0.1191275073
H  H85  1  0.95050000  0.13710000  0.17880000  1.0 0.1291016013
H  H86  1  0.85290000  0.15240000  0.16940000  1.0 0.1291016013
H  H87  1  0.93880000  0.75180000  0.19820000  1.0 0.1116555371
H  H88  1  0.78100000  0.99160000  0.21740000  1.0 0.1291016013
H  H89  1  0.89970000  0.54240000  0.58960000  1.0 0.1291016013
H  H90  1  0.81500000  0.23990000  0.62780000  1.0 0.1116555371
H  H91  1  0.79590000  0.19340000  0.53570000  1.0 0.1116555371
H  H92  1  0.87370000  0.51160000  0.45010000  1.0 0.2923755231
H  H93  1  0.90100000  0.59060000  0.49600000  1.0 0.2982390257
H  H94  1  0.79640000  0.18430000  0.40680000  1.0 0.3582974854
H  H95  1  0.66760000  0.06620000  0.79130000  1.0 0.2782533649
H  H96  1  0.59470000  0.02850000  0.76020000  1.0 0.3582974854
H  H97  1  0.84600000  0.90870000  0.33520000  1.0 0.1291016013
H  H98  1  0.87920000  0.58750000  0.35150000  1.0 0.1116555371
H  H99  1  0.93860000  0.97740000  0.42060000  1.0 0.1191275073
H  H100  1  0.01370000  0.89370000  0.43410000  1.0 0.1291016013
H  H101  1  0.01350000  0.76530000  0.51460000  1.0 0.1116555371
H  H102  1  0.98200000  0.74800000  0.60380000  1.0 0.1191275073
H  H103  1  0.80400000  0.98280000  0.57490000  1.0 0.1116555371
H  H104  1  0.83610000  0.00090000  0.48600000  1.0 0.1191275073
H  H105  1  0.81500000  0.80620000  0.65550000  1.0 0.1291016013
H  H106  1  0.91040000  0.80580000  0.67780000  1.0 0.1390994697
H  H107  1  0.91820000  0.18060000  0.72540000  1.0 0.1191275073
H  H108  1  0.73530000  0.96860000  0.69660000  1.0 0.1191275073
H  H109  1  0.65810000  0.88140000  0.16500000  1.0 0.1191275073
H  H110  1  0.67930000  0.55700000  0.16200000  1.0 0.1116555371
H  H111  1  0.50080000  0.60600000  0.07380000  1.0 0.1191275073
H  H112  1  0.56870000  0.51120000  0.08290000  1.0 0.1191275073
H  H113  1  0.50080000  0.73250000  0.99290000  1.0 0.1291016013
H  H114  1  0.51600000  0.73490000  0.90030000  1.0 0.1191275073
H  H115  1  0.68000000  0.48160000  0.92190000  1.0 0.1191275073
H  H116  1  0.66220000  0.47710000  0.01400000  1.0 0.1191275073
H  H117  1  0.54950000  0.63710000  0.82120000  1.0 0.1291016013
H  H118  1  0.64710000  0.65240000  0.83060000  1.0 0.1291016013
H  H119  1  0.56120000  0.25180000  0.80180000  1.0 0.1116555371
H  H120  1  0.71900000  0.49160000  0.78260000  1.0 0.1291016013
H  H121  1  0.60030000  0.04240000  0.41040000  1.0 0.1291016013
H  H122  1  0.68500000  0.73990000  0.37220000  1.0 0.1116555371
H  H123  1  0.70410000  0.69340000  0.46430000  1.0 0.1116555371
H  H124  1  0.62630000  0.01160000  0.54990000  1.0 0.2923755231
H  H125  1  0.59900000  0.09060000  0.50400000  1.0 0.2982390257
H  H126  1  0.70360000  0.68430000  0.59320000  1.0 0.3582974854
H  H127  1  0.83240000  0.56620000  0.20870000  1.0 0.2782533649
H  H128  1  0.90530000  0.52850000  0.23980000  1.0 0.3582974854
C  C1  1  0.36310000  0.66190000  0.34857000  1.0 0.0921769473
C  C2  1  0.38190000  0.83540000  0.35832000  1.0 0.1524704597
C  C3  1  0.45340000  0.59820000  0.43330000  1.0 -0.2019090248
C  C4  1  0.42900000  0.61350000  0.49110000  1.0 0.0921769473
C  C5  1  0.47160000  0.69020000  0.52683000  1.0 -0.1627984629
C  C6  1  0.45230000  0.70110000  0.58009000  1.0 -0.1508980584
C  C7  1  0.38920000  0.63700000  0.59882000  1.0 0.0992173603
C  C8  1  0.34640000  0.56120000  0.56289000  1.0 -0.1508980584
C  C9  1  0.36580000  0.55000000  0.50973000  1.0 -0.1627984629
C  C10  1  0.36680000  0.65140000  0.65647000  1.0 -0.1911941436
C  C11  1  0.38800000  0.38390000  0.71422000  1.0 0.1291016013
C  C12  1  0.28760000  0.49700000  0.69903000  1.0 0.0611189979
C  C13  1  0.15110000  0.69350000  0.15422000  1.0 0.1390994697
C  C14  1  0.16360000  0.86910000  0.15340000  1.0 0.0611189979
C  C15  1  0.05950000  0.91090000  0.07186000  1.0 -0.2170133572
C  C16  1  0.07810000  0.89820000  0.01304000  1.0 0.0775383511
C  C17  1  0.03580000  0.81960000  0.97852000  1.0 -0.1663093281
C  C18  1  0.04520000  0.81810000  0.92304000  1.0 -0.1663093281
C  C19  1  0.09745000  0.89420000  0.90075000  1.0 0.0775383511
C  C20  1  0.14242000  0.96910000  0.93569000  1.0 -0.1663093281
C  C21  1  0.13200000  0.97110000  0.99105000  1.0 -0.1663093281
C  C22  1  0.10100000  0.89470000  0.83935000  1.0 -0.2170133572
C  C23  1  0.08680000  0.17780000  0.80302000  1.0 0.1390994697
C  C24  1  0.17344000  0.04940000  0.79218000  1.0 0.0654122266
C  C25  1  0.16220000  0.66200000  0.49394000  1.0 -0.1663093281
C  C26  1  0.13240000  0.55480000  0.47801000  1.0 0.2667815867
C  C27  1  0.12060000  0.52830000  0.42152000  1.0 -0.2170133572
C  C28  1  0.13850000  0.60400000  0.38300000  1.0 -0.0587089923
C  C29  1  0.17100000  0.70900000  0.39863000  1.0 -0.1403279868
C  C30  1  0.18230000  0.73630000  0.45377000  1.0 -0.1112243873
C  C31  1  0.17290000  0.69740000  0.55241000  1.0 0.5373764667
C  C32  1  0.13690000  0.16190000  0.65143000  1.0 0.0921769473
C  C33  1  0.11810000  0.33540000  0.64168000  1.0 0.1524704597
C  C34  1  0.04660000  0.09820000  0.56670000  1.0 -0.2019090248
C  C35  1  0.07100000  0.11350000  0.50890000  1.0 0.0921769473
C  C36  1  0.02840000  0.19020000  0.47317000  1.0 -0.1627984629
C  C37  1  0.04770000  0.20110000  0.41991000  1.0 -0.1508980584
C  C38  1  0.11080000  0.13700000  0.40118000  1.0 0.0992173603
C  C39  1  0.15360000  0.06120000  0.43711000  1.0 -0.1508980584
C  C40  1  0.13420000  0.05000000  0.49027000  1.0 -0.1627984629
C  C41  1  0.13320000  0.15140000  0.34353000  1.0 -0.1911941436
C  C42  1  0.11200000  0.88390000  0.28578000  1.0 0.1291016013
C  C43  1  0.21240000  0.99700000  0.30097000  1.0 0.0611189979
C  C44  1  0.34890000  0.19350000  0.84578000  1.0 0.1390994697
C  C45  1  0.33640000  0.36910000  0.84660000  1.0 0.0611189979
C  C46  1  0.44050000  0.41090000  0.92814000  1.0 -0.2170133572
C  C47  1  0.42190000  0.39820000  0.98696000  1.0 0.0775383511
C  C48  1  0.46420000  0.31960000  0.02148000  1.0 -0.1663093281
C  C49  1  0.45480000  0.31810000  0.07696000  1.0 -0.1663093281
C  C50  1  0.40255000  0.39420000  0.09925000  1.0 0.0775383511
C  C51  1  0.35758000  0.46910000  0.06431000  1.0 -0.1663093281
C  C52  1  0.36800000  0.47110000  0.00895000  1.0 -0.1663093281
C  C53  1  0.39900000  0.39470000  0.16065000  1.0 -0.2170133572
C  C54  1  0.41320000  0.67780000  0.19698000  1.0 0.1390994697
C  C55  1  0.32656000  0.54940000  0.20782000  1.0 0.0654122266
C  C56  1  0.33780000  0.16200000  0.50606000  1.0 -0.1663093281
C  C57  1  0.36760000  0.05480000  0.52199000  1.0 0.2667815867
C  C58  1  0.37940000  0.02830000  0.57848000  1.0 -0.2142658499
C  C59  1  0.36150000  0.10400000  0.61700000  1.0 -0.0587089923
C  C60  1  0.32900000  0.20900000  0.60137000  1.0 -0.1403279868
C  C61  1  0.31770000  0.23630000  0.54623000  1.0 -0.1112243873
C  C62  1  0.32710000  0.19740000  0.44759000  1.0 0.5373764667
C  C63  1  0.63690000  0.33810000  0.65143000  1.0 0.0921769473
C  C64  1  0.61810000  0.16460000  0.64168000  1.0 0.1524704597
C  C65  1  0.54660000  0.40180000  0.56670000  1.0 -0.2019090248
C  C66  1  0.57100000  0.38650000  0.50890000  1.0 0.0921769473
C  C67  1  0.52840000  0.30980000  0.47317000  1.0 -0.1627984629
C  C68  1  0.54770000  0.29890000  0.41991000  1.0 -0.1508980584
C  C69  1  0.61080000  0.36300000  0.40118000  1.0 0.0992173603
C  C70  1  0.65360000  0.43880000  0.43711000  1.0 -0.1508980584
C  C71  1  0.63420000  0.45000000  0.49027000  1.0 -0.1627984629
C  C72  1  0.63320000  0.34860000  0.34353000  1.0 -0.1911941436
C  C73  1  0.61200000  0.61610000  0.28578000  1.0 0.1291016013
C  C74  1  0.71240000  0.50300000  0.30097000  1.0 0.0611189979
C  C75  1  0.84890000  0.30650000  0.84578000  1.0 0.1390994697
C  C76  1  0.83640000  0.13090000  0.84660000  1.0 0.0611189979
C  C77  1  0.94050000  0.08910000  0.92814000  1.0 -0.2170133572
C  C78  1  0.92190000  0.10180000  0.98696000  1.0 0.0775383511
C  C79  1  0.96420000  0.18040000  0.02148000  1.0 -0.1663093281
C  C80  1  0.95480000  0.18190000  0.07696000  1.0 -0.1663093281
C  C81  1  0.90255000  0.10580000  0.09925000  1.0 0.0775383511
C  C82  1  0.85758000  0.03090000  0.06431000  1.0 -0.1663093281
C  C83  1  0.86800000  0.02890000  0.00895000  1.0 -0.1663093281
C  C84  1  0.89900000  0.10530000  0.16065000  1.0 -0.2170133572
C  C85  1  0.91320000  0.82220000  0.19698000  1.0 0.1291016013
C  C86  1  0.82656000  0.95060000  0.20782000  1.0 0.0611189979
C  C87  1  0.83780000  0.33800000  0.50606000  1.0 -0.1663093281
C  C88  1  0.86760000  0.44520000  0.52199000  1.0 0.2667815867
C  C89  1  0.87940000  0.47170000  0.57848000  1.0 -0.2170133572
C  C90  1  0.86150000  0.39600000  0.61700000  1.0 -0.0587089923
C  C91  1  0.82900000  0.29100000  0.60137000  1.0 -0.1403279868
C  C92  1  0.81770000  0.26370000  0.54623000  1.0 -0.1112243873
C  C93  1  0.82710000  0.30260000  0.44759000  1.0 0.5373764667
C  C94  1  0.86310000  0.83810000  0.34857000  1.0 0.0921769473
C  C95  1  0.88190000  0.66460000  0.35832000  1.0 0.1524704597
C  C96  1  0.95340000  0.90180000  0.43330000  1.0 -0.2019090248
C  C97  1  0.92900000  0.88650000  0.49110000  1.0 0.0921769473
C  C98  1  0.97160000  0.80980000  0.52683000  1.0 -0.1627984629
C  C99  1  0.95230000  0.79890000  0.58009000  1.0 -0.1508980584
C  C100  1  0.88920000  0.86300000  0.59882000  1.0 0.0992173603
C  C101  1  0.84640000  0.93880000  0.56289000  1.0 -0.1508980584
C  C102  1  0.86580000  0.95000000  0.50973000  1.0 -0.1627984629
C  C103  1  0.86680000  0.84860000  0.65647000  1.0 -0.1911941436
C  C104  1  0.88800000  0.11610000  0.71422000  1.0 0.1291016013
C  C105  1  0.78760000  0.00300000  0.69903000  1.0 0.0611189979
C  C106  1  0.65110000  0.80650000  0.15422000  1.0 0.1390994697
C  C107  1  0.66360000  0.63090000  0.15340000  1.0 0.0611189979
C  C108  1  0.55950000  0.58910000  0.07186000  1.0 -0.2170133572
C  C109  1  0.57810000  0.60180000  0.01304000  1.0 0.0775383511
C  C110  1  0.53580000  0.68040000  0.97852000  1.0 -0.1663093281
C  C111  1  0.54520000  0.68190000  0.92304000  1.0 -0.1663093281
C  C112  1  0.59745000  0.60580000  0.90075000  1.0 0.0775383511
C  C113  1  0.64242000  0.53090000  0.93569000  1.0 -0.1663093281
C  C114  1  0.63200000  0.52890000  0.99105000  1.0 -0.1663093281
C  C115  1  0.60100000  0.60530000  0.83935000  1.0 -0.2170133572
C  C116  1  0.58680000  0.32220000  0.80302000  1.0 0.1390994697
C  C117  1  0.67344000  0.45060000  0.79218000  1.0 0.0611189979
C  C118  1  0.66220000  0.83800000  0.49394000  1.0 -0.1663093281
C  C119  1  0.63240000  0.94520000  0.47801000  1.0 0.2667815867
C  C120  1  0.62060000  0.97170000  0.42152000  1.0 -0.2170133572
C  C121  1  0.63850000  0.89600000  0.38300000  1.0 -0.0587089923
C  C122  1  0.67100000  0.79100000  0.39863000  1.0 -0.1403279868
C  C123  1  0.68230000  0.76370000  0.45377000  1.0 -0.1112243873
C  C124  1  0.67290000  0.80260000  0.55241000  1.0 0.5373764667
S  S1  1  0.11941000  0.56856000  0.31177000  1.0 1.1558131161
S  S2  1  0.38059000  0.06856000  0.68823000  1.0 1.1545458618
S  S3  1  0.88059000  0.43144000  0.68823000  1.0 1.1545458618
S  S4  1  0.61941000  0.93144000  0.31177000  1.0 1.1558131161
N  N1  1  0.34165000  0.75870000  0.32409000  1.0 -0.3096014303
N  N2  1  0.42520000  0.79170000  0.40194000  1.0 -0.248877984
N  N3  1  0.41192000  0.68000000  0.39436000  1.0 0.1700385642
N  N4  1  0.35660000  0.54310000  0.68346000  1.0 0.1700385642
N  N5  1  0.42249000  0.47160000  0.69305000  1.0 -0.2773306412
N  N6  1  0.30457000  0.39490000  0.71853000  1.0 -0.3245627103
N  N7  1  0.19167000  0.77920000  0.18188000  1.0 -0.3096014303
N  N8  1  0.10010000  0.72530000  0.11028000  1.0 -0.2678045832
N  N9  1  0.11038000  0.83840000  0.11122000  1.0 0.1700385642
N  N10  1  0.11208000  0.00860000  0.81824000  1.0 0.1524704597
N  N11  1  0.05538000  0.09000000  0.82514000  1.0 -0.2678045832
N  N12  1  0.15996000  0.15810000  0.78183000  1.0 -0.3096014303
N  N13  1  0.11740000  0.47440000  0.51517000  1.0 -0.5599955139
N  N14  1  0.15835000  0.25870000  0.67591000  1.0 -0.3096014303
N  N15  1  0.07480000  0.29170000  0.59806000  1.0 -0.248877984
N  N16  1  0.08808000  0.18000000  0.60564000  1.0 0.1700385642
N  N17  1  0.14340000  0.04310000  0.31654000  1.0 0.1700385642
N  N18  1  0.07751000  0.97160000  0.30695000  1.0 -0.2773306412
N  N19  1  0.19543000  0.89490000  0.28147000  1.0 -0.3245627103
N  N20  1  0.30833000  0.27920000  0.81812000  1.0 -0.3096014303
N  N21  1  0.39990000  0.22530000  0.88972000  1.0 -0.2647374687
N  N22  1  0.38962000  0.33840000  0.88878000  1.0 0.1700385642
N  N23  1  0.38792000  0.50860000  0.18176000  1.0 0.1524704597
N  N24  1  0.44462000  0.59000000  0.17486000  1.0 -0.2678045832
N  N25  1  0.34004000  0.65810000  0.21817000  1.0 -0.3096014303
N  N26  1  0.38260000  0.97440000  0.48483000  1.0 -0.5599955139
N  N27  1  0.65835000  0.24130000  0.67591000  1.0 -0.3096014303
N  N28  1  0.57480000  0.20830000  0.59806000  1.0 -0.248877984
N  N29  1  0.58808000  0.32000000  0.60564000  1.0 0.1700385642
N  N30  1  0.64340000  0.45690000  0.31654000  1.0 0.1700385642
N  N31  1  0.57751000  0.52840000  0.30695000  1.0 -0.2773306412
N  N32  1  0.69543000  0.60510000  0.28147000  1.0 -0.3245627103
N  N33  1  0.80833000  0.22080000  0.81812000  1.0 -0.3096014303
N  N34  1  0.89990000  0.27470000  0.88972000  1.0 -0.2678045832
N  N35  1  0.88962000  0.16160000  0.88878000  1.0 0.1700385642
N  N36  1  0.88792000  0.99140000  0.18176000  1.0 0.1524704597
N  N37  1  0.94462000  0.91000000  0.17486000  1.0 -0.2678045832
N  N38  1  0.84004000  0.84190000  0.21817000  1.0 -0.3096014303
N  N39  1  0.88260000  0.52560000  0.48483000  1.0 -0.5599955139
N  N40  1  0.84165000  0.74130000  0.32409000  1.0 -0.3096014303
N  N41  1  0.92520000  0.70830000  0.40194000  1.0 -0.248877984
N  N42  1  0.91192000  0.82000000  0.39436000  1.0 0.1700385642
N  N43  1  0.85660000  0.95690000  0.68346000  1.0 0.1700385642
N  N44  1  0.92249000  0.02840000  0.69305000  1.0 -0.2773306412
N  N45  1  0.80457000  0.10510000  0.71853000  1.0 -0.3245627103
N  N46  1  0.69167000  0.72080000  0.18188000  1.0 -0.3096014303
N  N47  1  0.60010000  0.77470000  0.11028000  1.0 -0.2678045832
N  N48  1  0.61038000  0.66160000  0.11122000  1.0 0.1700385642
N  N49  1  0.61208000  0.49140000  0.81824000  1.0 0.1524704597
N  N50  1  0.55538000  0.41000000  0.82514000  1.0 -0.2678045832
N  N51  1  0.65996000  0.34190000  0.78183000  1.0 -0.3096014303
N  N52  1  0.61740000  0.02560000  0.51517000  1.0 -0.5599955139
O  O1  1  0.18663000  0.61890000  0.28558000  1.0 -0.6857386646
O  O2  1  0.03850000  0.61530000  0.29177000  1.0 -0.6207480845
O  O3  1  0.12160000  0.44670000  0.31011000  1.0 -0.6557320572
O  O4  1  0.15550000  0.63770000  0.59042000  1.0 -0.5251857457
O  O5  1  0.20130000  0.80000000  0.56029000  1.0 -0.4392660302
O  O6  1  0.36916000  0.91870000  0.23603000  1.0 -0.6794334021
O  O7  1  0.31337000  0.11890000  0.71442000  1.0 -0.6857386646
O  O8  1  0.46150000  0.11530000  0.70823000  1.0 -0.6207480845
O  O9  1  0.37840000  0.94670000  0.68989000  1.0 -0.6547620115
O  O10  1  0.34450000  0.13770000  0.40958000  1.0 -0.5251857457
O  O11  1  0.29870000  0.30000000  0.43971000  1.0 -0.4392660302
O  O12  1  0.13084000  0.41870000  0.76397000  1.0 -0.6794334021
O  O13  1  0.81337000  0.38110000  0.71442000  1.0 -0.6857386646
O  O14  1  0.96150000  0.38470000  0.70823000  1.0 -0.6207480845
O  O15  1  0.87840000  0.55330000  0.68989000  1.0 -0.6557320572
O  O16  1  0.84450000  0.36230000  0.40958000  1.0 -0.5251857457
O  O17  1  0.79870000  0.20000000  0.43971000  1.0 -0.4392660302
O  O18  1  0.63084000  0.08130000  0.76397000  1.0 -0.6794334021
O  O19  1  0.68663000  0.88110000  0.28558000  1.0 -0.6857386646
O  O20  1  0.53850000  0.88470000  0.29177000  1.0 -0.6207480845
O  O21  1  0.62160000  0.05330000  0.31011000  1.0 -0.6557320572
O  O22  1  0.65550000  0.86230000  0.59042000  1.0 -0.52472226
O  O23  1  0.70130000  0.70000000  0.56029000  1.0 -0.4392660302
O  O24  1  0.86916000  0.58130000  0.23603000  1.0 -0.6794334021
