# DDEC6 charges by PACMAN v1.1 (https://github.com/mtap-research/PACMAN-charge/)
data_FENZAB_ASR_pacman
_symmetry_space_group_name_H-M   'P 1'
_cell_length_a   12.92470000
_cell_length_b   12.92470000
_cell_length_c   8.39310000
_cell_angle_alpha   86.59430000
_cell_angle_beta   93.40570000
_cell_angle_gamma   122.89200000
_symmetry_Int_Tables_number   1
_chemical_formula_structural   LaH16C11O6
_chemical_formula_sum   'La4 H64 C44 O24'
_cell_volume   1174.59930746
_cell_formula_units_Z   4
loop_
 _symmetry_equiv_pos_site_id
 _symmetry_equiv_pos_as_xyz
  1  'x, y, z'
loop_
 _atom_site_type_symbol
 _atom_site_label
 _atom_site_symmetry_multiplicity
 _atom_site_fract_x
 _atom_site_fract_y
 _atom_site_fract_z
 _atom_site_occupancy
 _atom_site_charge
La  La1  1  0.14896000  0.76888000  0.53460000  1.0 1.6886611626
La  La2  1  0.76888000  0.14896000  0.96540000  1.0 1.6886611626
La  La3  1  0.85104000  0.23112000  0.46540000  1.0 1.6844392862
La  La4  1  0.23112000  0.85104000  0.03460000  1.0 1.6886611626
H  H1  1  0.17710000  0.56410000  0.04060000  1.0 0.0908531356
H  H2  1  0.56410000  0.17710000  0.45940000  1.0 0.0908531356
H  H3  1  0.82290000  0.43590000  0.95940000  1.0 0.0908531356
H  H4  1  0.43590000  0.82290000  0.54060000  1.0 0.0908531356
H  H5  1  0.30300000  0.49400000  0.97490000  1.0 0.1090646339
H  H6  1  0.49400000  0.30300000  0.52510000  1.0 0.1090646339
H  H7  1  0.69700000  0.50600000  0.02510000  1.0 0.1090646339
H  H8  1  0.50600000  0.69700000  0.47490000  1.0 0.1090646339
H  H9  1  0.20800000  0.36360000  0.04910000  1.0 0.1090646339
H  H10  1  0.36360000  0.20800000  0.45090000  1.0 0.1090646339
H  H11  1  0.79200000  0.63640000  0.95090000  1.0 0.1090646339
H  H12  1  0.63640000  0.79200000  0.54910000  1.0 0.1090646339
H  H13  1  0.17050000  0.41370000  0.89680000  1.0 0.1201731409
H  H14  1  0.41370000  0.17050000  0.60320000  1.0 0.1201731409
H  H15  1  0.82950000  0.58630000  0.10320000  1.0 0.1201731409
H  H16  1  0.58630000  0.82950000  0.39680000  1.0 0.1201731409
H  H17  1  0.33840000  0.60640000  0.21360000  1.0 0.1090646339
H  H18  1  0.60640000  0.33840000  0.28640000  1.0 0.1090646339
H  H19  1  0.66160000  0.39360000  0.78640000  1.0 0.1090646339
H  H20  1  0.39360000  0.66160000  0.71360000  1.0 0.1090646339
H  H21  1  0.94430000  0.88190000  0.10800000  1.0 0.0606939316
H  H22  1  0.88190000  0.94430000  0.39200000  1.0 0.0606939316
H  H23  1  0.05570000  0.11810000  0.89200000  1.0 0.0606939316
H  H24  1  0.11810000  0.05570000  0.60800000  1.0 0.0606939316
H  H25  1  0.99570000  0.94490000  0.11090000  1.0 0.0606939316
H  H26  1  0.94490000  0.99570000  0.38910000  1.0 0.0606939316
H  H27  1  0.00430000  0.05510000  0.88910000  1.0 0.0606939316
H  H28  1  0.05510000  0.00430000  0.61090000  1.0 0.0606939316
H  H29  1  0.30330000  0.42110000  0.30260000  1.0 0.1090646339
H  H30  1  0.42110000  0.30330000  0.19740000  1.0 0.1090646339
H  H31  1  0.69670000  0.57890000  0.69740000  1.0 0.1090646339
H  H32  1  0.57890000  0.69670000  0.80260000  1.0 0.1090646339
H  H33  1  0.31640000  0.49340000  0.45380000  1.0 0.1090646339
H  H34  1  0.49340000  0.31640000  0.04620000  1.0 0.1090646339
H  H35  1  0.68360000  0.50660000  0.54620000  1.0 0.1090646339
H  H36  1  0.50660000  0.68360000  0.95380000  1.0 0.1090646339
H  H37  1  0.18550000  0.38830000  0.39200000  1.0 0.1090646339
H  H38  1  0.38830000  0.18550000  0.10800000  1.0 0.1090646339
H  H39  1  0.81450000  0.61170000  0.60800000  1.0 0.1090646339
H  H40  1  0.61170000  0.81450000  0.89200000  1.0 0.1090646339
H  H41  1  0.11730000  0.11150000  0.13810000  1.0 0.0606939316
H  H42  1  0.11150000  0.11730000  0.36190000  1.0 0.0606939316
H  H43  1  0.88270000  0.88850000  0.86190000  1.0 0.0606939316
H  H44  1  0.88850000  0.88270000  0.63810000  1.0 0.0606939316
H  H45  1  0.12180000  0.17820000  0.29080000  1.0 0.0606939316
H  H46  1  0.17820000  0.12180000  0.20920000  1.0 0.0606939316
H  H47  1  0.87820000  0.82180000  0.70920000  1.0 0.0606939316
H  H48  1  0.82180000  0.87820000  0.79080000  1.0 0.0606939316
H  H49  1  0.15020000  0.07440000  0.30560000  1.0 0.0606939316
H  H50  1  0.07440000  0.15020000  0.19440000  1.0 0.0606939316
H  H51  1  0.84980000  0.92560000  0.69440000  1.0 0.0606939316
H  H52  1  0.92560000  0.84980000  0.80560000  1.0 0.0606939316
H  H53  1  0.76280000  0.70160000  0.24040000  1.0 0.0530438344
H  H54  1  0.70160000  0.76280000  0.25960000  1.0 0.0530438344
H  H55  1  0.23720000  0.29840000  0.75960000  1.0 0.0530438344
H  H56  1  0.29840000  0.23720000  0.74040000  1.0 0.0530438344
H  H57  1  0.76660000  0.79520000  0.35490000  1.0 0.0606939316
H  H58  1  0.79520000  0.76660000  0.14510000  1.0 0.0606939316
H  H59  1  0.23340000  0.20480000  0.64510000  1.0 0.0606939316
H  H60  1  0.20480000  0.23340000  0.85490000  1.0 0.0606939316
H  H61  1  0.73880000  0.80240000  0.17170000  1.0 0.0670437809
H  H62  1  0.80240000  0.73880000  0.32830000  1.0 0.0670437809
H  H63  1  0.26120000  0.19760000  0.82830000  1.0 0.0670437809
H  H64  1  0.19760000  0.26120000  0.67170000  1.0 0.0670437809
C  C1  1  0.17126000  0.49454000  0.10260000  1.0 -0.0847170581
C  C2  1  0.49454000  0.17126000  0.39740000  1.0 -0.0847170581
C  C3  1  0.82874000  0.50546000  0.89740000  1.0 -0.0856209551
C  C4  1  0.50546000  0.82874000  0.60260000  1.0 -0.0856209551
C  C5  1  0.22459000  0.62661000  0.34430000  1.0 0.6052722182
C  C6  1  0.62661000  0.22459000  0.15570000  1.0 0.6052722182
C  C7  1  0.77541000  0.37339000  0.65570000  1.0 0.6052722182
C  C8  1  0.37339000  0.77541000  0.84430000  1.0 0.6052722182
C  C9  1  0.21749000  0.43591000  0.99580000  1.0 -0.4298195172
C  C10  1  0.43591000  0.21749000  0.50420000  1.0 -0.4298195172
C  C11  1  0.78251000  0.56409000  0.00420000  1.0 -0.4298195172
C  C12  1  0.56409000  0.78251000  0.49580000  1.0 -0.4298195172
C  C13  1  0.25542000  0.54858000  0.25330000  1.0 -0.0963012357
C  C14  1  0.54858000  0.25542000  0.24670000  1.0 -0.0963012357
C  C15  1  0.74458000  0.45142000  0.74670000  1.0 -0.0963012357
C  C16  1  0.45142000  0.74458000  0.75330000  1.0 -0.0963012357
C  C17  1  0.92820000  0.87700000  0.22180000  1.0 -0.0245348461
C  C18  1  0.87700000  0.92820000  0.27820000  1.0 -0.0245348461
C  C19  1  0.07180000  0.12300000  0.77820000  1.0 -0.0245348461
C  C20  1  0.12300000  0.07180000  0.72180000  1.0 -0.0245348461
C  C21  1  0.00210000  0.96130000  0.22480000  1.0 -0.0065045682
C  C22  1  0.96130000  0.00210000  0.27520000  1.0 -0.0065045682
C  C23  1  0.99790000  0.03870000  0.77520000  1.0 -0.0065045682
C  C24  1  0.03870000  0.99790000  0.72480000  1.0 -0.0065045682
C  C25  1  0.26621000  0.45399000  0.36050000  1.0 -0.4199068848
C  C26  1  0.45399000  0.26621000  0.13950000  1.0 -0.4199068848
C  C27  1  0.73379000  0.54601000  0.63950000  1.0 -0.4199068848
C  C28  1  0.54601000  0.73379000  0.86050000  1.0 -0.4199068848
C  C29  1  0.10110000  0.10110000  0.25000000  1.0 -0.3469780241
C  C30  1  0.89890000  0.89890000  0.75000000  1.0 -0.3469780241
C  C31  1  0.78490000  0.78490000  0.25000000  1.0 -0.2937473659
C  C32  1  0.21510000  0.21510000  0.75000000  1.0 -0.2937473659
C  C33  1  0.03448000  0.40372000  0.13620000  1.0 0.6362675275
C  C34  1  0.40372000  0.03448000  0.36380000  1.0 0.6362675275
C  C35  1  0.96552000  0.59628000  0.86380000  1.0 0.6362675275
C  C36  1  0.59628000  0.96552000  0.63620000  1.0 0.6362675275
C  C37  1  0.04440000  0.88420000  0.31800000  1.0 0.2581025209
C  C38  1  0.88420000  0.04440000  0.18200000  1.0 0.2581025209
C  C39  1  0.95560000  0.11580000  0.68200000  1.0 0.2581025209
C  C40  1  0.11580000  0.95560000  0.81800000  1.0 0.2581025209
C  C41  1  0.01040000  0.84340000  0.32100000  1.0 0.2581025209
C  C42  1  0.84340000  0.01040000  0.17900000  1.0 0.2581025209
C  C43  1  0.98960000  0.15660000  0.67900000  1.0 0.2581025209
C  C44  1  0.15660000  0.98960000  0.82100000  1.0 0.2581025209
O  O1  1  0.21152000  0.61168000  0.49350000  1.0 -0.572745562
O  O2  1  0.61168000  0.21152000  0.00650000  1.0 -0.572745562
O  O3  1  0.78848000  0.38832000  0.50650000  1.0 -0.572745562
O  O4  1  0.38832000  0.78848000  0.99350000  1.0 -0.572745562
O  O5  1  0.99970000  0.83210000  0.46140000  1.0 -0.4298195172
O  O6  1  0.83210000  0.99970000  0.03860000  1.0 -0.4298195172
O  O7  1  0.00030000  0.16790000  0.53860000  1.0 -0.4298195172
O  O8  1  0.16790000  0.00030000  0.96140000  1.0 -0.4298195172
O  O9  1  0.21575000  0.71025000  0.26940000  1.0 -0.6685313736
O  O10  1  0.71025000  0.21575000  0.23060000  1.0 -0.6685313736
O  O11  1  0.78425000  0.28975000  0.73060000  1.0 -0.6685313736
O  O12  1  0.28975000  0.78425000  0.76940000  1.0 -0.6685313736
O  O13  1  0.96361000  0.34359000  0.01940000  1.0 -0.6501088147
O  O14  1  0.34359000  0.96361000  0.48060000  1.0 -0.6501088147
O  O15  1  0.03639000  0.65641000  0.98060000  1.0 -0.6501088147
O  O16  1  0.65641000  0.03639000  0.51940000  1.0 -0.6501088147
O  O17  1  0.99903000  0.39637000  0.27590000  1.0 -0.6242652391
O  O18  1  0.39637000  0.99903000  0.22410000  1.0 -0.6242652391
O  O19  1  0.00097000  0.60363000  0.72410000  1.0 -0.6242652391
O  O20  1  0.60363000  0.00097000  0.77590000  1.0 -0.6242652391
O  O21  1  0.11260000  0.85800000  0.25820000  1.0 -0.4669465055
O  O22  1  0.85800000  0.11260000  0.24180000  1.0 -0.4669465055
O  O23  1  0.88740000  0.14200000  0.74180000  1.0 -0.4669465055
O  O24  1  0.14200000  0.88740000  0.75820000  1.0 -0.4669465055
