# DDEC6 charges by PACMAN v1.1 (https://github.com/mtap-research/PACMAN-charge/)
data_FEPQEW_FSR_pacman
_symmetry_space_group_name_H-M   'P 1'
_cell_length_a   9.36500000
_cell_length_b   11.25300000
_cell_length_c   12.70200000
_cell_angle_alpha   90.00000000
_cell_angle_beta   90.00000000
_cell_angle_gamma   90.00000000
_symmetry_Int_Tables_number   1
_chemical_formula_structural   Ti2P3(H3O7)2
_chemical_formula_sum   'Ti8 P12 H24 O56'
_cell_volume   1338.59195019
_cell_formula_units_Z   4
loop_
 _symmetry_equiv_pos_site_id
 _symmetry_equiv_pos_as_xyz
  1  'x, y, z'
loop_
 _atom_site_type_symbol
 _atom_site_label
 _atom_site_symmetry_multiplicity
 _atom_site_fract_x
 _atom_site_fract_y
 _atom_site_fract_z
 _atom_site_occupancy
 _atom_site_charge
Ti  Ti1  1  0.25000000  0.25000000  0.25799000  1.0 2.1167692265
Ti  Ti2  1  0.75000000  0.25000000  0.24201000  1.0 2.1167692265
Ti  Ti3  1  0.75000000  0.75000000  0.74201000  1.0 2.1167692265
Ti  Ti4  1  0.25000000  0.75000000  0.75799000  1.0 2.1167692265
Ti  Ti5  1  0.00000000  0.00000000  0.00000000  1.0 2.0329439959
Ti  Ti6  1  0.00000000  0.00000000  0.50000000  1.0 2.0329439959
Ti  Ti7  1  0.50000000  0.50000000  0.50000000  1.0 2.0329439959
Ti  Ti8  1  0.50000000  0.50000000  0.00000000  1.0 2.0329439959
P  P1  1  0.51160000  0.20056000  0.42472000  1.0 1.6191678515
P  P2  1  0.48840000  0.20056000  0.07528000  1.0 1.6191678515
P  P3  1  0.01160000  0.29944000  0.07528000  1.0 1.6191678515
P  P4  1  0.98840000  0.29944000  0.42472000  1.0 1.6191678515
P  P5  1  0.48840000  0.79944000  0.57528000  1.0 1.6191678515
P  P6  1  0.51160000  0.79944000  0.92472000  1.0 1.6191678515
P  P7  1  0.98840000  0.70056000  0.92472000  1.0 1.6191678515
P  P8  1  0.01160000  0.70056000  0.57528000  1.0 1.6191678515
P  P9  1  0.00000000  0.03370000  0.25000000  1.0 1.633573415
P  P10  1  0.50000000  0.46630000  0.25000000  1.0 1.633573415
P  P11  1  0.00000000  0.96630000  0.75000000  1.0 1.633573415
P  P12  1  0.50000000  0.53370000  0.75000000  1.0 1.633573415
H  H1  1  0.50320000  0.13860000  0.56970000  1.0 0.3859864084
H  H2  1  0.49680000  0.13860000  0.93030000  1.0 0.3859864084
H  H3  1  0.00320000  0.36140000  0.93030000  1.0 0.3859864084
H  H4  1  0.99680000  0.36140000  0.56970000  1.0 0.3859864084
H  H5  1  0.49680000  0.86140000  0.43030000  1.0 0.3859864084
H  H6  1  0.50320000  0.86140000  0.06970000  1.0 0.3859864084
H  H7  1  0.99680000  0.63860000  0.06970000  1.0 0.3859864084
H  H8  1  0.00320000  0.63860000  0.43030000  1.0 0.3859864084
H  H9  1  0.25260000  0.94370000  0.04870000  1.0 0.4303068241
H  H10  1  0.74740000  0.94370000  0.45130000  1.0 0.4303068241
H  H11  1  0.75260000  0.55630000  0.45130000  1.0 0.4303068241
H  H12  1  0.24740000  0.55630000  0.04870000  1.0 0.4303068241
H  H13  1  0.74740000  0.05630000  0.95130000  1.0 0.4303068241
H  H14  1  0.25260000  0.05630000  0.54870000  1.0 0.4303068241
H  H15  1  0.24740000  0.44370000  0.54870000  1.0 0.4303068241
H  H16  1  0.75260000  0.44370000  0.95130000  1.0 0.4303068241
H  H17  1  0.23900000  0.93840000  0.92580000  1.0 0.4225311896
H  H18  1  0.76100000  0.93840000  0.57420000  1.0 0.4225311896
H  H19  1  0.73900000  0.56160000  0.57420000  1.0 0.4225311896
H  H20  1  0.26100000  0.56160000  0.92580000  1.0 0.4225311896
H  H21  1  0.76100000  0.06160000  0.07420000  1.0 0.4225311896
H  H22  1  0.23900000  0.06160000  0.42580000  1.0 0.4225311896
H  H23  1  0.26100000  0.43840000  0.42580000  1.0 0.4225311896
H  H24  1  0.73900000  0.43840000  0.07420000  1.0 0.4225311896
O  O1  1  0.86820000  0.11240000  0.23780000  1.0 -0.8784265557
O  O2  1  0.13180000  0.11240000  0.26220000  1.0 -0.8784265557
O  O3  1  0.36820000  0.38760000  0.26220000  1.0 -0.8883722659
O  O4  1  0.63180000  0.38760000  0.23780000  1.0 -0.8883722659
O  O5  1  0.13180000  0.88760000  0.76220000  1.0 -0.8883722659
O  O6  1  0.86820000  0.88760000  0.73780000  1.0 -0.8883722659
O  O7  1  0.63180000  0.61240000  0.73780000  1.0 -0.8883722659
O  O8  1  0.36820000  0.61240000  0.76220000  1.0 -0.8883722659
O  O9  1  0.53060000  0.10950000  0.51410000  1.0 -0.6136137375
O  O10  1  0.46940000  0.10950000  0.98590000  1.0 -0.6136137375
O  O11  1  0.03060000  0.39050000  0.98590000  1.0 -0.6136137375
O  O12  1  0.96940000  0.39050000  0.51410000  1.0 -0.6136137375
O  O13  1  0.46940000  0.89050000  0.48590000  1.0 -0.6136137375
O  O14  1  0.53060000  0.89050000  0.01410000  1.0 -0.6136137375
O  O15  1  0.96940000  0.60950000  0.01410000  1.0 -0.6136137375
O  O16  1  0.03060000  0.60950000  0.48590000  1.0 -0.6136137375
O  O17  1  0.36780000  0.17670000  0.37320000  1.0 -0.8625296483
O  O18  1  0.63220000  0.17670000  0.12680000  1.0 -0.8625296483
O  O19  1  0.86780000  0.32330000  0.12680000  1.0 -0.8625296483
O  O20  1  0.13220000  0.32330000  0.37320000  1.0 -0.8625296483
O  O21  1  0.63220000  0.82330000  0.62680000  1.0 -0.8625296483
O  O22  1  0.36780000  0.82330000  0.87320000  1.0 -0.8625296483
O  O23  1  0.13220000  0.67670000  0.87320000  1.0 -0.8625296483
O  O24  1  0.86780000  0.67670000  0.62680000  1.0 -0.8625296483
O  O25  1  0.62990000  0.17680000  0.34490000  1.0 -0.8377245122
O  O26  1  0.37010000  0.17680000  0.15510000  1.0 -0.8377245122
O  O27  1  0.12990000  0.32320000  0.15510000  1.0 -0.8377245122
O  O28  1  0.87010000  0.32320000  0.34490000  1.0 -0.8377245122
O  O29  1  0.37010000  0.82320000  0.65510000  1.0 -0.8377245122
O  O30  1  0.62990000  0.82320000  0.84490000  1.0 -0.8377245122
O  O31  1  0.87010000  0.67680000  0.84490000  1.0 -0.8377245122
O  O32  1  0.12990000  0.67680000  0.65510000  1.0 -0.8377245122
O  O33  1  0.01480000  0.95590000  0.15340000  1.0 -0.8784265557
O  O34  1  0.98520000  0.95590000  0.34660000  1.0 -0.8784265557
O  O35  1  0.51480000  0.54410000  0.34660000  1.0 -0.8784265557
O  O36  1  0.48520000  0.54410000  0.15340000  1.0 -0.8784265557
O  O37  1  0.98520000  0.04410000  0.84660000  1.0 -0.8784265557
O  O38  1  0.01480000  0.04410000  0.65340000  1.0 -0.8784265557
O  O39  1  0.48520000  0.45590000  0.65340000  1.0 -0.8784265557
O  O40  1  0.51480000  0.45590000  0.84660000  1.0 -0.8784265557
O  O41  1  0.47730000  0.32470000  0.03100000  1.0 -0.8883722659
O  O42  1  0.52270000  0.32470000  0.46900000  1.0 -0.8883722659
O  O43  1  0.97730000  0.17530000  0.46900000  1.0 -0.8883722659
O  O44  1  0.02270000  0.17530000  0.03100000  1.0 -0.8883722659
O  O45  1  0.52270000  0.67530000  0.96900000  1.0 -0.8883722659
O  O46  1  0.47730000  0.67530000  0.53100000  1.0 -0.8883722659
O  O47  1  0.02270000  0.82470000  0.53100000  1.0 -0.8883722659
O  O48  1  0.97730000  0.82470000  0.96900000  1.0 -0.8883722659
O  O49  1  0.21620000  0.98440000  0.98740000  1.0 -0.7830830344
O  O50  1  0.78380000  0.98440000  0.51260000  1.0 -0.7830830344
O  O51  1  0.71620000  0.51560000  0.51260000  1.0 -0.7830830344
O  O52  1  0.28380000  0.51560000  0.98740000  1.0 -0.7830830344
O  O53  1  0.78380000  0.01560000  0.01260000  1.0 -0.7830830344
O  O54  1  0.21620000  0.01560000  0.48740000  1.0 -0.7830830344
O  O55  1  0.28380000  0.48440000  0.48740000  1.0 -0.7830830344
O  O56  1  0.71620000  0.48440000  0.01260000  1.0 -0.7830830344
