# DDEC6 charges by PACMAN v1.1 (https://github.com/mtap-research/PACMAN-charge/)
data_FERCIR_FSR_pacman
_symmetry_space_group_name_H-M   'P 1'
_cell_length_a   16.04220000
_cell_length_b   29.86980000
_cell_length_c   18.34870000
_cell_angle_alpha   90.00000000
_cell_angle_beta   96.18500000
_cell_angle_gamma   90.00000000
_symmetry_Int_Tables_number   1
_chemical_formula_structural   Zn4H49C55N9O19
_chemical_formula_sum   'Zn16 H196 C220 N36 O76'
_cell_volume   8741.10255523
_cell_formula_units_Z   4
loop_
 _symmetry_equiv_pos_site_id
 _symmetry_equiv_pos_as_xyz
  1  'x, y, z'
loop_
 _atom_site_type_symbol
 _atom_site_label
 _atom_site_symmetry_multiplicity
 _atom_site_fract_x
 _atom_site_fract_y
 _atom_site_fract_z
 _atom_site_occupancy
 _atom_site_charge
Zn  Zn1  1  0.91932000  0.29200000  0.29659000  1.0 0.9184651978
Zn  Zn2  1  0.12414000  0.27493000  0.31613000  1.0 0.9902162708
Zn  Zn3  1  0.04229000  0.37017000  0.34546000  1.0 0.9381438502
Zn  Zn4  1  0.03664000  0.33313000  0.18810000  1.0 0.9263564356
Zn  Zn5  1  0.58068000  0.79200000  0.70341000  1.0 0.9184651978
Zn  Zn6  1  0.37586000  0.77493000  0.68387000  1.0 0.9902162708
Zn  Zn7  1  0.45771000  0.87017000  0.65454000  1.0 0.9381438502
Zn  Zn8  1  0.46336000  0.83313000  0.81190000  1.0 0.9263564356
Zn  Zn9  1  0.08068000  0.70800000  0.70341000  1.0 0.9184651978
Zn  Zn10  1  0.87586000  0.72507000  0.68387000  1.0 0.9902162708
Zn  Zn11  1  0.95771000  0.62983000  0.65454000  1.0 0.9381438502
Zn  Zn12  1  0.96336000  0.66687000  0.81190000  1.0 0.9263564356
Zn  Zn13  1  0.41932000  0.20800000  0.29659000  1.0 0.9184651978
Zn  Zn14  1  0.62414000  0.22507000  0.31613000  1.0 0.9902162708
Zn  Zn15  1  0.54229000  0.12983000  0.34546000  1.0 0.9381438502
Zn  Zn16  1  0.53664000  0.16687000  0.18810000  1.0 0.9263564356
H  H1  1  0.29580000  0.65190000  0.11430000  1.0 0.2676811624
H  H2  1  0.21700000  0.61040000  0.16540000  1.0 0.2594969789
H  H3  1  0.40430000  0.76240000  0.99640000  1.0 0.1116462119
H  H4  1  0.35750000  0.71700000  0.08370000  1.0 0.1013179857
H  H5  1  0.26980000  0.62770000  0.92830000  1.0 0.1369006492
H  H6  1  0.32100000  0.67300000  0.83820000  1.0 0.1211104459
H  H7  1  0.14980000  0.57200000  0.24600000  1.0 0.1301624783
H  H8  1  0.09330000  0.50630000  0.28660000  1.0 0.1211104459
H  H9  1  0.13840000  0.44670000  0.09710000  1.0 0.1116462119
H  H10  1  0.20010000  0.51100000  0.05790000  1.0 0.1301624783
H  H11  1  0.99680000  0.05520000  0.58170000  1.0 0.2594969789
H  H12  1  0.94100000  0.99760000  0.62190000  1.0 0.2594969789
H  H13  1  0.09400000  0.15640000  0.42800000  1.0 0.1116462119
H  H14  1  0.07470000  0.09240000  0.49840000  1.0 0.1116462119
H  H15  1  0.84360000  0.13270000  0.52980000  1.0 0.1211104459
H  H16  1  0.85750000  0.19530000  0.45510000  1.0 0.1211104459
H  H17  1  0.90840000  0.92890000  0.66940000  1.0 0.1211104459
H  H18  1  0.80930000  0.87230000  0.67830000  1.0 0.1116462119
H  H19  1  0.62270000  0.95700000  0.60410000  1.0 0.1211104459
H  H20  1  0.72130000  0.01190000  0.58220000  1.0 0.1369006492
H  H21  1  0.30630000  0.36170000  0.77950000  1.0 0.1013179857
H  H22  1  0.33640000  0.34200000  0.88260000  1.0 0.1013179857
H  H23  1  0.20860000  0.26540000  0.54320000  1.0 0.1301624783
H  H24  1  0.29140000  0.27060000  0.65940000  1.0 0.069760193
H  H25  1  0.23760000  0.40200000  0.68250000  1.0 0.069760193
H  H26  1  0.14620000  0.39500000  0.56570000  1.0 0.1301624783
H  H27  1  0.40330000  0.23200000  0.90060000  1.0 0.069760193
H  H28  1  0.39440000  0.18880000  0.00690000  1.0 0.1013179857
H  H29  1  0.30200000  0.29400000  0.11480000  1.0 0.0872145079
H  H30  1  0.31080000  0.33740000  0.00830000  1.0 0.0872145079
H  H31  1  0.30600000  0.30140000  0.29970000  1.0 0.069760193
H  H32  1  0.32570000  0.40320000  0.16120000  1.0 0.1211104459
H  H33  1  0.24240000  0.37350000  0.14750000  1.0 0.1301624783
H  H34  1  0.25390000  0.40780000  0.21490000  1.0 0.1301624783
H  H35  1  0.43450000  0.37020000  0.20190000  1.0 0.1301624783
H  H36  1  0.43960000  0.35160000  0.28400000  1.0 0.1301624783
H  H37  1  0.42730000  0.31750000  0.21630000  1.0 0.1301624783
H  H38  1  0.26790000  0.24350000  0.31340000  1.0 0.3544442065
H  H39  1  0.21640000  0.20750000  0.33490000  1.0 0.3795429476
H  H40  1  0.23040000  0.27080000  0.53610000  1.0 0.1301624783
H  H41  1  0.16950000  0.39960000  0.56450000  1.0 0.1301624783
H  H42  1  0.42090000  0.19660000  0.00640000  1.0 0.1013179857
H  H43  1  0.33480000  0.30160000  0.11400000  1.0 0.0800830922
H  H44  1  0.24390000  0.34860000  0.78410000  1.0 0.1369006492
H  H45  1  0.23910000  0.32550000  0.88120000  1.0 0.1013179857
H  H46  1  0.23610000  0.25430000  0.66330000  1.0 0.069760193
H  H47  1  0.18340000  0.38500000  0.68680000  1.0 0.0872145079
H  H48  1  0.34260000  0.22160000  0.89850000  1.0 0.0800830922
H  H49  1  0.23130000  0.31630000  0.01180000  1.0 0.1013179857
H  H50  1  0.20420000  0.15190000  0.88570000  1.0 0.2676811624
H  H51  1  0.28300000  0.11040000  0.83460000  1.0 0.2594969789
H  H52  1  0.09570000  0.26240000  0.00360000  1.0 0.1116462119
H  H53  1  0.14250000  0.21700000  0.91630000  1.0 0.1013179857
H  H54  1  0.23020000  0.12770000  0.07170000  1.0 0.1369006492
H  H55  1  0.17900000  0.17300000  0.16180000  1.0 0.1211104459
H  H56  1  0.35020000  0.07200000  0.75400000  1.0 0.1301624783
H  H57  1  0.40670000  0.00630000  0.71340000  1.0 0.1211104459
H  H58  1  0.36160000  0.94670000  0.90290000  1.0 0.1116462119
H  H59  1  0.29990000  0.01100000  0.94210000  1.0 0.1301624783
H  H60  1  0.50320000  0.55520000  0.41830000  1.0 0.2594969789
H  H61  1  0.55900000  0.49760000  0.37810000  1.0 0.2676811624
H  H62  1  0.40600000  0.65640000  0.57200000  1.0 0.1116462119
H  H63  1  0.42530000  0.59240000  0.50160000  1.0 0.1116462119
H  H64  1  0.65640000  0.63270000  0.47020000  1.0 0.1211104459
H  H65  1  0.64250000  0.69530000  0.54490000  1.0 0.1211104459
H  H66  1  0.59160000  0.42890000  0.33060000  1.0 0.1211104459
H  H67  1  0.69070000  0.37230000  0.32170000  1.0 0.1116462119
H  H68  1  0.87730000  0.45700000  0.39590000  1.0 0.1211104459
H  H69  1  0.77870000  0.51190000  0.41780000  1.0 0.1369006492
H  H70  1  0.19370000  0.86170000  0.22050000  1.0 0.1013179857
H  H71  1  0.16360000  0.84200000  0.11740000  1.0 0.1013179857
H  H72  1  0.29140000  0.76540000  0.45680000  1.0 0.1301624783
H  H73  1  0.20860000  0.77060000  0.34060000  1.0 0.069760193
H  H74  1  0.26240000  0.90200000  0.31750000  1.0 0.069760193
H  H75  1  0.35380000  0.89500000  0.43430000  1.0 0.1301624783
H  H76  1  0.09670000  0.73200000  0.09940000  1.0 0.069760193
H  H77  1  0.10560000  0.68880000  0.99310000  1.0 0.1013179857
H  H78  1  0.19800000  0.79400000  0.88520000  1.0 0.0872145079
H  H79  1  0.18920000  0.83740000  0.99170000  1.0 0.0872145079
H  H80  1  0.19400000  0.80140000  0.70030000  1.0 0.069760193
H  H81  1  0.17430000  0.90320000  0.83880000  1.0 0.1211104459
H  H82  1  0.25760000  0.87350000  0.85250000  1.0 0.1301624783
H  H83  1  0.24610000  0.90780000  0.78510000  1.0 0.1301624783
H  H84  1  0.06550000  0.87020000  0.79810000  1.0 0.1301624783
H  H85  1  0.06040000  0.85160000  0.71600000  1.0 0.1301624783
H  H86  1  0.07270000  0.81750000  0.78370000  1.0 0.1301624783
H  H87  1  0.23210000  0.74350000  0.68660000  1.0 0.3544442065
H  H88  1  0.28360000  0.70750000  0.66510000  1.0 0.3795429476
H  H89  1  0.26960000  0.77080000  0.46390000  1.0 0.1301624783
H  H90  1  0.33050000  0.89960000  0.43550000  1.0 0.1301624783
H  H91  1  0.07910000  0.69660000  0.99360000  1.0 0.1013179857
H  H92  1  0.16520000  0.80160000  0.88600000  1.0 0.0800830922
H  H93  1  0.25610000  0.84860000  0.21590000  1.0 0.1369006492
H  H94  1  0.26090000  0.82550000  0.11880000  1.0 0.1013179857
H  H95  1  0.26390000  0.75430000  0.33670000  1.0 0.069760193
H  H96  1  0.31660000  0.88500000  0.31320000  1.0 0.0872145079
H  H97  1  0.15740000  0.72160000  0.10150000  1.0 0.0800830922
H  H98  1  0.26870000  0.81630000  0.98820000  1.0 0.1013179857
H  H99  1  0.70420000  0.34810000  0.88570000  1.0 0.2676811624
H  H100  1  0.78300000  0.38960000  0.83460000  1.0 0.2594969789
H  H101  1  0.59570000  0.23760000  0.00360000  1.0 0.1116462119
H  H102  1  0.64250000  0.28300000  0.91630000  1.0 0.1013179857
H  H103  1  0.73020000  0.37230000  0.07170000  1.0 0.1369006492
H  H104  1  0.67900000  0.32700000  0.16180000  1.0 0.1211104459
H  H105  1  0.85020000  0.42800000  0.75400000  1.0 0.1301624783
H  H106  1  0.90670000  0.49370000  0.71340000  1.0 0.1211104459
H  H107  1  0.86160000  0.55330000  0.90290000  1.0 0.1116462119
H  H108  1  0.79990000  0.48900000  0.94210000  1.0 0.1369006492
H  H109  1  0.00320000  0.94480000  0.41830000  1.0 0.2594969789
H  H110  1  0.05900000  0.00240000  0.37810000  1.0 0.2594969789
H  H111  1  0.90600000  0.84360000  0.57200000  1.0 0.1116462119
H  H112  1  0.92530000  0.90760000  0.50160000  1.0 0.1116462119
H  H113  1  0.15640000  0.86730000  0.47020000  1.0 0.1211104459
H  H114  1  0.14250000  0.80470000  0.54490000  1.0 0.1211104459
H  H115  1  0.09160000  0.07110000  0.33060000  1.0 0.1211104459
H  H116  1  0.19070000  0.12770000  0.32170000  1.0 0.1116462119
H  H117  1  0.37730000  0.04300000  0.39590000  1.0 0.1211104459
H  H118  1  0.27870000  0.98810000  0.41780000  1.0 0.1301624783
H  H119  1  0.69370000  0.63830000  0.22050000  1.0 0.1013179857
H  H120  1  0.66360000  0.65800000  0.11740000  1.0 0.1013179857
H  H121  1  0.79140000  0.73460000  0.45680000  1.0 0.1301624783
H  H122  1  0.70860000  0.72940000  0.34060000  1.0 0.069760193
H  H123  1  0.76240000  0.59800000  0.31750000  1.0 0.069760193
H  H124  1  0.85380000  0.60500000  0.43430000  1.0 0.1301624783
H  H125  1  0.59670000  0.76800000  0.09940000  1.0 0.069760193
H  H126  1  0.60560000  0.81120000  0.99310000  1.0 0.1013179857
H  H127  1  0.69800000  0.70600000  0.88520000  1.0 0.0872145079
H  H128  1  0.68920000  0.66260000  0.99170000  1.0 0.0872145079
H  H129  1  0.69400000  0.69860000  0.70030000  1.0 0.069760193
H  H130  1  0.67430000  0.59680000  0.83880000  1.0 0.1211104459
H  H131  1  0.75760000  0.62650000  0.85250000  1.0 0.1301624783
H  H132  1  0.74610000  0.59220000  0.78510000  1.0 0.1301624783
H  H133  1  0.56550000  0.62980000  0.79810000  1.0 0.1301624783
H  H134  1  0.56040000  0.64840000  0.71600000  1.0 0.1301624783
H  H135  1  0.57270000  0.68250000  0.78370000  1.0 0.1301624783
H  H136  1  0.73210000  0.75650000  0.68660000  1.0 0.3544442065
H  H137  1  0.78360000  0.79250000  0.66510000  1.0 0.3795429476
H  H138  1  0.76960000  0.72920000  0.46390000  1.0 0.1301624783
H  H139  1  0.83050000  0.60040000  0.43550000  1.0 0.1301624783
H  H140  1  0.57910000  0.80340000  0.99360000  1.0 0.1013179857
H  H141  1  0.66520000  0.69840000  0.88600000  1.0 0.0800830922
H  H142  1  0.75610000  0.65140000  0.21590000  1.0 0.1369006492
H  H143  1  0.76090000  0.67450000  0.11880000  1.0 0.1013179857
H  H144  1  0.76390000  0.74570000  0.33670000  1.0 0.069760193
H  H145  1  0.81660000  0.61500000  0.31320000  1.0 0.0872145079
H  H146  1  0.65740000  0.77840000  0.10150000  1.0 0.0800830922
H  H147  1  0.76870000  0.68370000  0.98820000  1.0 0.1013179857
H  H148  1  0.79580000  0.84810000  0.11430000  1.0 0.2676811624
H  H149  1  0.71700000  0.88960000  0.16540000  1.0 0.2594969789
H  H150  1  0.90430000  0.73760000  0.99640000  1.0 0.1116462119
H  H151  1  0.85750000  0.78300000  0.08370000  1.0 0.1013179857
H  H152  1  0.76980000  0.87230000  0.92830000  1.0 0.1369006492
H  H153  1  0.82100000  0.82700000  0.83820000  1.0 0.1211104459
H  H154  1  0.64980000  0.92800000  0.24600000  1.0 0.1301624783
H  H155  1  0.59330000  0.99370000  0.28660000  1.0 0.1211104459
H  H156  1  0.63840000  0.05330000  0.09710000  1.0 0.1116462119
H  H157  1  0.70010000  0.98900000  0.05790000  1.0 0.1301624783
H  H158  1  0.49680000  0.44480000  0.58170000  1.0 0.2594969789
H  H159  1  0.44100000  0.50240000  0.62190000  1.0 0.2676811624
H  H160  1  0.59400000  0.34360000  0.42800000  1.0 0.1116462119
H  H161  1  0.57470000  0.40760000  0.49840000  1.0 0.1116462119
H  H162  1  0.34360000  0.36730000  0.52980000  1.0 0.1211104459
H  H163  1  0.35750000  0.30470000  0.45510000  1.0 0.1211104459
H  H164  1  0.40840000  0.57110000  0.66940000  1.0 0.1211104459
H  H165  1  0.30930000  0.62770000  0.67830000  1.0 0.1116462119
H  H166  1  0.12270000  0.54300000  0.60410000  1.0 0.1211104459
H  H167  1  0.22130000  0.48810000  0.58220000  1.0 0.1369006492
H  H168  1  0.80630000  0.13830000  0.77950000  1.0 0.1013179857
H  H169  1  0.83640000  0.15800000  0.88260000  1.0 0.1013179857
H  H170  1  0.70860000  0.23460000  0.54320000  1.0 0.1301624783
H  H171  1  0.79140000  0.22940000  0.65940000  1.0 0.069760193
H  H172  1  0.73760000  0.09800000  0.68250000  1.0 0.069760193
H  H173  1  0.64620000  0.10500000  0.56570000  1.0 0.1301624783
H  H174  1  0.90330000  0.26800000  0.90060000  1.0 0.069760193
H  H175  1  0.89440000  0.31120000  0.00690000  1.0 0.1013179857
H  H176  1  0.80200000  0.20600000  0.11480000  1.0 0.0872145079
H  H177  1  0.81080000  0.16260000  0.00830000  1.0 0.0872145079
H  H178  1  0.80600000  0.19860000  0.29970000  1.0 0.069760193
H  H179  1  0.82570000  0.09680000  0.16120000  1.0 0.1211104459
H  H180  1  0.74240000  0.12650000  0.14750000  1.0 0.1301624783
H  H181  1  0.75390000  0.09220000  0.21490000  1.0 0.1301624783
H  H182  1  0.93450000  0.12980000  0.20190000  1.0 0.1301624783
H  H183  1  0.93960000  0.14840000  0.28400000  1.0 0.1301624783
H  H184  1  0.92730000  0.18250000  0.21630000  1.0 0.1301624783
H  H185  1  0.76790000  0.25650000  0.31340000  1.0 0.3544442065
H  H186  1  0.71640000  0.29250000  0.33490000  1.0 0.3795429476
H  H187  1  0.73040000  0.22920000  0.53610000  1.0 0.1301624783
H  H188  1  0.66950000  0.10040000  0.56450000  1.0 0.1301624783
H  H189  1  0.92090000  0.30340000  0.00640000  1.0 0.1013179857
H  H190  1  0.83480000  0.19840000  0.11400000  1.0 0.0800830922
H  H191  1  0.74390000  0.15140000  0.78410000  1.0 0.1369006492
H  H192  1  0.73910000  0.17450000  0.88120000  1.0 0.1013179857
H  H193  1  0.73610000  0.24570000  0.66330000  1.0 0.069760193
H  H194  1  0.68340000  0.11500000  0.68680000  1.0 0.0872145079
H  H195  1  0.84260000  0.27840000  0.89850000  1.0 0.0800830922
H  H196  1  0.73130000  0.18370000  0.01180000  1.0 0.1013179857
C  C1  1  0.38570000  0.75570000  0.85290000  1.0 0.579494644
C  C2  1  0.36280000  0.72410000  0.91140000  1.0 -0.0287233686
C  C3  1  0.37650000  0.73520000  0.98250000  1.0 -0.1211002475
C  C4  1  0.35130000  0.70820000  0.03370000  1.0 -0.2431439302
C  C5  1  0.31420000  0.66510000  0.01190000  1.0 0.2222928472
C  C6  1  0.29940000  0.65450000  0.94200000  1.0 -0.1731366266
C  C7  1  0.32640000  0.68180000  0.88830000  1.0 -0.0802292444
C  C8  1  0.24880000  0.59980000  0.06470000  1.0 0.600280539
C  C9  1  0.17990000  0.54900000  0.14890000  1.0 0.2545112081
C  C10  1  0.14800000  0.54620000  0.21560000  1.0 -0.2265421554
C  C11  1  0.11340000  0.50730000  0.23980000  1.0 -0.0715177908
C  C12  1  0.10820000  0.46940000  0.19470000  1.0 -0.0802292444
C  C13  1  0.14120000  0.47240000  0.12780000  1.0 -0.0888190732
C  C14  1  0.17740000  0.51050000  0.10360000  1.0 -0.1883924931
C  C15  1  0.07620000  0.42630000  0.21980000  1.0 0.579494644
C  C16  1  0.98770000  0.22090000  0.38620000  1.0 0.579494644
C  C17  1  0.97820000  0.18200000  0.43570000  1.0 -0.0429916132
C  C18  1  0.04250000  0.15160000  0.44790000  1.0 -0.1033414138
C  C19  1  0.03070000  0.11370000  0.49000000  1.0 -0.2096597731
C  C20  1  0.95650000  0.10680000  0.51960000  1.0 0.2222928472
C  C21  1  0.89410000  0.13710000  0.50810000  1.0 -0.1883924931
C  C22  1  0.90260000  0.17480000  0.46470000  1.0 -0.0888190732
C  C23  1  0.87610000  0.04450000  0.56690000  1.0 0.5882069923
C  C24  1  0.82530000  0.97290000  0.61470000  1.0 0.244033926
C  C25  1  0.85140000  0.93330000  0.65080000  1.0 -0.219278156
C  C26  1  0.79200000  0.90070000  0.65880000  1.0 -0.1068927759
C  C27  1  0.70880000  0.90870000  0.63920000  1.0 -0.0287233686
C  C28  1  0.68100000  0.95080000  0.61300000  1.0 -0.0888190732
C  C29  1  0.73890000  0.98320000  0.60030000  1.0 -0.1986485861
C  C30  1  0.64120000  0.87420000  0.65020000  1.0 0.579494644
C  C31  1  0.14500000  0.33333333  0.46220000  1.0 0.579494644
C  C32  1  0.18080000  0.33280000  0.54090000  1.0 -0.1731366266
C  C33  1  0.21480000  0.29290000  0.56940000  1.0 -0.1560730777
C  C34  1  0.25990000  0.29590000  0.64130000  1.0 -0.0715177908
C  C35  1  0.26060000  0.33333333  0.68600000  1.0 0.0800830922
C  C36  1  0.22870000  0.37430000  0.65730000  1.0 -0.0715177908
C  C37  1  0.17970000  0.37030000  0.58370000  1.0 -0.1489929311
C  C38  1  0.31540000  0.29810000  0.80540000  1.0 0.2594969789
C  C39  1  0.34500000  0.28720000  0.94230000  1.0 0.069760193
C  C40  1  0.38060000  0.24390000  0.94220000  1.0 -0.0888190732
C  C41  1  0.38030000  0.21970000  0.00770000  1.0 -0.1211002475
C  C42  1  0.36040000  0.23790000  0.07500000  1.0 -0.1489929311
C  C43  1  0.32480000  0.28190000  0.07330000  1.0 -0.1211002475
C  C44  1  0.32490000  0.30650000  0.00800000  1.0 -0.0608189885
C  C45  1  0.38430000  0.21410000  0.14350000  1.0 0.5444362171
C  C46  1  0.27730000  0.32430000  0.27110000  1.0 0.2761100166
C  C47  1  0.28290000  0.38700000  0.18500000  1.0 -0.3420241095
C  C48  1  0.41350000  0.34740000  0.23370000  1.0 -0.3558708124
C  C49  1  0.22710000  0.28350000  0.64350000  1.0 -0.0608189885
C  C50  1  0.22480000  0.32120000  0.68480000  1.0 0.0436298166
C  C51  1  0.19440000  0.36170000  0.65390000  1.0 -0.0802292444
C  C52  1  0.26960000  0.28540000  0.80530000  1.0 0.2300481953
C  C53  1  0.28870000  0.27570000  0.94200000  1.0 0.061589063
C  C54  1  0.33790000  0.23690000  0.94330000  1.0 -0.0715177908
C  C55  1  0.27450000  0.29480000  0.00940000  1.0 -0.0802292444
C  C56  1  0.11430000  0.25570000  0.14710000  1.0 0.579494644
C  C57  1  0.13720000  0.22410000  0.08860000  1.0 -0.0287233686
C  C58  1  0.12350000  0.23520000  0.01750000  1.0 -0.1211002475
C  C59  1  0.14870000  0.20820000  0.96630000  1.0 -0.2431439302
C  C60  1  0.18580000  0.16510000  0.98810000  1.0 0.2222928472
C  C61  1  0.20060000  0.15450000  0.05800000  1.0 -0.1731366266
C  C62  1  0.17360000  0.18180000  0.11170000  1.0 -0.0802292444
C  C63  1  0.25120000  0.09980000  0.93530000  1.0 0.600280539
C  C64  1  0.32010000  0.04900000  0.85110000  1.0 0.2594969789
C  C65  1  0.35200000  0.04620000  0.78440000  1.0 -0.2265421554
C  C66  1  0.38660000  0.00730000  0.76020000  1.0 -0.0715177908
C  C67  1  0.39180000  0.96940000  0.80530000  1.0 -0.0802292444
C  C68  1  0.35880000  0.97240000  0.87220000  1.0 -0.0888190732
C  C69  1  0.32260000  0.01050000  0.89640000  1.0 -0.1883924931
C  C70  1  0.42380000  0.92630000  0.78020000  1.0 0.579494644
C  C71  1  0.51230000  0.72090000  0.61380000  1.0 0.579494644
C  C72  1  0.52180000  0.68200000  0.56430000  1.0 -0.0429916132
C  C73  1  0.45750000  0.65160000  0.55210000  1.0 -0.1033414138
C  C74  1  0.46930000  0.61370000  0.51000000  1.0 -0.2096597731
C  C75  1  0.54350000  0.60680000  0.48040000  1.0 0.2300481953
C  C76  1  0.60590000  0.63710000  0.49190000  1.0 -0.1883924931
C  C77  1  0.59740000  0.67480000  0.53530000  1.0 -0.0888190732
C  C78  1  0.62390000  0.54450000  0.43310000  1.0 0.5882069923
C  C79  1  0.67470000  0.47290000  0.38530000  1.0 0.244033926
C  C80  1  0.64860000  0.43330000  0.34920000  1.0 -0.219278156
C  C81  1  0.70800000  0.40070000  0.34120000  1.0 -0.1068927759
C  C82  1  0.79120000  0.40870000  0.36080000  1.0 -0.0287233686
C  C83  1  0.81900000  0.45080000  0.38700000  1.0 -0.0888190732
C  C84  1  0.76110000  0.48320000  0.39970000  1.0 -0.1986485861
C  C85  1  0.85880000  0.37420000  0.34980000  1.0 0.579494644
C  C86  1  0.35500000  0.83333000  0.53780000  1.0 0.579494644
C  C87  1  0.31920000  0.83280000  0.45910000  1.0 -0.1731366266
C  C88  1  0.28520000  0.79290000  0.43060000  1.0 -0.1560730777
C  C89  1  0.24010000  0.79590000  0.35870000  1.0 -0.0715177908
C  C90  1  0.23940000  0.83333000  0.31400000  1.0 0.0800830922
C  C91  1  0.27130000  0.87430000  0.34270000  1.0 -0.0715177908
C  C92  1  0.32030000  0.87030000  0.41630000  1.0 -0.1489929311
C  C93  1  0.18460000  0.79810000  0.19460000  1.0 0.2594969789
C  C94  1  0.15500000  0.78720000  0.05770000  1.0 0.069760193
C  C95  1  0.11940000  0.74390000  0.05780000  1.0 -0.0888190732
C  C96  1  0.11970000  0.71970000  0.99230000  1.0 -0.1294937633
C  C97  1  0.13960000  0.73790000  0.92500000  1.0 -0.1489929311
C  C98  1  0.17520000  0.78190000  0.92670000  1.0 -0.1211002475
C  C99  1  0.17510000  0.80650000  0.99200000  1.0 -0.0608189885
C  C100  1  0.11570000  0.71410000  0.85650000  1.0 0.5444362171
C  C101  1  0.22270000  0.82430000  0.72890000  1.0 0.2761100166
C  C102  1  0.21710000  0.88700000  0.81500000  1.0 -0.3420241095
C  C103  1  0.08650000  0.84740000  0.76630000  1.0 -0.3558708124
C  C104  1  0.27290000  0.78350000  0.35650000  1.0 -0.0608189885
C  C105  1  0.27520000  0.82120000  0.31520000  1.0 0.0436298166
C  C106  1  0.30560000  0.86170000  0.34610000  1.0 -0.0802292444
C  C107  1  0.23040000  0.78540000  0.19470000  1.0 0.2300481953
C  C108  1  0.21130000  0.77570000  0.05800000  1.0 0.061589063
C  C109  1  0.16210000  0.73690000  0.05670000  1.0 -0.0715177908
C  C110  1  0.22550000  0.79480000  0.99060000  1.0 -0.0802292444
C  C111  1  0.61430000  0.24430000  0.14710000  1.0 0.579494644
C  C112  1  0.63720000  0.27590000  0.08860000  1.0 -0.0287233686
C  C113  1  0.62350000  0.26480000  0.01750000  1.0 -0.1211002475
C  C114  1  0.64870000  0.29180000  0.96630000  1.0 -0.2431439302
C  C115  1  0.68580000  0.33490000  0.98810000  1.0 0.2222928472
C  C116  1  0.70060000  0.34550000  0.05800000  1.0 -0.1731366266
C  C117  1  0.67360000  0.31820000  0.11170000  1.0 -0.0802292444
C  C118  1  0.75120000  0.40020000  0.93530000  1.0 0.600280539
C  C119  1  0.82010000  0.45100000  0.85110000  1.0 0.2594969789
C  C120  1  0.85200000  0.45380000  0.78440000  1.0 -0.2265421554
C  C121  1  0.88660000  0.49270000  0.76020000  1.0 -0.0715177908
C  C122  1  0.89180000  0.53060000  0.80530000  1.0 -0.0802292444
C  C123  1  0.85880000  0.52760000  0.87220000  1.0 -0.0888190732
C  C124  1  0.82260000  0.48950000  0.89640000  1.0 -0.1883924931
C  C125  1  0.92380000  0.57370000  0.78020000  1.0 0.579494644
C  C126  1  0.01230000  0.77910000  0.61380000  1.0 0.579494644
C  C127  1  0.02180000  0.81800000  0.56430000  1.0 -0.0429916132
C  C128  1  0.95750000  0.84840000  0.55210000  1.0 -0.1033414138
C  C129  1  0.96930000  0.88630000  0.51000000  1.0 -0.2096597731
C  C130  1  0.04350000  0.89320000  0.48040000  1.0 0.2300481953
C  C131  1  0.10590000  0.86290000  0.49190000  1.0 -0.1883924931
C  C132  1  0.09740000  0.82520000  0.53530000  1.0 -0.0888190732
C  C133  1  0.12390000  0.95550000  0.43310000  1.0 0.5882069923
C  C134  1  0.17470000  0.02710000  0.38530000  1.0 0.244033926
C  C135  1  0.14860000  0.06670000  0.34920000  1.0 -0.219278156
C  C136  1  0.20800000  0.09930000  0.34120000  1.0 -0.1068927759
C  C137  1  0.29120000  0.09130000  0.36080000  1.0 -0.0287233686
C  C138  1  0.31900000  0.04920000  0.38700000  1.0 -0.0888190732
C  C139  1  0.26110000  0.01680000  0.39970000  1.0 -0.1986485861
C  C140  1  0.35880000  0.12580000  0.34980000  1.0 0.579494644
C  C141  1  0.85500000  0.66666667  0.53780000  1.0 0.579494644
C  C142  1  0.81920000  0.66720000  0.45910000  1.0 -0.1731366266
C  C143  1  0.78520000  0.70710000  0.43060000  1.0 -0.1560730777
C  C144  1  0.74010000  0.70410000  0.35870000  1.0 -0.0715177908
C  C145  1  0.73940000  0.66666667  0.31400000  1.0 0.0800830922
C  C146  1  0.77130000  0.62570000  0.34270000  1.0 -0.0715177908
C  C147  1  0.82030000  0.62970000  0.41630000  1.0 -0.1489929311
C  C148  1  0.68460000  0.70190000  0.19460000  1.0 0.2594969789
C  C149  1  0.65500000  0.71280000  0.05770000  1.0 0.069760193
C  C150  1  0.61940000  0.75610000  0.05780000  1.0 -0.0888190732
C  C151  1  0.61970000  0.78030000  0.99230000  1.0 -0.1211002475
C  C152  1  0.63960000  0.76210000  0.92500000  1.0 -0.1489929311
C  C153  1  0.67520000  0.71810000  0.92670000  1.0 -0.1211002475
C  C154  1  0.67510000  0.69350000  0.99200000  1.0 -0.0608189885
C  C155  1  0.61570000  0.78590000  0.85650000  1.0 0.5444362171
C  C156  1  0.72270000  0.67570000  0.72890000  1.0 0.2761100166
C  C157  1  0.71710000  0.61300000  0.81500000  1.0 -0.3420241095
C  C158  1  0.58650000  0.65260000  0.76630000  1.0 -0.3558708124
C  C159  1  0.77290000  0.71650000  0.35650000  1.0 -0.0608189885
C  C160  1  0.77520000  0.67880000  0.31520000  1.0 0.0436298166
C  C161  1  0.80560000  0.63830000  0.34610000  1.0 -0.0802292444
C  C162  1  0.73040000  0.71460000  0.19470000  1.0 0.2300481953
C  C163  1  0.71130000  0.72430000  0.05800000  1.0 0.061589063
C  C164  1  0.66210000  0.76310000  0.05670000  1.0 -0.0715177908
C  C165  1  0.72550000  0.70520000  0.99060000  1.0 -0.0802292444
C  C166  1  0.88570000  0.74430000  0.85290000  1.0 0.579494644
C  C167  1  0.86280000  0.77590000  0.91140000  1.0 -0.0287233686
C  C168  1  0.87650000  0.76480000  0.98250000  1.0 -0.1211002475
C  C169  1  0.85130000  0.79180000  0.03370000  1.0 -0.2431439302
C  C170  1  0.81420000  0.83490000  0.01190000  1.0 0.2222928472
C  C171  1  0.79940000  0.84550000  0.94200000  1.0 -0.1731366266
C  C172  1  0.82640000  0.81820000  0.88830000  1.0 -0.0802292444
C  C173  1  0.74880000  0.90020000  0.06470000  1.0 0.600280539
C  C174  1  0.67990000  0.95100000  0.14890000  1.0 0.2594969789
C  C175  1  0.64800000  0.95380000  0.21560000  1.0 -0.2265421554
C  C176  1  0.61340000  0.99270000  0.23980000  1.0 -0.0715177908
C  C177  1  0.60820000  0.03060000  0.19470000  1.0 -0.0802292444
C  C178  1  0.64120000  0.02760000  0.12780000  1.0 -0.0888190732
C  C179  1  0.67740000  0.98950000  0.10360000  1.0 -0.1883924931
C  C180  1  0.57620000  0.07370000  0.21980000  1.0 0.579494644
C  C181  1  0.48770000  0.27910000  0.38620000  1.0 0.579494644
C  C182  1  0.47820000  0.31800000  0.43570000  1.0 -0.0429916132
C  C183  1  0.54250000  0.34840000  0.44790000  1.0 -0.1033414138
C  C184  1  0.53070000  0.38630000  0.49000000  1.0 -0.2096597731
C  C185  1  0.45650000  0.39320000  0.51960000  1.0 0.2300481953
C  C186  1  0.39410000  0.36290000  0.50810000  1.0 -0.1883924931
C  C187  1  0.40260000  0.32520000  0.46470000  1.0 -0.0888190732
C  C188  1  0.37610000  0.45550000  0.56690000  1.0 0.5882069923
C  C189  1  0.32530000  0.52710000  0.61470000  1.0 0.244033926
C  C190  1  0.35140000  0.56670000  0.65080000  1.0 -0.219278156
C  C191  1  0.29200000  0.59930000  0.65880000  1.0 -0.1068927759
C  C192  1  0.20880000  0.59130000  0.63920000  1.0 -0.0287233686
C  C193  1  0.18100000  0.54920000  0.61300000  1.0 -0.0888190732
C  C194  1  0.23890000  0.51680000  0.60030000  1.0 -0.1986485861
C  C195  1  0.14120000  0.62580000  0.65020000  1.0 0.579494644
C  C196  1  0.64500000  0.16667000  0.46220000  1.0 0.579494644
C  C197  1  0.68080000  0.16720000  0.54090000  1.0 -0.1731366266
C  C198  1  0.71480000  0.20710000  0.56940000  1.0 -0.1560730777
C  C199  1  0.75990000  0.20410000  0.64130000  1.0 -0.0715177908
C  C200  1  0.76060000  0.16667000  0.68600000  1.0 0.0800830922
C  C201  1  0.72870000  0.12570000  0.65730000  1.0 -0.0715177908
C  C202  1  0.67970000  0.12970000  0.58370000  1.0 -0.1489929311
C  C203  1  0.81540000  0.20190000  0.80540000  1.0 0.2594969789
C  C204  1  0.84500000  0.21280000  0.94230000  1.0 0.069760193
C  C205  1  0.88060000  0.25610000  0.94220000  1.0 -0.0888190732
C  C206  1  0.88030000  0.28030000  0.00770000  1.0 -0.1211002475
C  C207  1  0.86040000  0.26210000  0.07500000  1.0 -0.1489929311
C  C208  1  0.82480000  0.21810000  0.07330000  1.0 -0.1211002475
C  C209  1  0.82490000  0.19350000  0.00800000  1.0 -0.0608189885
C  C210  1  0.88430000  0.28590000  0.14350000  1.0 0.5444362171
C  C211  1  0.77730000  0.17570000  0.27110000  1.0 0.2761100166
C  C212  1  0.78290000  0.11300000  0.18500000  1.0 -0.3420241095
C  C213  1  0.91350000  0.15260000  0.23370000  1.0 -0.3558708124
C  C214  1  0.72710000  0.21650000  0.64350000  1.0 -0.0608189885
C  C215  1  0.72480000  0.17880000  0.68480000  1.0 0.0436298166
C  C216  1  0.69440000  0.13830000  0.65390000  1.0 -0.0802292444
C  C217  1  0.76960000  0.21460000  0.80530000  1.0 0.2300481953
C  C218  1  0.78870000  0.22430000  0.94200000  1.0 0.061589063
C  C219  1  0.83790000  0.26310000  0.94330000  1.0 -0.0715177908
C  C220  1  0.77450000  0.20520000  0.00940000  1.0 -0.0802292444
N  N1  1  0.28700000  0.64010000  0.07020000  1.0 -0.4224438511
N  N2  1  0.21510000  0.58920000  0.13190000  1.0 -0.4224438511
N  N3  1  0.95020000  0.06680000  0.55970000  1.0 -0.4503704997
N  N4  1  0.88940000  0.00420000  0.60390000  1.0 -0.4503704997
N  N5  1  0.29580000  0.33500000  0.76020000  1.0 -0.1396429025
N  N6  1  0.33260000  0.31280000  0.87690000  1.0 -0.1489929311
N  N7  1  0.32310000  0.35160000  0.23200000  1.0 0.0101851964
N  N8  1  0.24590000  0.32250000  0.76210000  1.0 -0.1396429025
N  N9  1  0.26250000  0.29920000  0.87620000  1.0 -0.1294937633
N  N10  1  0.21300000  0.14010000  0.92980000  1.0 -0.4224438511
N  N11  1  0.28490000  0.08920000  0.86810000  1.0 -0.4224438511
N  N12  1  0.54980000  0.56680000  0.44030000  1.0 -0.4503704997
N  N13  1  0.61060000  0.50420000  0.39610000  1.0 -0.4503704997
N  N14  1  0.20420000  0.83500000  0.23980000  1.0 -0.1396429025
N  N15  1  0.16740000  0.81280000  0.12310000  1.0 -0.1396429025
N  N16  1  0.17690000  0.85160000  0.76800000  1.0 0.0101851964
N  N17  1  0.25410000  0.82250000  0.23790000  1.0 -0.1396429025
N  N18  1  0.23750000  0.79920000  0.12380000  1.0 -0.1294937633
N  N19  1  0.71300000  0.35990000  0.92980000  1.0 -0.4224438511
N  N20  1  0.78490000  0.41080000  0.86810000  1.0 -0.4224438511
N  N21  1  0.04980000  0.93320000  0.44030000  1.0 -0.4503704997
N  N22  1  0.11060000  0.99580000  0.39610000  1.0 -0.4503704997
N  N23  1  0.70420000  0.66500000  0.23980000  1.0 -0.1396429025
N  N24  1  0.66740000  0.68720000  0.12310000  1.0 -0.1396429025
N  N25  1  0.67690000  0.64840000  0.76800000  1.0 0.0101851964
N  N26  1  0.75410000  0.67750000  0.23790000  1.0 -0.1396429025
N  N27  1  0.73750000  0.70080000  0.12380000  1.0 -0.1294937633
N  N28  1  0.78700000  0.85990000  0.07020000  1.0 -0.4224438511
N  N29  1  0.71510000  0.91080000  0.13190000  1.0 -0.4224438511
N  N30  1  0.45020000  0.43320000  0.55970000  1.0 -0.4503704997
N  N31  1  0.38940000  0.49580000  0.60390000  1.0 -0.4503704997
N  N32  1  0.79580000  0.16500000  0.76020000  1.0 -0.1396429025
N  N33  1  0.83260000  0.18720000  0.87690000  1.0 -0.1489929311
N  N34  1  0.82310000  0.14840000  0.23200000  1.0 0.0101851964
N  N35  1  0.74590000  0.17750000  0.76210000  1.0 -0.1396429025
N  N36  1  0.76250000  0.20080000  0.87620000  1.0 -0.1294937633
O  O1  1  0.23820000  0.57650000  0.01200000  1.0 -0.4503704997
O  O2  1  0.40800000  0.79390000  0.87500000  1.0 -0.5323635407
O  O3  1  0.38120000  0.74260000  0.78740000  1.0 -0.561524609
O  O4  1  0.06200000  0.42294000  0.28540000  1.0 -0.5436849587
O  O5  1  0.06340000  0.39486000  0.17210000  1.0 -0.561524609
O  O6  1  0.02890000  0.31689000  0.28800000  1.0 -1.0117763571
O  O7  1  0.80590000  0.06070000  0.54730000  1.0 -0.4838648133
O  O8  1  0.05370000  0.22395000  0.35640000  1.0 -0.5492417134
O  O9  1  0.92640000  0.24793000  0.37630000  1.0 -0.561524609
O  O10  1  0.66380000  0.83877000  0.68410000  1.0 -0.5684797458
O  O11  1  0.56960000  0.88440000  0.62550000  1.0 -0.5077974938
O  O12  1  0.31690000  0.26170000  0.78800000  1.0 -0.1033414138
O  O13  1  0.15120000  0.29890000  0.42340000  1.0 -0.5492417134
O  O14  1  0.11120000  0.36992000  0.43790000  1.0 -0.5323635407
O  O15  1  0.41770000  0.17660000  0.14250000  1.0 -0.5230988256
O  O16  1  0.37250000  0.23500000  0.20310000  1.0 -0.5684797458
O  O17  1  0.19990000  0.32730000  0.27190000  1.0 -0.4863067262
O  O18  1  0.22860000  0.23620000  0.34160000  1.0 -0.6668865971
O  O19  1  0.28290000  0.24980000  0.78820000  1.0 -0.1068927759
O  O20  1  0.26180000  0.07650000  0.98800000  1.0 -0.4503704997
O  O21  1  0.09200000  0.29390000  0.12500000  1.0 -0.5323635407
O  O22  1  0.11880000  0.24260000  0.21260000  1.0 -0.561524609
O  O23  1  0.43800000  0.92294000  0.71460000  1.0 -0.5436849587
O  O24  1  0.43660000  0.89486000  0.82790000  1.0 -0.561524609
O  O25  1  0.47110000  0.81689000  0.71200000  1.0 -1.0117763571
O  O26  1  0.69410000  0.56070000  0.45270000  1.0 -0.4838648133
O  O27  1  0.44630000  0.72395000  0.64360000  1.0 -0.5492417134
O  O28  1  0.57360000  0.74793000  0.62370000  1.0 -0.561524609
O  O29  1  0.83620000  0.33877000  0.31590000  1.0 -0.5684797458
O  O30  1  0.93040000  0.38440000  0.37450000  1.0 -0.5077974938
O  O31  1  0.18310000  0.76170000  0.21200000  1.0 -0.1033414138
O  O32  1  0.34880000  0.79890000  0.57660000  1.0 -0.5492417134
O  O33  1  0.38880000  0.86992000  0.56210000  1.0 -0.5323635407
O  O34  1  0.08230000  0.67660000  0.85750000  1.0 -0.5230988256
O  O35  1  0.12750000  0.73500000  0.79690000  1.0 -0.5684797458
O  O36  1  0.30010000  0.82730000  0.72810000  1.0 -0.4863067262
O  O37  1  0.27140000  0.73620000  0.65840000  1.0 -0.6668865971
O  O38  1  0.21710000  0.74980000  0.21180000  1.0 -0.1068927759
O  O39  1  0.76180000  0.42350000  0.98800000  1.0 -0.4503704997
O  O40  1  0.59200000  0.20610000  0.12500000  1.0 -0.5323635407
O  O41  1  0.61880000  0.25740000  0.21260000  1.0 -0.561524609
O  O42  1  0.93800000  0.57706000  0.71460000  1.0 -0.5436849587
O  O43  1  0.93660000  0.60514000  0.82790000  1.0 -0.561524609
O  O44  1  0.97110000  0.68311000  0.71200000  1.0 -1.0117763571
O  O45  1  0.19410000  0.93930000  0.45270000  1.0 -0.4838648133
O  O46  1  0.94630000  0.77605000  0.64360000  1.0 -0.5492417134
O  O47  1  0.07360000  0.75207000  0.62370000  1.0 -0.561524609
O  O48  1  0.33620000  0.16123000  0.31590000  1.0 -0.5684797458
O  O49  1  0.43040000  0.11560000  0.37450000  1.0 -0.5077974938
O  O50  1  0.68310000  0.73830000  0.21200000  1.0 -0.1033414138
O  O51  1  0.84880000  0.70110000  0.57660000  1.0 -0.5492417134
O  O52  1  0.88880000  0.63008000  0.56210000  1.0 -0.5323635407
O  O53  1  0.58230000  0.82340000  0.85750000  1.0 -0.5230988256
O  O54  1  0.62750000  0.76500000  0.79690000  1.0 -0.5684797458
O  O55  1  0.80010000  0.67270000  0.72810000  1.0 -0.4863067262
O  O56  1  0.77140000  0.76380000  0.65840000  1.0 -0.6668865971
O  O57  1  0.71710000  0.75020000  0.21180000  1.0 -0.1068927759
O  O58  1  0.73820000  0.92350000  0.01200000  1.0 -0.4503704997
O  O59  1  0.90800000  0.70610000  0.87500000  1.0 -0.5323635407
O  O60  1  0.88120000  0.75740000  0.78740000  1.0 -0.561524609
O  O61  1  0.56200000  0.07706000  0.28540000  1.0 -0.5436849587
O  O62  1  0.56340000  0.10514000  0.17210000  1.0 -0.561524609
O  O63  1  0.52890000  0.18311000  0.28800000  1.0 -1.0117763571
O  O64  1  0.30590000  0.43930000  0.54730000  1.0 -0.4838648133
O  O65  1  0.55370000  0.27605000  0.35640000  1.0 -0.5492417134
O  O66  1  0.42640000  0.25207000  0.37630000  1.0 -0.561524609
O  O67  1  0.16380000  0.66123000  0.68410000  1.0 -0.5684797458
O  O68  1  0.06960000  0.61560000  0.62550000  1.0 -0.5077974938
O  O69  1  0.81690000  0.23830000  0.78800000  1.0 -0.1033414138
O  O70  1  0.65120000  0.20110000  0.42340000  1.0 -0.5492417134
O  O71  1  0.61120000  0.13008000  0.43790000  1.0 -0.5323635407
O  O72  1  0.91770000  0.32340000  0.14250000  1.0 -0.5230988256
O  O73  1  0.87250000  0.26500000  0.20310000  1.0 -0.5684797458
O  O74  1  0.69990000  0.17270000  0.27190000  1.0 -0.4863067262
O  O75  1  0.72860000  0.26380000  0.34160000  1.0 -0.6668865971
O  O76  1  0.78290000  0.25020000  0.78820000  1.0 -0.1068927759
