# DDEC6 charges by PACMAN v1.1 (https://github.com/mtap-research/PACMAN-charge/)
data_FERCAJ_ion_pacman
_symmetry_space_group_name_H-M   'P 1'
_cell_length_a   16.00840000
_cell_length_b   30.19630000
_cell_length_c   20.46220000
_cell_angle_alpha   90.00000000
_cell_angle_beta   98.67100000
_cell_angle_gamma   90.00000000
_symmetry_Int_Tables_number   1
_chemical_formula_structural   Zn4H54C55N9O19
_chemical_formula_sum   'Zn16 H216 C220 N36 O76'
_cell_volume   9778.25934179
_cell_formula_units_Z   4
loop_
 _symmetry_equiv_pos_site_id
 _symmetry_equiv_pos_as_xyz
  1  'x, y, z'
loop_
 _atom_site_type_symbol
 _atom_site_label
 _atom_site_symmetry_multiplicity
 _atom_site_fract_x
 _atom_site_fract_y
 _atom_site_fract_z
 _atom_site_occupancy
 _atom_site_charge
Zn  Zn1  1  0.79769000  0.71771000  0.55130000  1.0 0.9400490699
Zn  Zn2  1  0.64420000  0.77253000  0.59468000  1.0 0.9312701626
Zn  Zn3  1  0.61410000  0.68097000  0.52275000  1.0 0.9400490699
Zn  Zn4  1  0.65933000  0.76470000  0.44077000  1.0 0.9675801796
Zn  Zn5  1  0.20231000  0.21771000  0.94870000  1.0 0.9400490699
Zn  Zn6  1  0.35580000  0.27253000  0.90532000  1.0 0.9312701626
Zn  Zn7  1  0.38590000  0.18097000  0.97725000  1.0 0.9400490699
Zn  Zn8  1  0.34067000  0.26470000  0.05923000  1.0 0.9675801796
Zn  Zn9  1  0.20231000  0.28229000  0.44870000  1.0 0.9400490699
Zn  Zn10  1  0.35580000  0.22747000  0.40532000  1.0 0.9312701626
Zn  Zn11  1  0.38590000  0.31903000  0.47725000  1.0 0.9400490699
Zn  Zn12  1  0.34067000  0.23530000  0.55923000  1.0 0.9675801796
Zn  Zn13  1  0.79769000  0.78229000  0.05130000  1.0 0.9400490699
Zn  Zn14  1  0.64420000  0.72747000  0.09468000  1.0 0.9312701626
Zn  Zn15  1  0.61410000  0.81903000  0.02275000  1.0 0.9400490699
Zn  Zn16  1  0.65933000  0.73530000  0.94077000  1.0 0.9675801796
H  H1  1  0.89180000  0.37531000  0.66536000  1.0 0.2710917595
H  H2  1  0.83590000  0.42778000  0.61308000  1.0 0.2710917595
H  H3  1  0.20394000  0.35279000  0.76899000  1.0 0.1099717968
H  H4  1  0.10612000  0.39928000  0.70604000  1.0 0.1296524505
H  H5  1  0.91864000  0.31554000  0.73623000  1.0 0.1296524505
H  H6  1  0.01719000  0.26952000  0.79815000  1.0 0.121185994
H  H7  1  0.96151000  0.52270000  0.64456000  1.0 0.1296524505
H  H8  1  0.91280000  0.59430000  0.62087000  1.0 0.121185994
H  H9  1  0.67863000  0.54798000  0.55907000  1.0 0.1296524505
H  H10  1  0.72646000  0.47574000  0.58115000  1.0 0.1296524505
H  H11  1  0.61482000  0.50162000  0.08430000  1.0 0.2710917595
H  H12  1  0.64133000  0.55781000  0.14290000  1.0 0.2793195226
H  H13  1  0.38548000  0.38155000  0.09372000  1.0 0.121185994
H  H14  1  0.45695000  0.44100000  0.14777000  1.0 0.139029763
H  H15  1  0.58435000  0.45745000  0.99121000  1.0 0.1296524505
H  H16  1  0.51619000  0.39617000  0.94029000  1.0 0.121185994
H  H17  1  0.56796000  0.53691000  0.28993000  1.0 0.139029763
H  H18  1  0.57001000  0.58765000  0.37677000  1.0 0.121185994
H  H19  1  0.65129000  0.68383000  0.26388000  1.0 0.121185994
H  H20  1  0.64106000  0.63504000  0.17549000  1.0 0.1296524505
H  H21  1  0.08943000  0.66279000  0.76793000  1.0 0.2793195226
H  H22  1  0.18991000  0.65641000  0.72353000  1.0 0.2793195226
H  H23  1  0.00844000  0.77459000  0.93912000  1.0 0.121185994
H  H24  1  0.11062000  0.75462000  0.87475000  1.0 0.1296524505
H  H25  1  0.95894000  0.65574000  0.79359000  1.0 0.139029763
H  H26  1  0.85575000  0.67679000  0.85660000  1.0 0.1099717968
H  H27  1  0.34186000  0.73799000  0.77410000  1.0 0.1296524505
H  H28  1  0.46432000  0.74725000  0.72610000  1.0 0.1296524505
H  H29  1  0.38504000  0.65485000  0.58963000  1.0 0.121185994
H  H30  1  0.26361000  0.64437000  0.63730000  1.0 0.1296524505
H  H31  1  0.71280000  0.77193000  0.31355000  1.0 0.1000400221
H  H32  1  0.65291000  0.88939000  0.26831000  1.0 0.139029763
H  H33  1  0.60046000  0.86531000  0.20548000  1.0 0.139029763
H  H34  1  0.57586000  0.85739000  0.27753000  1.0 0.139029763
H  H35  1  0.70911000  0.81180000  0.17237000  1.0 0.139029763
H  H36  1  0.77056000  0.84732000  0.21296000  1.0 0.139029763
H  H37  1  0.77968000  0.79589000  0.23155000  1.0 0.1296524505
H  H38  1  0.48883000  0.80208000  0.37975000  1.0 0.1000400221
H  H39  1  0.36658000  0.84172000  0.36264000  1.0 0.1296524505
H  H40  1  0.29009000  0.82147000  0.39513000  1.0 0.139029763
H  H41  1  0.34778000  0.85974000  0.43252000  1.0 0.139029763
H  H42  1  0.43131000  0.76701000  0.52214000  1.0 0.1496579005
H  H43  1  0.37989000  0.81182000  0.52882000  1.0 0.139029763
H  H44  1  0.33234000  0.76921000  0.49473000  1.0 0.139029763
H  H45  1  0.10820000  0.87531000  0.83464000  1.0 0.2710917595
H  H46  1  0.16410000  0.92778000  0.88692000  1.0 0.2710917595
H  H47  1  0.79606000  0.85279000  0.73101000  1.0 0.1099717968
H  H48  1  0.89388000  0.89928000  0.79396000  1.0 0.1296524505
H  H49  1  0.08136000  0.81554000  0.76377000  1.0 0.1296524505
H  H50  1  0.98281000  0.76952000  0.70185000  1.0 0.121185994
H  H51  1  0.03849000  0.02270000  0.85544000  1.0 0.1296524505
H  H52  1  0.08720000  0.09430000  0.87913000  1.0 0.121185994
H  H53  1  0.32137000  0.04798000  0.94093000  1.0 0.1296524505
H  H54  1  0.27354000  0.97574000  0.91885000  1.0 0.1296524505
H  H55  1  0.38518000  0.00162000  0.41570000  1.0 0.2710917595
H  H56  1  0.35867000  0.05781000  0.35710000  1.0 0.2793195226
H  H57  1  0.61452000  0.88155000  0.40628000  1.0 0.121185994
H  H58  1  0.54305000  0.94100000  0.35223000  1.0 0.139029763
H  H59  1  0.41565000  0.95745000  0.50879000  1.0 0.1296524505
H  H60  1  0.48381000  0.89617000  0.55971000  1.0 0.121185994
H  H61  1  0.43204000  0.03691000  0.21007000  1.0 0.139029763
H  H62  1  0.42999000  0.08765000  0.12323000  1.0 0.121185994
H  H63  1  0.34871000  0.18383000  0.23612000  1.0 0.121185994
H  H64  1  0.35894000  0.13504000  0.32451000  1.0 0.1296524505
H  H65  1  0.91057000  0.16279000  0.73207000  1.0 0.2793195226
H  H66  1  0.81009000  0.15641000  0.77647000  1.0 0.2793195226
H  H67  1  0.99156000  0.27459000  0.56088000  1.0 0.121185994
H  H68  1  0.88938000  0.25462000  0.62525000  1.0 0.1296524505
H  H69  1  0.04106000  0.15574000  0.70641000  1.0 0.139029763
H  H70  1  0.14425000  0.17679000  0.64340000  1.0 0.1099717968
H  H71  1  0.65814000  0.23799000  0.72590000  1.0 0.1296524505
H  H72  1  0.53568000  0.24725000  0.77390000  1.0 0.1296524505
H  H73  1  0.61496000  0.15485000  0.91037000  1.0 0.121185994
H  H74  1  0.73639000  0.14437000  0.86270000  1.0 0.1296524505
H  H75  1  0.28720000  0.27193000  0.18645000  1.0 0.1000400221
H  H76  1  0.34709000  0.38939000  0.23169000  1.0 0.139029763
H  H77  1  0.39954000  0.36531000  0.29452000  1.0 0.139029763
H  H78  1  0.42414000  0.35739000  0.22247000  1.0 0.139029763
H  H79  1  0.29089000  0.31180000  0.32763000  1.0 0.139029763
H  H80  1  0.22944000  0.34732000  0.28704000  1.0 0.139029763
H  H81  1  0.22032000  0.29589000  0.26845000  1.0 0.1296524505
H  H82  1  0.51117000  0.30208000  0.12025000  1.0 0.1000400221
H  H83  1  0.63342000  0.34172000  0.13736000  1.0 0.1296524505
H  H84  1  0.70991000  0.32147000  0.10487000  1.0 0.139029763
H  H85  1  0.65222000  0.35974000  0.06748000  1.0 0.139029763
H  H86  1  0.56869000  0.26701000  0.97786000  1.0 0.1496579005
H  H87  1  0.62011000  0.31182000  0.97118000  1.0 0.139029763
H  H88  1  0.66766000  0.26921000  0.00527000  1.0 0.139029763
H  H89  1  0.10820000  0.62469000  0.33464000  1.0 0.2710917595
H  H90  1  0.16410000  0.57222000  0.38692000  1.0 0.2710917595
H  H91  1  0.79606000  0.64721000  0.23101000  1.0 0.1099717968
H  H92  1  0.89388000  0.60072000  0.29396000  1.0 0.1296524505
H  H93  1  0.08136000  0.68446000  0.26377000  1.0 0.1296524505
H  H94  1  0.98281000  0.73048000  0.20185000  1.0 0.121185994
H  H95  1  0.03849000  0.47730000  0.35544000  1.0 0.1296524505
H  H96  1  0.08720000  0.40570000  0.37913000  1.0 0.121185994
H  H97  1  0.32137000  0.45202000  0.44093000  1.0 0.1296524505
H  H98  1  0.27354000  0.52426000  0.41885000  1.0 0.1296524505
H  H99  1  0.38518000  0.49838000  0.91570000  1.0 0.2710917595
H  H100  1  0.35867000  0.44219000  0.85710000  1.0 0.2793195226
H  H101  1  0.61452000  0.61845000  0.90628000  1.0 0.121185994
H  H102  1  0.54305000  0.55900000  0.85223000  1.0 0.139029763
H  H103  1  0.41565000  0.54255000  0.00879000  1.0 0.1296524505
H  H104  1  0.48381000  0.60383000  0.05971000  1.0 0.121185994
H  H105  1  0.43204000  0.46309000  0.71007000  1.0 0.139029763
H  H106  1  0.42999000  0.41235000  0.62323000  1.0 0.121185994
H  H107  1  0.34871000  0.31617000  0.73612000  1.0 0.121185994
H  H108  1  0.35894000  0.36496000  0.82451000  1.0 0.1296524505
H  H109  1  0.91057000  0.33721000  0.23207000  1.0 0.2793195226
H  H110  1  0.81009000  0.34359000  0.27647000  1.0 0.2793195226
H  H111  1  0.99156000  0.22541000  0.06088000  1.0 0.121185994
H  H112  1  0.88938000  0.24538000  0.12525000  1.0 0.1296524505
H  H113  1  0.04106000  0.34426000  0.20641000  1.0 0.139029763
H  H114  1  0.14425000  0.32321000  0.14340000  1.0 0.1099717968
H  H115  1  0.65814000  0.26201000  0.22590000  1.0 0.1296524505
H  H116  1  0.53568000  0.25275000  0.27390000  1.0 0.1296524505
H  H117  1  0.61496000  0.34515000  0.41037000  1.0 0.121185994
H  H118  1  0.73639000  0.35563000  0.36270000  1.0 0.1296524505
H  H119  1  0.28720000  0.22807000  0.68645000  1.0 0.1000400221
H  H120  1  0.34709000  0.11061000  0.73169000  1.0 0.139029763
H  H121  1  0.39954000  0.13469000  0.79452000  1.0 0.139029763
H  H122  1  0.42414000  0.14261000  0.72247000  1.0 0.139029763
H  H123  1  0.29089000  0.18820000  0.82763000  1.0 0.139029763
H  H124  1  0.22944000  0.15268000  0.78704000  1.0 0.139029763
H  H125  1  0.22032000  0.20411000  0.76845000  1.0 0.1296524505
H  H126  1  0.51117000  0.19792000  0.62025000  1.0 0.1000400221
H  H127  1  0.63342000  0.15828000  0.63736000  1.0 0.1296524505
H  H128  1  0.70991000  0.17853000  0.60487000  1.0 0.139029763
H  H129  1  0.65222000  0.14026000  0.56748000  1.0 0.139029763
H  H130  1  0.56869000  0.23299000  0.47786000  1.0 0.1496579005
H  H131  1  0.62011000  0.18818000  0.47118000  1.0 0.139029763
H  H132  1  0.66766000  0.23079000  0.50527000  1.0 0.139029763
H  H133  1  0.89180000  0.12469000  0.16536000  1.0 0.2710917595
H  H134  1  0.83590000  0.07222000  0.11308000  1.0 0.2710917595
H  H135  1  0.20394000  0.14721000  0.26899000  1.0 0.1099717968
H  H136  1  0.10612000  0.10072000  0.20604000  1.0 0.1296524505
H  H137  1  0.91864000  0.18446000  0.23623000  1.0 0.1296524505
H  H138  1  0.01719000  0.23048000  0.29815000  1.0 0.121185994
H  H139  1  0.96151000  0.97730000  0.14456000  1.0 0.1296524505
H  H140  1  0.91280000  0.90570000  0.12087000  1.0 0.121185994
H  H141  1  0.67863000  0.95202000  0.05907000  1.0 0.1296524505
H  H142  1  0.72646000  0.02426000  0.08115000  1.0 0.1296524505
H  H143  1  0.61482000  0.99838000  0.58430000  1.0 0.2710917595
H  H144  1  0.64133000  0.94219000  0.64290000  1.0 0.2793195226
H  H145  1  0.38548000  0.11845000  0.59372000  1.0 0.121185994
H  H146  1  0.45695000  0.05900000  0.64777000  1.0 0.139029763
H  H147  1  0.58435000  0.04255000  0.49121000  1.0 0.1296524505
H  H148  1  0.51619000  0.10383000  0.44029000  1.0 0.121185994
H  H149  1  0.56796000  0.96309000  0.78993000  1.0 0.139029763
H  H150  1  0.57001000  0.91235000  0.87677000  1.0 0.121185994
H  H151  1  0.65129000  0.81617000  0.76388000  1.0 0.121185994
H  H152  1  0.64106000  0.86496000  0.67549000  1.0 0.1296524505
H  H153  1  0.08943000  0.83721000  0.26793000  1.0 0.2793195226
H  H154  1  0.18991000  0.84359000  0.22353000  1.0 0.2793195226
H  H155  1  0.00844000  0.72541000  0.43912000  1.0 0.121185994
H  H156  1  0.11062000  0.74538000  0.37475000  1.0 0.1296524505
H  H157  1  0.95894000  0.84426000  0.29359000  1.0 0.139029763
H  H158  1  0.85575000  0.82321000  0.35660000  1.0 0.1099717968
H  H159  1  0.34186000  0.76201000  0.27410000  1.0 0.1296524505
H  H160  1  0.46432000  0.75275000  0.22610000  1.0 0.1296524505
H  H161  1  0.38504000  0.84515000  0.08963000  1.0 0.121185994
H  H162  1  0.26361000  0.85563000  0.13730000  1.0 0.1296524505
H  H163  1  0.71280000  0.72807000  0.81355000  1.0 0.1000400221
H  H164  1  0.65291000  0.61061000  0.76831000  1.0 0.139029763
H  H165  1  0.60046000  0.63469000  0.70548000  1.0 0.139029763
H  H166  1  0.57586000  0.64261000  0.77753000  1.0 0.139029763
H  H167  1  0.70911000  0.68820000  0.67237000  1.0 0.139029763
H  H168  1  0.77056000  0.65268000  0.71296000  1.0 0.139029763
H  H169  1  0.77968000  0.70411000  0.73155000  1.0 0.1296524505
H  H170  1  0.48883000  0.69792000  0.87975000  1.0 0.1000400221
H  H171  1  0.36658000  0.65828000  0.86264000  1.0 0.1296524505
H  H172  1  0.29009000  0.67853000  0.89513000  1.0 0.139029763
H  H173  1  0.34778000  0.64026000  0.93252000  1.0 0.139029763
H  H174  1  0.43131000  0.73299000  0.02214000  1.0 0.1496579005
H  H175  1  0.37989000  0.68818000  0.02882000  1.0 0.139029763
H  H176  1  0.33234000  0.73079000  0.99473000  1.0 0.139029763
H  H177  1  0.07066000  0.95259000  0.22800000  1.0 0.090050951
H  H178  1  0.24708000  0.01698000  0.28655000  1.0 0.121185994
H  H179  1  0.18422000  0.01878000  0.21794000  1.0 0.1496579005
H  H180  1  0.14720000  0.01965000  0.28634000  1.0 0.139029763
H  H181  1  0.31412000  0.96381000  0.28270000  1.0 0.1000400221
H  H182  1  0.27689000  0.91480000  0.28583000  1.0 0.1000400221
H  H183  1  0.27986000  0.93787000  0.21582000  1.0 0.121185994
H  H184  1  0.27501000  0.96822000  0.34592000  1.0 0.0802516021
H  H185  1  0.18630000  0.94973000  0.36125000  1.0 0.1099717968
H  H186  1  0.24936000  0.91772000  0.32988000  1.0 0.1000400221
H  H187  1  0.92934000  0.45259000  0.27200000  1.0 0.090050951
H  H188  1  0.75292000  0.51698000  0.21345000  1.0 0.121185994
H  H189  1  0.81578000  0.51878000  0.28206000  1.0 0.1496579005
H  H190  1  0.85280000  0.51965000  0.21366000  1.0 0.139029763
H  H191  1  0.68588000  0.46381000  0.21730000  1.0 0.1000400221
H  H192  1  0.72311000  0.41480000  0.21417000  1.0 0.1000400221
H  H193  1  0.72014000  0.43787000  0.28418000  1.0 0.121185994
H  H194  1  0.72499000  0.46822000  0.15408000  1.0 0.0802516021
H  H195  1  0.81370000  0.44973000  0.13875000  1.0 0.1099717968
H  H196  1  0.75064000  0.41772000  0.17012000  1.0 0.1000400221
H  H197  1  0.92934000  0.04741000  0.77200000  1.0 0.090050951
H  H198  1  0.75292000  0.98302000  0.71345000  1.0 0.121185994
H  H199  1  0.81578000  0.98122000  0.78206000  1.0 0.1496579005
H  H200  1  0.85280000  0.98035000  0.71366000  1.0 0.139029763
H  H201  1  0.68588000  0.03619000  0.71730000  1.0 0.1000400221
H  H202  1  0.72311000  0.08520000  0.71417000  1.0 0.1000400221
H  H203  1  0.72014000  0.06213000  0.78418000  1.0 0.121185994
H  H204  1  0.72499000  0.03178000  0.65408000  1.0 0.0802516021
H  H205  1  0.81370000  0.05027000  0.63875000  1.0 0.1099717968
H  H206  1  0.75064000  0.08228000  0.67012000  1.0 0.1000400221
H  H207  1  0.07066000  0.54741000  0.72800000  1.0 0.090050951
H  H208  1  0.24708000  0.48302000  0.78655000  1.0 0.121185994
H  H209  1  0.18422000  0.48122000  0.71794000  1.0 0.1496579005
H  H210  1  0.14720000  0.48035000  0.78634000  1.0 0.139029763
H  H211  1  0.31412000  0.53619000  0.78270000  1.0 0.1000400221
H  H212  1  0.27689000  0.58520000  0.78583000  1.0 0.1000400221
H  H213  1  0.27986000  0.56213000  0.71582000  1.0 0.121185994
H  H214  1  0.27501000  0.53178000  0.84592000  1.0 0.0802516021
H  H215  1  0.18630000  0.55027000  0.86125000  1.0 0.1099717968
H  H216  1  0.24936000  0.58228000  0.82988000  1.0 0.1000400221
C  C1  1  0.18110000  0.28101000  0.83760000  1.0 0.5896218149
C  C2  1  0.11940000  0.30796000  0.79290000  1.0 -0.0507754527
C  C3  1  0.14550000  0.34560000  0.76340000  1.0 -0.0901694706
C  C4  1  0.08720000  0.37330000  0.72550000  1.0 -0.2003397318
C  C5  1  0.00190000  0.36290000  0.71620000  1.0 0.2566879494
C  C6  1  0.97660000  0.32370000  0.74340000  1.0 -0.2094921415
C  C7  1  0.03530000  0.29640000  0.78080000  1.0 -0.0826326878
C  C8  1  0.94560000  0.43320000  0.66666667  1.0 0.5896218149
C  C9  1  0.84890000  0.49220000  0.61720000  1.0 0.250785674
C  C10  1  0.90360000  0.52760000  0.62770000  1.0 -0.2003397318
C  C11  1  0.87420000  0.57030000  0.61360000  1.0 -0.0826326878
C  C12  1  0.79120000  0.57874000  0.58960000  1.0 -0.0507754527
C  C13  1  0.73610000  0.54290000  0.57700000  1.0 -0.0826326878
C  C14  1  0.76440000  0.49990000  0.59030000  1.0 -0.2094921415
C  C15  1  0.76020000  0.62460000  0.57420000  1.0 0.5811873082
C  C16  1  0.39770000  0.34290000  0.98160000  1.0 0.5575908823
C  C17  1  0.44380000  0.38247000  0.01190000  1.0 -0.0507754527
C  C18  1  0.42680000  0.39670000  0.07340000  1.0 -0.0990074323
C  C19  1  0.46840000  0.43230000  0.10540000  1.0 -0.2094921415
C  C20  1  0.52820000  0.45572000  0.07480000  1.0 0.2405660683
C  C21  1  0.54460000  0.44175000  0.01250000  1.0 -0.2312683622
C  C22  1  0.50370000  0.40560000  0.98200000  1.0 -0.1056544231
C  C23  1  0.55580000  0.51570000  0.15750000  1.0 0.5989351375
C  C24  1  0.60580000  0.58080000  0.22390000  1.0 0.250785674
C  C25  1  0.58390000  0.56680000  0.28420000  1.0 -0.2003397318
C  C26  1  0.58570000  0.59700000  0.33600000  1.0 -0.0901694706
C  C27  1  0.61020000  0.64057000  0.32860000  1.0 -0.0367870564
C  C28  1  0.63280000  0.65429000  0.26890000  1.0 -0.0826326878
C  C29  1  0.62840000  0.62500000  0.21690000  1.0 -0.2094921415
C  C30  1  0.61630000  0.67164000  0.38600000  1.0 0.5896218149
C  C31  1  0.85420000  0.74165000  0.94310000  1.0 0.5811873082
C  C32  1  0.92050000  0.72874000  0.90370000  1.0 -0.060864416
C  C33  1  0.99750000  0.75070000  0.90880000  1.0 -0.0901694706
C  C34  1  0.05880000  0.73880000  0.87110000  1.0 -0.2094921415
C  C35  1  0.04320000  0.70320000  0.82760000  1.0 0.2405660683
C  C36  1  0.96870000  0.68030000  0.82280000  1.0 -0.2094921415
C  C37  1  0.90730000  0.69280000  0.86040000  1.0 -0.0901694706
C  C38  1  0.17660000  0.70720000  0.77680000  1.0 0.5896218149
C  C39  1  0.28970000  0.69060000  0.70890000  1.0 0.2322915895
C  C40  1  0.35000000  0.72120000  0.73630000  1.0 -0.2003397318
C  C41  1  0.42240000  0.72670000  0.70740000  1.0 -0.0901694706
C  C42  1  0.43480000  0.70289000  0.65150000  1.0 -0.0507754527
C  C43  1  0.37620000  0.67220000  0.62670000  1.0 -0.0826326878
C  C44  1  0.30390000  0.66590000  0.65510000  1.0 -0.2094921415
C  C45  1  0.51300000  0.70957000  0.62040000  1.0 0.5811873082
C  C46  1  0.67610000  0.79681000  0.31050000  1.0 0.2899840129
C  C47  1  0.62270000  0.86230000  0.25260000  1.0 -0.3339202637
C  C48  1  0.73970000  0.81960000  0.21600000  1.0 -0.3598553883
C  C49  1  0.47540000  0.78890000  0.41900000  1.0 0.2899840129
C  C50  1  0.34750000  0.83350000  0.40430000  1.0 -0.3598553883
C  C51  1  0.38540000  0.78600000  0.50090000  1.0 -0.3339202637
C  C52  1  0.81890000  0.78101000  0.66240000  1.0 0.5896218149
C  C53  1  0.88060000  0.80796000  0.70710000  1.0 -0.0507754527
C  C54  1  0.85450000  0.84560000  0.73660000  1.0 -0.0901694706
C  C55  1  0.91280000  0.87330000  0.77450000  1.0 -0.2003397318
C  C56  1  0.99810000  0.86290000  0.78380000  1.0 0.2566879494
C  C57  1  0.02340000  0.82370000  0.75660000  1.0 -0.2094921415
C  C58  1  0.96470000  0.79640000  0.71920000  1.0 -0.0826326878
C  C59  1  0.05440000  0.93320000  0.83333000  1.0 0.5896218149
C  C60  1  0.15110000  0.99220000  0.88280000  1.0 0.250785674
C  C61  1  0.09640000  0.02760000  0.87230000  1.0 -0.2003397318
C  C62  1  0.12580000  0.07030000  0.88640000  1.0 -0.0826326878
C  C63  1  0.20880000  0.07874000  0.91040000  1.0 -0.0507754527
C  C64  1  0.26390000  0.04290000  0.92300000  1.0 -0.0826326878
C  C65  1  0.23560000  0.99990000  0.90970000  1.0 -0.2094921415
C  C66  1  0.23980000  0.12460000  0.92580000  1.0 0.5811873082
C  C67  1  0.60230000  0.84290000  0.51840000  1.0 0.5575908823
C  C68  1  0.55620000  0.88247000  0.48810000  1.0 -0.0507754527
C  C69  1  0.57320000  0.89670000  0.42660000  1.0 -0.0990074323
C  C70  1  0.53160000  0.93230000  0.39460000  1.0 -0.2094921415
C  C71  1  0.47180000  0.95572000  0.42520000  1.0 0.2405660683
C  C72  1  0.45540000  0.94175000  0.48750000  1.0 -0.2312683622
C  C73  1  0.49630000  0.90560000  0.51800000  1.0 -0.1056544231
C  C74  1  0.44420000  0.01570000  0.34250000  1.0 0.5989351375
C  C75  1  0.39420000  0.08080000  0.27610000  1.0 0.250785674
C  C76  1  0.41610000  0.06680000  0.21580000  1.0 -0.2003397318
C  C77  1  0.41430000  0.09700000  0.16400000  1.0 -0.0901694706
C  C78  1  0.38980000  0.14057000  0.17140000  1.0 -0.0367870564
C  C79  1  0.36720000  0.15429000  0.23110000  1.0 -0.0826326878
C  C80  1  0.37160000  0.12500000  0.28310000  1.0 -0.2094921415
C  C81  1  0.38370000  0.17164000  0.11400000  1.0 0.5896218149
C  C82  1  0.14580000  0.24165000  0.55690000  1.0 0.5811873082
C  C83  1  0.07950000  0.22874000  0.59630000  1.0 -0.060864416
C  C84  1  0.00250000  0.25070000  0.59120000  1.0 -0.0901694706
C  C85  1  0.94120000  0.23880000  0.62890000  1.0 -0.2094921415
C  C86  1  0.95680000  0.20320000  0.67240000  1.0 0.2405660683
C  C87  1  0.03130000  0.18030000  0.67720000  1.0 -0.2094921415
C  C88  1  0.09270000  0.19280000  0.63960000  1.0 -0.0901694706
C  C89  1  0.82340000  0.20720000  0.72320000  1.0 0.5896218149
C  C90  1  0.71030000  0.19060000  0.79110000  1.0 0.2322915895
C  C91  1  0.65000000  0.22120000  0.76370000  1.0 -0.2003397318
C  C92  1  0.57760000  0.22670000  0.79260000  1.0 -0.0901694706
C  C93  1  0.56520000  0.20289000  0.84850000  1.0 -0.0507754527
C  C94  1  0.62380000  0.17220000  0.87330000  1.0 -0.0826326878
C  C95  1  0.69610000  0.16590000  0.84490000  1.0 -0.2094921415
C  C96  1  0.48700000  0.20957000  0.87960000  1.0 0.5811873082
C  C97  1  0.32390000  0.29681000  0.18950000  1.0 0.2899840129
C  C98  1  0.37730000  0.36230000  0.24740000  1.0 -0.3339202637
C  C99  1  0.26030000  0.31960000  0.28400000  1.0 -0.3598553883
C  C100  1  0.52460000  0.28890000  0.08100000  1.0 0.2899840129
C  C101  1  0.65250000  0.33350000  0.09570000  1.0 -0.3598553883
C  C102  1  0.61460000  0.28600000  0.99910000  1.0 -0.3339202637
C  C103  1  0.81890000  0.71899000  0.16240000  1.0 0.5896218149
C  C104  1  0.88060000  0.69204000  0.20710000  1.0 -0.0507754527
C  C105  1  0.85450000  0.65440000  0.23660000  1.0 -0.0901694706
C  C106  1  0.91280000  0.62670000  0.27450000  1.0 -0.2003397318
C  C107  1  0.99810000  0.63710000  0.28380000  1.0 0.2566879494
C  C108  1  0.02340000  0.67630000  0.25660000  1.0 -0.2094921415
C  C109  1  0.96470000  0.70360000  0.21920000  1.0 -0.0826326878
C  C110  1  0.05440000  0.56680000  0.33333333  1.0 0.5896218149
C  C111  1  0.15110000  0.50780000  0.38280000  1.0 0.250785674
C  C112  1  0.09640000  0.47240000  0.37230000  1.0 -0.2003397318
C  C113  1  0.12580000  0.42970000  0.38640000  1.0 -0.0826326878
C  C114  1  0.20880000  0.42126000  0.41040000  1.0 -0.0507754527
C  C115  1  0.26390000  0.45710000  0.42300000  1.0 -0.0826326878
C  C116  1  0.23560000  0.50010000  0.40970000  1.0 -0.2094921415
C  C117  1  0.23980000  0.37540000  0.42580000  1.0 0.5811873082
C  C118  1  0.60230000  0.65710000  0.01840000  1.0 0.5575908823
C  C119  1  0.55620000  0.61753000  0.98810000  1.0 -0.0507754527
C  C120  1  0.57320000  0.60330000  0.92660000  1.0 -0.0990074323
C  C121  1  0.53160000  0.56770000  0.89460000  1.0 -0.2094921415
C  C122  1  0.47180000  0.54428000  0.92520000  1.0 0.2405660683
C  C123  1  0.45540000  0.55825000  0.98750000  1.0 -0.2312683622
C  C124  1  0.49630000  0.59440000  0.01800000  1.0 -0.1056544231
C  C125  1  0.44420000  0.48430000  0.84250000  1.0 0.5989351375
C  C126  1  0.39420000  0.41920000  0.77610000  1.0 0.250785674
C  C127  1  0.41610000  0.43320000  0.71580000  1.0 -0.2003397318
C  C128  1  0.41430000  0.40300000  0.66400000  1.0 -0.0901694706
C  C129  1  0.38980000  0.35943000  0.67140000  1.0 -0.0367870564
C  C130  1  0.36720000  0.34571000  0.73110000  1.0 -0.0826326878
C  C131  1  0.37160000  0.37500000  0.78310000  1.0 -0.2094921415
C  C132  1  0.38370000  0.32836000  0.61400000  1.0 0.5896218149
C  C133  1  0.14580000  0.25835000  0.05690000  1.0 0.5811873082
C  C134  1  0.07950000  0.27126000  0.09630000  1.0 -0.060864416
C  C135  1  0.00250000  0.24930000  0.09120000  1.0 -0.0901694706
C  C136  1  0.94120000  0.26120000  0.12890000  1.0 -0.2094921415
C  C137  1  0.95680000  0.29680000  0.17240000  1.0 0.2405660683
C  C138  1  0.03130000  0.31970000  0.17720000  1.0 -0.2094921415
C  C139  1  0.09270000  0.30720000  0.13960000  1.0 -0.0901694706
C  C140  1  0.82340000  0.29280000  0.22320000  1.0 0.5896218149
C  C141  1  0.71030000  0.30940000  0.29110000  1.0 0.2322915895
C  C142  1  0.65000000  0.27880000  0.26370000  1.0 -0.2003397318
C  C143  1  0.57760000  0.27330000  0.29260000  1.0 -0.0901694706
C  C144  1  0.56520000  0.29711000  0.34850000  1.0 -0.0507754527
C  C145  1  0.62380000  0.32780000  0.37330000  1.0 -0.0826326878
C  C146  1  0.69610000  0.33410000  0.34490000  1.0 -0.2094921415
C  C147  1  0.48700000  0.29043000  0.37960000  1.0 0.5811873082
C  C148  1  0.32390000  0.20319000  0.68950000  1.0 0.2899840129
C  C149  1  0.37730000  0.13770000  0.74740000  1.0 -0.3339202637
C  C150  1  0.26030000  0.18040000  0.78400000  1.0 -0.3598553883
C  C151  1  0.52460000  0.21110000  0.58100000  1.0 0.2899840129
C  C152  1  0.65250000  0.16650000  0.59570000  1.0 -0.3598553883
C  C153  1  0.61460000  0.21400000  0.49910000  1.0 -0.3339202637
C  C154  1  0.18110000  0.21899000  0.33760000  1.0 0.5896218149
C  C155  1  0.11940000  0.19204000  0.29290000  1.0 -0.0507754527
C  C156  1  0.14550000  0.15440000  0.26340000  1.0 -0.0901694706
C  C157  1  0.08720000  0.12670000  0.22550000  1.0 -0.2003397318
C  C158  1  0.00190000  0.13710000  0.21620000  1.0 0.2566879494
C  C159  1  0.97660000  0.17630000  0.24340000  1.0 -0.2094921415
C  C160  1  0.03530000  0.20360000  0.28080000  1.0 -0.0826326878
C  C161  1  0.94560000  0.06680000  0.16667000  1.0 0.5896218149
C  C162  1  0.84890000  0.00780000  0.11720000  1.0 0.250785674
C  C163  1  0.90360000  0.97240000  0.12770000  1.0 -0.2003397318
C  C164  1  0.87420000  0.92970000  0.11360000  1.0 -0.0826326878
C  C165  1  0.79120000  0.92126000  0.08960000  1.0 -0.0507754527
C  C166  1  0.73610000  0.95710000  0.07700000  1.0 -0.0826326878
C  C167  1  0.76440000  0.00010000  0.09030000  1.0 -0.2094921415
C  C168  1  0.76020000  0.87540000  0.07420000  1.0 0.5811873082
C  C169  1  0.39770000  0.15710000  0.48160000  1.0 0.5575908823
C  C170  1  0.44380000  0.11753000  0.51190000  1.0 -0.0507754527
C  C171  1  0.42680000  0.10330000  0.57340000  1.0 -0.0990074323
C  C172  1  0.46840000  0.06770000  0.60540000  1.0 -0.2094921415
C  C173  1  0.52820000  0.04428000  0.57480000  1.0 0.2405660683
C  C174  1  0.54460000  0.05825000  0.51250000  1.0 -0.2312683622
C  C175  1  0.50370000  0.09440000  0.48200000  1.0 -0.1056544231
C  C176  1  0.55580000  0.98430000  0.65750000  1.0 0.5989351375
C  C177  1  0.60580000  0.91920000  0.72390000  1.0 0.250785674
C  C178  1  0.58390000  0.93320000  0.78420000  1.0 -0.2003397318
C  C179  1  0.58570000  0.90300000  0.83600000  1.0 -0.0901694706
C  C180  1  0.61020000  0.85943000  0.82860000  1.0 -0.0367870564
C  C181  1  0.63280000  0.84571000  0.76890000  1.0 -0.0826326878
C  C182  1  0.62840000  0.87500000  0.71690000  1.0 -0.2094921415
C  C183  1  0.61630000  0.82836000  0.88600000  1.0 0.5896218149
C  C184  1  0.85420000  0.75835000  0.44310000  1.0 0.5811873082
C  C185  1  0.92050000  0.77126000  0.40370000  1.0 -0.060864416
C  C186  1  0.99750000  0.74930000  0.40880000  1.0 -0.0901694706
C  C187  1  0.05880000  0.76120000  0.37110000  1.0 -0.2094921415
C  C188  1  0.04320000  0.79680000  0.32760000  1.0 0.2405660683
C  C189  1  0.96870000  0.81970000  0.32280000  1.0 -0.2094921415
C  C190  1  0.90730000  0.80720000  0.36040000  1.0 -0.0901694706
C  C191  1  0.17660000  0.79280000  0.27680000  1.0 0.5896218149
C  C192  1  0.28970000  0.80940000  0.20890000  1.0 0.2322915895
C  C193  1  0.35000000  0.77880000  0.23630000  1.0 -0.2003397318
C  C194  1  0.42240000  0.77330000  0.20740000  1.0 -0.0901694706
C  C195  1  0.43480000  0.79711000  0.15150000  1.0 -0.0507754527
C  C196  1  0.37620000  0.82780000  0.12670000  1.0 -0.0826326878
C  C197  1  0.30390000  0.83410000  0.15510000  1.0 -0.2094921415
C  C198  1  0.51300000  0.79043000  0.12040000  1.0 0.5811873082
C  C199  1  0.67610000  0.70319000  0.81050000  1.0 0.2899840129
C  C200  1  0.62270000  0.63770000  0.75260000  1.0 -0.3339202637
C  C201  1  0.73970000  0.68040000  0.71600000  1.0 -0.3598553883
C  C202  1  0.47540000  0.71110000  0.91900000  1.0 0.2899840129
C  C203  1  0.34750000  0.66650000  0.90430000  1.0 -0.3598553883
C  C204  1  0.38540000  0.71400000  0.00090000  1.0 -0.3339202637
C  C205  1  0.12270000  0.93690000  0.23610000  1.0 0.1496579005
C  C206  1  0.19180000  0.00770000  0.26340000  1.0 -0.3961125212
C  C207  1  0.27150000  0.94290000  0.26170000  1.0 -0.2177515598
C  C208  1  0.22800000  0.94810000  0.33090000  1.0 -0.2312683622
C  C209  1  0.87730000  0.43690000  0.26390000  1.0 0.1496579005
C  C210  1  0.80820000  0.50770000  0.23660000  1.0 -0.3961125212
C  C211  1  0.72850000  0.44290000  0.23830000  1.0 -0.2177515598
C  C212  1  0.77200000  0.44810000  0.16910000  1.0 -0.2312683622
C  C213  1  0.87730000  0.06310000  0.76390000  1.0 0.1496579005
C  C214  1  0.80820000  0.99230000  0.73660000  1.0 -0.3961125212
C  C215  1  0.72850000  0.05710000  0.73830000  1.0 -0.2177515598
C  C216  1  0.77200000  0.05190000  0.66910000  1.0 -0.2312683622
C  C217  1  0.12270000  0.56310000  0.73610000  1.0 0.1496579005
C  C218  1  0.19180000  0.49230000  0.76340000  1.0 -0.3961125212
C  C219  1  0.27150000  0.55710000  0.76170000  1.0 -0.2177515598
C  C220  1  0.22800000  0.55190000  0.83090000  1.0 -0.2312683622
N  N1  1  0.93970000  0.38856000  0.68060000  1.0 -0.4248887198
N  N2  1  0.87220000  0.44809000  0.63020000  1.0 -0.4289034686
N  N3  1  0.57210000  0.49238000  0.10320000  1.0 -0.4377596127
N  N4  1  0.60570000  0.55196000  0.17060000  1.0 -0.4377596127
N  N5  1  0.10210000  0.68810000  0.78820000  1.0 -0.4289034686
N  N6  1  0.21490000  0.68170000  0.73540000  1.0 -0.4289034686
N  N7  1  0.68020000  0.82495000  0.26210000  1.0 0.0304208407
N  N8  1  0.40390000  0.80030000  0.43780000  1.0 0.0304208407
N  N9  1  0.06030000  0.88856000  0.81940000  1.0 -0.4248887198
N  N10  1  0.12780000  0.94809000  0.86980000  1.0 -0.4289034686
N  N11  1  0.42790000  0.99238000  0.39680000  1.0 -0.4377596127
N  N12  1  0.39430000  0.05196000  0.32940000  1.0 -0.4377596127
N  N13  1  0.89790000  0.18810000  0.71180000  1.0 -0.4289034686
N  N14  1  0.78510000  0.18170000  0.76460000  1.0 -0.4289034686
N  N15  1  0.31980000  0.32495000  0.23790000  1.0 0.0304208407
N  N16  1  0.59610000  0.30030000  0.06220000  1.0 0.0304208407
N  N17  1  0.06030000  0.61144000  0.31940000  1.0 -0.4248887198
N  N18  1  0.12780000  0.55191000  0.36980000  1.0 -0.4289034686
N  N19  1  0.42790000  0.50762000  0.89680000  1.0 -0.4377596127
N  N20  1  0.39430000  0.44804000  0.82940000  1.0 -0.4377596127
N  N21  1  0.89790000  0.31190000  0.21180000  1.0 -0.4289034686
N  N22  1  0.78510000  0.31830000  0.26460000  1.0 -0.4289034686
N  N23  1  0.31980000  0.17505000  0.73790000  1.0 0.0304208407
N  N24  1  0.59610000  0.19970000  0.56220000  1.0 0.0304208407
N  N25  1  0.93970000  0.11144000  0.18060000  1.0 -0.4289034686
N  N26  1  0.87220000  0.05191000  0.13020000  1.0 -0.4289034686
N  N27  1  0.57210000  0.00762000  0.60320000  1.0 -0.4377596127
N  N28  1  0.60570000  0.94804000  0.67060000  1.0 -0.4377596127
N  N29  1  0.10210000  0.81190000  0.28820000  1.0 -0.4289034686
N  N30  1  0.21490000  0.81830000  0.23540000  1.0 -0.4289034686
N  N31  1  0.68020000  0.67505000  0.76210000  1.0 0.0304208407
N  N32  1  0.40390000  0.69970000  0.93780000  1.0 0.0304208407
N  N33  1  0.18720000  0.96130000  0.26270000  1.0 0.0802516021
N  N34  1  0.81280000  0.46130000  0.23730000  1.0 0.0802516021
N  N35  1  0.81280000  0.03870000  0.73730000  1.0 0.090050951
N  N36  1  0.18720000  0.53870000  0.76270000  1.0 0.090050951
O  O1  1  0.00520000  0.45546000  0.68440000  1.0 -0.4653766351
O  O2  1  0.25820000  0.28990000  0.84020000  1.0 -0.5395068622
O  O3  1  0.15060000  0.25080000  0.87000000  1.0 -0.548063119
O  O4  1  0.81470000  0.65461000  0.57330000  1.0 -0.5395068622
O  O5  1  0.68100000  0.63028000  0.56240000  1.0 -0.548063119
O  O6  1  0.68090000  0.73387000  0.52934000  1.0 -1.0006927298
O  O7  1  0.50150000  0.50541000  0.19080000  1.0 -0.4969273703
O  O8  1  0.33970000  0.32689000  0.00810000  1.0 -0.5314592815
O  O9  1  0.42010000  0.32769000  0.92839000  1.0 -0.5395068622
O  O10  1  0.58170000  0.65838000  0.43460000  1.0 -0.5314592815
O  O11  1  0.65550000  0.70725000  0.38357000  1.0 -0.5683739977
O  O12  1  0.20540000  0.74070000  0.80280000  1.0 -0.486257826
O  O13  1  0.87340000  0.77222000  0.98660000  1.0 -0.5314592815
O  O14  1  0.78520000  0.72261000  0.93290000  1.0 -0.5395068622
O  O15  1  0.56360000  0.73977000  0.64200000  1.0 -0.5395068622
O  O16  1  0.52000000  0.68376000  0.57240000  1.0 -0.5395068622
O  O17  1  0.62830000  0.80014000  0.35234000  1.0 -0.4643736737
O  O18  1  0.52740000  0.76231000  0.44820000  1.0 -0.4643736737
O  O19  1  0.99480000  0.95546000  0.81560000  1.0 -0.4643736737
O  O20  1  0.74180000  0.78990000  0.65980000  1.0 -0.5395068622
O  O21  1  0.84940000  0.75080000  0.63000000  1.0 -0.548063119
O  O22  1  0.18530000  0.15461000  0.92670000  1.0 -0.5395068622
O  O23  1  0.31900000  0.13028000  0.93760000  1.0 -0.548063119
O  O24  1  0.31910000  0.23387000  0.97066000  1.0 -1.0006927298
O  O25  1  0.49850000  0.00541000  0.30920000  1.0 -0.4969273703
O  O26  1  0.66030000  0.82689000  0.49190000  1.0 -0.5314592815
O  O27  1  0.57990000  0.82769000  0.57161000  1.0 -0.5395068622
O  O28  1  0.41830000  0.15838000  0.06540000  1.0 -0.5314592815
O  O29  1  0.34450000  0.20725000  0.11643000  1.0 -0.5683739977
O  O30  1  0.79460000  0.24070000  0.69720000  1.0 -0.486257826
O  O31  1  0.12660000  0.27222000  0.51340000  1.0 -0.5314592815
O  O32  1  0.21480000  0.22261000  0.56710000  1.0 -0.5395068622
O  O33  1  0.43640000  0.23977000  0.85800000  1.0 -0.5395068622
O  O34  1  0.48000000  0.18376000  0.92760000  1.0 -0.5395068622
O  O35  1  0.37170000  0.30014000  0.14766000  1.0 -0.4643736737
O  O36  1  0.47260000  0.26231000  0.05180000  1.0 -0.4643736737
O  O37  1  0.99480000  0.54454000  0.31560000  1.0 -0.4643736737
O  O38  1  0.74180000  0.71010000  0.15980000  1.0 -0.5395068622
O  O39  1  0.84940000  0.74920000  0.13000000  1.0 -0.548063119
O  O40  1  0.18530000  0.34539000  0.42670000  1.0 -0.5395068622
O  O41  1  0.31900000  0.36972000  0.43760000  1.0 -0.548063119
O  O42  1  0.31910000  0.26613000  0.47066000  1.0 -1.0006927298
O  O43  1  0.49850000  0.49459000  0.80920000  1.0 -0.4969273703
O  O44  1  0.66030000  0.67311000  0.99190000  1.0 -0.5314592815
O  O45  1  0.57990000  0.67231000  0.07161000  1.0 -0.5395068622
O  O46  1  0.41830000  0.34162000  0.56540000  1.0 -0.5314592815
O  O47  1  0.34450000  0.29275000  0.61643000  1.0 -0.5683739977
O  O48  1  0.79460000  0.25930000  0.19720000  1.0 -0.486257826
O  O49  1  0.12660000  0.22778000  0.01340000  1.0 -0.5314592815
O  O50  1  0.21480000  0.27739000  0.06710000  1.0 -0.5395068622
O  O51  1  0.43640000  0.26023000  0.35800000  1.0 -0.5395068622
O  O52  1  0.48000000  0.31624000  0.42760000  1.0 -0.5395068622
O  O53  1  0.37170000  0.19986000  0.64766000  1.0 -0.4643736737
O  O54  1  0.47260000  0.23769000  0.55180000  1.0 -0.4643736737
O  O55  1  0.00520000  0.04454000  0.18440000  1.0 -0.4653766351
O  O56  1  0.25820000  0.21010000  0.34020000  1.0 -0.5395068622
O  O57  1  0.15060000  0.24920000  0.37000000  1.0 -0.548063119
O  O58  1  0.81470000  0.84539000  0.07330000  1.0 -0.5395068622
O  O59  1  0.68100000  0.86972000  0.06240000  1.0 -0.548063119
O  O60  1  0.68090000  0.76613000  0.02934000  1.0 -1.0006927298
O  O61  1  0.50150000  0.99459000  0.69080000  1.0 -0.4969273703
O  O62  1  0.33970000  0.17311000  0.50810000  1.0 -0.5314592815
O  O63  1  0.42010000  0.17231000  0.42839000  1.0 -0.5395068622
O  O64  1  0.58170000  0.84162000  0.93460000  1.0 -0.5314592815
O  O65  1  0.65550000  0.79275000  0.88357000  1.0 -0.5683739977
O  O66  1  0.20540000  0.75930000  0.30280000  1.0 -0.486257826
O  O67  1  0.87340000  0.72778000  0.48660000  1.0 -0.5314592815
O  O68  1  0.78520000  0.77739000  0.43290000  1.0 -0.5395068622
O  O69  1  0.56360000  0.76023000  0.14200000  1.0 -0.5395068622
O  O70  1  0.52000000  0.81624000  0.07240000  1.0 -0.5395068622
O  O71  1  0.62830000  0.69986000  0.85234000  1.0 -0.4643736737
O  O72  1  0.52740000  0.73769000  0.94820000  1.0 -0.4643736737
O  O73  1  0.11710000  0.89750000  0.21970000  1.0 -0.4777983325
O  O74  1  0.88290000  0.39750000  0.28030000  1.0 -0.4777983325
O  O75  1  0.88290000  0.10250000  0.78030000  1.0 -0.4777983325
O  O76  1  0.11710000  0.60250000  0.71970000  1.0 -0.4777983325
