# DDEC6 charges by PACMAN v1.1 (https://github.com/mtap-research/PACMAN-charge/)
data_FERCEN_FSR_pacman
_symmetry_space_group_name_H-M   'P 1'
_cell_length_a   15.79820000
_cell_length_b   30.29710000
_cell_length_c   20.44680000
_cell_angle_alpha   90.00000000
_cell_angle_beta   99.76600000
_cell_angle_gamma   90.00000000
_symmetry_Int_Tables_number   1
_chemical_formula_structural   Zn4H51C52(NO2)9
_chemical_formula_sum   'Zn16 H204 C208 N36 O72'
_cell_volume   9644.82811683
_cell_formula_units_Z   4
loop_
 _symmetry_equiv_pos_site_id
 _symmetry_equiv_pos_as_xyz
  1  'x, y, z'
loop_
 _atom_site_type_symbol
 _atom_site_label
 _atom_site_symmetry_multiplicity
 _atom_site_fract_x
 _atom_site_fract_y
 _atom_site_fract_z
 _atom_site_occupancy
 _atom_site_charge
Zn  Zn1  1  0.36577000  0.77439000  0.40121000  1.0 0.9289676752
Zn  Zn2  1  0.39805000  0.68240000  0.47361000  1.0 0.9289676752
Zn  Zn3  1  0.35251000  0.76553000  0.55427000  1.0 0.9562941718
Zn  Zn4  1  0.21080000  0.71884000  0.44223000  1.0 0.9439399022
Zn  Zn5  1  0.63423000  0.27439000  0.09879000  1.0 0.9244375008
Zn  Zn6  1  0.60195000  0.18240000  0.02639000  1.0 0.9289676752
Zn  Zn7  1  0.64749000  0.26553000  0.94573000  1.0 0.9562941718
Zn  Zn8  1  0.78920000  0.21884000  0.05777000  1.0 0.9439399022
Zn  Zn9  1  0.63423000  0.22561000  0.59879000  1.0 0.9289676752
Zn  Zn10  1  0.60195000  0.31760000  0.52639000  1.0 0.9289676752
Zn  Zn11  1  0.64749000  0.23447000  0.44573000  1.0 0.9562941718
Zn  Zn12  1  0.78920000  0.28116000  0.55777000  1.0 0.9439399022
Zn  Zn13  1  0.36577000  0.72561000  0.90121000  1.0 0.9289676752
Zn  Zn14  1  0.39805000  0.81760000  0.97361000  1.0 0.9289676752
Zn  Zn15  1  0.35251000  0.73447000  0.05427000  1.0 0.9562941718
Zn  Zn16  1  0.21080000  0.78116000  0.94223000  1.0 0.9439399022
H  H1  1  0.81400000  0.65240000  0.26440000  1.0 0.2704814228
H  H2  1  0.91480000  0.65840000  0.21900000  1.0 0.2704814228
H  H3  1  0.16890000  0.42920000  0.39540000  1.0 0.2817760155
H  H4  1  0.62580000  0.65370000  0.40330000  1.0 0.1198689286
H  H5  1  0.74220000  0.64010000  0.35180000  1.0 0.1309152913
H  H6  1  0.66860000  0.73900000  0.22140000  1.0 0.1359341129
H  H7  1  0.54580000  0.75000000  0.27040000  1.0 0.1309152913
H  H8  1  0.05430000  0.65490000  0.20060000  1.0 0.1309152913
H  H9  1  0.15720000  0.67730000  0.13990000  1.0 0.1111157258
H  H10  1  0.00080000  0.77420000  0.05580000  1.0 0.1198689286
H  H11  1  0.89400000  0.75200000  0.11560000  1.0 0.1359341129
H  H12  1  0.32960000  0.54960000  0.43870000  1.0 0.1309152913
H  H13  1  0.28140000  0.47760000  0.41930000  1.0 0.1309152913
H  H14  1  0.04180000  0.52350000  0.36060000  1.0 0.1309152913
H  H15  1  0.09070000  0.59530000  0.38390000  1.0 0.1198689286
H  H16  1  0.07950000  0.31390000  0.27840000  1.0 0.1309152913
H  H17  1  0.97940000  0.26910000  0.21320000  1.0 0.1198689286
H  H18  1  0.79480000  0.35660000  0.23380000  1.0 0.1111157258
H  H19  1  0.89520000  0.40240000  0.29290000  1.0 0.1359341129
H  H20  1  0.36530000  0.56140000  0.85240000  1.0 0.2854668874
H  H21  1  0.41830000  0.51390000  0.92390000  1.0 0.2704814228
H  H22  1  0.35350000  0.68380000  0.72830000  1.0 0.1198689286
H  H23  1  0.35320000  0.63470000  0.81490000  1.0 0.1309152913
H  H24  1  0.45820000  0.54130000  0.71250000  1.0 0.1309152913
H  H25  1  0.45910000  0.59170000  0.62550000  1.0 0.1198689286
H  H26  1  0.40650000  0.46040000  0.00410000  1.0 0.1309152913
H  H27  1  0.47000000  0.39790000  0.05710000  1.0 0.1198689286
H  H28  1  0.61210000  0.38200000  0.91260000  1.0 0.1198689286
H  H29  1  0.54650000  0.44260000  0.85550000  1.0 0.1309152913
H  H30  1  0.10910000  0.37580000  0.34320000  1.0 0.2704814228
H  H31  1  0.30100000  0.77240000  0.68260000  1.0 0.0907978841
H  H32  1  0.24400000  0.79380000  0.76990000  1.0 0.1309152913
H  H33  1  0.30830000  0.81990000  0.82560000  1.0 0.1309152913
H  H34  1  0.23850000  0.84640000  0.77460000  1.0 0.1309152913
H  H35  1  0.36330000  0.89020000  0.73000000  1.0 0.1359341129
H  H36  1  0.42460000  0.86530000  0.78900000  1.0 0.1309152913
H  H37  1  0.43980000  0.85960000  0.71400000  1.0 0.1309152913
H  H38  1  0.53260000  0.79780000  0.61760000  1.0 0.0907978841
H  H39  1  0.71080000  0.84100000  0.55850000  1.0 0.0429927538
H  H40  1  0.70090000  0.81450000  0.62450000  1.0 0.0596180369
H  H41  1  0.64590000  0.85830000  0.60490000  1.0 0.0596180369
H  H42  1  0.67210000  0.81270000  0.47750000  1.0 0.1017006029
H  H43  1  0.57140000  0.80550000  0.45280000  1.0 0.1017006029
H  H44  1  0.63070000  0.76480000  0.48200000  1.0 0.0596180369
H  H45  1  0.52310000  0.81000000  0.60430000  1.0 0.0793907973
H  H46  1  0.72930000  0.83080000  0.57820000  1.0 0.0429927538
H  H47  1  0.67210000  0.83490000  0.63550000  1.0 0.049690463
H  H48  1  0.64060000  0.85750000  0.56480000  1.0 0.0688267217
H  H49  1  0.69910000  0.76800000  0.50000000  1.0 0.0907978841
H  H50  1  0.60380000  0.77950000  0.46360000  1.0 0.0793907973
H  H51  1  0.62190000  0.73470000  0.50510000  1.0 0.1017006029
H  H52  1  0.18600000  0.15240000  0.23560000  1.0 0.2704814228
H  H53  1  0.08520000  0.15840000  0.28100000  1.0 0.2704814228
H  H54  1  0.83110000  0.92920000  0.10460000  1.0 0.2817760155
H  H55  1  0.37420000  0.15370000  0.09670000  1.0 0.1198689286
H  H56  1  0.25780000  0.14010000  0.14820000  1.0 0.1309152913
H  H57  1  0.33140000  0.23900000  0.27860000  1.0 0.1359341129
H  H58  1  0.45420000  0.25000000  0.22960000  1.0 0.1309152913
H  H59  1  0.94570000  0.15490000  0.29940000  1.0 0.1309152913
H  H60  1  0.84280000  0.17730000  0.36010000  1.0 0.1111157258
H  H61  1  0.99920000  0.27420000  0.44420000  1.0 0.1198689286
H  H62  1  0.10600000  0.25200000  0.38440000  1.0 0.1359341129
H  H63  1  0.67040000  0.04960000  0.06130000  1.0 0.1309152913
H  H64  1  0.71860000  0.97760000  0.08070000  1.0 0.1309152913
H  H65  1  0.95820000  0.02350000  0.13940000  1.0 0.1309152913
H  H66  1  0.90930000  0.09530000  0.11610000  1.0 0.1198689286
H  H67  1  0.92050000  0.81390000  0.22160000  1.0 0.1309152913
H  H68  1  0.02060000  0.76910000  0.28680000  1.0 0.1198689286
H  H69  1  0.20520000  0.85660000  0.26620000  1.0 0.1111157258
H  H70  1  0.10480000  0.90240000  0.20710000  1.0 0.1309152913
H  H71  1  0.63470000  0.06140000  0.64760000  1.0 0.2817760155
H  H72  1  0.58170000  0.01390000  0.57610000  1.0 0.2704814228
H  H73  1  0.64650000  0.18380000  0.77170000  1.0 0.1198689286
H  H74  1  0.64680000  0.13470000  0.68510000  1.0 0.1309152913
H  H75  1  0.54180000  0.04130000  0.78750000  1.0 0.1309152913
H  H76  1  0.54090000  0.09170000  0.87450000  1.0 0.1198689286
H  H77  1  0.59350000  0.96040000  0.49590000  1.0 0.1309152913
H  H78  1  0.53000000  0.89790000  0.44290000  1.0 0.1198689286
H  H79  1  0.38790000  0.88200000  0.58740000  1.0 0.1198689286
H  H80  1  0.45350000  0.94260000  0.64450000  1.0 0.1309152913
H  H81  1  0.89090000  0.87580000  0.15680000  1.0 0.2704814228
H  H82  1  0.69900000  0.27240000  0.81740000  1.0 0.0907978841
H  H83  1  0.75600000  0.29380000  0.73010000  1.0 0.1309152913
H  H84  1  0.69170000  0.31990000  0.67440000  1.0 0.1309152913
H  H85  1  0.76150000  0.34640000  0.72540000  1.0 0.1309152913
H  H86  1  0.63670000  0.39020000  0.77000000  1.0 0.1359341129
H  H87  1  0.57540000  0.36530000  0.71100000  1.0 0.1309152913
H  H88  1  0.56020000  0.35960000  0.78600000  1.0 0.1309152913
H  H89  1  0.46740000  0.29780000  0.88240000  1.0 0.0907978841
H  H90  1  0.28920000  0.34100000  0.94150000  1.0 0.0429927538
H  H91  1  0.29910000  0.31450000  0.87550000  1.0 0.0596180369
H  H92  1  0.35410000  0.35830000  0.89510000  1.0 0.0596180369
H  H93  1  0.32790000  0.31270000  0.02250000  1.0 0.1017006029
H  H94  1  0.42860000  0.30550000  0.04720000  1.0 0.1017006029
H  H95  1  0.36930000  0.26480000  0.01800000  1.0 0.0596180369
H  H96  1  0.47690000  0.31000000  0.89570000  1.0 0.0793907973
H  H97  1  0.27070000  0.33080000  0.92180000  1.0 0.0429927538
H  H98  1  0.32790000  0.33490000  0.86450000  1.0 0.049690463
H  H99  1  0.35940000  0.35750000  0.93520000  1.0 0.0688267217
H  H100  1  0.30090000  0.26800000  0.00000000  1.0 0.0907978841
H  H101  1  0.39620000  0.27950000  0.03640000  1.0 0.0793907973
H  H102  1  0.37810000  0.23470000  0.99490000  1.0 0.1017006029
H  H103  1  0.18600000  0.34760000  0.73560000  1.0 0.2704814228
H  H104  1  0.08520000  0.34160000  0.78100000  1.0 0.2704814228
H  H105  1  0.83110000  0.57080000  0.60460000  1.0 0.2817760155
H  H106  1  0.37420000  0.34630000  0.59670000  1.0 0.1198689286
H  H107  1  0.25780000  0.35990000  0.64820000  1.0 0.1309152913
H  H108  1  0.33140000  0.26100000  0.77860000  1.0 0.1359341129
H  H109  1  0.45420000  0.25000000  0.72960000  1.0 0.1309152913
H  H110  1  0.94570000  0.34510000  0.79940000  1.0 0.1309152913
H  H111  1  0.84280000  0.32270000  0.86010000  1.0 0.1111157258
H  H112  1  0.99920000  0.22580000  0.94420000  1.0 0.1198689286
H  H113  1  0.10600000  0.24800000  0.88440000  1.0 0.1359341129
H  H114  1  0.67040000  0.45040000  0.56130000  1.0 0.1309152913
H  H115  1  0.71860000  0.52240000  0.58070000  1.0 0.1309152913
H  H116  1  0.95820000  0.47650000  0.63940000  1.0 0.1309152913
H  H117  1  0.90930000  0.40470000  0.61610000  1.0 0.1198689286
H  H118  1  0.92050000  0.68610000  0.72160000  1.0 0.1309152913
H  H119  1  0.02060000  0.73090000  0.78680000  1.0 0.1198689286
H  H120  1  0.20520000  0.64340000  0.76620000  1.0 0.1111157258
H  H121  1  0.10480000  0.59760000  0.70710000  1.0 0.1309152913
H  H122  1  0.63470000  0.43860000  0.14760000  1.0 0.2817760155
H  H123  1  0.58170000  0.48610000  0.07610000  1.0 0.2704814228
H  H124  1  0.64650000  0.31620000  0.27170000  1.0 0.1198689286
H  H125  1  0.64680000  0.36530000  0.18510000  1.0 0.1309152913
H  H126  1  0.54180000  0.45870000  0.28750000  1.0 0.1309152913
H  H127  1  0.54090000  0.40830000  0.37450000  1.0 0.1198689286
H  H128  1  0.59350000  0.53960000  0.99590000  1.0 0.1309152913
H  H129  1  0.53000000  0.60210000  0.94290000  1.0 0.1198689286
H  H130  1  0.38790000  0.61800000  0.08740000  1.0 0.1198689286
H  H131  1  0.45350000  0.55740000  0.14450000  1.0 0.1309152913
H  H132  1  0.89090000  0.62420000  0.65680000  1.0 0.2704814228
H  H133  1  0.69900000  0.22760000  0.31740000  1.0 0.0907978841
H  H134  1  0.75600000  0.20620000  0.23010000  1.0 0.1309152913
H  H135  1  0.69170000  0.18010000  0.17440000  1.0 0.1309152913
H  H136  1  0.76150000  0.15360000  0.22540000  1.0 0.1309152913
H  H137  1  0.63670000  0.10980000  0.27000000  1.0 0.1359341129
H  H138  1  0.57540000  0.13470000  0.21100000  1.0 0.1359341129
H  H139  1  0.56020000  0.14040000  0.28600000  1.0 0.1309152913
H  H140  1  0.46740000  0.20220000  0.38240000  1.0 0.0907978841
H  H141  1  0.28920000  0.15900000  0.44150000  1.0 0.0429927538
H  H142  1  0.29910000  0.18550000  0.37550000  1.0 0.0596180369
H  H143  1  0.35410000  0.14170000  0.39510000  1.0 0.0596180369
H  H144  1  0.32790000  0.18730000  0.52250000  1.0 0.1017006029
H  H145  1  0.42860000  0.19450000  0.54720000  1.0 0.1017006029
H  H146  1  0.36930000  0.23520000  0.51800000  1.0 0.0596180369
H  H147  1  0.47690000  0.19000000  0.39570000  1.0 0.0793907973
H  H148  1  0.27070000  0.16920000  0.42180000  1.0 0.0429927538
H  H149  1  0.32790000  0.16510000  0.36450000  1.0 0.049690463
H  H150  1  0.35940000  0.14250000  0.43520000  1.0 0.0688267217
H  H151  1  0.30090000  0.23200000  0.50000000  1.0 0.0907978841
H  H152  1  0.39620000  0.22050000  0.53640000  1.0 0.0793907973
H  H153  1  0.37810000  0.26530000  0.49490000  1.0 0.1017006029
H  H154  1  0.81400000  0.84760000  0.76440000  1.0 0.2704814228
H  H155  1  0.91480000  0.84160000  0.71900000  1.0 0.2704814228
H  H156  1  0.16890000  0.07080000  0.89540000  1.0 0.2817760155
H  H157  1  0.62580000  0.84630000  0.90330000  1.0 0.1198689286
H  H158  1  0.74220000  0.85990000  0.85180000  1.0 0.1309152913
H  H159  1  0.66860000  0.76100000  0.72140000  1.0 0.1359341129
H  H160  1  0.54580000  0.75000000  0.77040000  1.0 0.1309152913
H  H161  1  0.05430000  0.84510000  0.70060000  1.0 0.1309152913
H  H162  1  0.15720000  0.82270000  0.63990000  1.0 0.1111157258
H  H163  1  0.00080000  0.72580000  0.55580000  1.0 0.1198689286
H  H164  1  0.89400000  0.74800000  0.61560000  1.0 0.1359341129
H  H165  1  0.32960000  0.95040000  0.93870000  1.0 0.1309152913
H  H166  1  0.28140000  0.02240000  0.91930000  1.0 0.1309152913
H  H167  1  0.04180000  0.97650000  0.86060000  1.0 0.1309152913
H  H168  1  0.09070000  0.90470000  0.88390000  1.0 0.1198689286
H  H169  1  0.07950000  0.18610000  0.77840000  1.0 0.1309152913
H  H170  1  0.97940000  0.23090000  0.71320000  1.0 0.1198689286
H  H171  1  0.79480000  0.14340000  0.73380000  1.0 0.1111157258
H  H172  1  0.89520000  0.09760000  0.79290000  1.0 0.1309152913
H  H173  1  0.36530000  0.93860000  0.35240000  1.0 0.2817760155
H  H174  1  0.41830000  0.98610000  0.42390000  1.0 0.2704814228
H  H175  1  0.35350000  0.81620000  0.22830000  1.0 0.1198689286
H  H176  1  0.35320000  0.86530000  0.31490000  1.0 0.1198689286
H  H177  1  0.45820000  0.95870000  0.21250000  1.0 0.1309152913
H  H178  1  0.45910000  0.90830000  0.12550000  1.0 0.1198689286
H  H179  1  0.40650000  0.03960000  0.50410000  1.0 0.1309152913
H  H180  1  0.47000000  0.10210000  0.55710000  1.0 0.1198689286
H  H181  1  0.61210000  0.11800000  0.41260000  1.0 0.1198689286
H  H182  1  0.54650000  0.05740000  0.35550000  1.0 0.1309152913
H  H183  1  0.10910000  0.12420000  0.84320000  1.0 0.2704814228
H  H184  1  0.30100000  0.72760000  0.18260000  1.0 0.0907978841
H  H185  1  0.24400000  0.70620000  0.26990000  1.0 0.1309152913
H  H186  1  0.30830000  0.68010000  0.32560000  1.0 0.1309152913
H  H187  1  0.23850000  0.65360000  0.27460000  1.0 0.1309152913
H  H188  1  0.36330000  0.60980000  0.23000000  1.0 0.1359341129
H  H189  1  0.42460000  0.63470000  0.28900000  1.0 0.1309152913
H  H190  1  0.43980000  0.64040000  0.21400000  1.0 0.1309152913
H  H191  1  0.53260000  0.70220000  0.11760000  1.0 0.0907978841
H  H192  1  0.71080000  0.65900000  0.05850000  1.0 0.0429927538
H  H193  1  0.70090000  0.68550000  0.12450000  1.0 0.0596180369
H  H194  1  0.64590000  0.64170000  0.10490000  1.0 0.0596180369
H  H195  1  0.67210000  0.68730000  0.97750000  1.0 0.1111157258
H  H196  1  0.57140000  0.69450000  0.95280000  1.0 0.1017006029
H  H197  1  0.63070000  0.73520000  0.98200000  1.0 0.0596180369
H  H198  1  0.52310000  0.69000000  0.10430000  1.0 0.0793907973
H  H199  1  0.72930000  0.66920000  0.07820000  1.0 0.0429927538
H  H200  1  0.67210000  0.66510000  0.13550000  1.0 0.049690463
H  H201  1  0.64060000  0.64250000  0.06480000  1.0 0.0688267217
H  H202  1  0.69910000  0.73200000  0.00000000  1.0 0.0907978841
H  H203  1  0.60380000  0.72050000  0.96360000  1.0 0.0793907973
H  H204  1  0.62190000  0.76530000  0.00510000  1.0 0.1017006029
C  C1  1  0.49840000  0.71098000  0.37440000  1.0 0.5816402016
C  C2  1  0.57430000  0.70352000  0.34180000  1.0 -0.0489213745
C  C3  1  0.63380000  0.67075000  0.36590000  1.0 -0.0886087539
C  C4  1  0.70330000  0.66313000  0.33590000  1.0 -0.2020780877
C  C5  1  0.71760000  0.68835000  0.28290000  1.0 0.2139500308
C  C6  1  0.65920000  0.72140000  0.25800000  1.0 -0.2257334773
C  C7  1  0.58670000  0.72821000  0.28770000  1.0 -0.0984379971
C  C8  1  0.83240000  0.70540000  0.21650000  1.0 0.4227245528
C  C9  1  0.96390000  0.70136000  0.16470000  1.0 0.2385508279
C  C10  1  0.04300000  0.67915000  0.17100000  1.0 -0.2078869329
C  C11  1  0.10370000  0.69231000  0.13480000  1.0 -0.0886087539
C  C12  1  0.08800000  0.72752000  0.09050000  1.0 -0.04083584
C  C13  1  0.01090000  0.74965000  0.08490000  1.0 -0.0886087539
C  C14  1  0.94740000  0.73686000  0.12080000  1.0 -0.2020780877
C  C15  1  0.15510000  0.74115000  0.05080000  1.0 0.5906843472
C  C16  1  0.24850000  0.62522000  0.42350000  1.0 0.5816402016
C  C17  1  0.21600000  0.57981000  0.41000000  1.0 -0.05949093
C  C18  1  0.27050000  0.54449000  0.42210000  1.0 -0.0816497526
C  C19  1  0.24220000  0.50150000  0.41070000  1.0 -0.2020780877
C  C20  1  0.15730000  0.49370000  0.38700000  1.0 0.2385508279
C  C21  1  0.10100000  0.52870000  0.37660000  1.0 -0.1816227023
C  C22  1  0.13040000  0.57144000  0.38940000  1.0 -0.0816497526
C  C23  1  0.05940000  0.43340000  0.33880000  1.0 0.5906843472
C  C24  1  0.99820000  0.36360000  0.28990000  1.0 0.2488423067
C  C25  1  0.02150000  0.32340000  0.26750000  1.0 -0.2020780877
C  C26  1  0.96160000  0.29651000  0.22910000  1.0 -0.0816497526
C  C27  1  0.87660000  0.30900000  0.21360000  1.0 -0.0489213745
C  C28  1  0.85360000  0.34830000  0.24060000  1.0 -0.0886087539
C  C29  1  0.91300000  0.37510000  0.27660000  1.0 -0.1736990136
C  C30  1  0.81310000  0.28182000  0.16880000  1.0 0.5816402016
C  C31  1  0.39730000  0.67295000  0.61000000  1.0 0.5906843472
C  C32  1  0.40340000  0.64233000  0.66800000  1.0 -0.04083584
C  C33  1  0.37410000  0.65466000  0.72460000  1.0 -0.0886087539
C  C34  1  0.37410000  0.62559000  0.77610000  1.0 -0.2020780877
C  C35  1  0.40420000  0.58335000  0.77170000  1.0 0.2385508279
C  C36  1  0.43640000  0.57030000  0.71560000  1.0 -0.1886135411
C  C37  1  0.43640000  0.60023000  0.66380000  1.0 -0.0886087539
C  C38  1  0.44910000  0.51760000  0.84060000  1.0 0.5982678759
C  C39  1  0.46970000  0.45784000  0.92450000  1.0 0.2275507118
C  C40  1  0.44780000  0.44425000  0.98500000  1.0 -0.2422042337
C  C41  1  0.48630000  0.40745000  0.01670000  1.0 -0.1354247105
C  C42  1  0.54870000  0.38411000  0.99050000  1.0 -0.0693538782
C  C43  1  0.56970000  0.39794000  0.93080000  1.0 -0.0984379971
C  C44  1  0.53150000  0.43400000  0.89670000  1.0 -0.2020780877
C  C45  1  0.59340000  0.34462000  0.02340000  1.0 0.5627635497
C  C46  1  0.33910000  0.79680000  0.68570000  1.0 0.2817760155
C  C47  1  0.27730000  0.82100000  0.77980000  1.0 -0.3674004298
C  C48  1  0.39630000  0.86321000  0.74260000  1.0 -0.3476085585
C  C49  1  0.53920000  0.78900000  0.57420000  1.0 0.1715241599
C  C50  1  0.67050000  0.83200000  0.58750000  1.0 -0.2834816795
C  C51  1  0.62110000  0.79660000  0.48560000  1.0 -0.1319415509
C  C52  1  0.63800000  0.76590000  0.50290000  1.0 -0.1319415509
C  C53  1  0.50160000  0.21098000  0.12560000  1.0 0.5816402016
C  C54  1  0.42570000  0.20352000  0.15820000  1.0 -0.0489213745
C  C55  1  0.36620000  0.17075000  0.13410000  1.0 -0.0886087539
C  C56  1  0.29670000  0.16313000  0.16410000  1.0 -0.2020780877
C  C57  1  0.28240000  0.18835000  0.21710000  1.0 0.2139500308
C  C58  1  0.34080000  0.22140000  0.24200000  1.0 -0.2257334773
C  C59  1  0.41330000  0.22821000  0.21230000  1.0 -0.0984379971
C  C60  1  0.16760000  0.20540000  0.28350000  1.0 0.4227245528
C  C61  1  0.03610000  0.20136000  0.33530000  1.0 0.2385508279
C  C62  1  0.95700000  0.17915000  0.32900000  1.0 -0.2078869329
C  C63  1  0.89630000  0.19231000  0.36520000  1.0 -0.0886087539
C  C64  1  0.91200000  0.22752000  0.40950000  1.0 -0.04083584
C  C65  1  0.98910000  0.24965000  0.41510000  1.0 -0.0886087539
C  C66  1  0.05260000  0.23686000  0.37920000  1.0 -0.2078869329
C  C67  1  0.84490000  0.24115000  0.44920000  1.0 0.5906843472
C  C68  1  0.75150000  0.12522000  0.07650000  1.0 0.5816402016
C  C69  1  0.78400000  0.07981000  0.09000000  1.0 -0.05949093
C  C70  1  0.72950000  0.04449000  0.07790000  1.0 -0.0816497526
C  C71  1  0.75780000  0.00150000  0.08930000  1.0 -0.2020780877
C  C72  1  0.84270000  0.99370000  0.11300000  1.0 0.2385508279
C  C73  1  0.89900000  0.02870000  0.12340000  1.0 -0.1816227023
C  C74  1  0.86960000  0.07144000  0.11060000  1.0 -0.0816497526
C  C75  1  0.94060000  0.93340000  0.16120000  1.0 0.5906843472
C  C76  1  0.00180000  0.86360000  0.21010000  1.0 0.2488423067
C  C77  1  0.97850000  0.82340000  0.23250000  1.0 -0.2020780877
C  C78  1  0.03840000  0.79651000  0.27090000  1.0 -0.0816497526
C  C79  1  0.12340000  0.80900000  0.28640000  1.0 -0.0489213745
C  C80  1  0.14640000  0.84830000  0.25940000  1.0 -0.0886087539
C  C81  1  0.08700000  0.87510000  0.22340000  1.0 -0.1736990136
C  C82  1  0.18690000  0.78182000  0.33120000  1.0 0.5816402016
C  C83  1  0.60270000  0.17295000  0.89000000  1.0 0.5906843472
C  C84  1  0.59660000  0.14233000  0.83200000  1.0 -0.04083584
C  C85  1  0.62590000  0.15466000  0.77540000  1.0 -0.0886087539
C  C86  1  0.62590000  0.12559000  0.72390000  1.0 -0.2020780877
C  C87  1  0.59580000  0.08335000  0.72830000  1.0 0.2385508279
C  C88  1  0.56360000  0.07030000  0.78440000  1.0 -0.1886135411
C  C89  1  0.56360000  0.10023000  0.83620000  1.0 -0.0984379971
C  C90  1  0.55090000  0.01760000  0.65940000  1.0 0.5982678759
C  C91  1  0.53030000  0.95784000  0.57550000  1.0 0.2275507118
C  C92  1  0.55220000  0.94425000  0.51500000  1.0 -0.2422042337
C  C93  1  0.51370000  0.90745000  0.48330000  1.0 -0.1354247105
C  C94  1  0.45130000  0.88411000  0.50950000  1.0 -0.0693538782
C  C95  1  0.43030000  0.89794000  0.56920000  1.0 -0.0984379971
C  C96  1  0.46850000  0.93400000  0.60330000  1.0 -0.2020780877
C  C97  1  0.40660000  0.84462000  0.47660000  1.0 0.5627635497
C  C98  1  0.66090000  0.29680000  0.81430000  1.0 0.2854668874
C  C99  1  0.72270000  0.32100000  0.72020000  1.0 -0.3674004298
C  C100  1  0.60370000  0.36321000  0.75740000  1.0 -0.3476085585
C  C101  1  0.46080000  0.28900000  0.92580000  1.0 0.1715241599
C  C102  1  0.32950000  0.33200000  0.91250000  1.0 -0.2834816795
C  C103  1  0.37890000  0.29660000  0.01440000  1.0 -0.1319415509
C  C104  1  0.36200000  0.26590000  0.99710000  1.0 -0.1319415509
C  C105  1  0.50160000  0.28902000  0.62560000  1.0 0.5816402016
C  C106  1  0.42570000  0.29648000  0.65820000  1.0 -0.0489213745
C  C107  1  0.36620000  0.32925000  0.63410000  1.0 -0.0886087539
C  C108  1  0.29670000  0.33687000  0.66410000  1.0 -0.2020780877
C  C109  1  0.28240000  0.31165000  0.71710000  1.0 0.2139500308
C  C110  1  0.34080000  0.27860000  0.74200000  1.0 -0.2257334773
C  C111  1  0.41330000  0.27179000  0.71230000  1.0 -0.0984379971
C  C112  1  0.16760000  0.29460000  0.78350000  1.0 0.4324529249
C  C113  1  0.03610000  0.29864000  0.83530000  1.0 0.2385508279
C  C114  1  0.95700000  0.32085000  0.82900000  1.0 -0.2078869329
C  C115  1  0.89630000  0.30769000  0.86520000  1.0 -0.0886087539
C  C116  1  0.91200000  0.27248000  0.90950000  1.0 -0.0489213745
C  C117  1  0.98910000  0.25035000  0.91510000  1.0 -0.0886087539
C  C118  1  0.05260000  0.26314000  0.87920000  1.0 -0.2078869329
C  C119  1  0.84490000  0.25885000  0.94920000  1.0 0.5906843472
C  C120  1  0.75150000  0.37478000  0.57650000  1.0 0.5816402016
C  C121  1  0.78400000  0.42019000  0.59000000  1.0 -0.05949093
C  C122  1  0.72950000  0.45551000  0.57790000  1.0 -0.0816497526
C  C123  1  0.75780000  0.49850000  0.58930000  1.0 -0.2020780877
C  C124  1  0.84270000  0.50630000  0.61300000  1.0 0.2385508279
C  C125  1  0.89900000  0.47130000  0.62340000  1.0 -0.1816227023
C  C126  1  0.86960000  0.42856000  0.61060000  1.0 -0.0816497526
C  C127  1  0.94060000  0.56660000  0.66120000  1.0 0.5906843472
C  C128  1  0.00180000  0.63640000  0.71010000  1.0 0.2488423067
C  C129  1  0.97850000  0.67660000  0.73250000  1.0 -0.2020780877
C  C130  1  0.03840000  0.70349000  0.77090000  1.0 -0.0816497526
C  C131  1  0.12340000  0.69100000  0.78640000  1.0 -0.0489213745
C  C132  1  0.14640000  0.65170000  0.75940000  1.0 -0.0886087539
C  C133  1  0.08700000  0.62490000  0.72340000  1.0 -0.1736990136
C  C134  1  0.18690000  0.71818000  0.83120000  1.0 0.5816402016
C  C135  1  0.60270000  0.32705000  0.39000000  1.0 0.5906843472
C  C136  1  0.59660000  0.35767000  0.33200000  1.0 -0.0348086317
C  C137  1  0.62590000  0.34534000  0.27540000  1.0 -0.0886087539
C  C138  1  0.62590000  0.37441000  0.22390000  1.0 -0.2020780877
C  C139  1  0.59580000  0.41665000  0.22830000  1.0 0.2385508279
C  C140  1  0.56360000  0.42970000  0.28440000  1.0 -0.1886135411
C  C141  1  0.56360000  0.39977000  0.33620000  1.0 -0.0984379971
C  C142  1  0.55090000  0.48240000  0.15940000  1.0 0.5982678759
C  C143  1  0.53030000  0.54216000  0.07550000  1.0 0.2249512005
C  C144  1  0.55220000  0.55575000  0.01500000  1.0 -0.2422042337
C  C145  1  0.51370000  0.59255000  0.98330000  1.0 -0.1319415509
C  C146  1  0.45130000  0.61589000  0.00950000  1.0 -0.0693538782
C  C147  1  0.43030000  0.60206000  0.06920000  1.0 -0.0984379971
C  C148  1  0.46850000  0.56600000  0.10330000  1.0 -0.2020780877
C  C149  1  0.40660000  0.65538000  0.97660000  1.0 0.5627635497
C  C150  1  0.66090000  0.20320000  0.31430000  1.0 0.2854668874
C  C151  1  0.72270000  0.17900000  0.22020000  1.0 -0.3674004298
C  C152  1  0.60370000  0.13679000  0.25740000  1.0 -0.3476085585
C  C153  1  0.46080000  0.21100000  0.42580000  1.0 0.1715241599
C  C154  1  0.32950000  0.16800000  0.41250000  1.0 -0.2834816795
C  C155  1  0.37890000  0.20340000  0.51440000  1.0 -0.1319415509
C  C156  1  0.36200000  0.23410000  0.49710000  1.0 -0.1319415509
C  C157  1  0.49840000  0.78902000  0.87440000  1.0 0.5816402016
C  C158  1  0.57430000  0.79648000  0.84180000  1.0 -0.0489213745
C  C159  1  0.63380000  0.82925000  0.86590000  1.0 -0.0886087539
C  C160  1  0.70330000  0.83687000  0.83590000  1.0 -0.2020780877
C  C161  1  0.71760000  0.81165000  0.78290000  1.0 0.2139500308
C  C162  1  0.65920000  0.77860000  0.75800000  1.0 -0.2257334773
C  C163  1  0.58670000  0.77179000  0.78770000  1.0 -0.0984379971
C  C164  1  0.83240000  0.79460000  0.71650000  1.0 0.4373483139
C  C165  1  0.96390000  0.79864000  0.66470000  1.0 0.2385508279
C  C166  1  0.04300000  0.82085000  0.67100000  1.0 -0.2078869329
C  C167  1  0.10370000  0.80769000  0.63480000  1.0 -0.0886087539
C  C168  1  0.08800000  0.77248000  0.59050000  1.0 -0.04083584
C  C169  1  0.01090000  0.75035000  0.58490000  1.0 -0.0886087539
C  C170  1  0.94740000  0.76314000  0.62080000  1.0 -0.2078869329
C  C171  1  0.15510000  0.75885000  0.55080000  1.0 0.5906843472
C  C172  1  0.24850000  0.87478000  0.92350000  1.0 0.5816402016
C  C173  1  0.21600000  0.92019000  0.91000000  1.0 -0.05949093
C  C174  1  0.27050000  0.95551000  0.92210000  1.0 -0.0816497526
C  C175  1  0.24220000  0.99850000  0.91070000  1.0 -0.2020780877
C  C176  1  0.15730000  0.00630000  0.88700000  1.0 0.2275507118
C  C177  1  0.10100000  0.97130000  0.87660000  1.0 -0.1816227023
C  C178  1  0.13040000  0.92856000  0.88940000  1.0 -0.0816497526
C  C179  1  0.05940000  0.06660000  0.83880000  1.0 0.5906843472
C  C180  1  0.99820000  0.13640000  0.78990000  1.0 0.2488423067
C  C181  1  0.02150000  0.17660000  0.76750000  1.0 -0.2020780877
C  C182  1  0.96160000  0.20349000  0.72910000  1.0 -0.0816497526
C  C183  1  0.87660000  0.19100000  0.71360000  1.0 -0.0489213745
C  C184  1  0.85360000  0.15170000  0.74060000  1.0 -0.0886087539
C  C185  1  0.91300000  0.12490000  0.77660000  1.0 -0.1736990136
C  C186  1  0.81310000  0.21818000  0.66880000  1.0 0.5816402016
C  C187  1  0.39730000  0.82705000  0.11000000  1.0 0.5906843472
C  C188  1  0.40340000  0.85767000  0.16800000  1.0 -0.0348086317
C  C189  1  0.37410000  0.84534000  0.22460000  1.0 -0.0886087539
C  C190  1  0.37410000  0.87441000  0.27610000  1.0 -0.2020780877
C  C191  1  0.40420000  0.91665000  0.27170000  1.0 0.2385508279
C  C192  1  0.43640000  0.92970000  0.21560000  1.0 -0.1886135411
C  C193  1  0.43640000  0.89977000  0.16380000  1.0 -0.0984379971
C  C194  1  0.44910000  0.98240000  0.34060000  1.0 0.5982678759
C  C195  1  0.46970000  0.04216000  0.42450000  1.0 0.2275507118
C  C196  1  0.44780000  0.05575000  0.48500000  1.0 -0.2422042337
C  C197  1  0.48630000  0.09255000  0.51670000  1.0 -0.1354247105
C  C198  1  0.54870000  0.11589000  0.49050000  1.0 -0.0693538782
C  C199  1  0.56970000  0.10206000  0.43080000  1.0 -0.0984379971
C  C200  1  0.53150000  0.06600000  0.39670000  1.0 -0.2020780877
C  C201  1  0.59340000  0.15538000  0.52340000  1.0 0.5627635497
C  C202  1  0.33910000  0.70320000  0.18570000  1.0 0.2817760155
C  C203  1  0.27730000  0.67900000  0.27980000  1.0 -0.3674004298
C  C204  1  0.39630000  0.63679000  0.24260000  1.0 -0.3476085585
C  C205  1  0.53920000  0.71100000  0.07420000  1.0 0.1715241599
C  C206  1  0.67050000  0.66800000  0.08750000  1.0 -0.2834816795
C  C207  1  0.62110000  0.70340000  0.98560000  1.0 -0.1319415509
C  C208  1  0.63800000  0.73410000  0.00290000  1.0 -0.1319415509
N  N1  1  0.79140000  0.67872000  0.25550000  1.0 -0.4033150595
N  N2  1  0.90450000  0.68506000  0.20240000  1.0 -0.416844174
N  N3  1  0.13260000  0.44909000  0.37590000  1.0 -0.4507326406
N  N4  1  0.40150000  0.55457000  0.82570000  1.0 -0.4105886333
N  N5  1  0.42660000  0.49483000  0.89320000  1.0 -0.4105886333
N  N6  1  0.06140000  0.38954000  0.32620000  1.0 -0.427782498
N  N7  1  0.33850000  0.82516000  0.73460000  1.0 0.0285596702
N  N8  1  0.60490000  0.80670000  0.55150000  1.0 0.0793907973
N  N9  1  0.62170000  0.78860000  0.56210000  1.0 0.1359341129
N  N10  1  0.20860000  0.17872000  0.24450000  1.0 -0.4105886333
N  N11  1  0.09550000  0.18506000  0.29760000  1.0 -0.416844174
N  N12  1  0.86740000  0.94909000  0.12410000  1.0 -0.4507326406
N  N13  1  0.59850000  0.05457000  0.67430000  1.0 -0.4105886333
N  N14  1  0.57340000  0.99483000  0.60680000  1.0 -0.4105886333
N  N15  1  0.93860000  0.88954000  0.17380000  1.0 -0.427782498
N  N16  1  0.66150000  0.32516000  0.76540000  1.0 0.0285596702
N  N17  1  0.39510000  0.30670000  0.94850000  1.0 0.0793907973
N  N18  1  0.37830000  0.28860000  0.93790000  1.0 0.1359341129
N  N19  1  0.20860000  0.32128000  0.74450000  1.0 -0.4105886333
N  N20  1  0.09550000  0.31494000  0.79760000  1.0 -0.416844174
N  N21  1  0.86740000  0.55091000  0.62410000  1.0 -0.4507326406
N  N22  1  0.59850000  0.44543000  0.17430000  1.0 -0.4105886333
N  N23  1  0.57340000  0.50517000  0.10680000  1.0 -0.4105886333
N  N24  1  0.93860000  0.61046000  0.67380000  1.0 -0.427782498
N  N25  1  0.66150000  0.17484000  0.26540000  1.0 0.0285596702
N  N26  1  0.39510000  0.19330000  0.44850000  1.0 0.0688267217
N  N27  1  0.37830000  0.21140000  0.43790000  1.0 0.1309152913
N  N28  1  0.79140000  0.82128000  0.75550000  1.0 -0.4105886333
N  N29  1  0.90450000  0.81494000  0.70240000  1.0 -0.416844174
N  N30  1  0.13260000  0.05091000  0.87590000  1.0 -0.4507326406
N  N31  1  0.40150000  0.94543000  0.32570000  1.0 -0.4105886333
N  N32  1  0.42660000  0.00517000  0.39320000  1.0 -0.4105886333
N  N33  1  0.06140000  0.11046000  0.82620000  1.0 -0.427782498
N  N34  1  0.33850000  0.67484000  0.23460000  1.0 0.0285596702
N  N35  1  0.60490000  0.69330000  0.05150000  1.0 0.0688267217
N  N36  1  0.62170000  0.71140000  0.06210000  1.0 0.1309152913
O  O1  1  0.80760000  0.74171000  0.19640000  1.0 -0.4697059315
O  O2  1  0.48870000  0.68425000  0.42069000  1.0 -0.5399641693
O  O3  1  0.44900000  0.74275000  0.35486000  1.0 -0.5399641693
O  O4  1  0.22620000  0.72202000  0.06296000  1.0 -0.5473671226
O  O5  1  0.13450000  0.77055000  0.00625000  1.0 -0.5329256527
O  O6  1  0.32960000  0.73481000  0.46514000  1.0 -0.9967406017
O  O7  1  0.99700000  0.45594000  0.31980000  1.0 -0.487560642
O  O8  1  0.32770000  0.63079000  0.43676000  1.0 -0.5329256527
O  O9  1  0.19270000  0.65601000  0.42137000  1.0 -0.5399641693
O  O10  1  0.84240000  0.25061000  0.13817000  1.0 -0.5473671226
O  O11  1  0.73480000  0.29149000  0.16432000  1.0 -0.5399641693
O  O12  1  0.50580000  0.50629000  0.81030000  1.0 -0.4816911441
O  O13  1  0.35640000  0.70789000  0.61023000  1.0 -0.5473671226
O  O14  1  0.43540000  0.66026000  0.56258000  1.0 -0.5399641693
O  O15  1  0.56950000  0.32959000  0.07601000  1.0 -0.5399641693
O  O16  1  0.65220000  0.32706000  0.99850000  1.0 -0.5329256527
O  O17  1  0.38700000  0.80023000  0.64307000  1.0 -0.487560642
O  O18  1  0.48500000  0.76230000  0.54680000  1.0 -0.487560642
O  O19  1  0.19240000  0.24171000  0.30360000  1.0 -0.4697059315
O  O20  1  0.51130000  0.18425000  0.07931000  1.0 -0.5399641693
O  O21  1  0.55100000  0.24275000  0.14514000  1.0 -0.5399641693
O  O22  1  0.77380000  0.22202000  0.43704000  1.0 -0.5473671226
O  O23  1  0.86550000  0.27055000  0.49375000  1.0 -0.5329256527
O  O24  1  0.67040000  0.23481000  0.03486000  1.0 -0.9967406017
O  O25  1  0.00300000  0.95594000  0.18020000  1.0 -0.487560642
O  O26  1  0.67230000  0.13079000  0.06324000  1.0 -0.5329256527
O  O27  1  0.80730000  0.15601000  0.07863000  1.0 -0.5399641693
O  O28  1  0.15760000  0.75061000  0.36183000  1.0 -0.5473671226
O  O29  1  0.26520000  0.79149000  0.33568000  1.0 -0.5399641693
O  O30  1  0.49420000  0.00629000  0.68970000  1.0 -0.4816911441
O  O31  1  0.64360000  0.20789000  0.88977000  1.0 -0.5473671226
O  O32  1  0.56460000  0.16026000  0.93742000  1.0 -0.5399641693
O  O33  1  0.43050000  0.82959000  0.42399000  1.0 -0.5399641693
O  O34  1  0.34780000  0.82706000  0.50150000  1.0 -0.5329256527
O  O35  1  0.61300000  0.30023000  0.85693000  1.0 -0.487560642
O  O36  1  0.51500000  0.26230000  0.95320000  1.0 -0.487560642
O  O37  1  0.19240000  0.25829000  0.80360000  1.0 -0.4697059315
O  O38  1  0.51130000  0.31575000  0.57931000  1.0 -0.5399641693
O  O39  1  0.55100000  0.25725000  0.64514000  1.0 -0.5399641693
O  O40  1  0.77380000  0.27798000  0.93704000  1.0 -0.5473671226
O  O41  1  0.86550000  0.22945000  0.99375000  1.0 -0.5329256527
O  O42  1  0.67040000  0.26519000  0.53486000  1.0 -0.9967406017
O  O43  1  0.00300000  0.54406000  0.68020000  1.0 -0.487560642
O  O44  1  0.67230000  0.36921000  0.56324000  1.0 -0.5329256527
O  O45  1  0.80730000  0.34399000  0.57863000  1.0 -0.5473671226
O  O46  1  0.15760000  0.74939000  0.86183000  1.0 -0.5473671226
O  O47  1  0.26520000  0.70851000  0.83568000  1.0 -0.5399641693
O  O48  1  0.49420000  0.49371000  0.18970000  1.0 -0.4816911441
O  O49  1  0.64360000  0.29211000  0.38977000  1.0 -0.5473671226
O  O50  1  0.56460000  0.33974000  0.43742000  1.0 -0.5399641693
O  O51  1  0.43050000  0.67041000  0.92399000  1.0 -0.5399641693
O  O52  1  0.34780000  0.67294000  0.00150000  1.0 -0.5329256527
O  O53  1  0.61300000  0.19977000  0.35693000  1.0 -0.487560642
O  O54  1  0.51500000  0.23770000  0.45320000  1.0 -0.487560642
O  O55  1  0.80760000  0.75829000  0.69640000  1.0 -0.4697059315
O  O56  1  0.48870000  0.81575000  0.92069000  1.0 -0.5399641693
O  O57  1  0.44900000  0.75725000  0.85486000  1.0 -0.5399641693
O  O58  1  0.22620000  0.77798000  0.56296000  1.0 -0.5473671226
O  O59  1  0.13450000  0.72945000  0.50625000  1.0 -0.5329256527
O  O60  1  0.32960000  0.76519000  0.96514000  1.0 -0.9967406017
O  O61  1  0.99700000  0.04406000  0.81980000  1.0 -0.487560642
O  O62  1  0.32770000  0.86921000  0.93676000  1.0 -0.5329256527
O  O63  1  0.19270000  0.84399000  0.92137000  1.0 -0.5399641693
O  O64  1  0.84240000  0.24939000  0.63817000  1.0 -0.5473671226
O  O65  1  0.73480000  0.20851000  0.66432000  1.0 -0.5399641693
O  O66  1  0.50580000  0.99371000  0.31030000  1.0 -0.4816911441
O  O67  1  0.35640000  0.79211000  0.11023000  1.0 -0.5473671226
O  O68  1  0.43540000  0.83974000  0.06258000  1.0 -0.5399641693
O  O69  1  0.56950000  0.17041000  0.57601000  1.0 -0.5399641693
O  O70  1  0.65220000  0.17294000  0.49850000  1.0 -0.5329256527
O  O71  1  0.38700000  0.69977000  0.14307000  1.0 -0.487560642
O  O72  1  0.48500000  0.73770000  0.04680000  1.0 -0.487560642
