# DDEC6 charges by PACMAN v1.1 (https://github.com/mtap-research/PACMAN-charge/)
data_FERCUD_FSR_pacman
_symmetry_space_group_name_H-M   'P 1'
_cell_length_a   16.52960000
_cell_length_b   27.60900000
_cell_length_c   19.60580000
_cell_angle_alpha   90.00000000
_cell_angle_beta   94.80100000
_cell_angle_gamma   90.00000000
_symmetry_Int_Tables_number   1
_chemical_formula_structural   Zn2H22C26SN4O9
_chemical_formula_sum   'Zn16 H176 C208 S8 N32 O72'
_cell_volume   8916.02224569
_cell_formula_units_Z   8
loop_
 _symmetry_equiv_pos_site_id
 _symmetry_equiv_pos_as_xyz
  1  'x, y, z'
loop_
 _atom_site_type_symbol
 _atom_site_label
 _atom_site_symmetry_multiplicity
 _atom_site_fract_x
 _atom_site_fract_y
 _atom_site_fract_z
 _atom_site_occupancy
 _atom_site_charge
Zn  Zn1  1  0.81909000  0.32930000  0.44776000  1.0 0.8595194115
Zn  Zn2  1  0.64352000  0.27726000  0.41264000  1.0 0.9324654682
Zn  Zn3  1  0.77417000  0.24316000  0.53058000  1.0 0.9389792546
Zn  Zn4  1  0.80804000  0.22335000  0.37830000  1.0 0.9389792546
Zn  Zn5  1  0.18091000  0.82930000  0.05224000  1.0 0.8595194115
Zn  Zn6  1  0.35648000  0.77726000  0.08736000  1.0 0.9324654682
Zn  Zn7  1  0.22583000  0.74316000  0.96942000  1.0 0.9389792546
Zn  Zn8  1  0.19196000  0.72335000  0.12170000  1.0 0.9389792546
Zn  Zn9  1  0.18091000  0.67070000  0.55224000  1.0 0.8595194115
Zn  Zn10  1  0.35648000  0.72274000  0.58736000  1.0 0.9324654682
Zn  Zn11  1  0.22583000  0.75684000  0.46942000  1.0 0.9389792546
Zn  Zn12  1  0.19196000  0.77665000  0.62170000  1.0 0.9454263194
Zn  Zn13  1  0.81909000  0.17070000  0.94776000  1.0 0.8595194115
Zn  Zn14  1  0.64352000  0.22274000  0.91264000  1.0 0.9324654682
Zn  Zn15  1  0.77417000  0.25684000  0.03058000  1.0 0.9324654682
Zn  Zn16  1  0.80804000  0.27665000  0.87830000  1.0 0.9454263194
H  H1  1  0.38790000  0.16000000  0.75560000  1.0 0.2768360476
H  H2  1  0.28670000  0.15620000  0.80860000  1.0 0.2768360476
H  H3  1  0.61440000  0.18820000  0.65770000  1.0 0.1104876341
H  H4  1  0.51950000  0.16460000  0.73260000  1.0 0.1290996649
H  H5  1  0.33620000  0.21260000  0.59510000  1.0 0.1355955477
H  H6  1  0.43710000  0.23730000  0.52300000  1.0 0.1209811132
H  H7  1  0.20310000  0.15510000  0.89700000  1.0 0.1290996649
H  H8  1  0.07790000  0.16990000  0.93790000  1.0 0.1290996649
H  H9  1  0.01180000  0.24480000  0.76580000  1.0 0.1209811132
H  H10  1  0.13440000  0.22720000  0.72260000  1.0 0.1355955477
H  H11  1  0.01650000  0.39350000  0.87120000  1.0 0.2863582714
H  H12  1  0.08170000  0.44060000  0.93700000  1.0 0.2768360476
H  H13  1  0.89780000  0.29150000  0.72060000  1.0 0.1209811132
H  H14  1  0.95740000  0.32790000  0.81430000  1.0 0.1290996649
H  H15  1  0.97010000  0.45390000  0.71720000  1.0 0.1290996649
H  H16  1  0.89990000  0.41810000  0.61810000  1.0 0.1290996649
H  H17  1  0.09150000  0.49300000  0.03640000  1.0 0.1209811132
H  H18  1  0.12830000  0.56890000  0.08240000  1.0 0.1104876341
H  H19  1  0.15490000  0.61890000  0.89380000  1.0 0.1209811132
H  H20  1  0.12240000  0.54330000  0.84710000  1.0 0.1355955477
H  H21  1  0.50000000  0.57870000  0.38760000  1.0 0.2768360476
H  H22  1  0.50070000  0.66750000  0.49430000  1.0 0.3145977898
H  H23  1  0.52890000  0.42020000  0.34720000  1.0 0.1104876341
H  H24  1  0.48020000  0.50000000  0.35140000  1.0 0.1209811132
H  H25  1  0.65120000  0.52970000  0.50400000  1.0 0.1355955477
H  H26  1  0.69750000  0.45030000  0.49960000  1.0 0.1104876341
H  H27  1  0.34770000  0.65280000  0.42300000  1.0 0.1290996649
H  H28  1  0.28260000  0.67930000  0.31980000  1.0 0.1104876341
H  H29  1  0.50040000  0.70530000  0.24600000  1.0 0.1104876341
H  H30  1  0.56710000  0.67420000  0.34900000  1.0 0.1355955477
H  H31  1  0.81730000  0.43180000  0.40600000  1.0 0.0997148144
H  H32  1  0.93880000  0.50930000  0.31610000  1.0 0.0997148144
H  H33  1  0.91750000  0.50540000  0.39400000  1.0 0.0892100154
H  H34  1  0.84610000  0.50800000  0.33380000  1.0 0.078012156
H  H35  1  0.99400000  0.44450000  0.27710000  1.0 0.1290996649
H  H36  1  0.93760000  0.39740000  0.26810000  1.0 0.1209811132
H  H37  1  0.00290000  0.40200000  0.33280000  1.0 0.1104876341
H  H38  1  0.82870000  0.43450000  0.43230000  1.0 0.0484480455
H  H39  1  0.75510000  0.48120000  0.25110000  1.0 0.1209811132
H  H40  1  0.70640000  0.43900000  0.28600000  1.0 0.0892100154
H  H41  1  0.79140000  0.42740000  0.25600000  1.0 0.0892100154
H  H42  1  0.80310000  0.53340000  0.31940000  1.0 0.0997148144
H  H43  1  0.87300000  0.51850000  0.37700000  1.0 0.0601235784
H  H44  1  0.78110000  0.52360000  0.39620000  1.0 0.0997148144
H  H45  1  0.61210000  0.66000000  0.74440000  1.0 0.2768360476
H  H46  1  0.71330000  0.65620000  0.69140000  1.0 0.2768360476
H  H47  1  0.38560000  0.68820000  0.84230000  1.0 0.1104876341
H  H48  1  0.48050000  0.66460000  0.76740000  1.0 0.1290996649
H  H49  1  0.66380000  0.71260000  0.90490000  1.0 0.1355955477
H  H50  1  0.56290000  0.73730000  0.97700000  1.0 0.1209811132
H  H51  1  0.79690000  0.65510000  0.60300000  1.0 0.1290996649
H  H52  1  0.92210000  0.66990000  0.56210000  1.0 0.1290996649
H  H53  1  0.98820000  0.74480000  0.73420000  1.0 0.1209811132
H  H54  1  0.86560000  0.72720000  0.77740000  1.0 0.1290996649
H  H55  1  0.98350000  0.89350000  0.62880000  1.0 0.2863582714
H  H56  1  0.91830000  0.94060000  0.56300000  1.0 0.2768360476
H  H57  1  0.10220000  0.79150000  0.77940000  1.0 0.1209811132
H  H58  1  0.04260000  0.82790000  0.68570000  1.0 0.1290996649
H  H59  1  0.02990000  0.95390000  0.78280000  1.0 0.1290996649
H  H60  1  0.10010000  0.91810000  0.88190000  1.0 0.1209811132
H  H61  1  0.90850000  0.99300000  0.46360000  1.0 0.1209811132
H  H62  1  0.87170000  0.06890000  0.41760000  1.0 0.1104876341
H  H63  1  0.84510000  0.11890000  0.60620000  1.0 0.1209811132
H  H64  1  0.87760000  0.04330000  0.65290000  1.0 0.1290996649
H  H65  1  0.50000000  0.07870000  0.11240000  1.0 0.2768360476
H  H66  1  0.49930000  0.16750000  0.00570000  1.0 0.3145977898
H  H67  1  0.47110000  0.92020000  0.15280000  1.0 0.1104876341
H  H68  1  0.51980000  0.00000000  0.14860000  1.0 0.1209811132
H  H69  1  0.34880000  0.02970000  0.99600000  1.0 0.1355955477
H  H70  1  0.30250000  0.95030000  0.00040000  1.0 0.1104876341
H  H71  1  0.65230000  0.15280000  0.07700000  1.0 0.1290996649
H  H72  1  0.71740000  0.17930000  0.18020000  1.0 0.1104876341
H  H73  1  0.49960000  0.20530000  0.25400000  1.0 0.1104876341
H  H74  1  0.43290000  0.17420000  0.15100000  1.0 0.1355955477
H  H75  1  0.18270000  0.93180000  0.09400000  1.0 0.0997148144
H  H76  1  0.06120000  0.00930000  0.18390000  1.0 0.0997148144
H  H77  1  0.08250000  0.00540000  0.10600000  1.0 0.0892100154
H  H78  1  0.15390000  0.00800000  0.16620000  1.0 0.078012156
H  H79  1  0.00600000  0.94450000  0.22290000  1.0 0.1290996649
H  H80  1  0.06240000  0.89740000  0.23190000  1.0 0.1209811132
H  H81  1  0.99710000  0.90200000  0.16720000  1.0 0.1104876341
H  H82  1  0.17130000  0.93450000  0.06770000  1.0 0.0484480455
H  H83  1  0.24490000  0.98120000  0.24890000  1.0 0.1209811132
H  H84  1  0.29360000  0.93900000  0.21400000  1.0 0.0892100154
H  H85  1  0.20860000  0.92740000  0.24400000  1.0 0.0892100154
H  H86  1  0.19690000  0.03340000  0.18060000  1.0 0.0997148144
H  H87  1  0.12700000  0.01850000  0.12300000  1.0 0.0601235784
H  H88  1  0.21890000  0.02360000  0.10380000  1.0 0.0997148144
H  H89  1  0.61210000  0.84000000  0.24440000  1.0 0.2768360476
H  H90  1  0.71330000  0.84380000  0.19140000  1.0 0.2768360476
H  H91  1  0.38560000  0.81180000  0.34230000  1.0 0.1104876341
H  H92  1  0.48050000  0.83540000  0.26740000  1.0 0.1290996649
H  H93  1  0.66380000  0.78740000  0.40490000  1.0 0.1355955477
H  H94  1  0.56290000  0.76270000  0.47700000  1.0 0.1209811132
H  H95  1  0.79690000  0.84490000  0.10300000  1.0 0.1290996649
H  H96  1  0.92210000  0.83010000  0.06210000  1.0 0.1290996649
H  H97  1  0.98820000  0.75520000  0.23420000  1.0 0.1209811132
H  H98  1  0.86560000  0.77280000  0.27740000  1.0 0.1290996649
H  H99  1  0.98350000  0.60650000  0.12880000  1.0 0.2863582714
H  H100  1  0.91830000  0.55940000  0.06300000  1.0 0.2768360476
H  H101  1  0.10220000  0.70850000  0.27940000  1.0 0.1209811132
H  H102  1  0.04260000  0.67210000  0.18570000  1.0 0.1290996649
H  H103  1  0.02990000  0.54610000  0.28280000  1.0 0.1290996649
H  H104  1  0.10010000  0.58190000  0.38190000  1.0 0.1209811132
H  H105  1  0.90850000  0.50700000  0.96360000  1.0 0.1209811132
H  H106  1  0.87170000  0.43110000  0.91760000  1.0 0.1104876341
H  H107  1  0.84510000  0.38110000  0.10620000  1.0 0.1209811132
H  H108  1  0.87760000  0.45670000  0.15290000  1.0 0.1355955477
H  H109  1  0.50000000  0.42130000  0.61240000  1.0 0.2768360476
H  H110  1  0.49930000  0.33250000  0.50570000  1.0 0.3145977898
H  H111  1  0.47110000  0.57980000  0.65280000  1.0 0.1104876341
H  H112  1  0.51980000  0.50000000  0.64860000  1.0 0.1209811132
H  H113  1  0.34880000  0.47030000  0.49600000  1.0 0.1355955477
H  H114  1  0.30250000  0.54970000  0.50040000  1.0 0.1104876341
H  H115  1  0.65230000  0.34720000  0.57700000  1.0 0.1290996649
H  H116  1  0.71740000  0.32070000  0.68020000  1.0 0.1104876341
H  H117  1  0.49960000  0.29470000  0.75400000  1.0 0.1104876341
H  H118  1  0.43290000  0.32580000  0.65100000  1.0 0.1355955477
H  H119  1  0.18270000  0.56820000  0.59400000  1.0 0.0997148144
H  H120  1  0.06120000  0.49070000  0.68390000  1.0 0.0997148144
H  H121  1  0.08250000  0.49460000  0.60600000  1.0 0.0892100154
H  H122  1  0.15390000  0.49200000  0.66620000  1.0 0.078012156
H  H123  1  0.00600000  0.55550000  0.72290000  1.0 0.1209811132
H  H124  1  0.06240000  0.60260000  0.73190000  1.0 0.1209811132
H  H125  1  0.99710000  0.59800000  0.66720000  1.0 0.1104876341
H  H126  1  0.17130000  0.56550000  0.56770000  1.0 0.0484480455
H  H127  1  0.24490000  0.51880000  0.74890000  1.0 0.1209811132
H  H128  1  0.29360000  0.56100000  0.71400000  1.0 0.0892100154
H  H129  1  0.20860000  0.57260000  0.74400000  1.0 0.0892100154
H  H130  1  0.19690000  0.46660000  0.68060000  1.0 0.0997148144
H  H131  1  0.12700000  0.48150000  0.62300000  1.0 0.0601235784
H  H132  1  0.21890000  0.47640000  0.60380000  1.0 0.0997148144
H  H133  1  0.38790000  0.34000000  0.25560000  1.0 0.2768360476
H  H134  1  0.28670000  0.34380000  0.30860000  1.0 0.2768360476
H  H135  1  0.61440000  0.31180000  0.15770000  1.0 0.1104876341
H  H136  1  0.51950000  0.33540000  0.23260000  1.0 0.1290996649
H  H137  1  0.33620000  0.28740000  0.09510000  1.0 0.1355955477
H  H138  1  0.43710000  0.26270000  0.02300000  1.0 0.1209811132
H  H139  1  0.20310000  0.34490000  0.39700000  1.0 0.1290996649
H  H140  1  0.07790000  0.33010000  0.43790000  1.0 0.1290996649
H  H141  1  0.01180000  0.25520000  0.26580000  1.0 0.1209811132
H  H142  1  0.13440000  0.27280000  0.22260000  1.0 0.1290996649
H  H143  1  0.01650000  0.10650000  0.37120000  1.0 0.2863582714
H  H144  1  0.08170000  0.05940000  0.43700000  1.0 0.2768360476
H  H145  1  0.89780000  0.20850000  0.22060000  1.0 0.1209811132
H  H146  1  0.95740000  0.17210000  0.31430000  1.0 0.1290996649
H  H147  1  0.97010000  0.04610000  0.21720000  1.0 0.1290996649
H  H148  1  0.89990000  0.08190000  0.11810000  1.0 0.1290996649
H  H149  1  0.09150000  0.00700000  0.53640000  1.0 0.1209811132
H  H150  1  0.12830000  0.93110000  0.58240000  1.0 0.1104876341
H  H151  1  0.15490000  0.88110000  0.39380000  1.0 0.1209811132
H  H152  1  0.12240000  0.95670000  0.34710000  1.0 0.1355955477
H  H153  1  0.50000000  0.92130000  0.88760000  1.0 0.2768360476
H  H154  1  0.50070000  0.83250000  0.99430000  1.0 0.3145977898
H  H155  1  0.52890000  0.07980000  0.84720000  1.0 0.1104876341
H  H156  1  0.48020000  0.00000000  0.85140000  1.0 0.1209811132
H  H157  1  0.65120000  0.97030000  0.00400000  1.0 0.1355955477
H  H158  1  0.69750000  0.04970000  0.99960000  1.0 0.1104876341
H  H159  1  0.34770000  0.84720000  0.92300000  1.0 0.1290996649
H  H160  1  0.28260000  0.82070000  0.81980000  1.0 0.1104876341
H  H161  1  0.50040000  0.79470000  0.74600000  1.0 0.1104876341
H  H162  1  0.56710000  0.82580000  0.84900000  1.0 0.1355955477
H  H163  1  0.81730000  0.06820000  0.90600000  1.0 0.0997148144
H  H164  1  0.93880000  0.99070000  0.81610000  1.0 0.0997148144
H  H165  1  0.91750000  0.99460000  0.89400000  1.0 0.0892100154
H  H166  1  0.84610000  0.99200000  0.83380000  1.0 0.078012156
H  H167  1  0.99400000  0.05550000  0.77710000  1.0 0.1209811132
H  H168  1  0.93760000  0.10260000  0.76810000  1.0 0.1209811132
H  H169  1  0.00290000  0.09800000  0.83280000  1.0 0.1104876341
H  H170  1  0.82870000  0.06550000  0.93230000  1.0 0.0484480455
H  H171  1  0.75510000  0.01880000  0.75110000  1.0 0.1209811132
H  H172  1  0.70640000  0.06100000  0.78600000  1.0 0.0892100154
H  H173  1  0.79140000  0.07260000  0.75600000  1.0 0.0892100154
H  H174  1  0.80310000  0.96660000  0.81940000  1.0 0.0997148144
H  H175  1  0.87300000  0.98150000  0.87700000  1.0 0.0601235784
H  H176  1  0.78110000  0.97640000  0.89620000  1.0 0.0997148144
C  C1  1  0.59870000  0.23260000  0.53910000  1.0 0.5974988385
C  C2  1  0.53400000  0.21470000  0.58150000  1.0 -0.0591244724
C  C3  1  0.55830000  0.19330000  0.64530000  1.0 -0.0687865941
C  C4  1  0.50220000  0.17960000  0.69030000  1.0 -0.2116987972
C  C5  1  0.41880000  0.18830000  0.67220000  1.0 0.2738702341
C  C6  1  0.39230000  0.20830000  0.60870000  1.0 -0.2116987972
C  C7  1  0.45360000  0.22210000  0.56530000  1.0 -0.0903248717
C  C8  1  0.28520000  0.18740000  0.71970000  1.0 0.5826217079
C  C9  1  0.17650000  0.18590000  0.80220000  1.0 0.2283524766
C  C10  1  0.16190000  0.17140000  0.86910000  1.0 -0.1867507243
C  C11  1  0.08900000  0.18080000  0.89360000  1.0 -0.0903248717
C  C12  1  0.02980000  0.20710000  0.85200000  1.0 -0.0267614716
C  C13  1  0.04960000  0.22460000  0.79150000  1.0 -0.0903248717
C  C14  1  0.12230000  0.21440000  0.76560000  1.0 -0.1718929664
C  C15  1  0.95080000  0.22060000  0.88150000  1.0 0.5716073557
C  C16  1  0.85920000  0.32710000  0.59460000  1.0 0.5889980964
C  C17  1  0.89490000  0.35150000  0.65820000  1.0 -0.0397898436
C  C18  1  0.91190000  0.32480000  0.71900000  1.0 -0.0687865941
C  C19  1  0.94730000  0.34630000  0.77350000  1.0 -0.181323745
C  C20  1  0.97040000  0.39460000  0.77360000  1.0 0.2212014931
C  C21  1  0.95450000  0.42080000  0.71770000  1.0 -0.1991203197
C  C22  1  0.91360000  0.39910000  0.65780000  1.0 -0.0903248717
C  C23  1  0.03680000  0.45840000  0.84500000  1.0 0.5889980964
C  C24  1  0.10100000  0.51140000  0.93640000  1.0 0.2424094572
C  C25  1  0.10390000  0.51880000  0.00700000  1.0 -0.2204831323
C  C26  1  0.12510000  0.56410000  0.03430000  1.0 -0.1026290797
C  C27  1  0.14140000  0.60160000  0.99220000  1.0 -0.0481455711
C  C28  1  0.14120000  0.59320000  0.92300000  1.0 -0.0800194845
C  C29  1  0.12150000  0.54840000  0.89500000  1.0 -0.181323745
C  C30  1  0.15690000  0.65190000  0.01660000  1.0 0.5974988385
C  C31  1  0.64640000  0.37650000  0.42340000  1.0 0.550654058
C  C32  1  0.61690000  0.42670000  0.42150000  1.0 -0.0687865941
C  C33  1  0.55450000  0.44220000  0.37940000  1.0 -0.0903248717
C  C34  1  0.52550000  0.49010000  0.38120000  1.0 -0.1991203197
C  C35  1  0.56390000  0.52300000  0.42730000  1.0 0.2283524766
C  C36  1  0.62610000  0.50780000  0.47130000  1.0 -0.181323745
C  C37  1  0.65330000  0.46040000  0.46880000  1.0 -0.1296541181
C  C38  1  0.54410000  0.60500000  0.47300000  1.0 0.6183264001
C  C39  1  0.46320000  0.66150000  0.39560000  1.0 0.2212014931
C  C40  1  0.37880000  0.66300000  0.38710000  1.0 -0.2116987972
C  C41  1  0.34020000  0.67950000  0.32570000  1.0 -0.0591244724
C  C42  1  0.38410000  0.69650000  0.27230000  1.0 -0.1026290797
C  C43  1  0.46920000  0.69440000  0.28150000  1.0 -0.0687865941
C  C44  1  0.50950000  0.67620000  0.34350000  1.0 -0.2302560107
C  C45  1  0.34660000  0.71660000  0.21010000  1.0 0.5826217079
C  C46  1  0.85460000  0.41680000  0.37840000  1.0 0.2072941705
C  C47  1  0.90080000  0.49580000  0.34680000  1.0 -0.1517449461
C  C48  1  0.96460000  0.41990000  0.30130000  1.0 -0.3997377374
C  C49  1  0.75250000  0.36170000  0.22940000  1.0 -0.2375100708
C  C50  1  0.81300000  0.42630000  0.38610000  1.0 0.1789870418
C  C51  1  0.76000000  0.45180000  0.27920000  1.0 -0.2204831323
C  C52  1  0.81600000  0.51380000  0.36000000  1.0 -0.2204831323
C  C53  1  0.40130000  0.73260000  0.96090000  1.0 0.5974988385
C  C54  1  0.46600000  0.71470000  0.91850000  1.0 -0.0591244724
C  C55  1  0.44170000  0.69330000  0.85470000  1.0 -0.0687865941
C  C56  1  0.49780000  0.67960000  0.80970000  1.0 -0.2116987972
C  C57  1  0.58120000  0.68830000  0.82780000  1.0 0.2738702341
C  C58  1  0.60770000  0.70830000  0.89130000  1.0 -0.2116987972
C  C59  1  0.54640000  0.72210000  0.93470000  1.0 -0.0903248717
C  C60  1  0.71480000  0.68740000  0.78030000  1.0 0.5826217079
C  C61  1  0.82350000  0.68590000  0.69780000  1.0 0.2283524766
C  C62  1  0.83810000  0.67140000  0.63090000  1.0 -0.1867507243
C  C63  1  0.91100000  0.68080000  0.60640000  1.0 -0.0903248717
C  C64  1  0.97020000  0.70710000  0.64800000  1.0 -0.0267614716
C  C65  1  0.95040000  0.72460000  0.70850000  1.0 -0.0903248717
C  C66  1  0.87770000  0.71440000  0.73440000  1.0 -0.1718929664
C  C67  1  0.04920000  0.72060000  0.61850000  1.0 0.5716073557
C  C68  1  0.14080000  0.82710000  0.90540000  1.0 0.5889980964
C  C69  1  0.10510000  0.85150000  0.84180000  1.0 -0.0397898436
C  C70  1  0.08810000  0.82480000  0.78100000  1.0 -0.0687865941
C  C71  1  0.05270000  0.84630000  0.72650000  1.0 -0.181323745
C  C72  1  0.02960000  0.89460000  0.72640000  1.0 0.2212014931
C  C73  1  0.04550000  0.92080000  0.78230000  1.0 -0.1991203197
C  C74  1  0.08640000  0.89910000  0.84220000  1.0 -0.0903248717
C  C75  1  0.96320000  0.95840000  0.65500000  1.0 0.5889980964
C  C76  1  0.89900000  0.01140000  0.56360000  1.0 0.2424094572
C  C77  1  0.89610000  0.01880000  0.49300000  1.0 -0.2204831323
C  C78  1  0.87490000  0.06410000  0.46570000  1.0 -0.1026290797
C  C79  1  0.85860000  0.10160000  0.50780000  1.0 -0.0481455711
C  C80  1  0.85880000  0.09320000  0.57700000  1.0 -0.0800194845
C  C81  1  0.87850000  0.04840000  0.60500000  1.0 -0.181323745
C  C82  1  0.84310000  0.15190000  0.48340000  1.0 0.5974988385
C  C83  1  0.35360000  0.87650000  0.07660000  1.0 0.550654058
C  C84  1  0.38310000  0.92670000  0.07850000  1.0 -0.0687865941
C  C85  1  0.44550000  0.94220000  0.12060000  1.0 -0.0903248717
C  C86  1  0.47450000  0.99010000  0.11880000  1.0 -0.1991203197
C  C87  1  0.43610000  0.02300000  0.07270000  1.0 0.2283524766
C  C88  1  0.37390000  0.00780000  0.02870000  1.0 -0.181323745
C  C89  1  0.34670000  0.96040000  0.03120000  1.0 -0.1296541181
C  C90  1  0.45590000  0.10500000  0.02700000  1.0 0.6183264001
C  C91  1  0.53680000  0.16150000  0.10440000  1.0 0.2212014931
C  C92  1  0.62120000  0.16300000  0.11290000  1.0 -0.2116987972
C  C93  1  0.65980000  0.17950000  0.17430000  1.0 -0.0591244724
C  C94  1  0.61590000  0.19650000  0.22770000  1.0 -0.1026290797
C  C95  1  0.53080000  0.19440000  0.21850000  1.0 -0.0687865941
C  C96  1  0.49050000  0.17620000  0.15650000  1.0 -0.2302560107
C  C97  1  0.65340000  0.21660000  0.28990000  1.0 0.5826217079
C  C98  1  0.14540000  0.91680000  0.12160000  1.0 0.2072941705
C  C99  1  0.09920000  0.99580000  0.15320000  1.0 -0.1517449461
C  C100  1  0.03540000  0.91990000  0.19870000  1.0 -0.3997377374
C  C101  1  0.24750000  0.86170000  0.27060000  1.0 -0.2375100708
C  C102  1  0.18700000  0.92630000  0.11390000  1.0 0.1789870418
C  C103  1  0.24000000  0.95180000  0.22080000  1.0 -0.2204831323
C  C104  1  0.18400000  0.01380000  0.14000000  1.0 -0.2204831323
C  C105  1  0.40130000  0.76740000  0.46090000  1.0 0.5974988385
C  C106  1  0.46600000  0.78530000  0.41850000  1.0 -0.0591244724
C  C107  1  0.44170000  0.80670000  0.35470000  1.0 -0.0687865941
C  C108  1  0.49780000  0.82040000  0.30970000  1.0 -0.2116987972
C  C109  1  0.58120000  0.81170000  0.32780000  1.0 0.2738702341
C  C110  1  0.60770000  0.79170000  0.39130000  1.0 -0.2116987972
C  C111  1  0.54640000  0.77790000  0.43470000  1.0 -0.0903248717
C  C112  1  0.71480000  0.81260000  0.28030000  1.0 0.5826217079
C  C113  1  0.82350000  0.81410000  0.19780000  1.0 0.2283524766
C  C114  1  0.83810000  0.82860000  0.13090000  1.0 -0.1867507243
C  C115  1  0.91100000  0.81920000  0.10640000  1.0 -0.0903248717
C  C116  1  0.97020000  0.79290000  0.14800000  1.0 -0.0267614716
C  C117  1  0.95040000  0.77540000  0.20850000  1.0 -0.0903248717
C  C118  1  0.87770000  0.78560000  0.23440000  1.0 -0.1718929664
C  C119  1  0.04920000  0.77940000  0.11850000  1.0 0.5716073557
C  C120  1  0.14080000  0.67290000  0.40540000  1.0 0.5889980964
C  C121  1  0.10510000  0.64850000  0.34180000  1.0 -0.0397898436
C  C122  1  0.08810000  0.67520000  0.28100000  1.0 -0.0687865941
C  C123  1  0.05270000  0.65370000  0.22650000  1.0 -0.181323745
C  C124  1  0.02960000  0.60540000  0.22640000  1.0 0.2212014931
C  C125  1  0.04550000  0.57920000  0.28230000  1.0 -0.1991203197
C  C126  1  0.08640000  0.60090000  0.34220000  1.0 -0.0903248717
C  C127  1  0.96320000  0.54160000  0.15500000  1.0 0.5826217079
C  C128  1  0.89900000  0.48860000  0.06360000  1.0 0.2424094572
C  C129  1  0.89610000  0.48120000  0.99300000  1.0 -0.2204831323
C  C130  1  0.87490000  0.43590000  0.96570000  1.0 -0.1026290797
C  C131  1  0.85860000  0.39840000  0.00780000  1.0 -0.0481455711
C  C132  1  0.85880000  0.40680000  0.07700000  1.0 -0.0800194845
C  C133  1  0.87850000  0.45160000  0.10500000  1.0 -0.181323745
C  C134  1  0.84310000  0.34810000  0.98340000  1.0 0.5974988385
C  C135  1  0.35360000  0.62350000  0.57660000  1.0 0.550654058
C  C136  1  0.38310000  0.57330000  0.57850000  1.0 -0.0687865941
C  C137  1  0.44550000  0.55780000  0.62060000  1.0 -0.0903248717
C  C138  1  0.47450000  0.50990000  0.61880000  1.0 -0.1991203197
C  C139  1  0.43610000  0.47700000  0.57270000  1.0 0.2283524766
C  C140  1  0.37390000  0.49220000  0.52870000  1.0 -0.181323745
C  C141  1  0.34670000  0.53960000  0.53120000  1.0 -0.1296541181
C  C142  1  0.45590000  0.39500000  0.52700000  1.0 0.6183264001
C  C143  1  0.53680000  0.33850000  0.60440000  1.0 0.2212014931
C  C144  1  0.62120000  0.33700000  0.61290000  1.0 -0.2116987972
C  C145  1  0.65980000  0.32050000  0.67430000  1.0 -0.0591244724
C  C146  1  0.61590000  0.30350000  0.72770000  1.0 -0.1026290797
C  C147  1  0.53080000  0.30560000  0.71850000  1.0 -0.0687865941
C  C148  1  0.49050000  0.32380000  0.65650000  1.0 -0.2302560107
C  C149  1  0.65340000  0.28340000  0.78990000  1.0 0.5826217079
C  C150  1  0.14540000  0.58320000  0.62160000  1.0 0.2072941705
C  C151  1  0.09920000  0.50420000  0.65320000  1.0 -0.1517449461
C  C152  1  0.03540000  0.58010000  0.69870000  1.0 -0.3997377374
C  C153  1  0.24750000  0.63830000  0.77060000  1.0 -0.2375100708
C  C154  1  0.18700000  0.57370000  0.61390000  1.0 0.1789870418
C  C155  1  0.24000000  0.54820000  0.72080000  1.0 -0.2204831323
C  C156  1  0.18400000  0.48620000  0.64000000  1.0 -0.2204831323
C  C157  1  0.59870000  0.26740000  0.03910000  1.0 0.5974988385
C  C158  1  0.53400000  0.28530000  0.08150000  1.0 -0.0591244724
C  C159  1  0.55830000  0.30670000  0.14530000  1.0 -0.0687865941
C  C160  1  0.50220000  0.32040000  0.19030000  1.0 -0.2116987972
C  C161  1  0.41880000  0.31170000  0.17220000  1.0 0.2738702341
C  C162  1  0.39230000  0.29170000  0.10870000  1.0 -0.2116987972
C  C163  1  0.45360000  0.27790000  0.06530000  1.0 -0.0903248717
C  C164  1  0.28520000  0.31260000  0.21970000  1.0 0.5826217079
C  C165  1  0.17650000  0.31410000  0.30220000  1.0 0.2283524766
C  C166  1  0.16190000  0.32860000  0.36910000  1.0 -0.1867507243
C  C167  1  0.08900000  0.31920000  0.39360000  1.0 -0.0903248717
C  C168  1  0.02980000  0.29290000  0.35200000  1.0 -0.0267614716
C  C169  1  0.04960000  0.27540000  0.29150000  1.0 -0.0903248717
C  C170  1  0.12230000  0.28560000  0.26560000  1.0 -0.1718929664
C  C171  1  0.95080000  0.27940000  0.38150000  1.0 0.5716073557
C  C172  1  0.85920000  0.17290000  0.09460000  1.0 0.5889980964
C  C173  1  0.89490000  0.14850000  0.15820000  1.0 -0.0397898436
C  C174  1  0.91190000  0.17520000  0.21900000  1.0 -0.0687865941
C  C175  1  0.94730000  0.15370000  0.27350000  1.0 -0.181323745
C  C176  1  0.97040000  0.10540000  0.27360000  1.0 0.2212014931
C  C177  1  0.95450000  0.07920000  0.21770000  1.0 -0.1991203197
C  C178  1  0.91360000  0.10090000  0.15780000  1.0 -0.0903248717
C  C179  1  0.03680000  0.04160000  0.34500000  1.0 0.5889980964
C  C180  1  0.10100000  0.98860000  0.43640000  1.0 0.2424094572
C  C181  1  0.10390000  0.98120000  0.50700000  1.0 -0.2204831323
C  C182  1  0.12510000  0.93590000  0.53430000  1.0 -0.1026290797
C  C183  1  0.14140000  0.89840000  0.49220000  1.0 -0.0481455711
C  C184  1  0.14120000  0.90680000  0.42300000  1.0 -0.0800194845
C  C185  1  0.12150000  0.95160000  0.39500000  1.0 -0.181323745
C  C186  1  0.15690000  0.84810000  0.51660000  1.0 0.5974988385
C  C187  1  0.64640000  0.12350000  0.92340000  1.0 0.550654058
C  C188  1  0.61690000  0.07330000  0.92150000  1.0 -0.0687865941
C  C189  1  0.55450000  0.05780000  0.87940000  1.0 -0.0903248717
C  C190  1  0.52550000  0.00990000  0.88120000  1.0 -0.1991203197
C  C191  1  0.56390000  0.97700000  0.92730000  1.0 0.2283524766
C  C192  1  0.62610000  0.99220000  0.97130000  1.0 -0.181323745
C  C193  1  0.65330000  0.03960000  0.96880000  1.0 -0.1296541181
C  C194  1  0.54410000  0.89500000  0.97300000  1.0 0.6183264001
C  C195  1  0.46320000  0.83850000  0.89560000  1.0 0.2212014931
C  C196  1  0.37880000  0.83700000  0.88710000  1.0 -0.2116987972
C  C197  1  0.34020000  0.82050000  0.82570000  1.0 -0.0591244724
C  C198  1  0.38410000  0.80350000  0.77230000  1.0 -0.1026290797
C  C199  1  0.46920000  0.80560000  0.78150000  1.0 -0.0687865941
C  C200  1  0.50950000  0.82380000  0.84350000  1.0 -0.2302560107
C  C201  1  0.34660000  0.78340000  0.71010000  1.0 0.5826217079
C  C202  1  0.85460000  0.08320000  0.87840000  1.0 0.2072941705
C  C203  1  0.90080000  0.00420000  0.84680000  1.0 -0.1517449461
C  C204  1  0.96460000  0.08010000  0.80130000  1.0 -0.3997377374
C  C205  1  0.75250000  0.13830000  0.72940000  1.0 -0.2302560107
C  C206  1  0.81300000  0.07370000  0.88610000  1.0 0.1789870418
C  C207  1  0.76000000  0.04820000  0.77920000  1.0 -0.2204831323
C  C208  1  0.81600000  0.98620000  0.86000000  1.0 -0.2204831323
S  S1  1  0.79220000  0.31182000  0.22080000  1.0 -0.0397898436
S  S2  1  0.70910000  0.41090000  0.23960000  1.0 0.0211130103
S  S3  1  0.20780000  0.81182000  0.27920000  1.0 -0.0397898436
S  S4  1  0.29090000  0.91090000  0.26040000  1.0 0.0211130103
S  S5  1  0.20780000  0.68818000  0.77920000  1.0 -0.0397898436
S  S6  1  0.29090000  0.58910000  0.76040000  1.0 0.0211130103
S  S7  1  0.79220000  0.18818000  0.72080000  1.0 -0.0397898436
S  S8  1  0.70910000  0.08910000  0.73960000  1.0 0.0211130103
N  N1  1  0.36680000  0.17660000  0.72000000  1.0 -0.3997377374
N  N2  1  0.25480000  0.17390000  0.78040000  1.0 -0.4267805354
N  N3  1  0.00980000  0.41330000  0.83610000  1.0 -0.424366887
N  N4  1  0.07410000  0.46600000  0.91000000  1.0 -0.4393016718
N  N5  1  0.53130000  0.57080000  0.42440000  1.0 -0.405812356
N  N6  1  0.50300000  0.64720000  0.45990000  1.0 -0.4393016718
N  N7  1  0.90110000  0.44450000  0.34180000  1.0 -0.0903248717
N  N8  1  0.80200000  0.46310000  0.34410000  1.0 0.0365680612
N  N9  1  0.63320000  0.67660000  0.78000000  1.0 -0.3997377374
N  N10  1  0.74520000  0.67390000  0.71960000  1.0 -0.4267805354
N  N11  1  0.99020000  0.91330000  0.66390000  1.0 -0.424366887
N  N12  1  0.92590000  0.96600000  0.59000000  1.0 -0.4393016718
N  N13  1  0.46870000  0.07080000  0.07560000  1.0 -0.405812356
N  N14  1  0.49700000  0.14720000  0.04010000  1.0 -0.4393016718
N  N15  1  0.09890000  0.94450000  0.15820000  1.0 -0.0903248717
N  N16  1  0.19800000  0.96310000  0.15590000  1.0 0.0365680612
N  N17  1  0.63320000  0.82340000  0.28000000  1.0 -0.3997377374
N  N18  1  0.74520000  0.82610000  0.21960000  1.0 -0.4267805354
N  N19  1  0.99020000  0.58670000  0.16390000  1.0 -0.424366887
N  N20  1  0.92590000  0.53400000  0.09000000  1.0 -0.4393016718
N  N21  1  0.46870000  0.42920000  0.57560000  1.0 -0.405812356
N  N22  1  0.49700000  0.35280000  0.54010000  1.0 -0.4393016718
N  N23  1  0.09890000  0.55550000  0.65820000  1.0 -0.0903248717
N  N24  1  0.19800000  0.53690000  0.65590000  1.0 0.0365680612
N  N25  1  0.36680000  0.32340000  0.22000000  1.0 -0.3997377374
N  N26  1  0.25480000  0.32610000  0.28040000  1.0 -0.4267805354
N  N27  1  0.00980000  0.08670000  0.33610000  1.0 -0.4267805354
N  N28  1  0.07410000  0.03400000  0.41000000  1.0 -0.4393016718
N  N29  1  0.53130000  0.92920000  0.92440000  1.0 -0.405812356
N  N30  1  0.50300000  0.85280000  0.95990000  1.0 -0.4393016718
N  N31  1  0.90110000  0.05550000  0.84180000  1.0 -0.0903248717
N  N32  1  0.80200000  0.03690000  0.84410000  1.0 0.0365680612
O  O1  1  0.24560000  0.20490000  0.67240000  1.0 -0.4574083642
O  O2  1  0.67060000  0.22330000  0.56050000  1.0 -0.5288649704
O  O3  1  0.57550000  0.25560000  0.48510000  1.0 -0.5687157319
O  O4  1  0.93410000  0.20440000  0.93840000  1.0 -0.5387692457
O  O5  1  0.90540000  0.24870000  0.84530000  1.0 -0.5387692457
O  O6  1  0.75920000  0.26920000  0.43820000  1.0 -0.9988995151
O  O7  1  0.03630000  0.48950000  0.80460000  1.0 -0.4478260235
O  O8  1  0.85480000  0.35240000  0.54000000  1.0 -0.559319462
O  O9  1  0.83010000  0.28470000  0.59870000  1.0 -0.5506887492
O  O10  1  0.16220000  0.68390000  0.97260000  1.0 -0.5288649704
O  O11  1  0.16620000  0.65930000  0.08020000  1.0 -0.5506887492
O  O12  1  0.58830000  0.59980000  0.52670000  1.0 -0.5288649704
O  O13  1  0.60590000  0.34450000  0.39280000  1.0 -0.4933709905
O  O14  1  0.71130000  0.36820000  0.46060000  1.0 -0.5687157319
O  O15  1  0.26910000  0.71000000  0.20110000  1.0 -0.5506887492
O  O16  1  0.38700000  0.73950000  0.16980000  1.0 -0.5387692457
O  O17  1  0.85890000  0.37190000  0.37710000  1.0 -0.117278281
O  O18  1  0.80460000  0.38270000  0.37470000  1.0 -0.0903248717
O  O19  1  0.75440000  0.70490000  0.82760000  1.0 -0.4478260235
O  O20  1  0.32940000  0.72330000  0.93950000  1.0 -0.5288649704
O  O21  1  0.42450000  0.75560000  0.01490000  1.0 -0.5687157319
O  O22  1  0.06590000  0.70440000  0.56160000  1.0 -0.5387692457
O  O23  1  0.09460000  0.74870000  0.65470000  1.0 -0.5387692457
O  O24  1  0.24080000  0.76920000  0.06180000  1.0 -0.9988995151
O  O25  1  0.96370000  0.98950000  0.69540000  1.0 -0.4478260235
O  O26  1  0.14520000  0.85240000  0.96000000  1.0 -0.559319462
O  O27  1  0.16990000  0.78470000  0.90130000  1.0 -0.5506887492
O  O28  1  0.83780000  0.18390000  0.52740000  1.0 -0.5288649704
O  O29  1  0.83380000  0.15930000  0.41980000  1.0 -0.5506887492
O  O30  1  0.41170000  0.09980000  0.97330000  1.0 -0.5288649704
O  O31  1  0.39410000  0.84450000  0.10720000  1.0 -0.4933709905
O  O32  1  0.28870000  0.86820000  0.03940000  1.0 -0.5687157319
O  O33  1  0.73090000  0.21000000  0.29890000  1.0 -0.5506887492
O  O34  1  0.61300000  0.23950000  0.33020000  1.0 -0.5387692457
O  O35  1  0.14110000  0.87190000  0.12290000  1.0 -0.117278281
O  O36  1  0.19540000  0.88270000  0.12530000  1.0 -0.0903248717
O  O37  1  0.75440000  0.79510000  0.32760000  1.0 -0.4574083642
O  O38  1  0.32940000  0.77670000  0.43950000  1.0 -0.5288649704
O  O39  1  0.42450000  0.74440000  0.51490000  1.0 -0.5687157319
O  O40  1  0.06590000  0.79560000  0.06160000  1.0 -0.5387692457
O  O41  1  0.09460000  0.75130000  0.15470000  1.0 -0.5387692457
O  O42  1  0.24080000  0.73080000  0.56180000  1.0 -0.9988995151
O  O43  1  0.96370000  0.51050000  0.19540000  1.0 -0.4478260235
O  O44  1  0.14520000  0.64760000  0.46000000  1.0 -0.559319462
O  O45  1  0.16990000  0.71530000  0.40130000  1.0 -0.5506887492
O  O46  1  0.83780000  0.31610000  0.02740000  1.0 -0.5288649704
O  O47  1  0.83380000  0.34070000  0.91980000  1.0 -0.5506887492
O  O48  1  0.41170000  0.40020000  0.47330000  1.0 -0.5288649704
O  O49  1  0.39410000  0.65550000  0.60720000  1.0 -0.4933709905
O  O50  1  0.28870000  0.63180000  0.53940000  1.0 -0.5687157319
O  O51  1  0.73090000  0.29000000  0.79890000  1.0 -0.5506887492
O  O52  1  0.61300000  0.26050000  0.83020000  1.0 -0.5387692457
O  O53  1  0.14110000  0.62810000  0.62290000  1.0 -0.1137206064
O  O54  1  0.19540000  0.61730000  0.62530000  1.0 -0.0903248717
O  O55  1  0.24560000  0.29510000  0.17240000  1.0 -0.4574083642
O  O56  1  0.67060000  0.27670000  0.06050000  1.0 -0.5288649704
O  O57  1  0.57550000  0.24440000  0.98510000  1.0 -0.5687157319
O  O58  1  0.93410000  0.29560000  0.43840000  1.0 -0.5387692457
O  O59  1  0.90540000  0.25130000  0.34530000  1.0 -0.5387692457
O  O60  1  0.75920000  0.23080000  0.93820000  1.0 -0.9988995151
O  O61  1  0.03630000  0.01050000  0.30460000  1.0 -0.4393016718
O  O62  1  0.85480000  0.14760000  0.04000000  1.0 -0.559319462
O  O63  1  0.83010000  0.21530000  0.09870000  1.0 -0.5506887492
O  O64  1  0.16220000  0.81610000  0.47260000  1.0 -0.5288649704
O  O65  1  0.16620000  0.84070000  0.58020000  1.0 -0.5506887492
O  O66  1  0.58830000  0.90020000  0.02670000  1.0 -0.5288649704
O  O67  1  0.60590000  0.15550000  0.89280000  1.0 -0.4933709905
O  O68  1  0.71130000  0.13180000  0.96060000  1.0 -0.5687157319
O  O69  1  0.26910000  0.79000000  0.70110000  1.0 -0.5506887492
O  O70  1  0.38700000  0.76050000  0.66980000  1.0 -0.5387692457
O  O71  1  0.85890000  0.12810000  0.87710000  1.0 -0.117278281
O  O72  1  0.80460000  0.11730000  0.87470000  1.0 -0.0903248717
