# DDEC6 charges by PACMAN v1.1 (https://github.com/mtap-research/PACMAN-charge/)
data_FERHAN_ASR_pacman
_symmetry_space_group_name_H-M   'P 1'
_cell_length_a   17.10310000
_cell_length_b   17.10310000
_cell_length_c   17.10310000
_cell_angle_alpha   87.66670000
_cell_angle_beta   87.66670000
_cell_angle_gamma   87.66670000
_symmetry_Int_Tables_number   1
_chemical_formula_structural   Zn4H72C96O37
_chemical_formula_sum   'Zn8 H144 C192 O74'
_cell_volume   4990.81523832
_cell_formula_units_Z   2
loop_
 _symmetry_equiv_pos_site_id
 _symmetry_equiv_pos_as_xyz
  1  'x, y, z'
loop_
 _atom_site_type_symbol
 _atom_site_label
 _atom_site_symmetry_multiplicity
 _atom_site_fract_x
 _atom_site_fract_y
 _atom_site_fract_z
 _atom_site_occupancy
 _atom_site_charge
Zn  Zn1  1  0.75347000  0.75347000  0.75347000  1.0 0.6706611088
Zn  Zn2  1  0.88428000  0.88426000  0.75375000  1.0 0.7860453398
Zn  Zn3  1  0.88426000  0.75375000  0.88428000  1.0 0.7860453398
Zn  Zn4  1  0.75375000  0.88428000  0.88426000  1.0 0.7860453398
Zn  Zn5  1  0.24653000  0.24653000  0.24653000  1.0 0.6706611088
Zn  Zn6  1  0.11572000  0.11574000  0.24625000  1.0 0.7860453398
Zn  Zn7  1  0.11574000  0.24625000  0.11572000  1.0 0.7860453398
Zn  Zn8  1  0.24625000  0.11572000  0.11574000  1.0 0.7860453398
H  H1  1  0.91400000  0.90860000  0.50330000  1.0 0.1297877942
H  H2  1  0.90860000  0.50330000  0.91400000  1.0 0.1297877942
H  H3  1  0.50330000  0.91400000  0.90860000  1.0 0.1297877942
H  H4  1  0.73170000  0.76210000  0.38630000  1.0 0.08983153
H  H5  1  0.76210000  0.38630000  0.73170000  1.0 0.08983153
H  H6  1  0.38630000  0.73170000  0.76210000  1.0 0.08983153
H  H7  1  0.72900000  0.77020000  0.52160000  1.0 0.08983153
H  H8  1  0.77020000  0.52160000  0.72900000  1.0 0.08983153
H  H9  1  0.52160000  0.72900000  0.77020000  1.0 0.08983153
H  H10  1  0.01430000  0.99010000  0.34280000  1.0 0.1440158507
H  H11  1  0.99010000  0.34280000  0.01430000  1.0 0.1440158507
H  H12  1  0.34280000  0.01430000  0.99010000  1.0 0.1440158507
H  H13  1  0.00070000  0.94910000  0.42770000  1.0 0.1005860542
H  H14  1  0.94910000  0.42770000  0.00070000  1.0 0.1005860542
H  H15  1  0.42770000  0.00070000  0.94910000  1.0 0.1005860542
H  H16  1  0.94010000  0.01610000  0.39700000  1.0 0.1117604582
H  H17  1  0.01610000  0.39700000  0.94010000  1.0 0.1117604582
H  H18  1  0.39700000  0.94010000  0.01610000  1.0 0.1117604582
H  H19  1  0.88410000  0.71780000  0.13420000  1.0 0.08983153
H  H20  1  0.71780000  0.13420000  0.88410000  1.0 0.08983153
H  H21  1  0.13420000  0.88410000  0.71780000  1.0 0.08983153
H  H22  1  0.75160000  0.92380000  0.25810000  1.0 0.1297877942
H  H23  1  0.92380000  0.25810000  0.75160000  1.0 0.1297877942
H  H24  1  0.25810000  0.75160000  0.92380000  1.0 0.1297877942
H  H25  1  0.74950000  0.91620000  0.12260000  1.0 0.08983153
H  H26  1  0.91620000  0.12260000  0.74950000  1.0 0.08983153
H  H27  1  0.12260000  0.74950000  0.91620000  1.0 0.08983153
H  H28  1  0.96300000  0.60870000  0.28140000  1.0 0.1249764881
H  H29  1  0.60870000  0.28140000  0.96300000  1.0 0.1249764881
H  H30  1  0.28140000  0.96300000  0.60870000  1.0 0.1249764881
H  H31  1  0.97220000  0.66030000  0.20170000  1.0 0.08983153
H  H32  1  0.66030000  0.20170000  0.97220000  1.0 0.08983153
H  H33  1  0.20170000  0.97220000  0.66030000  1.0 0.08983153
H  H34  1  0.89430000  0.61300000  0.22040000  1.0 0.1117604582
H  H35  1  0.61300000  0.22040000  0.89430000  1.0 0.1117604582
H  H36  1  0.22040000  0.89430000  0.61300000  1.0 0.1117604582
H  H37  1  0.91110000  0.91620000  0.50280000  1.0 0.1249764881
H  H38  1  0.91620000  0.50280000  0.91110000  1.0 0.1249764881
H  H39  1  0.50280000  0.91110000  0.91620000  1.0 0.1249764881
H  H40  1  0.76510000  0.73240000  0.38800000  1.0 0.1005860542
H  H41  1  0.73240000  0.38800000  0.76510000  1.0 0.1005860542
H  H42  1  0.38800000  0.76510000  0.73240000  1.0 0.1005860542
H  H43  1  0.77450000  0.73030000  0.52290000  1.0 0.08983153
H  H44  1  0.73030000  0.52290000  0.77450000  1.0 0.08983153
H  H45  1  0.52290000  0.77450000  0.73030000  1.0 0.08983153
H  H46  1  0.00140000  0.00630000  0.34070000  1.0 0.1440158507
H  H47  1  0.00630000  0.34070000  0.00140000  1.0 0.1440158507
H  H48  1  0.34070000  0.00140000  0.00630000  1.0 0.1440158507
H  H49  1  0.01120000  0.93960000  0.40840000  1.0 0.1117604582
H  H50  1  0.93960000  0.40840000  0.01120000  1.0 0.1117604582
H  H51  1  0.40840000  0.01120000  0.93960000  1.0 0.1117604582
H  H52  1  0.94890000  0.01090000  0.42010000  1.0 0.1005860542
H  H53  1  0.01090000  0.42010000  0.94890000  1.0 0.1005860542
H  H54  1  0.42010000  0.94890000  0.01090000  1.0 0.1005860542
H  H55  1  0.71740000  0.88370000  0.13470000  1.0 0.08983153
H  H56  1  0.88370000  0.13470000  0.71740000  1.0 0.08983153
H  H57  1  0.13470000  0.71740000  0.88370000  1.0 0.08983153
H  H58  1  0.92550000  0.75380000  0.25690000  1.0 0.1297877942
H  H59  1  0.75380000  0.25690000  0.92550000  1.0 0.1297877942
H  H60  1  0.25690000  0.92550000  0.75380000  1.0 0.1297877942
H  H61  1  0.91750000  0.75160000  0.12220000  1.0 0.08983153
H  H62  1  0.75160000  0.12220000  0.91750000  1.0 0.08983153
H  H63  1  0.12220000  0.91750000  0.75160000  1.0 0.08983153
H  H64  1  0.60860000  0.96180000  0.28240000  1.0 0.1297877942
H  H65  1  0.96180000  0.28240000  0.60860000  1.0 0.1297877942
H  H66  1  0.28240000  0.60860000  0.96180000  1.0 0.1297877942
H  H67  1  0.61330000  0.89330000  0.22110000  1.0 0.1117604582
H  H68  1  0.89330000  0.22110000  0.61330000  1.0 0.1117604582
H  H69  1  0.22110000  0.61330000  0.89330000  1.0 0.1117604582
H  H70  1  0.66010000  0.97150000  0.20260000  1.0 0.08983153
H  H71  1  0.97150000  0.20260000  0.66010000  1.0 0.08983153
H  H72  1  0.20260000  0.66010000  0.97150000  1.0 0.08983153
H  H73  1  0.08600000  0.09140000  0.49670000  1.0 0.1297877942
H  H74  1  0.09140000  0.49670000  0.08600000  1.0 0.1297877942
H  H75  1  0.49670000  0.08600000  0.09140000  1.0 0.1297877942
H  H76  1  0.26830000  0.23790000  0.61370000  1.0 0.08983153
H  H77  1  0.23790000  0.61370000  0.26830000  1.0 0.08983153
H  H78  1  0.61370000  0.26830000  0.23790000  1.0 0.08983153
H  H79  1  0.27100000  0.22980000  0.47840000  1.0 0.08983153
H  H80  1  0.22980000  0.47840000  0.27100000  1.0 0.08983153
H  H81  1  0.47840000  0.27100000  0.22980000  1.0 0.08983153
H  H82  1  0.98570000  0.00990000  0.65720000  1.0 0.1440158507
H  H83  1  0.00990000  0.65720000  0.98570000  1.0 0.1440158507
H  H84  1  0.65720000  0.98570000  0.00990000  1.0 0.1440158507
H  H85  1  0.99930000  0.05090000  0.57230000  1.0 0.1005860542
H  H86  1  0.05090000  0.57230000  0.99930000  1.0 0.1005860542
H  H87  1  0.57230000  0.99930000  0.05090000  1.0 0.1005860542
H  H88  1  0.05990000  0.98390000  0.60300000  1.0 0.1117604582
H  H89  1  0.98390000  0.60300000  0.05990000  1.0 0.1117604582
H  H90  1  0.60300000  0.05990000  0.98390000  1.0 0.1117604582
H  H91  1  0.11590000  0.28220000  0.86580000  1.0 0.08983153
H  H92  1  0.28220000  0.86580000  0.11590000  1.0 0.08983153
H  H93  1  0.86580000  0.11590000  0.28220000  1.0 0.08983153
H  H94  1  0.24840000  0.07620000  0.74190000  1.0 0.1297877942
H  H95  1  0.07620000  0.74190000  0.24840000  1.0 0.1297877942
H  H96  1  0.74190000  0.24840000  0.07620000  1.0 0.1297877942
H  H97  1  0.25050000  0.08380000  0.87740000  1.0 0.08983153
H  H98  1  0.08380000  0.87740000  0.25050000  1.0 0.08983153
H  H99  1  0.87740000  0.25050000  0.08380000  1.0 0.08983153
H  H100  1  0.03700000  0.39130000  0.71860000  1.0 0.1249764881
H  H101  1  0.39130000  0.71860000  0.03700000  1.0 0.1249764881
H  H102  1  0.71860000  0.03700000  0.39130000  1.0 0.1249764881
H  H103  1  0.02780000  0.33970000  0.79830000  1.0 0.08983153
H  H104  1  0.33970000  0.79830000  0.02780000  1.0 0.08983153
H  H105  1  0.79830000  0.02780000  0.33970000  1.0 0.08983153
H  H106  1  0.10570000  0.38700000  0.77960000  1.0 0.1117604582
H  H107  1  0.38700000  0.77960000  0.10570000  1.0 0.1117604582
H  H108  1  0.77960000  0.10570000  0.38700000  1.0 0.1117604582
H  H109  1  0.08890000  0.08380000  0.49720000  1.0 0.1249764881
H  H110  1  0.08380000  0.49720000  0.08890000  1.0 0.1249764881
H  H111  1  0.49720000  0.08890000  0.08380000  1.0 0.1249764881
H  H112  1  0.23490000  0.26760000  0.61200000  1.0 0.1005860542
H  H113  1  0.26760000  0.61200000  0.23490000  1.0 0.1005860542
H  H114  1  0.61200000  0.23490000  0.26760000  1.0 0.1005860542
H  H115  1  0.22550000  0.26970000  0.47710000  1.0 0.08983153
H  H116  1  0.26970000  0.47710000  0.22550000  1.0 0.08983153
H  H117  1  0.47710000  0.22550000  0.26970000  1.0 0.08983153
H  H118  1  0.99860000  0.99370000  0.65930000  1.0 0.1440158507
H  H119  1  0.99370000  0.65930000  0.99860000  1.0 0.1440158507
H  H120  1  0.65930000  0.99860000  0.99370000  1.0 0.1440158507
H  H121  1  0.98880000  0.06040000  0.59160000  1.0 0.1117604582
H  H122  1  0.06040000  0.59160000  0.98880000  1.0 0.1117604582
H  H123  1  0.59160000  0.98880000  0.06040000  1.0 0.1117604582
H  H124  1  0.05110000  0.98910000  0.57990000  1.0 0.1005860542
H  H125  1  0.98910000  0.57990000  0.05110000  1.0 0.1005860542
H  H126  1  0.57990000  0.05110000  0.98910000  1.0 0.1005860542
H  H127  1  0.28260000  0.11630000  0.86530000  1.0 0.08983153
H  H128  1  0.11630000  0.86530000  0.28260000  1.0 0.08983153
H  H129  1  0.86530000  0.28260000  0.11630000  1.0 0.08983153
H  H130  1  0.07450000  0.24620000  0.74310000  1.0 0.1297877942
H  H131  1  0.24620000  0.74310000  0.07450000  1.0 0.1297877942
H  H132  1  0.74310000  0.07450000  0.24620000  1.0 0.1297877942
H  H133  1  0.08250000  0.24840000  0.87780000  1.0 0.08983153
H  H134  1  0.24840000  0.87780000  0.08250000  1.0 0.08983153
H  H135  1  0.87780000  0.08250000  0.24840000  1.0 0.08983153
H  H136  1  0.39140000  0.03820000  0.71760000  1.0 0.1297877942
H  H137  1  0.03820000  0.71760000  0.39140000  1.0 0.1297877942
H  H138  1  0.71760000  0.39140000  0.03820000  1.0 0.1297877942
H  H139  1  0.38670000  0.10670000  0.77890000  1.0 0.1117604582
H  H140  1  0.10670000  0.77890000  0.38670000  1.0 0.1117604582
H  H141  1  0.77890000  0.38670000  0.10670000  1.0 0.1117604582
H  H142  1  0.33990000  0.02850000  0.79740000  1.0 0.08983153
H  H143  1  0.02850000  0.79740000  0.33990000  1.0 0.08983153
H  H144  1  0.79740000  0.33990000  0.02850000  1.0 0.08983153
C  C1  1  0.82050000  0.84290000  0.61240000  1.0 0.3037958315
C  C2  1  0.84290000  0.61240000  0.82050000  1.0 0.3037958315
C  C3  1  0.61240000  0.82050000  0.84290000  1.0 0.3037958315
C  C4  1  0.82140000  0.83920000  0.52490000  1.0 0.0581993255
C  C5  1  0.83920000  0.52490000  0.82140000  1.0 0.0581993255
C  C6  1  0.52490000  0.82140000  0.83920000  1.0 0.0581993255
C  C7  1  0.87660000  0.87890000  0.47920000  1.0 -0.2524525515
C  C8  1  0.87890000  0.47920000  0.87660000  1.0 -0.2524525515
C  C9  1  0.47920000  0.87660000  0.87890000  1.0 -0.2524525515
C  C10  1  0.87720000  0.87560000  0.39880000  1.0 0.162597107
C  C11  1  0.87560000  0.39880000  0.87720000  1.0 0.162597107
C  C12  1  0.39880000  0.87720000  0.87560000  1.0 0.162597107
C  C13  1  0.82220000  0.83220000  0.36370000  1.0 -0.0224508512
C  C14  1  0.83220000  0.36370000  0.82220000  1.0 -0.0224508512
C  C15  1  0.36370000  0.82220000  0.83220000  1.0 -0.0224508512
C  C16  1  0.76860000  0.79280000  0.40990000  1.0 -0.0003907399
C  C17  1  0.79280000  0.40990000  0.76860000  1.0 -0.0003907399
C  C18  1  0.40990000  0.76860000  0.79280000  1.0 -0.0003907399
C  C19  1  0.76750000  0.79690000  0.49030000  1.0 -0.058602174
C  C20  1  0.79690000  0.49030000  0.76750000  1.0 -0.058602174
C  C21  1  0.49030000  0.76750000  0.79690000  1.0 -0.058602174
C  C22  1  0.97400000  0.97200000  0.38200000  1.0 -0.2598764776
C  C23  1  0.97200000  0.38200000  0.97400000  1.0 -0.2598764776
C  C24  1  0.38200000  0.97400000  0.97200000  1.0 -0.2598764776
C  C25  1  0.81950000  0.81080000  0.02840000  1.0 0.515244193
C  C26  1  0.81080000  0.02840000  0.81950000  1.0 0.515244193
C  C27  1  0.02840000  0.81950000  0.81080000  1.0 0.515244193
C  C28  1  0.81900000  0.81690000  0.11520000  1.0 -0.058602174
C  C29  1  0.81690000  0.11520000  0.81900000  1.0 -0.058602174
C  C30  1  0.11520000  0.81900000  0.81690000  1.0 -0.058602174
C  C31  1  0.85780000  0.76060000  0.15910000  1.0 -0.0102591137
C  C32  1  0.76060000  0.15910000  0.85780000  1.0 -0.0102591137
C  C33  1  0.15910000  0.85780000  0.76060000  1.0 -0.0102591137
C  C34  1  0.85950000  0.76540000  0.23990000  1.0 0.0671040213
C  C35  1  0.76540000  0.23990000  0.85950000  1.0 0.0671040213
C  C36  1  0.23990000  0.85950000  0.76540000  1.0 0.0671040213
C  C37  1  0.82180000  0.82740000  0.27650000  1.0 -0.0718069729
C  C38  1  0.82740000  0.27650000  0.82180000  1.0 -0.0718069729
C  C39  1  0.27650000  0.82180000  0.82740000  1.0 -0.0718069729
C  C40  1  0.77990000  0.88240000  0.23280000  1.0 0.0426979946
C  C41  1  0.88240000  0.23280000  0.77990000  1.0 0.0426979946
C  C42  1  0.23280000  0.77990000  0.88240000  1.0 0.0426979946
C  C43  1  0.77840000  0.87780000  0.15250000  1.0 -0.0357693748
C  C44  1  0.87780000  0.15250000  0.77840000  1.0 -0.0357693748
C  C45  1  0.15250000  0.77840000  0.87780000  1.0 -0.0357693748
C  C46  1  0.93520000  0.64250000  0.24330000  1.0 -0.3611293812
C  C47  1  0.64250000  0.24330000  0.93520000  1.0 -0.3611293812
C  C48  1  0.24330000  0.93520000  0.64250000  1.0 -0.3611293812
C  C49  1  0.84570000  0.82170000  0.61290000  1.0 0.3086817136
C  C50  1  0.82170000  0.61290000  0.84570000  1.0 0.3086817136
C  C51  1  0.61290000  0.84570000  0.82170000  1.0 0.3086817136
C  C52  1  0.84190000  0.82340000  0.52530000  1.0 0.0581993255
C  C53  1  0.82340000  0.52530000  0.84190000  1.0 0.0581993255
C  C54  1  0.52530000  0.84190000  0.82340000  1.0 0.0581993255
C  C55  1  0.88130000  0.87850000  0.47910000  1.0 -0.2524525515
C  C56  1  0.87850000  0.47910000  0.88130000  1.0 -0.2524525515
C  C57  1  0.47910000  0.88130000  0.87850000  1.0 -0.2524525515
C  C58  1  0.87720000  0.87900000  0.39870000  1.0 0.1777142357
C  C59  1  0.87900000  0.39870000  0.87720000  1.0 0.1777142357
C  C60  1  0.39870000  0.87720000  0.87900000  1.0 0.1777142357
C  C61  1  0.83400000  0.82360000  0.36410000  1.0 -0.0283743797
C  C62  1  0.82360000  0.36410000  0.83400000  1.0 -0.0283743797
C  C63  1  0.36410000  0.83400000  0.82360000  1.0 -0.0283743797
C  C64  1  0.79570000  0.76990000  0.41110000  1.0 -0.0102591137
C  C65  1  0.76990000  0.41110000  0.79570000  1.0 -0.0102591137
C  C66  1  0.41110000  0.79570000  0.76990000  1.0 -0.0102591137
C  C67  1  0.80040000  0.76900000  0.49130000  1.0 -0.0718069729
C  C68  1  0.76900000  0.49130000  0.80040000  1.0 -0.0718069729
C  C69  1  0.49130000  0.80040000  0.76900000  1.0 -0.0718069729
C  C70  1  0.97410000  0.97510000  0.38210000  1.0 -0.2684423307
C  C71  1  0.97510000  0.38210000  0.97410000  1.0 -0.2684423307
C  C72  1  0.38210000  0.97410000  0.97510000  1.0 -0.2684423307
C  C73  1  0.81080000  0.81960000  0.02830000  1.0 0.515244193
C  C74  1  0.81960000  0.02830000  0.81080000  1.0 0.515244193
C  C75  1  0.02830000  0.81080000  0.81960000  1.0 0.515244193
C  C76  1  0.81720000  0.81930000  0.11520000  1.0 -0.058602174
C  C77  1  0.81930000  0.11520000  0.81720000  1.0 -0.058602174
C  C78  1  0.11520000  0.81720000  0.81930000  1.0 -0.058602174
C  C79  1  0.76050000  0.85790000  0.15940000  1.0 -0.0283743797
C  C80  1  0.85790000  0.15940000  0.76050000  1.0 -0.0283743797
C  C81  1  0.15940000  0.76050000  0.85790000  1.0 -0.0283743797
C  C82  1  0.76570000  0.85970000  0.24030000  1.0 0.0581993255
C  C83  1  0.85970000  0.24030000  0.76570000  1.0 0.0581993255
C  C84  1  0.24030000  0.76570000  0.85970000  1.0 0.0581993255
C  C85  1  0.82850000  0.82270000  0.27660000  1.0 -0.0718069729
C  C86  1  0.82270000  0.27660000  0.82850000  1.0 -0.0718069729
C  C87  1  0.27660000  0.82850000  0.82270000  1.0 -0.0718069729
C  C88  1  0.88350000  0.78160000  0.23210000  1.0 0.0426979946
C  C89  1  0.78160000  0.23210000  0.88350000  1.0 0.0426979946
C  C90  1  0.23210000  0.88350000  0.78160000  1.0 0.0426979946
C  C91  1  0.87870000  0.77990000  0.15220000  1.0 -0.0224508512
C  C92  1  0.77990000  0.15220000  0.87870000  1.0 -0.0224508512
C  C93  1  0.15220000  0.87870000  0.77990000  1.0 -0.0224508512
C  C94  1  0.64250000  0.93420000  0.24400000  1.0 -0.3526296793
C  C95  1  0.93420000  0.24400000  0.64250000  1.0 -0.3526296793
C  C96  1  0.24400000  0.64250000  0.93420000  1.0 -0.3526296793
C  C97  1  0.17950000  0.15710000  0.38760000  1.0 0.3037958315
C  C98  1  0.15710000  0.38760000  0.17950000  1.0 0.3037958315
C  C99  1  0.38760000  0.17950000  0.15710000  1.0 0.3037958315
C  C100  1  0.17860000  0.16080000  0.47510000  1.0 0.0581993255
C  C101  1  0.16080000  0.47510000  0.17860000  1.0 0.0581993255
C  C102  1  0.47510000  0.17860000  0.16080000  1.0 0.0581993255
C  C103  1  0.12340000  0.12110000  0.52080000  1.0 -0.2524525515
C  C104  1  0.12110000  0.52080000  0.12340000  1.0 -0.2524525515
C  C105  1  0.52080000  0.12340000  0.12110000  1.0 -0.2524525515
C  C106  1  0.12280000  0.12440000  0.60120000  1.0 0.162597107
C  C107  1  0.12440000  0.60120000  0.12280000  1.0 0.162597107
C  C108  1  0.60120000  0.12280000  0.12440000  1.0 0.162597107
C  C109  1  0.17780000  0.16780000  0.63630000  1.0 -0.0224508512
C  C110  1  0.16780000  0.63630000  0.17780000  1.0 -0.0224508512
C  C111  1  0.63630000  0.17780000  0.16780000  1.0 -0.0224508512
C  C112  1  0.23140000  0.20720000  0.59010000  1.0 -0.0003907399
C  C113  1  0.20720000  0.59010000  0.23140000  1.0 -0.0003907399
C  C114  1  0.59010000  0.23140000  0.20720000  1.0 -0.0003907399
C  C115  1  0.23250000  0.20310000  0.50970000  1.0 -0.058602174
C  C116  1  0.20310000  0.50970000  0.23250000  1.0 -0.058602174
C  C117  1  0.50970000  0.23250000  0.20310000  1.0 -0.058602174
C  C118  1  0.02600000  0.02800000  0.61800000  1.0 -0.2598764776
C  C119  1  0.02800000  0.61800000  0.02600000  1.0 -0.2598764776
C  C120  1  0.61800000  0.02600000  0.02800000  1.0 -0.2598764776
C  C121  1  0.18050000  0.18920000  0.97160000  1.0 0.515244193
C  C122  1  0.18920000  0.97160000  0.18050000  1.0 0.515244193
C  C123  1  0.97160000  0.18050000  0.18920000  1.0 0.515244193
C  C124  1  0.18100000  0.18310000  0.88480000  1.0 -0.058602174
C  C125  1  0.18310000  0.88480000  0.18100000  1.0 -0.058602174
C  C126  1  0.88480000  0.18100000  0.18310000  1.0 -0.058602174
C  C127  1  0.14220000  0.23940000  0.84090000  1.0 -0.0102591137
C  C128  1  0.23940000  0.84090000  0.14220000  1.0 -0.0102591137
C  C129  1  0.84090000  0.14220000  0.23940000  1.0 -0.0102591137
C  C130  1  0.14050000  0.23460000  0.76010000  1.0 0.0671040213
C  C131  1  0.23460000  0.76010000  0.14050000  1.0 0.0671040213
C  C132  1  0.76010000  0.14050000  0.23460000  1.0 0.0671040213
C  C133  1  0.17820000  0.17260000  0.72350000  1.0 -0.0718069729
C  C134  1  0.17260000  0.72350000  0.17820000  1.0 -0.0718069729
C  C135  1  0.72350000  0.17820000  0.17260000  1.0 -0.0718069729
C  C136  1  0.22010000  0.11760000  0.76720000  1.0 0.0426979946
C  C137  1  0.11760000  0.76720000  0.22010000  1.0 0.0426979946
C  C138  1  0.76720000  0.22010000  0.11760000  1.0 0.0426979946
C  C139  1  0.22160000  0.12220000  0.84750000  1.0 -0.0357693748
C  C140  1  0.12220000  0.84750000  0.22160000  1.0 -0.0357693748
C  C141  1  0.84750000  0.22160000  0.12220000  1.0 -0.0357693748
C  C142  1  0.06480000  0.35750000  0.75670000  1.0 -0.3611293812
C  C143  1  0.35750000  0.75670000  0.06480000  1.0 -0.3611293812
C  C144  1  0.75670000  0.06480000  0.35750000  1.0 -0.3611293812
C  C145  1  0.15430000  0.17830000  0.38710000  1.0 0.3086817136
C  C146  1  0.17830000  0.38710000  0.15430000  1.0 0.3086817136
C  C147  1  0.38710000  0.15430000  0.17830000  1.0 0.3086817136
C  C148  1  0.15810000  0.17660000  0.47470000  1.0 0.0581993255
C  C149  1  0.17660000  0.47470000  0.15810000  1.0 0.0581993255
C  C150  1  0.47470000  0.15810000  0.17660000  1.0 0.0581993255
C  C151  1  0.11870000  0.12150000  0.52090000  1.0 -0.2524525515
C  C152  1  0.12150000  0.52090000  0.11870000  1.0 -0.2524525515
C  C153  1  0.52090000  0.11870000  0.12150000  1.0 -0.2524525515
C  C154  1  0.12280000  0.12100000  0.60130000  1.0 0.1777142357
C  C155  1  0.12100000  0.60130000  0.12280000  1.0 0.1777142357
C  C156  1  0.60130000  0.12280000  0.12100000  1.0 0.1777142357
C  C157  1  0.16600000  0.17640000  0.63590000  1.0 -0.0283743797
C  C158  1  0.17640000  0.63590000  0.16600000  1.0 -0.0283743797
C  C159  1  0.63590000  0.16600000  0.17640000  1.0 -0.0283743797
C  C160  1  0.20430000  0.23010000  0.58890000  1.0 -0.0102591137
C  C161  1  0.23010000  0.58890000  0.20430000  1.0 -0.0102591137
C  C162  1  0.58890000  0.20430000  0.23010000  1.0 -0.0102591137
C  C163  1  0.19960000  0.23100000  0.50870000  1.0 -0.0718069729
C  C164  1  0.23100000  0.50870000  0.19960000  1.0 -0.0718069729
C  C165  1  0.50870000  0.19960000  0.23100000  1.0 -0.0718069729
C  C166  1  0.02590000  0.02490000  0.61790000  1.0 -0.2684423307
C  C167  1  0.02490000  0.61790000  0.02590000  1.0 -0.2684423307
C  C168  1  0.61790000  0.02590000  0.02490000  1.0 -0.2684423307
C  C169  1  0.18920000  0.18040000  0.97170000  1.0 0.515244193
C  C170  1  0.18040000  0.97170000  0.18920000  1.0 0.515244193
C  C171  1  0.97170000  0.18920000  0.18040000  1.0 0.515244193
C  C172  1  0.18280000  0.18070000  0.88480000  1.0 -0.058602174
C  C173  1  0.18070000  0.88480000  0.18280000  1.0 -0.058602174
C  C174  1  0.88480000  0.18280000  0.18070000  1.0 -0.058602174
C  C175  1  0.23950000  0.14210000  0.84060000  1.0 -0.0283743797
C  C176  1  0.14210000  0.84060000  0.23950000  1.0 -0.0283743797
C  C177  1  0.84060000  0.23950000  0.14210000  1.0 -0.0283743797
C  C178  1  0.23430000  0.14030000  0.75970000  1.0 0.0581993255
C  C179  1  0.14030000  0.75970000  0.23430000  1.0 0.0581993255
C  C180  1  0.75970000  0.23430000  0.14030000  1.0 0.0581993255
C  C181  1  0.17150000  0.17730000  0.72340000  1.0 -0.0718069729
C  C182  1  0.17730000  0.72340000  0.17150000  1.0 -0.0718069729
C  C183  1  0.72340000  0.17150000  0.17730000  1.0 -0.0755957568
C  C184  1  0.11650000  0.21840000  0.76790000  1.0 0.0426979946
C  C185  1  0.21840000  0.76790000  0.11650000  1.0 0.0426979946
C  C186  1  0.76790000  0.11650000  0.21840000  1.0 0.0426979946
C  C187  1  0.12130000  0.22010000  0.84780000  1.0 -0.0224508512
C  C188  1  0.22010000  0.84780000  0.12130000  1.0 -0.0224508512
C  C189  1  0.84780000  0.12130000  0.22010000  1.0 -0.0224508512
C  C190  1  0.35750000  0.06580000  0.75600000  1.0 -0.3526296793
C  C191  1  0.06580000  0.75600000  0.35750000  1.0 -0.3526296793
C  C192  1  0.75600000  0.35750000  0.06580000  1.0 -0.3526296793
O  O1  1  0.81810000  0.81810000  0.81810000  1.0 -0.5003557483
O  O2  1  0.76930000  0.81060000  0.65210000  1.0 -0.1905828793
O  O3  1  0.81060000  0.65210000  0.76930000  1.0 -0.1905828793
O  O4  1  0.65210000  0.76930000  0.81060000  1.0 -0.1905828793
O  O5  1  0.87190000  0.88100000  0.64110000  1.0 -0.4038251469
O  O6  1  0.88100000  0.64110000  0.87190000  1.0 -0.4038251469
O  O7  1  0.64110000  0.87190000  0.88100000  1.0 -0.4038251469
O  O8  1  0.92900000  0.91300000  0.34800000  1.0 -0.058602174
O  O9  1  0.91300000  0.34800000  0.92900000  1.0 -0.058602174
O  O10  1  0.34800000  0.92900000  0.91300000  1.0 -0.058602174
O  O11  1  0.86860000  0.76510000  0.99470000  1.0 -0.4792613118
O  O12  1  0.76510000  0.99470000  0.86860000  1.0 -0.4792613118
O  O13  1  0.99470000  0.86860000  0.76510000  1.0 -0.4792613118
O  O14  1  0.76680000  0.85110000  0.99640000  1.0 -0.3799227555
O  O15  1  0.85110000  0.99640000  0.76680000  1.0 -0.3799227555
O  O16  1  0.99640000  0.76680000  0.85110000  1.0 -0.3799227555
O  O17  1  0.89930000  0.71030000  0.28220000  1.0 -0.2059780189
O  O18  1  0.71030000  0.28220000  0.89930000  1.0 -0.2059780189
O  O19  1  0.28220000  0.89930000  0.71030000  1.0 -0.2059780189
O  O20  1  0.81130000  0.76970000  0.65160000  1.0 -0.2003463684
O  O21  1  0.76970000  0.65160000  0.81130000  1.0 -0.2003463684
O  O22  1  0.65160000  0.81130000  0.76970000  1.0 -0.2003463684
O  O23  1  0.88280000  0.87360000  0.64120000  1.0 -0.4205819298
O  O24  1  0.87360000  0.64120000  0.88280000  1.0 -0.4205819298
O  O25  1  0.64120000  0.88280000  0.87360000  1.0 -0.4205819298
O  O26  1  0.91430000  0.93100000  0.34770000  1.0 -0.0718069729
O  O27  1  0.93100000  0.34770000  0.91430000  1.0 -0.0718069729
O  O28  1  0.34770000  0.91430000  0.93100000  1.0 -0.0718069729
O  O29  1  0.76490000  0.86870000  0.99480000  1.0 -0.4792613118
O  O30  1  0.86870000  0.99480000  0.76490000  1.0 -0.4792613118
O  O31  1  0.99480000  0.76490000  0.86870000  1.0 -0.4792613118
O  O32  1  0.85080000  0.76650000  0.99670000  1.0 -0.3799227555
O  O33  1  0.76650000  0.99670000  0.85080000  1.0 -0.3799227555
O  O34  1  0.99670000  0.85080000  0.76650000  1.0 -0.3799227555
O  O35  1  0.71040000  0.89870000  0.28270000  1.0 -0.2003463684
O  O36  1  0.89870000  0.28270000  0.71040000  1.0 -0.2003463684
O  O37  1  0.28270000  0.71040000  0.89870000  1.0 -0.2003463684
O  O38  1  0.18190000  0.18190000  0.18190000  1.0 -0.5003557483
O  O39  1  0.23070000  0.18940000  0.34790000  1.0 -0.1905828793
O  O40  1  0.18940000  0.34790000  0.23070000  1.0 -0.1905828793
O  O41  1  0.34790000  0.23070000  0.18940000  1.0 -0.1905828793
O  O42  1  0.12810000  0.11900000  0.35890000  1.0 -0.4038251469
O  O43  1  0.11900000  0.35890000  0.12810000  1.0 -0.4038251469
O  O44  1  0.35890000  0.12810000  0.11900000  1.0 -0.4038251469
O  O45  1  0.07100000  0.08700000  0.65200000  1.0 -0.058602174
O  O46  1  0.08700000  0.65200000  0.07100000  1.0 -0.058602174
O  O47  1  0.65200000  0.07100000  0.08700000  1.0 -0.058602174
O  O48  1  0.13140000  0.23490000  0.00530000  1.0 -0.4792613118
O  O49  1  0.23490000  0.00530000  0.13140000  1.0 -0.4792613118
O  O50  1  0.00530000  0.13140000  0.23490000  1.0 -0.4792613118
O  O51  1  0.23320000  0.14890000  0.00360000  1.0 -0.3799227555
O  O52  1  0.14890000  0.00360000  0.23320000  1.0 -0.3799227555
O  O53  1  0.00360000  0.23320000  0.14890000  1.0 -0.3799227555
O  O54  1  0.10070000  0.28970000  0.71780000  1.0 -0.2059780189
O  O55  1  0.28970000  0.71780000  0.10070000  1.0 -0.2059780189
O  O56  1  0.71780000  0.10070000  0.28970000  1.0 -0.2059780189
O  O57  1  0.18870000  0.23030000  0.34840000  1.0 -0.2003463684
O  O58  1  0.23030000  0.34840000  0.18870000  1.0 -0.2003463684
O  O59  1  0.34840000  0.18870000  0.23030000  1.0 -0.2003463684
O  O60  1  0.11720000  0.12640000  0.35880000  1.0 -0.4205819298
O  O61  1  0.12640000  0.35880000  0.11720000  1.0 -0.4205819298
O  O62  1  0.35880000  0.11720000  0.12640000  1.0 -0.4205819298
O  O63  1  0.08570000  0.06900000  0.65230000  1.0 -0.0718069729
O  O64  1  0.06900000  0.65230000  0.08570000  1.0 -0.0718069729
O  O65  1  0.65230000  0.08570000  0.06900000  1.0 -0.0718069729
O  O66  1  0.23510000  0.13130000  0.00520000  1.0 -0.4792613118
O  O67  1  0.13130000  0.00520000  0.23510000  1.0 -0.4792613118
O  O68  1  0.00520000  0.23510000  0.13130000  1.0 -0.4792613118
O  O69  1  0.14920000  0.23350000  0.00330000  1.0 -0.3799227555
O  O70  1  0.23350000  0.00330000  0.14920000  1.0 -0.3799227555
O  O71  1  0.00330000  0.14920000  0.23350000  1.0 -0.3799227555
O  O72  1  0.28960000  0.10130000  0.71730000  1.0 -0.2003463684
O  O73  1  0.10130000  0.71730000  0.28960000  1.0 -0.2003463684
O  O74  1  0.71730000  0.28960000  0.10130000  1.0 -0.2003463684
