# DDEC6 charges by PACMAN v1.1 (https://github.com/mtap-research/PACMAN-charge/)
data_FEVNEA_ion_pacman
_symmetry_space_group_name_H-M   'P 1'
_cell_length_a   17.56610000
_cell_length_b   23.43270000
_cell_length_c   27.09100000
_cell_angle_alpha   78.08600000
_cell_angle_beta   80.50900000
_cell_angle_gamma   74.04600000
_symmetry_Int_Tables_number   1
_chemical_formula_structural   SmH120C125S9N18O47F27
_chemical_formula_sum   'Sm2 H240 C250 S18 N36 O94 F54'
_cell_volume   10421.20296980
_cell_formula_units_Z   2
loop_
 _symmetry_equiv_pos_site_id
 _symmetry_equiv_pos_as_xyz
  1  'x, y, z'
loop_
 _atom_site_type_symbol
 _atom_site_label
 _atom_site_symmetry_multiplicity
 _atom_site_fract_x
 _atom_site_fract_y
 _atom_site_fract_z
 _atom_site_occupancy
 _atom_site_charge
Sm  Sm1  1  0.07878000  0.36815000  0.22446000  1.0 1.9272365902
Sm  Sm2  1  0.92122000  0.63185000  0.77554000  1.0 1.9272365902
H  H1  1  0.26260000  0.06510000  0.17130000  1.0 0.2295170125
H  H2  1  0.73740000  0.93490000  0.82870000  1.0 0.2295170125
H  H3  1  0.16940000  0.11230000  0.01200000  1.0 0.2780111615
H  H4  1  0.83060000  0.88770000  0.98800000  1.0 0.2780111615
H  H5  1  0.52350000  0.74400000  0.89750000  1.0 0.1191848104
H  H6  1  0.47650000  0.25600000  0.10250000  1.0 0.1191848104
H  H7  1  0.50320000  0.72480000  0.95740000  1.0 0.1191848104
H  H8  1  0.49680000  0.27520000  0.04260000  1.0 0.1191848104
H  H9  1  0.44950000  0.78460000  0.92780000  1.0 0.1108518426
H  H10  1  0.55050000  0.21540000  0.07220000  1.0 0.1108518426
H  H11  1  0.13470000  0.47650000  0.21240000  1.0 0.4098878686
H  H12  1  0.86530000  0.52350000  0.78760000  1.0 0.4098878686
H  H13  1  0.19470000  0.43630000  0.17620000  1.0 0.4098878686
H  H14  1  0.80530000  0.56370000  0.82380000  1.0 0.4098878686
H  H15  1  0.05480000  0.48380000  0.34090000  1.0 0.1400769257
H  H16  1  0.94520000  0.51620000  0.65910000  1.0 0.1400769257
H  H17  1  0.03970000  0.58380000  0.34370000  1.0 0.1505631863
H  H18  1  0.96030000  0.41620000  0.65630000  1.0 0.1505631863
H  H19  1  0.96570000  0.62880000  0.20500000  1.0 0.1505631863
H  H20  1  0.03430000  0.37120000  0.79500000  1.0 0.1505631863
H  H21  1  0.07150000  0.66520000  0.33010000  1.0 0.1400769257
H  H22  1  0.92850000  0.33480000  0.66990000  1.0 0.1400769257
H  H23  1  0.06530000  0.76630000  0.32800000  1.0 0.1294449866
H  H24  1  0.93470000  0.23370000  0.67200000  1.0 0.1294449866
H  H25  1  0.93170000  0.81640000  0.21680000  1.0 0.1400769257
H  H26  1  0.06830000  0.18360000  0.78320000  1.0 0.1400769257
H  H27  1  0.92840000  0.71810000  0.21920000  1.0 0.1505631863
H  H28  1  0.07160000  0.28190000  0.78080000  1.0 0.1400769257
H  H29  1  0.00440000  0.86540000  0.31000000  1.0 0.1294449866
H  H30  1  0.99560000  0.13460000  0.69000000  1.0 0.1294449866
H  H31  1  0.94100000  0.88860000  0.26930000  1.0 0.1191848104
H  H32  1  0.05900000  0.11140000  0.73070000  1.0 0.1191848104
H  H33  1  0.84770000  0.47740000  0.20230000  1.0 0.1294449866
H  H34  1  0.15230000  0.52260000  0.79770000  1.0 0.1294449866
H  H35  1  0.74010000  0.47960000  0.16590000  1.0 0.1505631863
H  H36  1  0.25990000  0.52040000  0.83410000  1.0 0.1505631863
H  H37  1  0.87740000  0.40440000  0.05330000  1.0 0.1505631863
H  H38  1  0.12260000  0.59560000  0.94670000  1.0 0.1400769257
H  H39  1  0.98670000  0.39220000  0.09720000  1.0 0.1191848104
H  H40  1  0.01330000  0.60780000  0.90280000  1.0 0.1191848104
H  H41  1  0.78270000  0.43720000  0.01060000  1.0 0.1505631863
H  H42  1  0.21730000  0.56280000  0.98940000  1.0 0.1505631863
H  H43  1  0.67040000  0.43470000  0.97380000  1.0 0.1294449866
H  H44  1  0.32960000  0.56530000  0.02620000  1.0 0.1294449866
H  H45  1  0.53200000  0.48870000  0.09670000  1.0 0.1294449866
H  H46  1  0.46800000  0.51130000  0.90330000  1.0 0.1294449866
H  H47  1  0.64290000  0.47170000  0.13840000  1.0 0.1400769257
H  H48  1  0.35710000  0.52830000  0.86160000  1.0 0.1400769257
H  H49  1  0.53460000  0.44590000  0.97900000  1.0 0.1294449866
H  H50  1  0.46540000  0.55410000  0.02100000  1.0 0.1294449866
H  H51  1  0.48170000  0.44810000  0.03330000  1.0 0.1400769257
H  H52  1  0.51830000  0.55190000  0.96670000  1.0 0.1400769257
H  H53  1  0.98950000  0.26000000  0.13460000  1.0 0.1294449866
H  H54  1  0.01050000  0.74000000  0.86540000  1.0 0.1294449866
H  H55  1  0.02380000  0.13720000  0.29170000  1.0 0.159880716
H  H56  1  0.97620000  0.86280000  0.70830000  1.0 0.159880716
H  H57  1  0.01070000  0.24120000  0.27950000  1.0 0.1108518426
H  H58  1  0.98930000  0.75880000  0.72050000  1.0 0.1108518426
H  H59  1  0.96410000  0.07350000  0.16460000  1.0 0.1505631863
H  H60  1  0.03590000  0.92650000  0.83540000  1.0 0.1505631863
H  H61  1  0.98410000  0.96820000  0.17540000  1.0 0.1294449866
H  H62  1  0.01590000  0.03180000  0.82460000  1.0 0.1294449866
H  H63  1  0.10940000  0.94070000  0.28870000  1.0 0.1294449866
H  H64  1  0.89060000  0.05930000  0.71130000  1.0 0.1294449866
H  H65  1  0.08690000  0.04400000  0.28440000  1.0 0.159880716
H  H66  1  0.91310000  0.95600000  0.71560000  1.0 0.159880716
H  H67  1  0.05130000  0.87270000  0.20330000  1.0 0.1294449866
H  H68  1  0.94870000  0.12730000  0.79670000  1.0 0.1294449866
H  H69  1  0.11030000  0.85940000  0.24600000  1.0 0.1400769257
H  H70  1  0.88970000  0.14060000  0.75400000  1.0 0.1400769257
H  H71  1  0.12850000  0.25810000  0.33230000  1.0 0.1294449866
H  H72  1  0.87150000  0.74190000  0.66770000  1.0 0.1294449866
H  H73  1  0.20120000  0.19230000  0.39450000  1.0 0.1505631863
H  H74  1  0.79880000  0.80770000  0.60550000  1.0 0.1505631863
H  H75  1  0.33660000  0.11160000  0.28660000  1.0 0.1400769257
H  H76  1  0.66340000  0.88840000  0.71340000  1.0 0.1400769257
H  H77  1  0.26520000  0.18270000  0.22530000  1.0 0.1191848104
H  H78  1  0.73480000  0.81730000  0.77470000  1.0 0.1191848104
H  H79  1  0.25130000  0.10370000  0.44010000  1.0 0.159880716
H  H80  1  0.74870000  0.89630000  0.55990000  1.0 0.159880716
H  H81  1  0.33160000  0.03530000  0.49770000  1.0 0.1294449866
H  H82  1  0.66840000  0.96470000  0.50230000  1.0 0.1294449866
H  H83  1  0.51490000  0.03440000  0.40050000  1.0 0.1294449866
H  H84  1  0.48510000  0.96560000  0.59950000  1.0 0.1294449866
H  H85  1  0.44070000  0.09950000  0.34110000  1.0 0.1505631863
H  H86  1  0.55930000  0.90050000  0.65890000  1.0 0.1505631863
H  H87  1  0.44620000  0.96380000  0.51490000  1.0 0.1108518426
H  H88  1  0.55380000  0.03620000  0.48510000  1.0 0.1108518426
H  H89  1  0.51790000  0.95520000  0.46990000  1.0 0.1294449866
H  H90  1  0.48210000  0.04480000  0.53010000  1.0 0.1294449866
H  H91  1  0.98620000  0.35570000  0.39180000  1.0 0.1191848104
H  H92  1  0.01380000  0.64430000  0.60820000  1.0 0.1191848104
H  H93  1  0.86540000  0.40080000  0.42540000  1.0 0.1191848104
H  H94  1  0.13460000  0.59920000  0.57460000  1.0 0.1191848104
H  H95  1  0.75980000  0.37810000  0.30940000  1.0 0.1294449866
H  H96  1  0.24020000  0.62190000  0.69060000  1.0 0.1294449866
H  H97  1  0.88730000  0.34120000  0.26900000  1.0 0.1108518426
H  H98  1  0.11270000  0.65880000  0.73100000  1.0 0.1108518426
H  H99  1  0.75470000  0.38750000  0.47180000  1.0 0.1108518426
H  H100  1  0.24530000  0.61250000  0.52820000  1.0 0.1108518426
H  H101  1  0.64000000  0.43820000  0.51380000  1.0 0.1019573834
H  H102  1  0.36000000  0.56180000  0.48620000  1.0 0.1019573834
H  H103  1  0.65820000  0.44840000  0.33910000  1.0 0.0911211732
H  H104  1  0.34180000  0.55160000  0.66090000  1.0 0.0911211732
H  H105  1  0.10910000  0.30890000  0.05920000  1.0 0.1108518426
H  H106  1  0.89090000  0.69110000  0.94080000  1.0 0.1108518426
H  H107  1  0.21020000  0.24010000  0.01860000  1.0 0.1191848104
H  H108  1  0.78980000  0.75990000  0.98140000  1.0 0.1191848104
H  H109  1  0.35200000  0.22500000  0.12690000  1.0 0.1108518426
H  H110  1  0.64800000  0.77500000  0.87310000  1.0 0.1108518426
H  H111  1  0.25100000  0.29390000  0.16740000  1.0 0.1400769257
H  H112  1  0.74900000  0.70610000  0.83260000  1.0 0.1400769257
H  H113  1  0.40800000  0.14440000  0.10490000  1.0 0.1108518426
H  H114  1  0.59200000  0.85560000  0.89510000  1.0 0.1108518426
H  H115  1  0.49240000  0.05750000  0.07440000  1.0 0.1108518426
H  H116  1  0.50760000  0.94250000  0.92560000  1.0 0.1108518426
H  H117  1  0.40680000  0.11930000  0.94150000  1.0 0.218392912
H  H118  1  0.59320000  0.88070000  0.05850000  1.0 0.218392912
H  H119  1  0.31470000  0.19760000  0.97240000  1.0 0.1191848104
H  H120  1  0.68530000  0.80240000  0.02760000  1.0 0.1191848104
H  H121  1  0.49040000  0.02150000  0.95350000  1.0 0.1108518426
H  H122  1  0.50960000  0.97850000  0.04650000  1.0 0.1108518426
H  H123  1  0.55770000  0.03460000  0.97860000  1.0 0.1294449866
H  H124  1  0.44230000  0.96540000  0.02140000  1.0 0.1294449866
H  H125  1  0.19980000  0.22010000  0.06450000  1.0 0.1019573834
H  H126  1  0.80020000  0.77990000  0.93550000  1.0 0.1019573834
H  H127  1  0.97280000  0.52760000  0.20790000  1.0 0.1294449866
H  H128  1  0.02720000  0.47240000  0.79210000  1.0 0.1294449866
H  H129  1  0.99520000  0.15670000  0.14470000  1.0 0.1400769257
H  H130  1  0.00480000  0.84330000  0.85530000  1.0 0.1400769257
H  H131  1  0.53250000  0.47950000  0.38590000  1.0 0.1019573834
H  H132  1  0.46750000  0.52050000  0.61410000  1.0 0.1019573834
H  H133  1  0.51260000  0.49090000  0.51990000  1.0 0.0695047316
H  H134  1  0.48740000  0.50910000  0.48010000  1.0 0.0695047316
H  H135  1  0.48250000  0.53610000  0.47080000  1.0 0.078525723
H  H136  1  0.51750000  0.46390000  0.52920000  1.0 0.078525723
H  H137  1  0.14760000  0.14230000  0.15630000  1.0 0.1108518426
H  H138  1  0.85240000  0.85770000  0.84370000  1.0 0.1108518426
H  H139  1  0.10100000  0.16590000  0.07670000  1.0 0.1505631863
H  H140  1  0.89900000  0.83410000  0.92330000  1.0 0.1505631863
H  H141  1  0.74290000  0.91470000  0.04280000  1.0 0.1191848104
H  H142  1  0.25710000  0.08530000  0.95720000  1.0 0.1191848104
H  H143  1  0.78050000  0.97260000  0.03230000  1.0 0.1191848104
H  H144  1  0.21950000  0.02740000  0.96770000  1.0 0.1191848104
H  H145  1  0.64450000  0.02430000  0.03490000  1.0 0.1191848104
H  H146  1  0.35550000  0.97570000  0.96510000  1.0 0.1191848104
H  H147  1  0.63110000  0.96230000  0.06650000  1.0 0.1677207385
H  H148  1  0.36890000  0.03770000  0.93350000  1.0 0.1677207385
H  H149  1  0.63390000  0.92210000  0.11940000  1.0 0.0911211732
H  H150  1  0.36610000  0.07790000  0.88060000  1.0 0.0911211732
H  H151  1  0.65120000  0.94370000  0.16640000  1.0 0.1019573834
H  H152  1  0.34880000  0.05630000  0.83360000  1.0 0.1019573834
H  H153  1  0.50790000  0.99460000  0.16310000  1.0 0.0911211732
H  H154  1  0.49210000  0.00540000  0.83690000  1.0 0.0911211732
H  H155  1  0.54640000  0.93170000  0.19720000  1.0 0.1019573834
H  H156  1  0.45360000  0.06830000  0.80280000  1.0 0.1019573834
H  H157  1  0.43300000  0.91160000  0.19810000  1.0 0.1191848104
H  H158  1  0.56700000  0.08840000  0.80190000  1.0 0.1191848104
H  H159  1  0.42470000  0.87350000  0.15910000  1.0 0.1294449866
H  H160  1  0.57530000  0.12650000  0.84090000  1.0 0.1294449866
H  H161  1  0.25240000  0.93170000  0.16480000  1.0 0.0911211732
H  H162  1  0.74760000  0.06830000  0.83520000  1.0 0.0911211732
H  H163  1  0.26390000  0.98340000  0.19480000  1.0 0.159880716
H  H164  1  0.73610000  0.01660000  0.80520000  1.0 0.159880716
H  H165  1  0.13290000  0.31030000  0.09330000  1.0 0.1400769257
H  H166  1  0.86710000  0.68970000  0.90670000  1.0 0.1400769257
H  H167  1  0.37870000  0.20120000  0.14850000  1.0 0.1019573834
H  H168  1  0.62130000  0.79880000  0.85150000  1.0 0.1019573834
H  H169  1  0.31170000  0.29140000  0.17730000  1.0 0.1019573834
H  H170  1  0.68830000  0.70860000  0.82270000  1.0 0.1019573834
H  H171  1  0.43310000  0.12160000  0.12550000  1.0 0.1108518426
H  H172  1  0.56690000  0.87840000  0.87450000  1.0 0.1108518426
H  H173  1  0.49180000  0.03360000  0.09800000  1.0 0.0695047316
H  H174  1  0.50820000  0.96640000  0.90200000  1.0 0.0695047316
H  H175  1  0.34280000  0.07320000  0.99440000  1.0 0.1191848104
H  H176  1  0.65720000  0.92680000  0.00560000  1.0 0.1191848104
H  H177  1  0.26820000  0.15270000  0.02960000  1.0 0.1108518426
H  H178  1  0.73180000  0.84730000  0.97040000  1.0 0.1191848104
H  H179  1  0.51040000  0.97080000  0.04040000  1.0 0.1108518426
H  H180  1  0.48960000  0.02920000  0.95960000  1.0 0.1108518426
H  H181  1  0.43360000  0.96460000  0.02050000  1.0 0.1191848104
H  H182  1  0.56640000  0.03540000  0.97950000  1.0 0.1191848104
H  H183  1  0.39830000  0.82150000  0.89520000  1.0 0.1108518426
H  H184  1  0.60170000  0.17850000  0.10480000  1.0 0.1108518426
H  H185  1  0.47520000  0.72360000  0.88960000  1.0 0.1019573834
H  H186  1  0.52480000  0.27640000  0.11040000  1.0 0.1019573834
H  H187  1  0.56740000  0.67460000  0.94750000  1.0 0.1019573834
H  H188  1  0.43260000  0.32540000  0.05250000  1.0 0.1019573834
H  H189  1  0.58260000  0.72350000  0.01110000  1.0 0.1400769257
H  H190  1  0.41740000  0.27650000  0.98890000  1.0 0.1400769257
H  H191  1  0.38470000  0.21460000  0.94880000  1.0 0.1019573834
H  H192  1  0.61530000  0.78540000  0.05120000  1.0 0.1019573834
H  H193  1  0.46030000  0.23800000  0.91910000  1.0 0.1294449866
H  H194  1  0.53970000  0.76200000  0.08090000  1.0 0.1294449866
H  H195  1  0.43830000  0.19220000  0.86760000  1.0 0.1191848104
H  H196  1  0.56170000  0.80780000  0.13240000  1.0 0.1191848104
H  H197  1  0.50570000  0.14280000  0.89650000  1.0 0.1294449866
H  H198  1  0.49430000  0.85720000  0.10350000  1.0 0.1294449866
H  H199  1  0.42650000  0.09620000  0.84350000  1.0 0.1191848104
H  H200  1  0.57350000  0.90380000  0.15650000  1.0 0.1191848104
H  H201  1  0.45910000  0.04720000  0.89060000  1.0 0.1677207385
H  H202  1  0.54090000  0.95280000  0.10940000  1.0 0.1677207385
H  H203  1  0.29660000  0.08560000  0.89850000  1.0 0.0911211732
H  H204  1  0.70340000  0.91440000  0.10150000  1.0 0.0911211732
H  H205  1  0.33880000  0.04530000  0.85450000  1.0 0.1019573834
H  H206  1  0.66120000  0.95470000  0.14550000  1.0 0.1019573834
H  H207  1  0.28620000  0.00530000  0.96980000  1.0 0.0911211732
H  H208  1  0.71380000  0.99470000  0.03020000  1.0 0.0911211732
H  H209  1  0.28290000  0.98900000  0.91640000  1.0 0.159880716
H  H210  1  0.71710000  0.01100000  0.08360000  1.0 0.159880716
H  H211  1  0.30840000  0.92200000  0.93390000  1.0 0.1294449866
H  H212  1  0.69160000  0.07800000  0.06610000  1.0 0.1294449866
H  H213  1  0.28630000  0.93960000  0.98840000  1.0 0.1191848104
H  H214  1  0.71370000  0.06040000  0.01160000  1.0 0.1191848104
H  H215  1  0.01120000  0.36960000  0.38090000  1.0 0.1019573834
H  H216  1  0.98880000  0.63040000  0.61910000  1.0 0.1019573834
H  H217  1  0.89250000  0.42570000  0.42780000  1.0 0.1294449866
H  H218  1  0.10750000  0.57430000  0.57220000  1.0 0.1294449866
H  H219  1  0.76490000  0.40710000  0.31950000  1.0 0.1191848104
H  H220  1  0.23510000  0.59290000  0.68050000  1.0 0.1191848104
H  H221  1  0.88810000  0.35320000  0.27960000  1.0 0.1191848104
H  H222  1  0.11190000  0.64680000  0.72040000  1.0 0.1191848104
H  H223  1  0.78070000  0.43680000  0.47620000  1.0 0.1191848104
H  H224  1  0.21930000  0.56320000  0.52380000  1.0 0.1191848104
H  H225  1  0.67830000  0.51970000  0.50480000  1.0 0.1294449866
H  H226  1  0.32170000  0.48030000  0.49520000  1.0 0.1294449866
H  H227  1  0.55130000  0.51130000  0.39680000  1.0 0.1108518426
H  H228  1  0.44870000  0.48870000  0.60320000  1.0 0.1108518426
H  H229  1  0.67260000  0.47060000  0.34830000  1.0 0.1108518426
H  H230  1  0.32740000  0.52940000  0.65170000  1.0 0.1108518426
H  H231  1  0.54600000  0.56350000  0.51380000  1.0 0.1019573834
H  H232  1  0.45400000  0.43650000  0.48620000  1.0 0.1019573834
H  H233  1  0.50530000  0.59260000  0.46340000  1.0 0.1019573834
H  H234  1  0.49470000  0.40740000  0.53660000  1.0 0.1019573834
H  H235  1  0.33530000  0.69970000  0.91650000  1.0 0.1751749401
H  H236  1  0.66470000  0.30030000  0.08350000  1.0 0.1751749401
H  H237  1  0.31410000  0.63640000  0.93900000  1.0 0.1191848104
H  H238  1  0.68590000  0.36360000  0.06100000  1.0 0.1191848104
H  H239  1  0.39650000  0.64700000  0.94820000  1.0 0.159880716
H  H240  1  0.60350000  0.35300000  0.05180000  1.0 0.159880716
C  C1  1  0.42860000  0.71040000  0.91910000  1.0 0.0483222088
C  C2  1  0.57140000  0.28960000  0.08090000  1.0 0.0483222088
C  C3  1  0.48000000  0.74330000  0.92550000  1.0 -0.235764202
C  C4  1  0.52000000  0.25670000  0.07450000  1.0 -0.235764202
C  C5  1  0.03390000  0.51400000  0.31390000  1.0 -0.0404547701
C  C6  1  0.96610000  0.48600000  0.68610000  1.0 -0.0404547701
C  C7  1  0.02670000  0.57310000  0.31470000  1.0 -0.1312184925
C  C8  1  0.97330000  0.42690000  0.68530000  1.0 -0.1312184925
C  C9  1  0.00100000  0.61810000  0.27490000  1.0 0.0911211732
C  C10  1  0.99900000  0.38190000  0.72510000  1.0 0.0911211732
C  C11  1  0.98210000  0.60010000  0.23400000  1.0 -0.1403252997
C  C12  1  0.01790000  0.39990000  0.76600000  1.0 -0.1403252997
C  C13  1  0.98720000  0.53970000  0.23570000  1.0 -0.0110117112
C  C14  1  0.01280000  0.46030000  0.76430000  1.0 -0.0110117112
C  C15  1  0.99940000  0.68040000  0.27550000  1.0 0.1108518426
C  C16  1  0.00060000  0.31960000  0.72450000  1.0 0.1108518426
C  C17  1  0.04060000  0.69550000  0.30710000  1.0 -0.1592202594
C  C18  1  0.95940000  0.30450000  0.69290000  1.0 -0.1592202594
C  C19  1  0.03680000  0.75620000  0.30550000  1.0 0.0078956714
C  C20  1  0.96320000  0.24380000  0.69450000  1.0 0.0078956714
C  C21  1  0.95830000  0.78540000  0.24130000  1.0 -0.0309855366
C  C22  1  0.04170000  0.21460000  0.75870000  1.0 -0.0309855366
C  C23  1  0.95770000  0.72690000  0.24190000  1.0 -0.1592202594
C  C24  1  0.04230000  0.27310000  0.75810000  1.0 -0.1592202594
C  C25  1  0.99420000  0.86210000  0.27600000  1.0 -0.1508594185
C  C26  1  0.00580000  0.13790000  0.72400000  1.0 -0.1508594185
C  C27  1  0.85460000  0.46130000  0.17190000  1.0 -0.0110117112
C  C28  1  0.14540000  0.53870000  0.82810000  1.0 -0.0110117112
C  C29  1  0.79160000  0.46390000  0.14960000  1.0 -0.1592202594
C  C30  1  0.20840000  0.53610000  0.85040000  1.0 -0.1682307471
C  C31  1  0.79730000  0.44490000  0.10410000  1.0 0.1108518426
C  C32  1  0.20270000  0.55510000  0.89590000  1.0 0.1108518426
C  C33  1  0.87000000  0.41890000  0.08440000  1.0 -0.1508594185
C  C34  1  0.13000000  0.58110000  0.91560000  1.0 -0.1508594185
C  C35  1  0.93510000  0.41310000  0.10990000  1.0 -0.0502395433
C  C36  1  0.06490000  0.58690000  0.89010000  1.0 -0.0502395433
C  C37  1  0.72610000  0.45150000  0.07760000  1.0 0.1108518426
C  C38  1  0.27390000  0.54850000  0.92240000  1.0 0.1108518426
C  C39  1  0.73160000  0.44410000  0.02980000  1.0 -0.1508594185
C  C40  1  0.26840000  0.55590000  0.97020000  1.0 -0.1508594185
C  C41  1  0.66490000  0.44600000  0.00610000  1.0 -0.0208399646
C  C42  1  0.33510000  0.55400000  0.99390000  1.0 -0.0208399646
C  C43  1  0.58370000  0.47530000  0.07970000  1.0 0.0390720184
C  C44  1  0.41630000  0.52470000  0.92030000  1.0 0.0390720184
C  C45  1  0.64930000  0.46700000  0.10380000  1.0 -0.1682307471
C  C46  1  0.35070000  0.53300000  0.89620000  1.0 -0.1682307471
C  C47  1  0.51910000  0.46730000  0.00840000  1.0 -0.1508594185
C  C48  1  0.48090000  0.53270000  0.99160000  1.0 -0.1508594185
C  C49  1  0.99600000  0.23450000  0.16660000  1.0 -0.0598241195
C  C50  1  0.00400000  0.76550000  0.83340000  1.0 -0.0598241195
C  C51  1  0.00110000  0.17310000  0.17270000  1.0 -0.1592202594
C  C52  1  0.99890000  0.82690000  0.82730000  1.0 -0.1592202594
C  C53  1  0.01440000  0.13590000  0.21820000  1.0 0.1019573834
C  C54  1  0.98560000  0.86410000  0.78180000  1.0 0.1019573834
C  C55  1  0.01700000  0.16120000  0.25910000  1.0 -0.1403252997
C  C56  1  0.98300000  0.83880000  0.74090000  1.0 -0.1403252997
C  C57  1  0.00940000  0.22330000  0.25130000  1.0 0.028912526
C  C58  1  0.99060000  0.77670000  0.74870000  1.0 0.028912526
C  C59  1  0.02610000  0.06930000  0.22400000  1.0 0.1294449866
C  C60  1  0.97390000  0.93070000  0.77600000  1.0 0.1294449866
C  C61  1  0.99320000  0.04740000  0.19070000  1.0 -0.1508594185
C  C62  1  0.00680000  0.95260000  0.80930000  1.0 -0.1508594185
C  C63  1  0.00530000  0.98480000  0.19760000  1.0 0.0483222088
C  C64  1  0.99470000  0.01520000  0.80240000  1.0 0.0483222088
C  C65  1  0.07790000  0.96790000  0.26430000  1.0 -0.0309855366
C  C66  1  0.92210000  0.03210000  0.73570000  1.0 -0.0208399646
C  C67  1  0.06620000  0.02930000  0.26060000  1.0 -0.1933108385
C  C68  1  0.93380000  0.97070000  0.73940000  1.0 -0.1933108385
C  C69  1  0.05650000  0.88140000  0.23660000  1.0 -0.1508594185
C  C70  1  0.94350000  0.11860000  0.76340000  1.0 -0.1403252997
C  C71  1  0.17510000  0.22940000  0.32190000  1.0 0.0204868073
C  C72  1  0.82490000  0.77060000  0.67810000  1.0 0.0204868073
C  C73  1  0.21820000  0.18980000  0.35970000  1.0 -0.1403252997
C  C74  1  0.78180000  0.81020000  0.64030000  1.0 -0.1403252997
C  C75  1  0.28420000  0.14800000  0.34620000  1.0 0.1019573834
C  C76  1  0.71580000  0.85200000  0.65380000  1.0 0.1019573834
C  C77  1  0.29610000  0.14430000  0.29740000  1.0 -0.1403252997
C  C78  1  0.70390000  0.85570000  0.70260000  1.0 -0.1403252997
C  C79  1  0.25250000  0.18590000  0.26030000  1.0 -0.0981210715
C  C80  1  0.74750000  0.81410000  0.73970000  1.0 -0.0981210715
C  C81  1  0.33580000  0.10570000  0.38250000  1.0 0.1108518426
C  C82  1  0.66420000  0.89430000  0.61750000  1.0 0.1108518426
C  C83  1  0.30630000  0.08850000  0.42960000  1.0 -0.1933108385
C  C84  1  0.69370000  0.91150000  0.57040000  1.0 -0.1933108385
C  C85  1  0.35500000  0.04790000  0.46450000  1.0 0.0204868073
C  C86  1  0.64500000  0.95210000  0.53550000  1.0 0.0204868073
C  C87  1  0.45890000  0.04740000  0.40890000  1.0 -0.0023712828
C  C88  1  0.54110000  0.95260000  0.59110000  1.0 -0.0023712828
C  C89  1  0.41470000  0.08610000  0.37330000  1.0 -0.2082343961
C  C90  1  0.58530000  0.91390000  0.62670000  1.0 -0.2082343961
C  C91  1  0.47910000  0.98540000  0.48830000  1.0 -0.1403252997
C  C92  1  0.52090000  0.01460000  0.51170000  1.0 -0.1403252997
C  C93  1  0.32770000  0.33680000  0.28500000  1.0 0.4175933186
C  C94  1  0.67230000  0.66320000  0.71500000  1.0 0.4175933186
C  C95  1  0.94100000  0.36300000  0.37400000  1.0 0.0390720184
C  C96  1  0.05900000  0.63700000  0.62600000  1.0 0.0390720184
C  C97  1  0.87010000  0.38650000  0.39440000  1.0 -0.0699371901
C  C98  1  0.12990000  0.61350000  0.60560000  1.0 -0.0699371901
C  C99  1  0.79900000  0.39220000  0.37300000  1.0 0.0204868073
C  C100  1  0.20100000  0.60780000  0.62700000  1.0 0.0204868073
C  C101  1  0.80600000  0.37480000  0.32490000  1.0 -0.0981210715
C  C102  1  0.19400000  0.62520000  0.67510000  1.0 -0.0981210715
C  C103  1  0.88100000  0.35300000  0.30120000  1.0 0.0390720184
C  C104  1  0.11900000  0.64700000  0.69880000  1.0 0.0390720184
C  C105  1  0.72130000  0.41560000  0.40130000  1.0 0.028912526
C  C106  1  0.27870000  0.58440000  0.59870000  1.0 0.028912526
C  C107  1  0.71180000  0.41070000  0.45320000  1.0 -0.0882138352
C  C108  1  0.28820000  0.58930000  0.54680000  1.0 -0.0882138352
C  C109  1  0.64290000  0.43820000  0.47840000  1.0 0.0078956714
C  C110  1  0.35710000  0.56180000  0.52160000  1.0 0.0078956714
C  C111  1  0.57990000  0.46550000  0.40200000  1.0 -0.0309855366
C  C112  1  0.42010000  0.53450000  0.59800000  1.0 -0.0309855366
C  C113  1  0.65340000  0.44400000  0.37500000  1.0 -0.0981210715
C  C114  1  0.34660000  0.55600000  0.62500000  1.0 -0.0981210715
C  C115  1  0.50300000  0.49400000  0.48510000  1.0 -0.0404547701
C  C116  1  0.49700000  0.50600000  0.51490000  1.0 -0.0404547701
C  C117  1  0.15840000  0.29190000  0.07290000  1.0 -0.0808183591
C  C118  1  0.84160000  0.70810000  0.92710000  1.0 -0.0808183591
C  C119  1  0.21840000  0.25100000  0.04890000  1.0 -0.0981210715
C  C120  1  0.78160000  0.74900000  0.95110000  1.0 -0.0981210715
C  C121  1  0.29060000  0.22610000  0.06900000  1.0 0.0390720184
C  C122  1  0.70940000  0.77390000  0.93100000  1.0 0.0390720184
C  C123  1  0.30270000  0.24200000  0.11310000  1.0 -0.0309855366
C  C124  1  0.69730000  0.75800000  0.88690000  1.0 -0.0309855366
C  C125  1  0.24270000  0.28300000  0.13720000  1.0 0.078525723
C  C126  1  0.75730000  0.71700000  0.86280000  1.0 0.078525723
C  C127  1  0.35150000  0.17880000  0.04310000  1.0 0.0390720184
C  C128  1  0.64850000  0.82120000  0.95690000  1.0 0.0390720184
C  C129  1  0.40470000  0.13810000  0.07180000  1.0 -0.0110117112
C  C130  1  0.59530000  0.86190000  0.92820000  1.0 -0.0110117112
C  C131  1  0.45570000  0.08630000  0.05390000  1.0 0.0695047316
C  C132  1  0.54430000  0.91370000  0.94610000  1.0 0.0695047316
C  C133  1  0.40350000  0.12210000  0.97630000  1.0 -0.0808183591
C  C134  1  0.59650000  0.87790000  0.02370000  1.0 -0.0808183591
C  C135  1  0.35120000  0.17010000  0.99370000  1.0 -0.1992634035
C  C136  1  0.64880000  0.82990000  0.00630000  1.0 -0.1992634035
C  C137  1  0.50700000  0.02400000  0.98530000  1.0 -0.0699371901
C  C138  1  0.49300000  0.97600000  0.01470000  1.0 -0.0699371901
C  C139  1  0.28430000  0.04290000  0.10060000  1.0 0.0695047316
C  C140  1  0.71570000  0.95710000  0.89940000  1.0 0.0695047316
C  C141  1  0.24370000  0.07470000  0.13900000  1.0 -0.0023712828
C  C142  1  0.75630000  0.92530000  0.86100000  1.0 -0.0023712828
C  C143  1  0.17540000  0.12060000  0.13010000  1.0 -0.1403252997
C  C144  1  0.82460000  0.87940000  0.86990000  1.0 -0.1403252997
C  C145  1  0.14770000  0.13460000  0.08280000  1.0 -0.3399401422
C  C146  1  0.85230000  0.86540000  0.91720000  1.0 -0.3399401422
C  C147  1  0.18830000  0.10280000  0.04430000  1.0 0.0078956714
C  C148  1  0.81170000  0.89720000  0.95570000  1.0 0.0078956714
C  C149  1  0.25660000  0.05690000  0.05320000  1.0 0.0483222088
C  C150  1  0.74340000  0.94310000  0.94680000  1.0 0.0483222088
C  C151  1  0.73200000  0.95900000  0.03190000  1.0 -0.1682307471
C  C152  1  0.26800000  0.04100000  0.96810000  1.0 -0.1682307471
C  C153  1  0.66900000  0.98800000  0.05900000  1.0 0.078525723
C  C154  1  0.33100000  0.01200000  0.94100000  1.0 0.078525723
C  C155  1  0.61900000  0.95700000  0.13750000  1.0 -0.0808183591
C  C156  1  0.38100000  0.04300000  0.86250000  1.0 -0.0808183591
C  C157  1  0.54250000  0.95360000  0.16190000  1.0 -0.1592202594
C  C158  1  0.45750000  0.04640000  0.83810000  1.0 -0.1592202594
C  C159  1  0.42300000  0.91500000  0.16250000  1.0 -0.1592202594
C  C160  1  0.57700000  0.08500000  0.83750000  1.0 -0.1592202594
C  C161  1  0.28700000  0.95700000  0.16900000  1.0 0.0390720184
C  C162  1  0.71300000  0.04300000  0.83100000  1.0 0.0390720184
C  C163  1  0.18280000  0.28820000  0.10450000  1.0 0.0911211732
C  C164  1  0.81720000  0.71180000  0.89550000  1.0 0.0911211732
C  C165  1  0.22260000  0.23460000  0.08740000  1.0 -0.0208399646
C  C166  1  0.77740000  0.76540000  0.91260000  1.0 -0.0208399646
C  C167  1  0.29550000  0.20220000  0.10380000  1.0 0.0078956714
C  C168  1  0.70450000  0.79780000  0.89620000  1.0 0.0078956714
C  C169  1  0.32880000  0.22330000  0.13730000  1.0 -0.0882138352
C  C170  1  0.67120000  0.77670000  0.86270000  1.0 -0.0882138352
C  C171  1  0.28900000  0.27700000  0.15440000  1.0 -0.0882138352
C  C172  1  0.71100000  0.72300000  0.84560000  1.0 -0.0808183591
C  C173  1  0.34080000  0.14660000  0.08170000  1.0 0.0390720184
C  C174  1  0.65920000  0.85340000  0.91830000  1.0 0.0390720184
C  C175  1  0.41140000  0.11020000  0.10020000  1.0 -0.0981210715
C  C176  1  0.58860000  0.88980000  0.89980000  1.0 -0.0981210715
C  C177  1  0.44780000  0.06020000  0.08220000  1.0 -0.0808183591
C  C178  1  0.55220000  0.93980000  0.91780000  1.0 -0.0808183591
C  C179  1  0.35920000  0.08180000  0.02310000  1.0 -0.0309855366
C  C180  1  0.64080000  0.91820000  0.97690000  1.0 -0.0309855366
C  C181  1  0.31640000  0.12980000  0.04280000  1.0 -0.1312184925
C  C182  1  0.68360000  0.87020000  0.95720000  1.0 -0.1312184925
C  C183  1  0.46600000  0.99200000  0.02100000  1.0 -0.0808183591
C  C184  1  0.53400000  0.00800000  0.97900000  1.0 -0.0808183591
C  C185  1  0.44480000  0.83060000  0.95640000  1.0 -0.1175403021
C  C186  1  0.55520000  0.16940000  0.04360000  1.0 -0.1175403021
C  C187  1  0.43600000  0.80160000  0.91870000  1.0 -0.0309855366
C  C188  1  0.56400000  0.19840000  0.08130000  1.0 -0.0309855366
C  C189  1  0.48100000  0.74350000  0.91540000  1.0 -0.2294521923
C  C190  1  0.51900000  0.25650000  0.08460000  1.0 -0.2294521923
C  C191  1  0.53600000  0.71440000  0.94980000  1.0 -0.0502395433
C  C192  1  0.46400000  0.28560000  0.05020000  1.0 -0.0502395433
C  C193  1  0.54520000  0.74340000  0.98750000  1.0 -0.2504154112
C  C194  1  0.45480000  0.25660000  0.01250000  1.0 -0.2504154112
C  C195  1  0.49950000  0.80150000  0.99090000  1.0 0.1677207385
C  C196  1  0.50050000  0.19850000  0.00910000  1.0 0.1677207385
C  C197  1  0.44100000  0.20160000  0.93500000  1.0 -0.1508594185
C  C198  1  0.55900000  0.79840000  0.06500000  1.0 -0.1508594185
C  C199  1  0.44900000  0.16580000  0.90050000  1.0 -0.1111127613
C  C200  1  0.55100000  0.83420000  0.09950000  1.0 -0.1111127613
C  C201  1  0.41400000  0.08100000  0.88000000  1.0 0.0603945233
C  C202  1  0.58600000  0.91900000  0.12000000  1.0 0.0603945233
C  C203  1  0.34600000  0.05830000  0.88550000  1.0 -0.0699371901
C  C204  1  0.65400000  0.94170000  0.11450000  1.0 -0.0699371901
C  C205  1  0.31800000  0.98260000  0.94310000  1.0 0.0483222088
C  C206  1  0.68200000  0.01740000  0.05690000  1.0 0.0483222088
C  C207  1  0.32700000  0.94000000  0.95800000  1.0 -0.1111127613
C  C208  1  0.67300000  0.06000000  0.04200000  1.0 -0.1111127613
C  C209  1  0.96000000  0.37670000  0.37100000  1.0 0.0695047316
C  C210  1  0.04000000  0.62330000  0.62900000  1.0 0.0695047316
C  C211  1  0.88950000  0.41060000  0.39840000  1.0 -0.0808183591
C  C212  1  0.11050000  0.58940000  0.60160000  1.0 -0.0882138352
C  C213  1  0.81780000  0.41980000  0.37930000  1.0 0.0204868073
C  C214  1  0.18220000  0.58020000  0.62070000  1.0 0.0204868073
C  C215  1  0.81370000  0.39930000  0.33350000  1.0 -0.0502395433
C  C216  1  0.18630000  0.60070000  0.66650000  1.0 -0.0598241195
C  C217  1  0.88600000  0.36700000  0.31060000  1.0 0.0390720184
C  C218  1  0.11400000  0.63300000  0.68940000  1.0 0.0390720184
C  C219  1  0.74290000  0.45720000  0.40500000  1.0 0.0390720184
C  C220  1  0.25710000  0.54280000  0.59500000  1.0 0.0390720184
C  C221  1  0.74040000  0.46100000  0.45610000  1.0 -0.1403252997
C  C222  1  0.25960000  0.53900000  0.54390000  1.0 -0.1403252997
C  C223  1  0.67430000  0.50360000  0.47620000  1.0 -0.0404547701
C  C224  1  0.32570000  0.49640000  0.52380000  1.0 -0.0502395433
C  C225  1  0.60150000  0.50380000  0.40890000  1.0 0.0603945233
C  C226  1  0.39850000  0.49620000  0.59110000  1.0 0.0603945233
C  C227  1  0.67230000  0.47630000  0.38200000  1.0 -0.0309855366
C  C228  1  0.32770000  0.52370000  0.61800000  1.0 -0.0309855366
C  C229  1  0.53180000  0.55520000  0.48340000  1.0 -0.1682307471
C  C230  1  0.46820000  0.44480000  0.51660000  1.0 -0.1682307471
C  C231  1  0.31200000  0.95400000  0.17900000  1.0 0.1993570883
C  C232  1  0.68800000  0.04600000  0.82100000  1.0 0.1993570883
C  C233  1  0.28900000  0.68800000  0.98600000  1.0 -0.0208399646
C  C234  1  0.71100000  0.31200000  0.01400000  1.0 -0.0110117112
C  C235  1  0.34000000  0.66600000  0.94500000  1.0 -0.1111127613
C  C236  1  0.66000000  0.33400000  0.05500000  1.0 -0.1111127613
C  C237  1  0.63450000  0.05070000  0.68420000  1.0 0.4020365362
C  C238  1  0.36550000  0.94930000  0.31580000  1.0 0.4020365362
C  C239  1  0.78310000  0.71240000  0.15770000  1.0 0.4430418942
C  C240  1  0.21690000  0.28760000  0.84230000  1.0 0.4430418942
C  C241  1  0.05700000  0.69720000  0.46630000  1.0 0.4321260039
C  C242  1  0.94300000  0.30280000  0.53370000  1.0 0.4321260039
C  C243  1  0.79890000  0.17280000  0.09900000  1.0 0.4175933186
C  C244  1  0.20110000  0.82720000  0.90100000  1.0 0.4175933186
C  C245  1  0.99680000  0.16950000  0.42120000  1.0 0.3793543909
C  C246  1  0.00320000  0.83050000  0.57880000  1.0 0.3793543909
C  C247  1  0.51660000  0.44200000  0.23970000  1.0 0.4751799439
C  C248  1  0.48340000  0.55800000  0.76030000  1.0 0.4748522375
C  C249  1  0.00960000  0.56970000  0.06360000  1.0 0.4321260039
C  C250  1  0.99040000  0.43030000  0.93640000  1.0 0.4321260039
S  S1  1  0.24150000  0.38820000  0.28446000  1.0 1.0193840597
S  S2  1  0.75850000  0.61180000  0.71554000  1.0 1.0193840597
S  S3  1  0.24330000  0.98270000  0.13040000  1.0 0.3581883941
S  S4  1  0.75670000  0.01730000  0.86960000  1.0 0.3581883941
S  S5  1  0.56200000  0.11710000  0.66450000  1.0 0.9790700013
S  S6  1  0.43800000  0.88290000  0.33550000  1.0 0.9790700013
S  S7  1  0.80460000  0.77400000  0.11380000  1.0 0.8705692623
S  S8  1  0.19540000  0.22600000  0.88620000  1.0 0.8705692623
S  S9  1  0.11740000  0.64210000  0.43290000  1.0 1.0078409646
S  S10  1  0.88260000  0.35790000  0.56710000  1.0 1.0078409646
S  S11  1  0.87150000  0.11650000  0.06780000  1.0 0.9790700013
S  S12  1  0.12850000  0.88350000  0.93220000  1.0 0.9790700013
S  S13  1  0.05880000  0.10100000  0.42250000  1.0 0.9514031146
S  S14  1  0.94120000  0.89900000  0.57750000  1.0 0.9514031146
S  S15  1  0.58170000  0.48990000  0.24649000  1.0 0.989805374
S  S16  1  0.41830000  0.51010000  0.75351000  1.0 0.989805374
S  S17  1  0.08320000  0.59530000  0.08317000  1.0 0.9790700013
S  S18  1  0.91680000  0.40470000  0.91683000  1.0 0.9790700013
N  N1  1  0.39220000  0.67610000  0.91720000  1.0 -0.2294521923
N  N2  1  0.60780000  0.32390000  0.08280000  1.0 -0.2294521923
N  N3  1  0.01100000  0.49910000  0.27420000  1.0 0.2295170125
N  N4  1  0.98900000  0.50090000  0.72580000  1.0 0.2295170125
N  N5  1  0.99590000  0.79970000  0.27440000  1.0 0.1019573834
N  N6  1  0.00410000  0.20030000  0.72560000  1.0 0.1019573834
N  N7  1  0.92560000  0.43690000  0.15240000  1.0 0.2528180589
N  N8  1  0.07440000  0.56310000  0.84760000  1.0 0.2528180589
N  N9  1  0.59190000  0.46490000  0.03240000  1.0 0.028912526
N  N10  1  0.40810000  0.53510000  0.96760000  1.0 0.028912526
N  N11  1  0.00080000  0.25650000  0.20850000  1.0 0.2097568024
N  N12  1  0.99920000  0.74350000  0.79150000  1.0 0.2097568024
N  N13  1  0.04500000  0.94800000  0.23380000  1.0 0.1019573834
N  N14  1  0.95500000  0.05200000  0.76620000  1.0 0.1019573834
N  N15  1  0.19410000  0.22920000  0.27550000  1.0 0.1993570883
N  N16  1  0.80590000  0.77080000  0.72450000  1.0 0.1993570883
N  N17  1  0.42810000  0.02790000  0.45310000  1.0 0.0911211732
N  N18  1  0.57190000  0.97210000  0.54690000  1.0 0.0911211732
N  N19  1  0.95100000  0.34810000  0.32620000  1.0 0.2097568024
N  N20  1  0.04900000  0.65190000  0.67380000  1.0 0.2097568024
N  N21  1  0.57830000  0.46550000  0.45370000  1.0 -0.0699371901
N  N22  1  0.42170000  0.53450000  0.54630000  1.0 -0.0808183591
N  N23  1  0.17060000  0.30790000  0.11710000  1.0 0.0204868073
N  N24  1  0.82940000  0.69210000  0.88290000  1.0 0.0204868073
N  N25  1  0.44970000  0.07950000  0.00540000  1.0 -0.0598241195
N  N26  1  0.55030000  0.92050000  0.99460000  1.0 -0.0598241195
N  N27  1  0.21600000  0.30940000  0.13800000  1.0 -0.0208399646
N  N28  1  0.78400000  0.69060000  0.86200000  1.0 -0.0208399646
N  N29  1  0.42500000  0.04500000  0.04230000  1.0 -0.0598241195
N  N30  1  0.57500000  0.95500000  0.95770000  1.0 -0.0598241195
N  N31  1  0.94900000  0.35700000  0.33200000  1.0 0.159880716
N  N32  1  0.05100000  0.64300000  0.66800000  1.0 0.159880716
N  N33  1  0.60850000  0.52020000  0.45550000  1.0 0.0023297017
N  N34  1  0.39150000  0.47980000  0.54450000  1.0 0.0023297017
N  N35  1  0.22500000  0.70500000  0.00800000  1.0 -0.2695954334
N  N36  1  0.77500000  0.29500000  0.99200000  1.0 -0.2695954334
O  O1  1  0.29900000  0.07600000  0.19600000  1.0 -0.4362411614
O  O2  1  0.70100000  0.92400000  0.80400000  1.0 -0.4362411614
O  O3  1  0.16500000  0.09200000  0.99250000  1.0 -0.3608696874
O  O4  1  0.83500000  0.90800000  0.00750000  1.0 -0.3608696874
O  O5  1  0.58900000  0.16210000  0.96430000  1.0 -0.2695954334
O  O6  1  0.41100000  0.83790000  0.03570000  1.0 -0.2695954334
O  O7  1  0.21000000  0.04710000  0.13890000  1.0 -0.0808183591
O  O8  1  0.79000000  0.95290000  0.86110000  1.0 -0.0808183591
O  O9  1  0.13940000  0.45190000  0.18730000  1.0 -0.7985653545
O  O10  1  0.86060000  0.54810000  0.81270000  1.0 -0.7985653545
O  O11  1  0.01760000  0.44050000  0.27610000  1.0 -0.6194300319
O  O12  1  0.98240000  0.55950000  0.72390000  1.0 -0.6194300319
O  O13  1  0.98840000  0.43530000  0.17390000  1.0 -0.5788111752
O  O14  1  0.01160000  0.56470000  0.82610000  1.0 -0.5788111752
O  O15  1  0.99760000  0.31540000  0.20030000  1.0 -0.5908100273
O  O16  1  0.00240000  0.68460000  0.79970000  1.0 -0.5908100273
O  O17  1  0.15270000  0.26560000  0.24000000  1.0 -0.5495698716
O  O18  1  0.84730000  0.73440000  0.76000000  1.0 -0.5495698716
O  O19  1  0.18600000  0.36140000  0.27350000  1.0 -0.6396304037
O  O20  1  0.81400000  0.63860000  0.72650000  1.0 -0.6396304037
O  O21  1  0.25250000  0.44080000  0.24780000  1.0 -0.5400196644
O  O22  1  0.74750000  0.55920000  0.75220000  1.0 -0.5400196644
O  O23  1  0.23260000  0.39790000  0.33930000  1.0 -0.5696399238
O  O24  1  0.76740000  0.60210000  0.66070000  1.0 -0.5696399238
O  O25  1  0.11880000  0.34200000  0.14020000  1.0 -0.1175403021
O  O26  1  0.88120000  0.65800000  0.85980000  1.0 -0.1175403021
O  O27  1  0.01700000  0.32520000  0.30460000  1.0 -0.3825542595
O  O28  1  0.98300000  0.67480000  0.69540000  1.0 -0.3825542595
O  O29  1  0.02400000  0.32340000  0.30390000  1.0 -0.5012374288
O  O30  1  0.97600000  0.67660000  0.69610000  1.0 -0.5012374288
O  O31  1  0.70150000  0.97810000  0.98470000  1.0 -0.2294521923
O  O32  1  0.29850000  0.02190000  0.01530000  1.0 -0.2294521923
O  O33  1  0.66800000  0.00600000  0.09800000  1.0 -0.0404547701
O  O34  1  0.33200000  0.99400000  0.90200000  1.0 -0.0404547701
O  O35  1  0.50800000  0.92140000  0.13300000  1.0 -0.1592202594
O  O36  1  0.49200000  0.07860000  0.86700000  1.0 -0.1592202594
O  O37  1  0.34390000  0.99090000  0.10800000  1.0 -0.1312184925
O  O38  1  0.65610000  0.00910000  0.89200000  1.0 -0.1312184925
O  O39  1  0.18040000  0.35990000  0.15410000  1.0 -0.2294521923
O  O40  1  0.81960000  0.64010000  0.84590000  1.0 -0.2294521923
O  O41  1  0.48670000  0.16940000  0.97490000  1.0 -0.1592202594
O  O42  1  0.51330000  0.83060000  0.02510000  1.0 -0.1592202594
O  O43  1  0.40760000  0.12930000  0.90840000  1.0 -0.1592202594
O  O44  1  0.59240000  0.87070000  0.09160000  1.0 -0.1592202594
O  O45  1  0.37790000  0.01160000  0.92160000  1.0 -0.0502395433
O  O46  1  0.62210000  0.98840000  0.07840000  1.0 -0.0502395433
O  O47  1  0.40600000  0.88440000  0.97900000  1.0 -0.3109866943
O  O48  1  0.59400000  0.11560000  0.02100000  1.0 -0.3109866943
O  O49  1  0.30100000  0.97000000  0.08480000  1.0 -0.1992634035
O  O50  1  0.69900000  0.03000000  0.91520000  1.0 -0.1992634035
O  O51  1  0.17540000  0.94960000  0.14140000  1.0 -0.4902999069
O  O52  1  0.82460000  0.05040000  0.85860000  1.0 -0.4902999069
O  O53  1  0.50700000  0.09340000  0.64130000  1.0 -0.610529926
O  O54  1  0.60300000  0.15490000  0.62920000  1.0 -0.5012374288
O  O55  1  0.54200000  0.13500000  0.71250000  1.0 -0.5400196644
O  O56  1  0.49300000  0.90660000  0.35870000  1.0 -0.610529926
O  O57  1  0.39700000  0.84510000  0.37080000  1.0 -0.5012374288
O  O58  1  0.45800000  0.86500000  0.28750000  1.0 -0.5400196644
O  O59  1  0.81600000  0.75810000  0.06210000  1.0 -0.5400196644
O  O60  1  0.72900000  0.81690000  0.12170000  1.0 -0.5599505172
O  O61  1  0.86700000  0.78100000  0.13580000  1.0 -0.5012374288
O  O62  1  0.18400000  0.24190000  0.93790000  1.0 -0.5400196644
O  O63  1  0.27100000  0.18310000  0.87830000  1.0 -0.5599505172
O  O64  1  0.13300000  0.21900000  0.86420000  1.0 -0.5012374288
O  O65  1  0.05560000  0.61250000  0.41450000  1.0 -0.5696399238
O  O66  1  0.16030000  0.67640000  0.38910000  1.0 -0.5599505172
O  O67  1  0.14630000  0.59310000  0.47190000  1.0 -0.5201126204
O  O68  1  0.94440000  0.38750000  0.58550000  1.0 -0.5696399238
O  O69  1  0.83970000  0.32360000  0.61090000  1.0 -0.5599505172
O  O70  1  0.85370000  0.40690000  0.52810000  1.0 -0.5142371323
O  O71  1  0.86040000  0.06160000  0.10290000  1.0 -0.610529926
O  O72  1  0.94120000  0.13250000  0.07870000  1.0 -0.5400196644
O  O73  1  0.85100000  0.14050000  0.02160000  1.0 -0.4659374024
O  O74  1  0.13960000  0.93840000  0.89710000  1.0 -0.610529926
O  O75  1  0.05880000  0.86750000  0.92130000  1.0 -0.5400196644
O  O76  1  0.14900000  0.85950000  0.97840000  1.0 -0.4659374024
O  O77  1  0.11510000  0.10310000  0.45610000  1.0 -0.5310257143
O  O78  1  0.02300000  0.05440000  0.44790000  1.0 -0.4560601826
O  O79  1  0.08910000  0.10150000  0.37100000  1.0 -0.5400196644
O  O80  1  0.88490000  0.89690000  0.54390000  1.0 -0.5310257143
O  O81  1  0.97700000  0.94560000  0.55210000  1.0 -0.4560601826
O  O82  1  0.91090000  0.89850000  0.62900000  1.0 -0.5310257143
O  O83  1  0.57660000  0.53450000  0.19840000  1.0 -0.5788111752
O  O84  1  0.55050000  0.51270000  0.29250000  1.0 -0.5495698716
O  O85  1  0.65550000  0.45020000  0.24760000  1.0 -0.5495698716
O  O86  1  0.42340000  0.46550000  0.80160000  1.0 -0.5696399238
O  O87  1  0.44950000  0.48730000  0.70750000  1.0 -0.5495698716
O  O88  1  0.34450000  0.54980000  0.75240000  1.0 -0.5495698716
O  O89  1  0.03630000  0.63970000  0.11700000  1.0 -0.5599505172
O  O90  1  0.13230000  0.54220000  0.10780000  1.0 -0.5142371323
O  O91  1  0.12000000  0.62290000  0.03770000  1.0 -0.5201126204
O  O92  1  0.96370000  0.36030000  0.88300000  1.0 -0.5599505172
O  O93  1  0.86770000  0.45780000  0.89220000  1.0 -0.5142371323
O  O94  1  0.88000000  0.37710000  0.96230000  1.0 -0.5201126204
F  F1  1  0.39260000  0.35520000  0.29360000  1.0 -0.0981210715
F  F2  1  0.60740000  0.64480000  0.70640000  1.0 -0.0981210715
F  F3  1  0.35360000  0.32520000  0.23830000  1.0 -0.1814687739
F  F4  1  0.64640000  0.67480000  0.76170000  1.0 -0.1814687739
F  F5  1  0.33570000  0.28180000  0.31050000  1.0 -0.1508594185
F  F6  1  0.66430000  0.71820000  0.68950000  1.0 -0.1508594185
F  F7  1  0.34360000  0.89600000  0.16970000  1.0 -0.0699371901
F  F8  1  0.65640000  0.10400000  0.83030000  1.0 -0.0699371901
F  F9  1  0.28100000  0.95140000  0.22080000  1.0 -0.1175403021
F  F10  1  0.71900000  0.04860000  0.77920000  1.0 -0.1175403021
F  F11  1  0.36660000  0.97200000  0.16520000  1.0 0.028912526
F  F12  1  0.63340000  0.02800000  0.83480000  1.0 0.028912526
F  F13  1  0.60800000  0.01510000  0.71440000  1.0 -0.1403252997
F  F14  1  0.67300000  0.02300000  0.64570000  1.0 -0.1508594185
F  F15  1  0.69450000  0.06270000  0.69960000  1.0 -0.1508594185
F  F16  1  0.39200000  0.98490000  0.28560000  1.0 -0.1403252997
F  F17  1  0.32700000  0.97700000  0.35430000  1.0 -0.1508594185
F  F18  1  0.30550000  0.93730000  0.30040000  1.0 -0.1508594185
F  F19  1  0.76200000  0.72370000  0.19810000  1.0 -0.1403252997
F  F20  1  0.72420000  0.69760000  0.14110000  1.0 -0.1592202594
F  F21  1  0.83880000  0.66380000  0.14980000  1.0 -0.1682307471
F  F22  1  0.23800000  0.27630000  0.80190000  1.0 -0.1403252997
F  F23  1  0.27580000  0.30240000  0.85890000  1.0 -0.1592202594
F  F24  1  0.16120000  0.33620000  0.85020000  1.0 -0.1682307471
F  F25  1  0.12400000  0.70640000  0.48200000  1.0 -0.2294521923
F  F26  1  0.01120000  0.67360000  0.50410000  1.0 -0.1992634035
F  F27  1  0.00640000  0.73160000  0.43740000  1.0 -0.1992634035
F  F28  1  0.87600000  0.29360000  0.51800000  1.0 -0.2294521923
F  F29  1  0.98880000  0.32640000  0.49590000  1.0 -0.1992634035
F  F30  1  0.99360000  0.26840000  0.56260000  1.0 -0.1992634035
F  F31  1  0.73410000  0.17730000  0.09290000  1.0 -0.1508594185
F  F32  1  0.81480000  0.22690000  0.08310000  1.0 -0.1175403021
F  F33  1  0.81680000  0.16160000  0.14610000  1.0 -0.1403252997
F  F34  1  0.26590000  0.82270000  0.90710000  1.0 -0.1508594185
F  F35  1  0.18520000  0.77310000  0.91690000  1.0 -0.1175403021
F  F36  1  0.18320000  0.83840000  0.85390000  1.0 -0.1403252997
F  F37  1  0.95690000  0.17740000  0.46730000  1.0 -0.1403252997
F  F38  1  0.94470000  0.18830000  0.38980000  1.0 -0.1592202594
F  F39  1  0.02490000  0.21290000  0.40550000  1.0 -0.1312184925
F  F40  1  0.04310000  0.82260000  0.53270000  1.0 -0.1403252997
F  F41  1  0.05530000  0.81170000  0.61020000  1.0 -0.1592202594
F  F42  1  0.97510000  0.78710000  0.59450000  1.0 -0.1312184925
F  F43  1  0.43870000  0.48320000  0.24530000  1.0 -0.1592202594
F  F44  1  0.53020000  0.42820000  0.19990000  1.0 -0.1814687739
F  F45  1  0.52270000  0.39800000  0.28340000  1.0 -0.2154406275
F  F46  1  0.56130000  0.51680000  0.75470000  1.0 -0.1592202594
F  F47  1  0.46980000  0.57180000  0.80010000  1.0 -0.1814687739
F  F48  1  0.47730000  0.60200000  0.71660000  1.0 -0.2154406275
F  F49  1  0.03290000  0.53240000  0.03900000  1.0 -0.1312184925
F  F50  1  0.95830000  0.61610000  0.03890000  1.0 -0.1592202594
F  F51  1  0.95770000  0.55410000  0.10290000  1.0 -0.1403252997
F  F52  1  0.96710000  0.46760000  0.96100000  1.0 -0.1312184925
F  F53  1  0.04170000  0.38390000  0.96110000  1.0 -0.1592202594
F  F54  1  0.04230000  0.44590000  0.89710000  1.0 -0.1403252997
