# DDEC6 charges by PACMAN v1.1 (https://github.com/mtap-research/PACMAN-charge/)
data_FEVWOV_ASR_pacman
_symmetry_space_group_name_H-M   'P 1'
_cell_length_a   24.39530000
_cell_length_b   24.39530000
_cell_length_c   24.39530000
_cell_angle_alpha   109.47100000
_cell_angle_beta   109.47100000
_cell_angle_gamma   109.47100000
_symmetry_Int_Tables_number   1
_chemical_formula_structural   Zr3H40(C10O3)4
_chemical_formula_sum   'Zr18 H240 C240 O72'
_cell_volume   11176.35392967
_cell_formula_units_Z   6
loop_
 _symmetry_equiv_pos_site_id
 _symmetry_equiv_pos_as_xyz
  1  'x, y, z'
loop_
 _atom_site_type_symbol
 _atom_site_label
 _atom_site_symmetry_multiplicity
 _atom_site_fract_x
 _atom_site_fract_y
 _atom_site_fract_z
 _atom_site_occupancy
 _atom_site_charge
Zr  Zr1  1  0.00000000  0.58695000  0.58695000  1.0 2.3791302093
Zr  Zr2  1  0.00000000  0.41305000  0.41305000  1.0 2.3724337467
Zr  Zr3  1  0.41305000  0.00000000  0.41305000  1.0 2.3724337467
Zr  Zr4  1  0.58695000  0.00000000  0.58695000  1.0 2.3724337467
Zr  Zr5  1  0.41305000  0.41305000  0.00000000  1.0 2.3791302093
Zr  Zr6  1  0.58695000  0.58695000  0.00000000  1.0 2.3724337467
Zr  Zr7  1  0.12570000  0.56285000  0.56285000  1.0 2.4525496372
Zr  Zr8  1  0.00000000  0.43715000  0.56285000  1.0 2.4525496372
Zr  Zr9  1  0.87430000  0.43715000  0.43715000  1.0 2.4525496372
Zr  Zr10  1  0.00000000  0.56285000  0.43715000  1.0 2.4575439343
Zr  Zr11  1  0.56285000  0.00000000  0.43715000  1.0 2.4525496372
Zr  Zr12  1  0.56285000  0.12570000  0.56285000  1.0 2.4525496372
Zr  Zr13  1  0.43715000  0.00000000  0.56285000  1.0 2.4525496372
Zr  Zr14  1  0.43715000  0.87430000  0.43715000  1.0 2.4525496372
Zr  Zr15  1  0.56285000  0.43715000  0.00000000  1.0 2.4575439343
Zr  Zr16  1  0.43715000  0.43715000  0.87430000  1.0 2.4525496372
Zr  Zr17  1  0.43715000  0.56285000  0.00000000  1.0 2.4525496372
Zr  Zr18  1  0.56285000  0.56285000  0.12570000  1.0 2.4525496372
H  H1  1  0.62726000  0.50876000  0.67334000  1.0 0.0397324102
H  H2  1  0.63820000  0.48228000  0.61058000  1.0 0.0466759254
H  H3  1  0.69831000  0.54836000  0.67985000  1.0 0.0397324102
H  H4  1  0.16458000  0.49124000  0.11850000  1.0 0.0397324102
H  H5  1  0.12830000  0.51772000  0.15592000  1.0 0.0466759254
H  H6  1  0.13149000  0.45164000  0.14995000  1.0 0.0397324102
H  H7  1  0.37274000  0.04608000  0.88150000  1.0 0.0397324102
H  H8  1  0.36180000  0.97238000  0.84408000  1.0 0.0466759254
H  H9  1  0.30169000  0.98154000  0.85005000  1.0 0.0397324102
H  H10  1  0.83542000  0.95392000  0.32666000  1.0 0.0397324102
H  H11  1  0.87170000  0.02762000  0.38942000  1.0 0.0466759254
H  H12  1  0.86851000  0.01846000  0.32015000  1.0 0.0397324102
H  H13  1  0.11850000  0.16458000  0.49124000  1.0 0.0397324102
H  H14  1  0.15592000  0.12830000  0.51772000  1.0 0.0466759254
H  H15  1  0.14995000  0.13149000  0.45164000  1.0 0.0397324102
H  H16  1  0.67334000  0.62726000  0.50876000  1.0 0.0397324102
H  H17  1  0.61058000  0.63820000  0.48228000  1.0 0.0466759254
H  H18  1  0.67985000  0.69831000  0.54836000  1.0 0.0397324102
H  H19  1  0.32666000  0.83542000  0.95392000  1.0 0.0397324102
H  H20  1  0.38942000  0.87170000  0.02762000  1.0 0.0466759254
H  H21  1  0.32015000  0.86851000  0.01846000  1.0 0.0397324102
H  H22  1  0.88150000  0.37274000  0.04608000  1.0 0.0397324102
H  H23  1  0.84408000  0.36180000  0.97238000  1.0 0.0466759254
H  H24  1  0.85005000  0.30169000  0.98154000  1.0 0.0397324102
H  H25  1  0.95392000  0.32666000  0.83542000  1.0 0.0397324102
H  H26  1  0.02762000  0.38942000  0.87170000  1.0 0.0466759254
H  H27  1  0.01846000  0.32015000  0.86851000  1.0 0.0397324102
H  H28  1  0.04608000  0.88150000  0.37274000  1.0 0.0397324102
H  H29  1  0.97238000  0.84408000  0.36180000  1.0 0.0466759254
H  H30  1  0.98154000  0.85005000  0.30169000  1.0 0.0397324102
H  H31  1  0.49124000  0.11850000  0.16458000  1.0 0.0397324102
H  H32  1  0.51772000  0.15592000  0.12830000  1.0 0.0466759254
H  H33  1  0.45164000  0.14995000  0.13149000  1.0 0.0397324102
H  H34  1  0.50876000  0.67334000  0.62726000  1.0 0.0397324102
H  H35  1  0.48228000  0.61058000  0.63820000  1.0 0.0466759254
H  H36  1  0.54836000  0.67985000  0.69831000  1.0 0.0397324102
H  H37  1  0.32666000  0.49124000  0.37274000  1.0 0.0397324102
H  H38  1  0.38942000  0.51772000  0.36180000  1.0 0.0466759254
H  H39  1  0.32015000  0.45164000  0.30169000  1.0 0.0397324102
H  H40  1  0.88150000  0.50876000  0.83542000  1.0 0.0397324102
H  H41  1  0.84408000  0.48228000  0.87170000  1.0 0.0466759254
H  H42  1  0.85005000  0.54836000  0.86851000  1.0 0.0397324102
H  H43  1  0.11850000  0.95392000  0.62726000  1.0 0.0397324102
H  H44  1  0.15592000  0.02762000  0.63820000  1.0 0.0466759254
H  H45  1  0.14995000  0.01846000  0.69831000  1.0 0.0397324102
H  H46  1  0.67334000  0.04608000  0.16458000  1.0 0.0397324102
H  H47  1  0.61058000  0.97238000  0.12830000  1.0 0.0466759254
H  H48  1  0.67985000  0.98154000  0.13149000  1.0 0.0397324102
H  H49  1  0.50876000  0.83542000  0.88150000  1.0 0.0397324102
H  H50  1  0.48228000  0.87170000  0.84408000  1.0 0.0466759254
H  H51  1  0.54836000  0.86851000  0.85005000  1.0 0.0397324102
H  H52  1  0.49124000  0.37274000  0.32666000  1.0 0.0397324102
H  H53  1  0.51772000  0.36180000  0.38942000  1.0 0.0466759254
H  H54  1  0.45164000  0.30169000  0.32015000  1.0 0.0397324102
H  H55  1  0.04608000  0.16458000  0.67334000  1.0 0.0397324102
H  H56  1  0.97238000  0.12830000  0.61058000  1.0 0.0466759254
H  H57  1  0.98154000  0.13149000  0.67985000  1.0 0.0397324102
H  H58  1  0.95392000  0.62726000  0.11850000  1.0 0.0397324102
H  H59  1  0.02762000  0.63820000  0.15592000  1.0 0.0466759254
H  H60  1  0.01846000  0.69831000  0.14995000  1.0 0.0397324102
H  H61  1  0.16458000  0.67334000  0.04608000  1.0 0.0397324102
H  H62  1  0.12830000  0.61058000  0.97238000  1.0 0.0466759254
H  H63  1  0.13149000  0.67985000  0.98154000  1.0 0.0397324102
H  H64  1  0.62726000  0.11850000  0.95392000  1.0 0.0397324102
H  H65  1  0.63820000  0.15592000  0.02762000  1.0 0.0466759254
H  H66  1  0.69831000  0.14995000  0.01846000  1.0 0.0397324102
H  H67  1  0.83542000  0.88150000  0.50876000  1.0 0.0397324102
H  H68  1  0.87170000  0.84408000  0.48228000  1.0 0.0466759254
H  H69  1  0.86851000  0.85005000  0.54836000  1.0 0.0397324102
H  H70  1  0.37274000  0.32666000  0.49124000  1.0 0.0397324102
H  H71  1  0.36180000  0.38942000  0.51772000  1.0 0.0466759254
H  H72  1  0.30169000  0.32015000  0.45164000  1.0 0.0397324102
H  H73  1  0.37274000  0.49124000  0.32666000  1.0 0.0397324102
H  H74  1  0.36180000  0.51772000  0.38942000  1.0 0.0466759254
H  H75  1  0.30169000  0.45164000  0.32015000  1.0 0.0397324102
H  H76  1  0.83542000  0.50876000  0.88150000  1.0 0.0397324102
H  H77  1  0.87170000  0.48228000  0.84408000  1.0 0.0466759254
H  H78  1  0.86851000  0.54836000  0.85005000  1.0 0.0397324102
H  H79  1  0.62726000  0.95392000  0.11850000  1.0 0.0397324102
H  H80  1  0.63820000  0.02762000  0.15592000  1.0 0.0466759254
H  H81  1  0.69831000  0.01846000  0.14995000  1.0 0.0397324102
H  H82  1  0.16458000  0.04608000  0.67334000  1.0 0.0397324102
H  H83  1  0.12830000  0.97238000  0.61058000  1.0 0.0466759254
H  H84  1  0.13149000  0.98154000  0.67985000  1.0 0.0397324102
H  H85  1  0.88150000  0.83542000  0.50876000  1.0 0.0397324102
H  H86  1  0.84408000  0.87170000  0.48228000  1.0 0.0466759254
H  H87  1  0.85005000  0.86851000  0.54836000  1.0 0.0397324102
H  H88  1  0.32666000  0.37274000  0.49124000  1.0 0.0397324102
H  H89  1  0.38942000  0.36180000  0.51772000  1.0 0.0466759254
H  H90  1  0.32015000  0.30169000  0.45164000  1.0 0.0397324102
H  H91  1  0.67334000  0.16458000  0.04608000  1.0 0.0397324102
H  H92  1  0.61058000  0.12830000  0.97238000  1.0 0.0466759254
H  H93  1  0.67985000  0.13149000  0.98154000  1.0 0.0397324102
H  H94  1  0.11850000  0.62726000  0.95392000  1.0 0.0397324102
H  H95  1  0.15592000  0.63820000  0.02762000  1.0 0.0466759254
H  H96  1  0.14995000  0.69831000  0.01846000  1.0 0.0397324102
H  H97  1  0.04608000  0.67334000  0.16458000  1.0 0.0397324102
H  H98  1  0.97238000  0.61058000  0.12830000  1.0 0.0466759254
H  H99  1  0.98154000  0.67985000  0.13149000  1.0 0.0397324102
H  H100  1  0.95392000  0.11850000  0.62726000  1.0 0.0397324102
H  H101  1  0.02762000  0.15592000  0.63820000  1.0 0.0466759254
H  H102  1  0.01846000  0.14995000  0.69831000  1.0 0.0397324102
H  H103  1  0.50876000  0.88150000  0.83542000  1.0 0.0397324102
H  H104  1  0.48228000  0.84408000  0.87170000  1.0 0.0466759254
H  H105  1  0.54836000  0.85005000  0.86851000  1.0 0.0397324102
H  H106  1  0.49124000  0.32666000  0.37274000  1.0 0.0397324102
H  H107  1  0.51772000  0.38942000  0.36180000  1.0 0.0466759254
H  H108  1  0.45164000  0.32015000  0.30169000  1.0 0.0397324102
H  H109  1  0.67334000  0.50876000  0.62726000  1.0 0.0397324102
H  H110  1  0.61058000  0.48228000  0.63820000  1.0 0.0466759254
H  H111  1  0.67985000  0.54836000  0.69831000  1.0 0.0397324102
H  H112  1  0.11850000  0.49124000  0.16458000  1.0 0.0397324102
H  H113  1  0.15592000  0.51772000  0.12830000  1.0 0.0466759254
H  H114  1  0.14995000  0.45164000  0.13149000  1.0 0.0397324102
H  H115  1  0.88150000  0.04608000  0.37274000  1.0 0.0397324102
H  H116  1  0.84408000  0.97238000  0.36180000  1.0 0.0466759254
H  H117  1  0.85005000  0.98154000  0.30169000  1.0 0.0397324102
H  H118  1  0.32666000  0.95392000  0.83542000  1.0 0.0397324102
H  H119  1  0.38942000  0.02762000  0.87170000  1.0 0.0466759254
H  H120  1  0.32015000  0.01846000  0.86851000  1.0 0.0397324102
H  H121  1  0.49124000  0.16458000  0.11850000  1.0 0.0397324102
H  H122  1  0.51772000  0.12830000  0.15592000  1.0 0.0466759254
H  H123  1  0.45164000  0.13149000  0.14995000  1.0 0.0397324102
H  H124  1  0.50876000  0.62726000  0.67334000  1.0 0.0397324102
H  H125  1  0.48228000  0.63820000  0.61058000  1.0 0.0466759254
H  H126  1  0.54836000  0.69831000  0.67985000  1.0 0.0397324102
H  H127  1  0.95392000  0.83542000  0.32666000  1.0 0.0397324102
H  H128  1  0.02762000  0.87170000  0.38942000  1.0 0.0466759254
H  H129  1  0.01846000  0.86851000  0.32015000  1.0 0.0397324102
H  H130  1  0.04608000  0.37274000  0.88150000  1.0 0.0397324102
H  H131  1  0.97238000  0.36180000  0.84408000  1.0 0.0466759254
H  H132  1  0.98154000  0.30169000  0.85005000  1.0 0.0397324102
H  H133  1  0.83542000  0.32666000  0.95392000  1.0 0.0397324102
H  H134  1  0.87170000  0.38942000  0.02762000  1.0 0.0466759254
H  H135  1  0.86851000  0.32015000  0.01846000  1.0 0.0397324102
H  H136  1  0.37274000  0.88150000  0.04608000  1.0 0.0397324102
H  H137  1  0.36180000  0.84408000  0.97238000  1.0 0.0466759254
H  H138  1  0.30169000  0.85005000  0.98154000  1.0 0.0397324102
H  H139  1  0.16458000  0.11850000  0.49124000  1.0 0.0397324102
H  H140  1  0.12830000  0.15592000  0.51772000  1.0 0.0466759254
H  H141  1  0.13149000  0.14995000  0.45164000  1.0 0.0397324102
H  H142  1  0.62726000  0.67334000  0.50876000  1.0 0.0397324102
H  H143  1  0.63820000  0.61058000  0.48228000  1.0 0.0466759254
H  H144  1  0.69831000  0.67985000  0.54836000  1.0 0.0397324102
H  H145  1  0.63006000  0.48239000  0.48239000  1.0 0.1358781592
H  H146  1  0.71088000  0.46339000  0.46339000  1.0 0.117151634
H  H147  1  0.85812000  0.63483000  0.63483000  1.0 0.1132091903
H  H148  1  0.77592000  0.65325000  0.65325000  1.0 0.1284458233
H  H149  1  0.00000000  0.51761000  0.14767000  1.0 0.1358781592
H  H150  1  0.00000000  0.53661000  0.24749000  1.0 0.117151634
H  H151  1  0.00000000  0.36517000  0.22329000  1.0 0.1132091903
H  H152  1  0.00000000  0.34675000  0.12267000  1.0 0.1284458233
H  H153  1  0.36994000  0.85233000  0.85233000  1.0 0.1358781592
H  H154  1  0.28912000  0.75251000  0.75251000  1.0 0.117151634
H  H155  1  0.14188000  0.77671000  0.77671000  1.0 0.1132091903
H  H156  1  0.22408000  0.87733000  0.87733000  1.0 0.1284458233
H  H157  1  0.00000000  0.14767000  0.51761000  1.0 0.1358781592
H  H158  1  0.00000000  0.24749000  0.53661000  1.0 0.117151634
H  H159  1  0.00000000  0.22329000  0.36517000  1.0 0.1132091903
H  H160  1  0.00000000  0.12267000  0.34675000  1.0 0.1284458233
H  H161  1  0.14767000  0.00000000  0.51761000  1.0 0.1358781592
H  H162  1  0.24749000  0.00000000  0.53661000  1.0 0.117151634
H  H163  1  0.22329000  0.00000000  0.36517000  1.0 0.1132091903
H  H164  1  0.12267000  0.00000000  0.34675000  1.0 0.1284458233
H  H165  1  0.48239000  0.63006000  0.48239000  1.0 0.1358781592
H  H166  1  0.46339000  0.71088000  0.46339000  1.0 0.117151634
H  H167  1  0.63483000  0.85812000  0.63483000  1.0 0.1132091903
H  H168  1  0.65325000  0.77592000  0.65325000  1.0 0.1284458233
H  H169  1  0.51761000  0.00000000  0.14767000  1.0 0.1358781592
H  H170  1  0.53661000  0.00000000  0.24749000  1.0 0.117151634
H  H171  1  0.36517000  0.00000000  0.22329000  1.0 0.1132091903
H  H172  1  0.34675000  0.00000000  0.12267000  1.0 0.1284458233
H  H173  1  0.85233000  0.36994000  0.85233000  1.0 0.1358781592
H  H174  1  0.75251000  0.28912000  0.75251000  1.0 0.117151634
H  H175  1  0.77671000  0.14188000  0.77671000  1.0 0.1132091903
H  H176  1  0.87733000  0.22408000  0.87733000  1.0 0.1284458233
H  H177  1  0.14767000  0.51761000  0.00000000  1.0 0.1358781592
H  H178  1  0.24749000  0.53661000  0.00000000  1.0 0.117151634
H  H179  1  0.22329000  0.36517000  0.00000000  1.0 0.1132091903
H  H180  1  0.12267000  0.34675000  0.00000000  1.0 0.1284458233
H  H181  1  0.85233000  0.85233000  0.36994000  1.0 0.1358781592
H  H182  1  0.75251000  0.75251000  0.28912000  1.0 0.117151634
H  H183  1  0.77671000  0.77671000  0.14188000  1.0 0.1132091903
H  H184  1  0.87733000  0.87733000  0.22408000  1.0 0.1284458233
H  H185  1  0.51761000  0.14767000  0.00000000  1.0 0.1358781592
H  H186  1  0.53661000  0.24749000  0.00000000  1.0 0.117151634
H  H187  1  0.36517000  0.22329000  0.00000000  1.0 0.1132091903
H  H188  1  0.34675000  0.12267000  0.00000000  1.0 0.1284458233
H  H189  1  0.48239000  0.48239000  0.63006000  1.0 0.1358781592
H  H190  1  0.46339000  0.46339000  0.71088000  1.0 0.117151634
H  H191  1  0.63483000  0.63483000  0.85812000  1.0 0.1132091903
H  H192  1  0.65325000  0.65325000  0.77592000  1.0 0.1284458233
H  H193  1  0.51761000  0.51761000  0.36994000  1.0 0.1358781592
H  H194  1  0.53661000  0.53661000  0.28912000  1.0 0.117151634
H  H195  1  0.36517000  0.36517000  0.14188000  1.0 0.1132091903
H  H196  1  0.34675000  0.34675000  0.22408000  1.0 0.1284458233
H  H197  1  0.85233000  0.48239000  0.00000000  1.0 0.1358781592
H  H198  1  0.75251000  0.46339000  0.00000000  1.0 0.117151634
H  H199  1  0.77671000  0.63483000  0.00000000  1.0 0.1132091903
H  H200  1  0.87733000  0.65325000  0.00000000  1.0 0.1284458233
H  H201  1  0.14767000  0.14767000  0.63006000  1.0 0.1358781592
H  H202  1  0.24749000  0.24749000  0.71088000  1.0 0.117151634
H  H203  1  0.22329000  0.22329000  0.85812000  1.0 0.1132091903
H  H204  1  0.12267000  0.12267000  0.77592000  1.0 0.1284458233
H  H205  1  0.48239000  0.85233000  0.00000000  1.0 0.1358781592
H  H206  1  0.46339000  0.75251000  0.00000000  1.0 0.117151634
H  H207  1  0.63483000  0.77671000  0.00000000  1.0 0.1132091903
H  H208  1  0.65325000  0.87733000  0.00000000  1.0 0.1284458233
H  H209  1  0.48239000  0.00000000  0.85233000  1.0 0.1358781592
H  H210  1  0.46339000  0.00000000  0.75251000  1.0 0.117151634
H  H211  1  0.63483000  0.00000000  0.77671000  1.0 0.1132091903
H  H212  1  0.65325000  0.00000000  0.87733000  1.0 0.1284458233
H  H213  1  0.51761000  0.36994000  0.51761000  1.0 0.1358781592
H  H214  1  0.53661000  0.28912000  0.53661000  1.0 0.117151634
H  H215  1  0.36517000  0.14188000  0.36517000  1.0 0.1132091903
H  H216  1  0.34675000  0.22408000  0.34675000  1.0 0.1284458233
H  H217  1  0.85233000  0.00000000  0.48239000  1.0 0.1358781592
H  H218  1  0.75251000  0.00000000  0.46339000  1.0 0.117151634
H  H219  1  0.77671000  0.00000000  0.63483000  1.0 0.1132091903
H  H220  1  0.87733000  0.00000000  0.65325000  1.0 0.1284458233
H  H221  1  0.14767000  0.63006000  0.14767000  1.0 0.1358781592
H  H222  1  0.24749000  0.71088000  0.24749000  1.0 0.117151634
H  H223  1  0.22329000  0.85812000  0.22329000  1.0 0.1132091903
H  H224  1  0.12267000  0.77592000  0.12267000  1.0 0.1284458233
H  H225  1  0.00000000  0.48239000  0.85233000  1.0 0.1358781592
H  H226  1  0.00000000  0.46339000  0.75251000  1.0 0.117151634
H  H227  1  0.00000000  0.63483000  0.77671000  1.0 0.1132091903
H  H228  1  0.00000000  0.65325000  0.87733000  1.0 0.1284458233
H  H229  1  0.63006000  0.14767000  0.14767000  1.0 0.1358781592
H  H230  1  0.71088000  0.24749000  0.24749000  1.0 0.117151634
H  H231  1  0.85812000  0.22329000  0.22329000  1.0 0.1132091903
H  H232  1  0.77592000  0.12267000  0.12267000  1.0 0.1284458233
H  H233  1  0.00000000  0.85233000  0.48239000  1.0 0.1358781592
H  H234  1  0.00000000  0.75251000  0.46339000  1.0 0.117151634
H  H235  1  0.00000000  0.77671000  0.63483000  1.0 0.1132091903
H  H236  1  0.00000000  0.87733000  0.65325000  1.0 0.1284458233
H  H237  1  0.36994000  0.51761000  0.51761000  1.0 0.1358781592
H  H238  1  0.28912000  0.53661000  0.53661000  1.0 0.117151634
H  H239  1  0.14188000  0.36517000  0.36517000  1.0 0.1132091903
H  H240  1  0.22408000  0.34675000  0.34675000  1.0 0.1284458233
C  C1  1  0.64696000  0.58618000  0.58618000  1.0 -0.0797685798
C  C2  1  0.69568000  0.57024000  0.57024000  1.0 0.0466759254
C  C3  1  0.67634000  0.51367000  0.51367000  1.0 -0.1714369501
C  C4  1  0.72460000  0.50260000  0.50260000  1.0 -0.067640721
C  C5  1  0.79182000  0.54691000  0.54691000  1.0 -0.0575284127
C  C6  1  0.81180000  0.60360000  0.60360000  1.0 -0.0797685798
C  C7  1  0.76240000  0.61410000  0.61410000  1.0 -0.1477592334
C  C8  1  0.84460000  0.53590000  0.53590000  1.0 0.6334006636
C  C9  1  0.00000000  0.41382000  0.06078000  1.0 -0.0797685798
C  C10  1  0.00000000  0.42976000  0.12544000  1.0 0.0466759254
C  C11  1  0.00000000  0.48633000  0.16267000  1.0 -0.1714369501
C  C12  1  0.00000000  0.49740000  0.22200000  1.0 -0.067640721
C  C13  1  0.00000000  0.45309000  0.24491000  1.0 -0.0575284127
C  C14  1  0.00000000  0.39640000  0.20820000  1.0 -0.0797685798
C  C15  1  0.00000000  0.38590000  0.14830000  1.0 -0.1477592334
C  C16  1  0.00000000  0.46410000  0.30870000  1.0 0.6334006636
C  C17  1  0.35304000  0.93922000  0.93922000  1.0 -0.0797685798
C  C18  1  0.30432000  0.87456000  0.87456000  1.0 0.0466759254
C  C19  1  0.32366000  0.83733000  0.83733000  1.0 -0.1714369501
C  C20  1  0.27540000  0.77800000  0.77800000  1.0 -0.067640721
C  C21  1  0.20818000  0.75509000  0.75509000  1.0 -0.0575284127
C  C22  1  0.18820000  0.79180000  0.79180000  1.0 -0.0797685798
C  C23  1  0.23760000  0.85170000  0.85170000  1.0 -0.1477592334
C  C24  1  0.15540000  0.69130000  0.69130000  1.0 0.6334006636
C  C25  1  0.00000000  0.06078000  0.41382000  1.0 -0.0797685798
C  C26  1  0.00000000  0.12544000  0.42976000  1.0 0.0466759254
C  C27  1  0.00000000  0.16267000  0.48633000  1.0 -0.1714369501
C  C28  1  0.00000000  0.22200000  0.49740000  1.0 -0.067640721
C  C29  1  0.00000000  0.24491000  0.45309000  1.0 -0.0575284127
C  C30  1  0.00000000  0.20820000  0.39640000  1.0 -0.0797685798
C  C31  1  0.00000000  0.14830000  0.38590000  1.0 -0.1477592334
C  C32  1  0.00000000  0.30870000  0.46410000  1.0 0.6334006636
C  C33  1  0.06078000  0.00000000  0.41382000  1.0 -0.0797685798
C  C34  1  0.12544000  0.00000000  0.42976000  1.0 0.0466759254
C  C35  1  0.16267000  0.00000000  0.48633000  1.0 -0.1714369501
C  C36  1  0.22200000  0.00000000  0.49740000  1.0 -0.067640721
C  C37  1  0.24491000  0.00000000  0.45309000  1.0 -0.0575284127
C  C38  1  0.20820000  0.00000000  0.39640000  1.0 -0.0797685798
C  C39  1  0.14830000  0.00000000  0.38590000  1.0 -0.1477592334
C  C40  1  0.30870000  0.00000000  0.46410000  1.0 0.6334006636
C  C41  1  0.58618000  0.64696000  0.58618000  1.0 -0.0797685798
C  C42  1  0.57024000  0.69568000  0.57024000  1.0 0.0466759254
C  C43  1  0.51367000  0.67634000  0.51367000  1.0 -0.1714369501
C  C44  1  0.50260000  0.72460000  0.50260000  1.0 -0.067640721
C  C45  1  0.54691000  0.79182000  0.54691000  1.0 -0.0575284127
C  C46  1  0.60360000  0.81180000  0.60360000  1.0 -0.0797685798
C  C47  1  0.61410000  0.76240000  0.61410000  1.0 -0.1477592334
C  C48  1  0.53590000  0.84460000  0.53590000  1.0 0.6334006636
C  C49  1  0.41382000  0.00000000  0.06078000  1.0 -0.0797685798
C  C50  1  0.42976000  0.00000000  0.12544000  1.0 0.0466759254
C  C51  1  0.48633000  0.00000000  0.16267000  1.0 -0.1714369501
C  C52  1  0.49740000  0.00000000  0.22200000  1.0 -0.067640721
C  C53  1  0.45309000  0.00000000  0.24491000  1.0 -0.0575284127
C  C54  1  0.39640000  0.00000000  0.20820000  1.0 -0.0797685798
C  C55  1  0.38590000  0.00000000  0.14830000  1.0 -0.1477592334
C  C56  1  0.46410000  0.00000000  0.30870000  1.0 0.6334006636
C  C57  1  0.93922000  0.35304000  0.93922000  1.0 -0.0797685798
C  C58  1  0.87456000  0.30432000  0.87456000  1.0 0.0466759254
C  C59  1  0.83733000  0.32366000  0.83733000  1.0 -0.1714369501
C  C60  1  0.77800000  0.27540000  0.77800000  1.0 -0.067640721
C  C61  1  0.75509000  0.20818000  0.75509000  1.0 -0.0575284127
C  C62  1  0.79180000  0.18820000  0.79180000  1.0 -0.0797685798
C  C63  1  0.85170000  0.23760000  0.85170000  1.0 -0.1477592334
C  C64  1  0.69130000  0.15540000  0.69130000  1.0 0.6334006636
C  C65  1  0.06078000  0.41382000  0.00000000  1.0 -0.0797685798
C  C66  1  0.12544000  0.42976000  0.00000000  1.0 0.0466759254
C  C67  1  0.16267000  0.48633000  0.00000000  1.0 -0.1714369501
C  C68  1  0.22200000  0.49740000  0.00000000  1.0 -0.067640721
C  C69  1  0.24491000  0.45309000  0.00000000  1.0 -0.0575284127
C  C70  1  0.20820000  0.39640000  0.00000000  1.0 -0.0797685798
C  C71  1  0.14830000  0.38590000  0.00000000  1.0 -0.1477592334
C  C72  1  0.30870000  0.46410000  0.00000000  1.0 0.6334006636
C  C73  1  0.93922000  0.93922000  0.35304000  1.0 -0.0797685798
C  C74  1  0.87456000  0.87456000  0.30432000  1.0 0.0466759254
C  C75  1  0.83733000  0.83733000  0.32366000  1.0 -0.1714369501
C  C76  1  0.77800000  0.77800000  0.27540000  1.0 -0.067640721
C  C77  1  0.75509000  0.75509000  0.20818000  1.0 -0.0575284127
C  C78  1  0.79180000  0.79180000  0.18820000  1.0 -0.067640721
C  C79  1  0.85170000  0.85170000  0.23760000  1.0 -0.1477592334
C  C80  1  0.69130000  0.69130000  0.15540000  1.0 0.6334006636
C  C81  1  0.41382000  0.06078000  0.00000000  1.0 -0.0797685798
C  C82  1  0.42976000  0.12544000  0.00000000  1.0 0.0466759254
C  C83  1  0.48633000  0.16267000  0.00000000  1.0 -0.1714369501
C  C84  1  0.49740000  0.22200000  0.00000000  1.0 -0.067640721
C  C85  1  0.45309000  0.24491000  0.00000000  1.0 -0.0575284127
C  C86  1  0.39640000  0.20820000  0.00000000  1.0 -0.0797685798
C  C87  1  0.38590000  0.14830000  0.00000000  1.0 -0.1477592334
C  C88  1  0.46410000  0.30870000  0.00000000  1.0 0.6334006636
C  C89  1  0.58618000  0.58618000  0.64696000  1.0 -0.0797685798
C  C90  1  0.57024000  0.57024000  0.69568000  1.0 0.0466759254
C  C91  1  0.51367000  0.51367000  0.67634000  1.0 -0.1714369501
C  C92  1  0.50260000  0.50260000  0.72460000  1.0 -0.067640721
C  C93  1  0.54691000  0.54691000  0.79182000  1.0 -0.0575284127
C  C94  1  0.60360000  0.60360000  0.81180000  1.0 -0.0797685798
C  C95  1  0.61410000  0.61410000  0.76240000  1.0 -0.1477592334
C  C96  1  0.53590000  0.53590000  0.84460000  1.0 0.6334006636
C  C97  1  0.41382000  0.41382000  0.35304000  1.0 -0.0797685798
C  C98  1  0.42976000  0.42976000  0.30432000  1.0 0.0466759254
C  C99  1  0.48633000  0.48633000  0.32366000  1.0 -0.1714369501
C  C100  1  0.49740000  0.49740000  0.27540000  1.0 -0.067640721
C  C101  1  0.45309000  0.45309000  0.20818000  1.0 -0.0575284127
C  C102  1  0.39640000  0.39640000  0.18820000  1.0 -0.067640721
C  C103  1  0.38590000  0.38590000  0.23760000  1.0 -0.1477592334
C  C104  1  0.46410000  0.46410000  0.15540000  1.0 0.6334006636
C  C105  1  0.93922000  0.58618000  0.00000000  1.0 -0.0797685798
C  C106  1  0.87456000  0.57024000  0.00000000  1.0 0.0466759254
C  C107  1  0.83733000  0.51367000  0.00000000  1.0 -0.1714369501
C  C108  1  0.77800000  0.50260000  0.00000000  1.0 -0.067640721
C  C109  1  0.75509000  0.54691000  0.00000000  1.0 -0.0575284127
C  C110  1  0.79180000  0.60360000  0.00000000  1.0 -0.0797685798
C  C111  1  0.85170000  0.61410000  0.00000000  1.0 -0.1477592334
C  C112  1  0.69130000  0.53590000  0.00000000  1.0 0.6334006636
C  C113  1  0.06078000  0.06078000  0.64696000  1.0 -0.0797685798
C  C114  1  0.12544000  0.12544000  0.69568000  1.0 0.0466759254
C  C115  1  0.16267000  0.16267000  0.67634000  1.0 -0.1714369501
C  C116  1  0.22200000  0.22200000  0.72460000  1.0 -0.067640721
C  C117  1  0.24491000  0.24491000  0.79182000  1.0 -0.0575284127
C  C118  1  0.20820000  0.20820000  0.81180000  1.0 -0.0797685798
C  C119  1  0.14830000  0.14830000  0.76240000  1.0 -0.1477592334
C  C120  1  0.30870000  0.30870000  0.84460000  1.0 0.6334006636
C  C121  1  0.58618000  0.93922000  0.00000000  1.0 -0.0797685798
C  C122  1  0.57024000  0.87456000  0.00000000  1.0 0.0466759254
C  C123  1  0.51367000  0.83733000  0.00000000  1.0 -0.1714369501
C  C124  1  0.50260000  0.77800000  0.00000000  1.0 -0.067640721
C  C125  1  0.54691000  0.75509000  0.00000000  1.0 -0.0575284127
C  C126  1  0.60360000  0.79180000  0.00000000  1.0 -0.0797685798
C  C127  1  0.61410000  0.85170000  0.00000000  1.0 -0.1477592334
C  C128  1  0.53590000  0.69130000  0.00000000  1.0 0.6334006636
C  C129  1  0.58618000  0.00000000  0.93922000  1.0 -0.0797685798
C  C130  1  0.57024000  0.00000000  0.87456000  1.0 0.0466759254
C  C131  1  0.51367000  0.00000000  0.83733000  1.0 -0.1714369501
C  C132  1  0.50260000  0.00000000  0.77800000  1.0 -0.067640721
C  C133  1  0.54691000  0.00000000  0.75509000  1.0 -0.0575284127
C  C134  1  0.60360000  0.00000000  0.79180000  1.0 -0.0797685798
C  C135  1  0.61410000  0.00000000  0.85170000  1.0 -0.1477592334
C  C136  1  0.53590000  0.00000000  0.69130000  1.0 0.6334006636
C  C137  1  0.41382000  0.35304000  0.41382000  1.0 -0.0797685798
C  C138  1  0.42976000  0.30432000  0.42976000  1.0 0.0466759254
C  C139  1  0.48633000  0.32366000  0.48633000  1.0 -0.1714369501
C  C140  1  0.49740000  0.27540000  0.49740000  1.0 -0.067640721
C  C141  1  0.45309000  0.20818000  0.45309000  1.0 -0.0575284127
C  C142  1  0.39640000  0.18820000  0.39640000  1.0 -0.0797685798
C  C143  1  0.38590000  0.23760000  0.38590000  1.0 -0.1477592334
C  C144  1  0.46410000  0.15540000  0.46410000  1.0 0.6334006636
C  C145  1  0.93922000  0.00000000  0.58618000  1.0 -0.0797685798
C  C146  1  0.87456000  0.00000000  0.57024000  1.0 0.0466759254
C  C147  1  0.83733000  0.00000000  0.51367000  1.0 -0.1714369501
C  C148  1  0.77800000  0.00000000  0.50260000  1.0 -0.067640721
C  C149  1  0.75509000  0.00000000  0.54691000  1.0 -0.0575284127
C  C150  1  0.79180000  0.00000000  0.60360000  1.0 -0.0797685798
C  C151  1  0.85170000  0.00000000  0.61410000  1.0 -0.1477592334
C  C152  1  0.69130000  0.00000000  0.53590000  1.0 0.6334006636
C  C153  1  0.06078000  0.64696000  0.06078000  1.0 -0.0797685798
C  C154  1  0.12544000  0.69568000  0.12544000  1.0 0.0466759254
C  C155  1  0.16267000  0.67634000  0.16267000  1.0 -0.1714369501
C  C156  1  0.22200000  0.72460000  0.22200000  1.0 -0.067640721
C  C157  1  0.24491000  0.79182000  0.24491000  1.0 -0.0575284127
C  C158  1  0.20820000  0.81180000  0.20820000  1.0 -0.0797685798
C  C159  1  0.14830000  0.76240000  0.14830000  1.0 -0.1477592334
C  C160  1  0.30870000  0.84460000  0.30870000  1.0 0.6334006636
C  C161  1  0.00000000  0.58618000  0.93922000  1.0 -0.0797685798
C  C162  1  0.00000000  0.57024000  0.87456000  1.0 0.0466759254
C  C163  1  0.00000000  0.51367000  0.83733000  1.0 -0.1714369501
C  C164  1  0.00000000  0.50260000  0.77800000  1.0 -0.067640721
C  C165  1  0.00000000  0.54691000  0.75509000  1.0 -0.0575284127
C  C166  1  0.00000000  0.60360000  0.79180000  1.0 -0.0797685798
C  C167  1  0.00000000  0.61410000  0.85170000  1.0 -0.1477592334
C  C168  1  0.00000000  0.53590000  0.69130000  1.0 0.6334006636
C  C169  1  0.64696000  0.06078000  0.06078000  1.0 -0.0797685798
C  C170  1  0.69568000  0.12544000  0.12544000  1.0 0.0466759254
C  C171  1  0.67634000  0.16267000  0.16267000  1.0 -0.1714369501
C  C172  1  0.72460000  0.22200000  0.22200000  1.0 -0.067640721
C  C173  1  0.79182000  0.24491000  0.24491000  1.0 -0.0575284127
C  C174  1  0.81180000  0.20820000  0.20820000  1.0 -0.0797685798
C  C175  1  0.76240000  0.14830000  0.14830000  1.0 -0.1477592334
C  C176  1  0.84460000  0.30870000  0.30870000  1.0 0.6334006636
C  C177  1  0.00000000  0.93922000  0.58618000  1.0 -0.0797685798
C  C178  1  0.00000000  0.87456000  0.57024000  1.0 0.0466759254
C  C179  1  0.00000000  0.83733000  0.51367000  1.0 -0.1714369501
C  C180  1  0.00000000  0.77800000  0.50260000  1.0 -0.067640721
C  C181  1  0.00000000  0.75509000  0.54691000  1.0 -0.0575284127
C  C182  1  0.00000000  0.79180000  0.60360000  1.0 -0.0797685798
C  C183  1  0.00000000  0.85170000  0.61410000  1.0 -0.1477592334
C  C184  1  0.00000000  0.69130000  0.53590000  1.0 0.6334006636
C  C185  1  0.35304000  0.41382000  0.41382000  1.0 -0.0797685798
C  C186  1  0.30432000  0.42976000  0.42976000  1.0 0.0466759254
C  C187  1  0.32366000  0.48633000  0.48633000  1.0 -0.1714369501
C  C188  1  0.27540000  0.49740000  0.49740000  1.0 -0.067640721
C  C189  1  0.20818000  0.45309000  0.45309000  1.0 -0.0575284127
C  C190  1  0.18820000  0.39640000  0.39640000  1.0 -0.0797685798
C  C191  1  0.23760000  0.38590000  0.38590000  1.0 -0.1477592334
C  C192  1  0.15540000  0.46410000  0.46410000  1.0 0.6334006636
C  C193  1  0.62616000  0.56532000  0.62616000  1.0 0.0134588758
C  C194  1  0.64960000  0.52240000  0.64960000  1.0 -0.2624985277
C  C195  1  0.06084000  0.43468000  0.06084000  1.0 0.0134588758
C  C196  1  0.12720000  0.47760000  0.12720000  1.0 -0.2624985277
C  C197  1  0.37384000  0.00000000  0.93916000  1.0 0.0134588758
C  C198  1  0.35040000  0.00000000  0.87280000  1.0 -0.2624985277
C  C199  1  0.93916000  0.00000000  0.37384000  1.0 0.0134588758
C  C200  1  0.87280000  0.00000000  0.35040000  1.0 -0.2624985277
C  C201  1  0.06084000  0.06084000  0.43468000  1.0 0.0134588758
C  C202  1  0.12720000  0.12720000  0.47760000  1.0 -0.2624985277
C  C203  1  0.62616000  0.62616000  0.56532000  1.0 0.0134588758
C  C204  1  0.64960000  0.64960000  0.52240000  1.0 -0.2624985277
C  C205  1  0.37384000  0.93916000  0.00000000  1.0 0.0134588758
C  C206  1  0.35040000  0.87280000  0.00000000  1.0 -0.2624985277
C  C207  1  0.93916000  0.37384000  0.00000000  1.0 0.0134588758
C  C208  1  0.87280000  0.35040000  0.00000000  1.0 -0.2624985277
C  C209  1  0.00000000  0.37384000  0.93916000  1.0 0.0134588758
C  C210  1  0.00000000  0.35040000  0.87280000  1.0 -0.2624985277
C  C211  1  0.00000000  0.93916000  0.37384000  1.0 0.0134588758
C  C212  1  0.00000000  0.87280000  0.35040000  1.0 -0.2624985277
C  C213  1  0.43468000  0.06084000  0.06084000  1.0 0.0157643133
C  C214  1  0.47760000  0.12720000  0.12720000  1.0 -0.2624985277
C  C215  1  0.56532000  0.62616000  0.62616000  1.0 0.0134588758
C  C216  1  0.52240000  0.64960000  0.64960000  1.0 -0.2624985277
C  C217  1  0.37384000  0.43468000  0.37384000  1.0 0.0134588758
C  C218  1  0.35040000  0.47760000  0.35040000  1.0 -0.2624985277
C  C219  1  0.93916000  0.56532000  0.93916000  1.0 0.0157643133
C  C220  1  0.87280000  0.52240000  0.87280000  1.0 -0.2624985277
C  C221  1  0.06084000  0.00000000  0.62616000  1.0 0.0134588758
C  C222  1  0.12720000  0.00000000  0.64960000  1.0 -0.2624985277
C  C223  1  0.62616000  0.00000000  0.06084000  1.0 0.0134588758
C  C224  1  0.64960000  0.00000000  0.12720000  1.0 -0.2624985277
C  C225  1  0.56532000  0.93916000  0.93916000  1.0 0.0134588758
C  C226  1  0.52240000  0.87280000  0.87280000  1.0 -0.2651417306
C  C227  1  0.43468000  0.37384000  0.37384000  1.0 0.0157643133
C  C228  1  0.47760000  0.35040000  0.35040000  1.0 -0.2624985277
C  C229  1  0.00000000  0.06084000  0.62616000  1.0 0.0134588758
C  C230  1  0.00000000  0.12720000  0.64960000  1.0 -0.2624985277
C  C231  1  0.00000000  0.62616000  0.06084000  1.0 0.0134588758
C  C232  1  0.00000000  0.64960000  0.12720000  1.0 -0.2624985277
C  C233  1  0.06084000  0.62616000  0.00000000  1.0 0.0134588758
C  C234  1  0.12720000  0.64960000  0.00000000  1.0 -0.2624985277
C  C235  1  0.62616000  0.06084000  0.00000000  1.0 0.0134588758
C  C236  1  0.64960000  0.12720000  0.00000000  1.0 -0.2624985277
C  C237  1  0.93916000  0.93916000  0.56532000  1.0 0.0134588758
C  C238  1  0.87280000  0.87280000  0.52240000  1.0 -0.2624985277
C  C239  1  0.37384000  0.37384000  0.43468000  1.0 0.0134588758
C  C240  1  0.35040000  0.35040000  0.47760000  1.0 -0.2624985277
O  O1  1  0.06280000  0.54289000  0.60569000  1.0 -1.1933857722
O  O2  1  0.06280000  0.45711000  0.51991000  1.0 -1.1977301351
O  O3  1  0.93720000  0.54289000  0.48009000  1.0 -1.1977301351
O  O4  1  0.93720000  0.45711000  0.39431000  1.0 -1.1933857722
O  O5  1  0.51991000  0.06280000  0.45711000  1.0 -1.1977301351
O  O6  1  0.60569000  0.06280000  0.54289000  1.0 -1.1933857722
O  O7  1  0.39431000  0.93720000  0.45711000  1.0 -1.1977301351
O  O8  1  0.48009000  0.93720000  0.54289000  1.0 -1.1977301351
O  O9  1  0.45711000  0.39431000  0.93720000  1.0 -1.1933857722
O  O10  1  0.54289000  0.48009000  0.93720000  1.0 -1.1977301351
O  O11  1  0.45711000  0.51991000  0.06280000  1.0 -1.1977301351
O  O12  1  0.54289000  0.60569000  0.06280000  1.0 -1.1933857722
O  O13  1  0.39431000  0.45711000  0.93720000  1.0 -1.1933857722
O  O14  1  0.48009000  0.54289000  0.93720000  1.0 -1.1933857722
O  O15  1  0.51991000  0.45711000  0.06280000  1.0 -1.1977301351
O  O16  1  0.60569000  0.54289000  0.06280000  1.0 -1.1933857722
O  O17  1  0.54289000  0.93720000  0.48009000  1.0 -1.1977301351
O  O18  1  0.45711000  0.93720000  0.39431000  1.0 -1.1933857722
O  O19  1  0.54289000  0.06280000  0.60569000  1.0 -1.1933857722
O  O20  1  0.45711000  0.06280000  0.51991000  1.0 -1.1933857722
O  O21  1  0.06280000  0.60569000  0.54289000  1.0 -1.1977301351
O  O22  1  0.06280000  0.51991000  0.45711000  1.0 -1.1933857722
O  O23  1  0.93720000  0.48009000  0.54289000  1.0 -1.1933857722
O  O24  1  0.93720000  0.39431000  0.45711000  1.0 -1.1933857722
O  O25  1  0.90446000  0.57909000  0.57909000  1.0 -0.5734194541
O  O26  1  0.82378000  0.48261000  0.48261000  1.0 -0.626992473
O  O27  1  0.00000000  0.42091000  0.32537000  1.0 -0.5734194541
O  O28  1  0.00000000  0.51739000  0.34117000  1.0 -0.626992473
O  O29  1  0.09554000  0.67463000  0.67463000  1.0 -0.5734194541
O  O30  1  0.17622000  0.65883000  0.65883000  1.0 -0.626992473
O  O31  1  0.00000000  0.32537000  0.42091000  1.0 -0.5734194541
O  O32  1  0.00000000  0.34117000  0.51739000  1.0 -0.626992473
O  O33  1  0.32537000  0.00000000  0.42091000  1.0 -0.5734194541
O  O34  1  0.34117000  0.00000000  0.51739000  1.0 -0.626992473
O  O35  1  0.57909000  0.90446000  0.57909000  1.0 -0.5734194541
O  O36  1  0.48261000  0.82378000  0.48261000  1.0 -0.626992473
O  O37  1  0.42091000  0.00000000  0.32537000  1.0 -0.5734194541
O  O38  1  0.51739000  0.00000000  0.34117000  1.0 -0.626992473
O  O39  1  0.67463000  0.09554000  0.67463000  1.0 -0.5734194541
O  O40  1  0.65883000  0.17622000  0.65883000  1.0 -0.626992473
O  O41  1  0.32537000  0.42091000  0.00000000  1.0 -0.5734194541
O  O42  1  0.34117000  0.51739000  0.00000000  1.0 -0.626992473
O  O43  1  0.67463000  0.67463000  0.09554000  1.0 -0.5734194541
O  O44  1  0.65883000  0.65883000  0.17622000  1.0 -0.626992473
O  O45  1  0.42091000  0.32537000  0.00000000  1.0 -0.5734194541
O  O46  1  0.51739000  0.34117000  0.00000000  1.0 -0.626992473
O  O47  1  0.57909000  0.57909000  0.90446000  1.0 -0.5734194541
O  O48  1  0.48261000  0.48261000  0.82378000  1.0 -0.626992473
O  O49  1  0.42091000  0.42091000  0.09554000  1.0 -0.5734194541
O  O50  1  0.51739000  0.51739000  0.17622000  1.0 -0.6238115183
O  O51  1  0.67463000  0.57909000  0.00000000  1.0 -0.5734194541
O  O52  1  0.65883000  0.48261000  0.00000000  1.0 -0.626992473
O  O53  1  0.32537000  0.32537000  0.90446000  1.0 -0.5734194541
O  O54  1  0.34117000  0.34117000  0.82378000  1.0 -0.626992473
O  O55  1  0.57909000  0.67463000  0.00000000  1.0 -0.5734194541
O  O56  1  0.48261000  0.65883000  0.00000000  1.0 -0.626992473
O  O57  1  0.57909000  0.00000000  0.67463000  1.0 -0.5734194541
O  O58  1  0.48261000  0.00000000  0.65883000  1.0 -0.626992473
O  O59  1  0.42091000  0.09554000  0.42091000  1.0 -0.5734194541
O  O60  1  0.51739000  0.17622000  0.51739000  1.0 -0.626992473
O  O61  1  0.67463000  0.00000000  0.57909000  1.0 -0.5734194541
O  O62  1  0.65883000  0.00000000  0.48261000  1.0 -0.626992473
O  O63  1  0.32537000  0.90446000  0.32537000  1.0 -0.5734194541
O  O64  1  0.34117000  0.82378000  0.34117000  1.0 -0.626992473
O  O65  1  0.00000000  0.57909000  0.67463000  1.0 -0.5754790655
O  O66  1  0.00000000  0.48261000  0.65883000  1.0 -0.626992473
O  O67  1  0.90446000  0.32537000  0.32537000  1.0 -0.5754790655
O  O68  1  0.82378000  0.34117000  0.34117000  1.0 -0.626992473
O  O69  1  0.00000000  0.67463000  0.57909000  1.0 -0.5734194541
O  O70  1  0.00000000  0.65883000  0.48261000  1.0 -0.626992473
O  O71  1  0.09554000  0.42091000  0.42091000  1.0 -0.5734194541
O  O72  1  0.17622000  0.51739000  0.51739000  1.0 -0.626992473
