# DDEC6 charges by PACMAN v1.1 (https://github.com/mtap-research/PACMAN-charge/)
data_FEVWUB_ASR_pacman
_symmetry_space_group_name_H-M   'P 1'
_cell_length_a   28.35570000
_cell_length_b   28.35570000
_cell_length_c   27.96860000
_cell_angle_alpha   90.00000000
_cell_angle_beta   90.00000000
_cell_angle_gamma   90.74810000
_symmetry_Int_Tables_number   1
_chemical_formula_structural   Zr3H30(C10O3)4
_chemical_formula_sum   'Zr36 H360 C480 O144'
_cell_volume   22486.11633863
_cell_formula_units_Z   12
loop_
 _symmetry_equiv_pos_site_id
 _symmetry_equiv_pos_as_xyz
  1  'x, y, z'
loop_
 _atom_site_type_symbol
 _atom_site_label
 _atom_site_symmetry_multiplicity
 _atom_site_fract_x
 _atom_site_fract_y
 _atom_site_fract_z
 _atom_site_occupancy
 _atom_site_charge
Zr  Zr1  1  0.66910000  0.23006000  0.68736000  1.0 2.4476340758
Zr  Zr2  1  0.79434000  0.22448000  0.68636000  1.0 2.4414224373
Zr  Zr3  1  0.23006000  0.66910000  0.81264000  1.0 2.4414224373
Zr  Zr4  1  0.22448000  0.79434000  0.81364000  1.0 2.4414224373
Zr  Zr5  1  0.66910000  0.23006000  0.81264000  1.0 2.4476340758
Zr  Zr6  1  0.79434000  0.22448000  0.81364000  1.0 2.4414224373
Zr  Zr7  1  0.23006000  0.66910000  0.68736000  1.0 2.4414224373
Zr  Zr8  1  0.22448000  0.79434000  0.68636000  1.0 2.4414224373
Zr  Zr9  1  0.78460000  0.66104000  0.25000000  1.0 2.4579242018
Zr  Zr10  1  0.66104000  0.78460000  0.25000000  1.0 2.4579242018
Zr  Zr11  1  0.65940000  0.65940000  0.25000000  1.0 2.4818136838
Zr  Zr12  1  0.78591000  0.78591000  0.25000000  1.0 2.4414224373
Zr  Zr13  1  0.72279000  0.72279000  0.33790000  1.0 2.3590407518
Zr  Zr14  1  0.72279000  0.72279000  0.16210000  1.0 2.3590407518
Zr  Zr15  1  0.73777000  0.31353000  0.75000000  1.0 2.3498256353
Zr  Zr16  1  0.72645000  0.14099000  0.75000000  1.0 2.3590407518
Zr  Zr17  1  0.31353000  0.73777000  0.75000000  1.0 2.3498256353
Zr  Zr18  1  0.14099000  0.72645000  0.75000000  1.0 2.3590407518
Zr  Zr19  1  0.33090000  0.76994000  0.18736000  1.0 2.4476340758
Zr  Zr20  1  0.20566000  0.77552000  0.18636000  1.0 2.4414224373
Zr  Zr21  1  0.76994000  0.33090000  0.31264000  1.0 2.4476340758
Zr  Zr22  1  0.77552000  0.20566000  0.31364000  1.0 2.4414224373
Zr  Zr23  1  0.33090000  0.76994000  0.31264000  1.0 2.4476340758
Zr  Zr24  1  0.20566000  0.77552000  0.31364000  1.0 2.4414224373
Zr  Zr25  1  0.76994000  0.33090000  0.18736000  1.0 2.4476340758
Zr  Zr26  1  0.77552000  0.20566000  0.18636000  1.0 2.4414224373
Zr  Zr27  1  0.21540000  0.33896000  0.75000000  1.0 2.4579242018
Zr  Zr28  1  0.33896000  0.21540000  0.75000000  1.0 2.4579242018
Zr  Zr29  1  0.34060000  0.34060000  0.75000000  1.0 2.4818136838
Zr  Zr30  1  0.21409000  0.21409000  0.75000000  1.0 2.4414224373
Zr  Zr31  1  0.27721000  0.27721000  0.83790000  1.0 2.3590407518
Zr  Zr32  1  0.27721000  0.27721000  0.66210000  1.0 2.3590407518
Zr  Zr33  1  0.26223000  0.68647000  0.25000000  1.0 2.3498256353
Zr  Zr34  1  0.27355000  0.85901000  0.25000000  1.0 2.3590407518
Zr  Zr35  1  0.68647000  0.26223000  0.25000000  1.0 2.3498256353
Zr  Zr36  1  0.85901000  0.27355000  0.25000000  1.0 2.3590407518
H  H1  1  0.91391000  0.54529000  0.08749000  1.0 0.1194442957
H  H2  1  0.86895000  0.58085000  0.14516000  1.0 0.1113098261
H  H3  1  0.79686000  0.64914000  0.04156000  1.0 0.1194442957
H  H4  1  0.84204000  0.61292000  0.98428000  1.0 0.1194442957
H  H5  1  0.84157000  0.45111000  0.97997000  1.0 0.1286549241
H  H6  1  0.84408000  0.48524000  0.02549000  1.0 0.1194442957
H  H7  1  0.81774000  0.50192000  0.97792000  1.0 0.1286549241
H  H8  1  0.92025000  0.39031000  0.94036000  1.0 0.1194442957
H  H9  1  0.88364000  0.33180000  0.89475000  1.0 0.103061492
H  H10  1  0.81092000  0.42886000  0.82127000  1.0 0.1194442957
H  H11  1  0.85239000  0.48831000  0.86408000  1.0 0.1194442957
H  H12  1  0.97547000  0.50461000  0.84366000  1.0 0.1286549241
H  H13  1  0.01168000  0.47986000  0.87933000  1.0 0.1194442957
H  H14  1  0.96366000  0.45332000  0.86471000  1.0 0.1286549241
H  H15  1  0.96834000  0.60508000  0.86294000  1.0 0.1113098261
H  H16  1  0.02678000  0.64514000  0.81900000  1.0 0.1194442957
H  H17  1  0.12469000  0.58839000  0.90555000  1.0 0.1113098261
H  H18  1  0.06547000  0.54881000  0.94761000  1.0 0.1194442957
H  H19  1  0.99475000  0.62467000  0.97657000  1.0 0.1286549241
H  H20  1  0.94331000  0.63587000  0.99683000  1.0 0.1286549241
H  H21  1  0.97927000  0.60579000  0.02824000  1.0 0.1286549241
H  H22  1  0.63502000  0.47390000  0.95010000  1.0 0.1286549241
H  H23  1  0.63932000  0.51516000  0.98895000  1.0 0.1286549241
H  H24  1  0.60688000  0.46976000  0.99955000  1.0 0.1286549241
H  H25  1  0.54326000  0.40446000  0.91761000  1.0 0.1194442957
H  H26  1  0.58431000  0.34285000  0.88406000  1.0 0.1194442957
H  H27  1  0.66731000  0.43613000  0.81263000  1.0 0.1194442957
H  H28  1  0.62770000  0.49548000  0.84654000  1.0 0.1286549241
H  H29  1  0.81602000  0.97614000  0.54103000  1.0 0.1286549241
H  H30  1  0.83954000  0.97476000  0.48905000  1.0 0.1286549241
H  H31  1  0.81093000  0.92977000  0.50872000  1.0 0.1194442957
H  H32  1  0.90350000  0.04862000  0.56504000  1.0 0.1194442957
H  H33  1  0.86995000  0.11315000  0.60628000  1.0 0.1194442957
H  H34  1  0.79523000  0.01829000  0.68506000  1.0 0.1194442957
H  H35  1  0.83358000  0.95830000  0.64747000  1.0 0.1286549241
H  H36  1  0.93965000  0.98543000  0.65428000  1.0 0.0473151792
H  H37  1  0.95627000  0.93421000  0.67076000  1.0 0.0473151792
H  H38  1  0.99047000  0.96677000  0.63895000  1.0 0.0293930487
H  H39  1  0.47472000  0.52050000  0.82709000  1.0 0.0473151792
H  H40  1  0.52718000  0.50498000  0.81383000  1.0 0.0473151792
H  H41  1  0.49200000  0.46842000  0.83959000  1.0 0.0473151792
H  H42  1  0.54529000  0.91391000  0.41251000  1.0 0.1194442957
H  H43  1  0.58085000  0.86895000  0.35484000  1.0 0.1113098261
H  H44  1  0.64914000  0.79686000  0.45844000  1.0 0.1194442957
H  H45  1  0.61292000  0.84204000  0.51572000  1.0 0.1194442957
H  H46  1  0.45111000  0.84157000  0.52003000  1.0 0.1286549241
H  H47  1  0.48524000  0.84408000  0.47451000  1.0 0.1194442957
H  H48  1  0.50192000  0.81774000  0.52208000  1.0 0.1286549241
H  H49  1  0.39031000  0.92025000  0.55964000  1.0 0.1194442957
H  H50  1  0.33180000  0.88364000  0.60525000  1.0 0.103061492
H  H51  1  0.42886000  0.81092000  0.67873000  1.0 0.1194442957
H  H52  1  0.48831000  0.85239000  0.63592000  1.0 0.1194442957
H  H53  1  0.50461000  0.97547000  0.65634000  1.0 0.1286549241
H  H54  1  0.47986000  0.01168000  0.62067000  1.0 0.1194442957
H  H55  1  0.45332000  0.96366000  0.63529000  1.0 0.1286549241
H  H56  1  0.60508000  0.96834000  0.63706000  1.0 0.1113098261
H  H57  1  0.64514000  0.02678000  0.68100000  1.0 0.1194442957
H  H58  1  0.58839000  0.12469000  0.59445000  1.0 0.1113098261
H  H59  1  0.54881000  0.06547000  0.55239000  1.0 0.1194442957
H  H60  1  0.62467000  0.99475000  0.52343000  1.0 0.1286549241
H  H61  1  0.63587000  0.94331000  0.50317000  1.0 0.1286549241
H  H62  1  0.60579000  0.97927000  0.47176000  1.0 0.1286549241
H  H63  1  0.47390000  0.63502000  0.54990000  1.0 0.1286549241
H  H64  1  0.51516000  0.63932000  0.51105000  1.0 0.1286549241
H  H65  1  0.46976000  0.60688000  0.50045000  1.0 0.1286549241
H  H66  1  0.40446000  0.54326000  0.58239000  1.0 0.1194442957
H  H67  1  0.34285000  0.58431000  0.61594000  1.0 0.1194442957
H  H68  1  0.43613000  0.66731000  0.68737000  1.0 0.1194442957
H  H69  1  0.49548000  0.62770000  0.65346000  1.0 0.1286549241
H  H70  1  0.97614000  0.81602000  0.95897000  1.0 0.1286549241
H  H71  1  0.97476000  0.83954000  0.01095000  1.0 0.1286549241
H  H72  1  0.92977000  0.81093000  0.99128000  1.0 0.1194442957
H  H73  1  0.04862000  0.90350000  0.93496000  1.0 0.1194442957
H  H74  1  0.11315000  0.86995000  0.89372000  1.0 0.1194442957
H  H75  1  0.01829000  0.79523000  0.81494000  1.0 0.1194442957
H  H76  1  0.95830000  0.83358000  0.85253000  1.0 0.1286549241
H  H77  1  0.98543000  0.93965000  0.84572000  1.0 0.0473151792
H  H78  1  0.93421000  0.95627000  0.82924000  1.0 0.0473151792
H  H79  1  0.96677000  0.99047000  0.86105000  1.0 0.0238343828
H  H80  1  0.52050000  0.47472000  0.67291000  1.0 0.0473151792
H  H81  1  0.50498000  0.52718000  0.68617000  1.0 0.0473151792
H  H82  1  0.46842000  0.49200000  0.66041000  1.0 0.0473151792
H  H83  1  0.91391000  0.54529000  0.41251000  1.0 0.1194442957
H  H84  1  0.86895000  0.58085000  0.35484000  1.0 0.1113098261
H  H85  1  0.79686000  0.64914000  0.45844000  1.0 0.1194442957
H  H86  1  0.84204000  0.61292000  0.51572000  1.0 0.1194442957
H  H87  1  0.84157000  0.45111000  0.52003000  1.0 0.1286549241
H  H88  1  0.84408000  0.48524000  0.47451000  1.0 0.1194442957
H  H89  1  0.81774000  0.50192000  0.52208000  1.0 0.1286549241
H  H90  1  0.92025000  0.39031000  0.55964000  1.0 0.1194442957
H  H91  1  0.88364000  0.33180000  0.60525000  1.0 0.103061492
H  H92  1  0.81092000  0.42886000  0.67873000  1.0 0.1194442957
H  H93  1  0.85239000  0.48831000  0.63592000  1.0 0.1194442957
H  H94  1  0.97547000  0.50461000  0.65634000  1.0 0.1286549241
H  H95  1  0.01168000  0.47986000  0.62067000  1.0 0.1194442957
H  H96  1  0.96366000  0.45332000  0.63529000  1.0 0.1286549241
H  H97  1  0.96834000  0.60508000  0.63706000  1.0 0.1113098261
H  H98  1  0.02678000  0.64514000  0.68100000  1.0 0.1194442957
H  H99  1  0.12469000  0.58839000  0.59445000  1.0 0.1113098261
H  H100  1  0.06547000  0.54881000  0.55239000  1.0 0.1194442957
H  H101  1  0.99475000  0.62467000  0.52343000  1.0 0.1286549241
H  H102  1  0.94331000  0.63587000  0.50317000  1.0 0.1286549241
H  H103  1  0.97927000  0.60579000  0.47176000  1.0 0.1286549241
H  H104  1  0.63502000  0.47390000  0.54990000  1.0 0.1286549241
H  H105  1  0.63932000  0.51516000  0.51105000  1.0 0.1286549241
H  H106  1  0.60688000  0.46976000  0.50045000  1.0 0.1286549241
H  H107  1  0.54326000  0.40446000  0.58239000  1.0 0.1194442957
H  H108  1  0.58431000  0.34285000  0.61594000  1.0 0.1194442957
H  H109  1  0.66731000  0.43613000  0.68737000  1.0 0.1194442957
H  H110  1  0.62770000  0.49548000  0.65346000  1.0 0.1286549241
H  H111  1  0.81602000  0.97614000  0.95897000  1.0 0.1286549241
H  H112  1  0.83954000  0.97476000  0.01095000  1.0 0.1286549241
H  H113  1  0.81093000  0.92977000  0.99128000  1.0 0.1194442957
H  H114  1  0.90350000  0.04862000  0.93496000  1.0 0.1194442957
H  H115  1  0.86995000  0.11315000  0.89372000  1.0 0.1194442957
H  H116  1  0.79523000  0.01829000  0.81494000  1.0 0.1194442957
H  H117  1  0.83358000  0.95830000  0.85253000  1.0 0.1286549241
H  H118  1  0.93965000  0.98543000  0.84572000  1.0 0.0473151792
H  H119  1  0.95627000  0.93421000  0.82924000  1.0 0.0473151792
H  H120  1  0.99047000  0.96677000  0.86105000  1.0 0.0293930487
H  H121  1  0.47472000  0.52050000  0.67291000  1.0 0.0473151792
H  H122  1  0.52718000  0.50498000  0.68617000  1.0 0.0473151792
H  H123  1  0.49200000  0.46842000  0.66041000  1.0 0.0473151792
H  H124  1  0.54529000  0.91391000  0.08749000  1.0 0.1194442957
H  H125  1  0.58085000  0.86895000  0.14516000  1.0 0.1113098261
H  H126  1  0.64914000  0.79686000  0.04156000  1.0 0.1194442957
H  H127  1  0.61292000  0.84204000  0.98428000  1.0 0.1194442957
H  H128  1  0.45111000  0.84157000  0.97997000  1.0 0.1286549241
H  H129  1  0.48524000  0.84408000  0.02549000  1.0 0.1194442957
H  H130  1  0.50192000  0.81774000  0.97792000  1.0 0.1286549241
H  H131  1  0.39031000  0.92025000  0.94036000  1.0 0.1194442957
H  H132  1  0.33180000  0.88364000  0.89475000  1.0 0.103061492
H  H133  1  0.42886000  0.81092000  0.82127000  1.0 0.1194442957
H  H134  1  0.48831000  0.85239000  0.86408000  1.0 0.1194442957
H  H135  1  0.50461000  0.97547000  0.84366000  1.0 0.1286549241
H  H136  1  0.47986000  0.01168000  0.87933000  1.0 0.1194442957
H  H137  1  0.45332000  0.96366000  0.86471000  1.0 0.1286549241
H  H138  1  0.60508000  0.96834000  0.86294000  1.0 0.1113098261
H  H139  1  0.64514000  0.02678000  0.81900000  1.0 0.1194442957
H  H140  1  0.58839000  0.12469000  0.90555000  1.0 0.1113098261
H  H141  1  0.54881000  0.06547000  0.94761000  1.0 0.1194442957
H  H142  1  0.62467000  0.99475000  0.97657000  1.0 0.1286549241
H  H143  1  0.63587000  0.94331000  0.99683000  1.0 0.1286549241
H  H144  1  0.60579000  0.97927000  0.02824000  1.0 0.1286549241
H  H145  1  0.47390000  0.63502000  0.95010000  1.0 0.1286549241
H  H146  1  0.51516000  0.63932000  0.98895000  1.0 0.1286549241
H  H147  1  0.46976000  0.60688000  0.99955000  1.0 0.1286549241
H  H148  1  0.40446000  0.54326000  0.91761000  1.0 0.1194442957
H  H149  1  0.34285000  0.58431000  0.88406000  1.0 0.1194442957
H  H150  1  0.43613000  0.66731000  0.81263000  1.0 0.1194442957
H  H151  1  0.49548000  0.62770000  0.84654000  1.0 0.1286549241
H  H152  1  0.97614000  0.81602000  0.54103000  1.0 0.1286549241
H  H153  1  0.97476000  0.83954000  0.48905000  1.0 0.1286549241
H  H154  1  0.92977000  0.81093000  0.50872000  1.0 0.1194442957
H  H155  1  0.04862000  0.90350000  0.56504000  1.0 0.1194442957
H  H156  1  0.11315000  0.86995000  0.60628000  1.0 0.1194442957
H  H157  1  0.01829000  0.79523000  0.68506000  1.0 0.1194442957
H  H158  1  0.95830000  0.83358000  0.64747000  1.0 0.1286549241
H  H159  1  0.98543000  0.93965000  0.65428000  1.0 0.0473151792
H  H160  1  0.93421000  0.95627000  0.67076000  1.0 0.0473151792
H  H161  1  0.96677000  0.99047000  0.63895000  1.0 0.0293930487
H  H162  1  0.52050000  0.47472000  0.82709000  1.0 0.0473151792
H  H163  1  0.50498000  0.52718000  0.81383000  1.0 0.0473151792
H  H164  1  0.46842000  0.49200000  0.83959000  1.0 0.0473151792
H  H165  1  0.62010000  0.62010000  0.97770000  1.0 0.1194442957
H  H166  1  0.65810000  0.65810000  0.04010000  1.0 0.1194442957
H  H167  1  0.57798000  0.57798000  0.13099000  1.0 0.1286549241
H  H168  1  0.54151000  0.54151000  0.06809000  1.0 0.1194442957
H  H169  1  0.83065000  0.83065000  0.51956000  1.0 0.1113098261
H  H170  1  0.78896000  0.78896000  0.45804000  1.0 0.1194442957
H  H171  1  0.86712000  0.86712000  0.36156000  1.0 0.0896184013
H  H172  1  0.90536000  0.90536000  0.42303000  1.0 0.1286549241
H  H173  1  0.62010000  0.62010000  0.52230000  1.0 0.1194442957
H  H174  1  0.65810000  0.65810000  0.45990000  1.0 0.1194442957
H  H175  1  0.57798000  0.57798000  0.36901000  1.0 0.1286549241
H  H176  1  0.54151000  0.54151000  0.43191000  1.0 0.1194442957
H  H177  1  0.83065000  0.83065000  0.98044000  1.0 0.1113098261
H  H178  1  0.78896000  0.78896000  0.04196000  1.0 0.1194442957
H  H179  1  0.86712000  0.86712000  0.13844000  1.0 0.0896184013
H  H180  1  0.90536000  0.90536000  0.07697000  1.0 0.1286549241
H  H181  1  0.08609000  0.45471000  0.58749000  1.0 0.1194442957
H  H182  1  0.13105000  0.41915000  0.64516000  1.0 0.1113098261
H  H183  1  0.20314000  0.35086000  0.54156000  1.0 0.1194442957
H  H184  1  0.15796000  0.38708000  0.48428000  1.0 0.1194442957
H  H185  1  0.15843000  0.54889000  0.47997000  1.0 0.1286549241
H  H186  1  0.15592000  0.51476000  0.52549000  1.0 0.1194442957
H  H187  1  0.18226000  0.49808000  0.47792000  1.0 0.1286549241
H  H188  1  0.07975000  0.60969000  0.44036000  1.0 0.1194442957
H  H189  1  0.11636000  0.66820000  0.39475000  1.0 0.103061492
H  H190  1  0.18908000  0.57114000  0.32127000  1.0 0.1194442957
H  H191  1  0.14761000  0.51169000  0.36408000  1.0 0.1194442957
H  H192  1  0.02453000  0.49539000  0.34366000  1.0 0.1286549241
H  H193  1  0.98832000  0.52014000  0.37933000  1.0 0.1194442957
H  H194  1  0.03634000  0.54668000  0.36471000  1.0 0.1286549241
H  H195  1  0.03166000  0.39492000  0.36294000  1.0 0.1113098261
H  H196  1  0.97322000  0.35486000  0.31900000  1.0 0.1194442957
H  H197  1  0.87531000  0.41161000  0.40555000  1.0 0.1113098261
H  H198  1  0.93453000  0.45119000  0.44761000  1.0 0.1194442957
H  H199  1  0.00525000  0.37533000  0.47657000  1.0 0.1286549241
H  H200  1  0.05669000  0.36413000  0.49683000  1.0 0.1286549241
H  H201  1  0.02073000  0.39421000  0.52824000  1.0 0.1286549241
H  H202  1  0.36498000  0.52610000  0.45010000  1.0 0.1286549241
H  H203  1  0.36068000  0.48484000  0.48895000  1.0 0.1286549241
H  H204  1  0.39312000  0.53024000  0.49955000  1.0 0.1286549241
H  H205  1  0.45674000  0.59554000  0.41761000  1.0 0.1194442957
H  H206  1  0.41569000  0.65715000  0.38406000  1.0 0.1194442957
H  H207  1  0.33269000  0.56387000  0.31263000  1.0 0.1194442957
H  H208  1  0.37230000  0.50452000  0.34654000  1.0 0.1286549241
H  H209  1  0.18398000  0.02386000  0.04103000  1.0 0.1286549241
H  H210  1  0.16046000  0.02524000  0.98905000  1.0 0.1286549241
H  H211  1  0.18907000  0.07023000  0.00872000  1.0 0.1194442957
H  H212  1  0.09650000  0.95138000  0.06504000  1.0 0.1194442957
H  H213  1  0.13005000  0.88685000  0.10628000  1.0 0.1113098261
H  H214  1  0.20477000  0.98171000  0.18506000  1.0 0.1194442957
H  H215  1  0.16642000  0.04170000  0.14747000  1.0 0.1286549241
H  H216  1  0.06035000  0.01457000  0.15428000  1.0 0.0473151792
H  H217  1  0.04373000  0.06579000  0.17076000  1.0 0.0420094428
H  H218  1  0.00953000  0.03323000  0.13895000  1.0 0.0293930487
H  H219  1  0.52528000  0.47950000  0.32709000  1.0 0.0473151792
H  H220  1  0.47282000  0.49502000  0.31383000  1.0 0.0473151792
H  H221  1  0.50800000  0.53158000  0.33959000  1.0 0.0473151792
H  H222  1  0.45471000  0.08609000  0.91251000  1.0 0.1194442957
H  H223  1  0.41915000  0.13105000  0.85484000  1.0 0.1113098261
H  H224  1  0.35086000  0.20314000  0.95844000  1.0 0.1194442957
H  H225  1  0.38708000  0.15796000  0.01572000  1.0 0.1194442957
H  H226  1  0.54889000  0.15843000  0.02003000  1.0 0.1286549241
H  H227  1  0.51476000  0.15592000  0.97451000  1.0 0.1194442957
H  H228  1  0.49808000  0.18226000  0.02208000  1.0 0.1286549241
H  H229  1  0.60969000  0.07975000  0.05964000  1.0 0.1194442957
H  H230  1  0.66820000  0.11636000  0.10525000  1.0 0.103061492
H  H231  1  0.57114000  0.18908000  0.17873000  1.0 0.1194442957
H  H232  1  0.51169000  0.14761000  0.13592000  1.0 0.1194442957
H  H233  1  0.49539000  0.02453000  0.15634000  1.0 0.1286549241
H  H234  1  0.52014000  0.98832000  0.12067000  1.0 0.1194442957
H  H235  1  0.54668000  0.03634000  0.13529000  1.0 0.1286549241
H  H236  1  0.39492000  0.03166000  0.13706000  1.0 0.1113098261
H  H237  1  0.35486000  0.97322000  0.18100000  1.0 0.1194442957
H  H238  1  0.41161000  0.87531000  0.09445000  1.0 0.1113098261
H  H239  1  0.45119000  0.93453000  0.05239000  1.0 0.1194442957
H  H240  1  0.37533000  0.00525000  0.02343000  1.0 0.1286549241
H  H241  1  0.36413000  0.05669000  0.00317000  1.0 0.1286549241
H  H242  1  0.39421000  0.02073000  0.97176000  1.0 0.1286549241
H  H243  1  0.52610000  0.36498000  0.04990000  1.0 0.1286549241
H  H244  1  0.48484000  0.36068000  0.01105000  1.0 0.1286549241
H  H245  1  0.53024000  0.39312000  0.00045000  1.0 0.1286549241
H  H246  1  0.59554000  0.45674000  0.08239000  1.0 0.1194442957
H  H247  1  0.65715000  0.41569000  0.11594000  1.0 0.1194442957
H  H248  1  0.56387000  0.33269000  0.18737000  1.0 0.1194442957
H  H249  1  0.50452000  0.37230000  0.15346000  1.0 0.1286549241
H  H250  1  0.02386000  0.18398000  0.45897000  1.0 0.1286549241
H  H251  1  0.02524000  0.16046000  0.51095000  1.0 0.1286549241
H  H252  1  0.07023000  0.18907000  0.49128000  1.0 0.1194442957
H  H253  1  0.95138000  0.09650000  0.43496000  1.0 0.1194442957
H  H254  1  0.88685000  0.13005000  0.39372000  1.0 0.1113098261
H  H255  1  0.98171000  0.20477000  0.31494000  1.0 0.1194442957
H  H256  1  0.04170000  0.16642000  0.35253000  1.0 0.1286549241
H  H257  1  0.01457000  0.06035000  0.34572000  1.0 0.0473151792
H  H258  1  0.06579000  0.04373000  0.32924000  1.0 0.0473151792
H  H259  1  0.03323000  0.00953000  0.36105000  1.0 0.0238343828
H  H260  1  0.47950000  0.52528000  0.17291000  1.0 0.0473151792
H  H261  1  0.49502000  0.47282000  0.18617000  1.0 0.0473151792
H  H262  1  0.53158000  0.50800000  0.16041000  1.0 0.0473151792
H  H263  1  0.08609000  0.45471000  0.91251000  1.0 0.1194442957
H  H264  1  0.13105000  0.41915000  0.85484000  1.0 0.1113098261
H  H265  1  0.20314000  0.35086000  0.95844000  1.0 0.1194442957
H  H266  1  0.15796000  0.38708000  0.01572000  1.0 0.1194442957
H  H267  1  0.15843000  0.54889000  0.02003000  1.0 0.1286549241
H  H268  1  0.15592000  0.51476000  0.97451000  1.0 0.1194442957
H  H269  1  0.18226000  0.49808000  0.02208000  1.0 0.1286549241
H  H270  1  0.07975000  0.60969000  0.05964000  1.0 0.1194442957
H  H271  1  0.11636000  0.66820000  0.10525000  1.0 0.103061492
H  H272  1  0.18908000  0.57114000  0.17873000  1.0 0.1194442957
H  H273  1  0.14761000  0.51169000  0.13592000  1.0 0.1194442957
H  H274  1  0.02453000  0.49539000  0.15634000  1.0 0.1286549241
H  H275  1  0.98832000  0.52014000  0.12067000  1.0 0.1194442957
H  H276  1  0.03634000  0.54668000  0.13529000  1.0 0.1286549241
H  H277  1  0.03166000  0.39492000  0.13706000  1.0 0.1113098261
H  H278  1  0.97322000  0.35486000  0.18100000  1.0 0.1194442957
H  H279  1  0.87531000  0.41161000  0.09445000  1.0 0.1113098261
H  H280  1  0.93453000  0.45119000  0.05239000  1.0 0.1194442957
H  H281  1  0.00525000  0.37533000  0.02343000  1.0 0.1286549241
H  H282  1  0.05669000  0.36413000  0.00317000  1.0 0.1286549241
H  H283  1  0.02073000  0.39421000  0.97176000  1.0 0.1286549241
H  H284  1  0.36498000  0.52610000  0.04990000  1.0 0.1286549241
H  H285  1  0.36068000  0.48484000  0.01105000  1.0 0.1286549241
H  H286  1  0.39312000  0.53024000  0.00045000  1.0 0.1286549241
H  H287  1  0.45674000  0.59554000  0.08239000  1.0 0.1194442957
H  H288  1  0.41569000  0.65715000  0.11594000  1.0 0.1194442957
H  H289  1  0.33269000  0.56387000  0.18737000  1.0 0.1194442957
H  H290  1  0.37230000  0.50452000  0.15346000  1.0 0.1286549241
H  H291  1  0.18398000  0.02386000  0.45897000  1.0 0.1286549241
H  H292  1  0.16046000  0.02524000  0.51095000  1.0 0.1286549241
H  H293  1  0.18907000  0.07023000  0.49128000  1.0 0.1194442957
H  H294  1  0.09650000  0.95138000  0.43496000  1.0 0.1194442957
H  H295  1  0.13005000  0.88685000  0.39372000  1.0 0.1113098261
H  H296  1  0.20477000  0.98171000  0.31494000  1.0 0.1194442957
H  H297  1  0.16642000  0.04170000  0.35253000  1.0 0.1286549241
H  H298  1  0.06035000  0.01457000  0.34572000  1.0 0.0473151792
H  H299  1  0.04373000  0.06579000  0.32924000  1.0 0.0420094428
H  H300  1  0.00953000  0.03323000  0.36105000  1.0 0.0293930487
H  H301  1  0.52528000  0.47950000  0.17291000  1.0 0.0473151792
H  H302  1  0.47282000  0.49502000  0.18617000  1.0 0.0473151792
H  H303  1  0.50800000  0.53158000  0.16041000  1.0 0.0473151792
H  H304  1  0.45471000  0.08609000  0.58749000  1.0 0.1194442957
H  H305  1  0.41915000  0.13105000  0.64516000  1.0 0.1113098261
H  H306  1  0.35086000  0.20314000  0.54156000  1.0 0.1194442957
H  H307  1  0.38708000  0.15796000  0.48428000  1.0 0.1194442957
H  H308  1  0.54889000  0.15843000  0.47997000  1.0 0.1286549241
H  H309  1  0.51476000  0.15592000  0.52549000  1.0 0.1194442957
H  H310  1  0.49808000  0.18226000  0.47792000  1.0 0.1286549241
H  H311  1  0.60969000  0.07975000  0.44036000  1.0 0.1194442957
H  H312  1  0.66820000  0.11636000  0.39475000  1.0 0.103061492
H  H313  1  0.57114000  0.18908000  0.32127000  1.0 0.1194442957
H  H314  1  0.51169000  0.14761000  0.36408000  1.0 0.1194442957
H  H315  1  0.49539000  0.02453000  0.34366000  1.0 0.1286549241
H  H316  1  0.52014000  0.98832000  0.37933000  1.0 0.1194442957
H  H317  1  0.54668000  0.03634000  0.36471000  1.0 0.1286549241
H  H318  1  0.39492000  0.03166000  0.36294000  1.0 0.1113098261
H  H319  1  0.35486000  0.97322000  0.31900000  1.0 0.1194442957
H  H320  1  0.41161000  0.87531000  0.40555000  1.0 0.1113098261
H  H321  1  0.45119000  0.93453000  0.44761000  1.0 0.1194442957
H  H322  1  0.37533000  0.00525000  0.47657000  1.0 0.1286549241
H  H323  1  0.36413000  0.05669000  0.49683000  1.0 0.1286549241
H  H324  1  0.39421000  0.02073000  0.52824000  1.0 0.1286549241
H  H325  1  0.52610000  0.36498000  0.45010000  1.0 0.1286549241
H  H326  1  0.48484000  0.36068000  0.48895000  1.0 0.1286549241
H  H327  1  0.53024000  0.39312000  0.49955000  1.0 0.1286549241
H  H328  1  0.59554000  0.45674000  0.41761000  1.0 0.1194442957
H  H329  1  0.65715000  0.41569000  0.38406000  1.0 0.1194442957
H  H330  1  0.56387000  0.33269000  0.31263000  1.0 0.1194442957
H  H331  1  0.50452000  0.37230000  0.34654000  1.0 0.1286549241
H  H332  1  0.02386000  0.18398000  0.04103000  1.0 0.1286549241
H  H333  1  0.02524000  0.16046000  0.98905000  1.0 0.1286549241
H  H334  1  0.07023000  0.18907000  0.00872000  1.0 0.1194442957
H  H335  1  0.95138000  0.09650000  0.06504000  1.0 0.1194442957
H  H336  1  0.88685000  0.13005000  0.10628000  1.0 0.1113098261
H  H337  1  0.98171000  0.20477000  0.18506000  1.0 0.1194442957
H  H338  1  0.04170000  0.16642000  0.14747000  1.0 0.1286549241
H  H339  1  0.01457000  0.06035000  0.15428000  1.0 0.0473151792
H  H340  1  0.06579000  0.04373000  0.17076000  1.0 0.0473151792
H  H341  1  0.03323000  0.00953000  0.13895000  1.0 0.0293930487
H  H342  1  0.47950000  0.52528000  0.32709000  1.0 0.0473151792
H  H343  1  0.49502000  0.47282000  0.31383000  1.0 0.0473151792
H  H344  1  0.53158000  0.50800000  0.33959000  1.0 0.0473151792
H  H345  1  0.37990000  0.37990000  0.47770000  1.0 0.1194442957
H  H346  1  0.34190000  0.34190000  0.54010000  1.0 0.1194442957
H  H347  1  0.42202000  0.42202000  0.63099000  1.0 0.1286549241
H  H348  1  0.45849000  0.45849000  0.56809000  1.0 0.1194442957
H  H349  1  0.16935000  0.16935000  0.01956000  1.0 0.1113098261
H  H350  1  0.21104000  0.21104000  0.95804000  1.0 0.1194442957
H  H351  1  0.13288000  0.13288000  0.86156000  1.0 0.103061492
H  H352  1  0.09464000  0.09464000  0.92303000  1.0 0.1286549241
H  H353  1  0.37990000  0.37990000  0.02230000  1.0 0.1194442957
H  H354  1  0.34190000  0.34190000  0.95990000  1.0 0.1194442957
H  H355  1  0.42202000  0.42202000  0.86901000  1.0 0.1286549241
H  H356  1  0.45849000  0.45849000  0.93191000  1.0 0.1194442957
H  H357  1  0.16935000  0.16935000  0.48044000  1.0 0.1113098261
H  H358  1  0.21104000  0.21104000  0.54196000  1.0 0.1194442957
H  H359  1  0.13288000  0.13288000  0.63844000  1.0 0.0896184013
H  H360  1  0.09464000  0.09464000  0.57697000  1.0 0.1286549241
C  C1  1  0.90820000  0.54780000  0.99150000  1.0 -0.0707847934
C  C2  1  0.88990000  0.50510000  0.97210000  1.0 0.0610416029
C  C3  1  0.91290000  0.48590000  0.93310000  1.0 -0.0707847934
C  C4  1  0.95390000  0.50610000  0.91340000  1.0 0.0681488032
C  C5  1  0.97200000  0.54800000  0.93340000  1.0 -0.0707847934
C  C6  1  0.94950000  0.56750000  0.97330000  1.0 0.0610416029
C  C7  1  0.88090000  0.57210000  0.03020000  1.0 0.0896184013
C  C8  1  0.88930000  0.56570000  0.07800000  1.0 -0.1722685314
C  C9  1  0.86350000  0.58750000  0.11230000  1.0 -0.101477775
C  C10  1  0.82860000  0.62020000  0.09870000  1.0 -0.0423399851
C  C11  1  0.82080000  0.62800000  0.05110000  1.0 -0.101477775
C  C12  1  0.84680000  0.60580000  0.01710000  1.0 -0.1604500349
C  C13  1  0.79980000  0.64440000  0.13640000  1.0 0.6206776301
C  C14  1  0.84440000  0.48400000  0.99050000  1.0 -0.4517286394
C  C15  1  0.89020000  0.44580000  0.90680000  1.0 0.0777706352
C  C16  1  0.89880000  0.39880000  0.91590000  1.0 -0.1823373681
C  C17  1  0.87580000  0.36380000  0.88890000  1.0 -0.0932403953
C  C18  1  0.84330000  0.37290000  0.85510000  1.0 -0.0613842337
C  C19  1  0.83340000  0.42060000  0.84500000  1.0 -0.0932403953
C  C20  1  0.85820000  0.45620000  0.87130000  1.0 -0.1722685314
C  C21  1  0.81700000  0.33580000  0.82740000  1.0 0.6206776301
C  C22  1  0.97830000  0.48410000  0.87170000  1.0 -0.4517286394
C  C23  1  0.01270000  0.57430000  0.90980000  1.0 0.0896184013
C  C24  1  0.00060000  0.60220000  0.87170000  1.0 -0.1604500349
C  C25  1  0.03540000  0.62640000  0.84570000  1.0 -0.0932403953
C  C26  1  0.08190000  0.62330000  0.85860000  1.0 -0.0707847934
C  C27  1  0.09270000  0.59270000  0.89680000  1.0 -0.0932403953
C  C28  1  0.05740000  0.56900000  0.92180000  1.0 -0.1722685314
C  C29  1  0.11810000  0.64850000  0.83070000  1.0 0.6206776301
C  C30  1  0.96840000  0.61240000  0.99570000  1.0 -0.4517286394
C  C31  1  0.57580000  0.51620000  0.95200000  1.0 0.0681488032
C  C32  1  0.55740000  0.49760000  0.90860000  1.0 -0.0753611031
C  C33  1  0.61810000  0.49150000  0.97470000  1.0 -0.4517286394
C  C34  1  0.58140000  0.45700000  0.88510000  1.0 0.0777706352
C  C35  1  0.56870000  0.41070000  0.89630000  1.0 -0.1604500349
C  C36  1  0.59300000  0.37440000  0.87640000  1.0 -0.101477775
C  C37  1  0.63070000  0.38270000  0.84470000  1.0 -0.0423399851
C  C38  1  0.64220000  0.42920000  0.83420000  1.0 -0.1068216937
C  C39  1  0.61860000  0.46400000  0.85410000  1.0 -0.1423211063
C  C40  1  0.65790000  0.34250000  0.82370000  1.0 0.6271157983
C  C41  1  0.87690000  0.93710000  0.53920000  1.0 0.0473151792
C  C42  1  0.89670000  0.95570000  0.57970000  1.0 -0.0474994181
C  C43  1  0.83190000  0.95610000  0.51760000  1.0 -0.4265780415
C  C44  1  0.87220000  0.99660000  0.60330000  1.0 0.0610416029
C  C45  1  0.88180000  0.04280000  0.59040000  1.0 -0.1423211063
C  C46  1  0.86080000  0.08160000  0.61330000  1.0 -0.0707847934
C  C47  1  0.82530000  0.07070000  0.64740000  1.0 -0.0474994181
C  C48  1  0.81720000  0.02540000  0.66030000  1.0 -0.101477775
C  C49  1  0.84040000  0.98980000  0.63790000  1.0 -0.1604500349
C  C50  1  0.80090000  0.11090000  0.67050000  1.0 0.6271157983
C  C51  1  0.54780000  0.90820000  0.50850000  1.0 -0.0707847934
C  C52  1  0.50510000  0.88990000  0.52790000  1.0 0.0610416029
C  C53  1  0.48590000  0.91290000  0.56690000  1.0 -0.0707847934
C  C54  1  0.50610000  0.95390000  0.58660000  1.0 0.0681488032
C  C55  1  0.54800000  0.97200000  0.56660000  1.0 -0.0707847934
C  C56  1  0.56750000  0.94950000  0.52670000  1.0 0.0610416029
C  C57  1  0.57210000  0.88090000  0.46980000  1.0 0.0896184013
C  C58  1  0.56570000  0.88930000  0.42200000  1.0 -0.1722685314
C  C59  1  0.58750000  0.86350000  0.38770000  1.0 -0.101477775
C  C60  1  0.62020000  0.82860000  0.40130000  1.0 -0.0423399851
C  C61  1  0.62800000  0.82080000  0.44890000  1.0 -0.101477775
C  C62  1  0.60580000  0.84680000  0.48290000  1.0 -0.1604500349
C  C63  1  0.64440000  0.79980000  0.36360000  1.0 0.6206776301
C  C64  1  0.48400000  0.84440000  0.50950000  1.0 -0.4517286394
C  C65  1  0.44580000  0.89020000  0.59320000  1.0 0.0896184013
C  C66  1  0.39880000  0.89880000  0.58410000  1.0 -0.1823373681
C  C67  1  0.36380000  0.87580000  0.61110000  1.0 -0.0932403953
C  C68  1  0.37290000  0.84330000  0.64490000  1.0 -0.0613842337
C  C69  1  0.42060000  0.83340000  0.65500000  1.0 -0.0932403953
C  C70  1  0.45620000  0.85820000  0.62870000  1.0 -0.1722685314
C  C71  1  0.33580000  0.81700000  0.67260000  1.0 0.6206776301
C  C72  1  0.48410000  0.97830000  0.62830000  1.0 -0.4517286394
C  C73  1  0.57430000  0.01270000  0.59020000  1.0 0.0896184013
C  C74  1  0.60220000  0.00060000  0.62830000  1.0 -0.1604500349
C  C75  1  0.62640000  0.03540000  0.65430000  1.0 -0.0932403953
C  C76  1  0.62330000  0.08190000  0.64140000  1.0 -0.0707847934
C  C77  1  0.59270000  0.09270000  0.60320000  1.0 -0.0932403953
C  C78  1  0.56900000  0.05740000  0.57820000  1.0 -0.1722685314
C  C79  1  0.64850000  0.11810000  0.66930000  1.0 0.6271157983
C  C80  1  0.61240000  0.96840000  0.50430000  1.0 -0.4517286394
C  C81  1  0.51620000  0.57580000  0.54800000  1.0 0.0777706352
C  C82  1  0.49760000  0.55740000  0.59140000  1.0 -0.0753611031
C  C83  1  0.49150000  0.61810000  0.52530000  1.0 -0.4517286394
C  C84  1  0.45700000  0.58140000  0.61490000  1.0 0.0777706352
C  C85  1  0.41070000  0.56870000  0.60370000  1.0 -0.1604500349
C  C86  1  0.37440000  0.59300000  0.62360000  1.0 -0.101477775
C  C87  1  0.38270000  0.63070000  0.65530000  1.0 -0.0423399851
C  C88  1  0.42920000  0.64220000  0.66580000  1.0 -0.1068216937
C  C89  1  0.46400000  0.61860000  0.64590000  1.0 -0.1423211063
C  C90  1  0.34250000  0.65790000  0.67630000  1.0 0.6271157983
C  C91  1  0.93710000  0.87690000  0.96080000  1.0 0.0473151792
C  C92  1  0.95570000  0.89670000  0.92030000  1.0 -0.0474994181
C  C93  1  0.95610000  0.83190000  0.98240000  1.0 -0.4265780415
C  C94  1  0.99660000  0.87220000  0.89670000  1.0 0.0610416029
C  C95  1  0.04280000  0.88180000  0.90960000  1.0 -0.1423211063
C  C96  1  0.08160000  0.86080000  0.88670000  1.0 -0.0707847934
C  C97  1  0.07070000  0.82530000  0.85260000  1.0 -0.0474994181
C  C98  1  0.02540000  0.81720000  0.83970000  1.0 -0.101477775
C  C99  1  0.98980000  0.84040000  0.86210000  1.0 -0.1604500349
C  C100  1  0.11090000  0.80090000  0.82950000  1.0 0.6271157983
C  C101  1  0.90820000  0.54780000  0.50850000  1.0 -0.0707847934
C  C102  1  0.88990000  0.50510000  0.52790000  1.0 0.0610416029
C  C103  1  0.91290000  0.48590000  0.56690000  1.0 -0.0707847934
C  C104  1  0.95390000  0.50610000  0.58660000  1.0 0.0681488032
C  C105  1  0.97200000  0.54800000  0.56660000  1.0 -0.0707847934
C  C106  1  0.94950000  0.56750000  0.52670000  1.0 0.0610416029
C  C107  1  0.88090000  0.57210000  0.46980000  1.0 0.0896184013
C  C108  1  0.88930000  0.56570000  0.42200000  1.0 -0.1722685314
C  C109  1  0.86350000  0.58750000  0.38770000  1.0 -0.101477775
C  C110  1  0.82860000  0.62020000  0.40130000  1.0 -0.0423399851
C  C111  1  0.82080000  0.62800000  0.44890000  1.0 -0.101477775
C  C112  1  0.84680000  0.60580000  0.48290000  1.0 -0.1604500349
C  C113  1  0.79980000  0.64440000  0.36360000  1.0 0.6271157983
C  C114  1  0.84440000  0.48400000  0.50950000  1.0 -0.4517286394
C  C115  1  0.89020000  0.44580000  0.59320000  1.0 0.0777706352
C  C116  1  0.89880000  0.39880000  0.58410000  1.0 -0.1823373681
C  C117  1  0.87580000  0.36380000  0.61110000  1.0 -0.0932403953
C  C118  1  0.84330000  0.37290000  0.64490000  1.0 -0.0613842337
C  C119  1  0.83340000  0.42060000  0.65500000  1.0 -0.0932403953
C  C120  1  0.85820000  0.45620000  0.62870000  1.0 -0.1722685314
C  C121  1  0.81700000  0.33580000  0.67260000  1.0 0.6206776301
C  C122  1  0.97830000  0.48410000  0.62830000  1.0 -0.4517286394
C  C123  1  0.01270000  0.57430000  0.59020000  1.0 0.0896184013
C  C124  1  0.00060000  0.60220000  0.62830000  1.0 -0.1604500349
C  C125  1  0.03540000  0.62640000  0.65430000  1.0 -0.0932403953
C  C126  1  0.08190000  0.62330000  0.64140000  1.0 -0.0707847934
C  C127  1  0.09270000  0.59270000  0.60320000  1.0 -0.0932403953
C  C128  1  0.05740000  0.56900000  0.57820000  1.0 -0.1722685314
C  C129  1  0.11810000  0.64850000  0.66930000  1.0 0.6206776301
C  C130  1  0.96840000  0.61240000  0.50430000  1.0 -0.4517286394
C  C131  1  0.57580000  0.51620000  0.54800000  1.0 0.0777706352
C  C132  1  0.55740000  0.49760000  0.59140000  1.0 -0.0753611031
C  C133  1  0.61810000  0.49150000  0.52530000  1.0 -0.4517286394
C  C134  1  0.58140000  0.45700000  0.61490000  1.0 0.0777706352
C  C135  1  0.56870000  0.41070000  0.60370000  1.0 -0.1604500349
C  C136  1  0.59300000  0.37440000  0.62360000  1.0 -0.101477775
C  C137  1  0.63070000  0.38270000  0.65530000  1.0 -0.0423399851
C  C138  1  0.64220000  0.42920000  0.66580000  1.0 -0.1068216937
C  C139  1  0.61860000  0.46400000  0.64590000  1.0 -0.1423211063
C  C140  1  0.65790000  0.34250000  0.67630000  1.0 0.6271157983
C  C141  1  0.87690000  0.93710000  0.96080000  1.0 0.0473151792
C  C142  1  0.89670000  0.95570000  0.92030000  1.0 -0.0474994181
C  C143  1  0.83190000  0.95610000  0.98240000  1.0 -0.4265780415
C  C144  1  0.87220000  0.99660000  0.89670000  1.0 0.0610416029
C  C145  1  0.88180000  0.04280000  0.90960000  1.0 -0.1423211063
C  C146  1  0.86080000  0.08160000  0.88670000  1.0 -0.0707847934
C  C147  1  0.82530000  0.07070000  0.85260000  1.0 -0.0474994181
C  C148  1  0.81720000  0.02540000  0.83970000  1.0 -0.101477775
C  C149  1  0.84040000  0.98980000  0.86210000  1.0 -0.1604500349
C  C150  1  0.80090000  0.11090000  0.82950000  1.0 0.6271157983
C  C151  1  0.54780000  0.90820000  0.99150000  1.0 -0.0707847934
C  C152  1  0.50510000  0.88990000  0.97210000  1.0 0.0610416029
C  C153  1  0.48590000  0.91290000  0.93310000  1.0 -0.0707847934
C  C154  1  0.50610000  0.95390000  0.91340000  1.0 0.0681488032
C  C155  1  0.54800000  0.97200000  0.93340000  1.0 -0.0707847934
C  C156  1  0.56750000  0.94950000  0.97330000  1.0 0.0610416029
C  C157  1  0.57210000  0.88090000  0.03020000  1.0 0.0896184013
C  C158  1  0.56570000  0.88930000  0.07800000  1.0 -0.1722685314
C  C159  1  0.58750000  0.86350000  0.11230000  1.0 -0.101477775
C  C160  1  0.62020000  0.82860000  0.09870000  1.0 -0.0423399851
C  C161  1  0.62800000  0.82080000  0.05110000  1.0 -0.101477775
C  C162  1  0.60580000  0.84680000  0.01710000  1.0 -0.1604500349
C  C163  1  0.64440000  0.79980000  0.13640000  1.0 0.6206776301
C  C164  1  0.48400000  0.84440000  0.99050000  1.0 -0.4517286394
C  C165  1  0.44580000  0.89020000  0.90680000  1.0 0.0777706352
C  C166  1  0.39880000  0.89880000  0.91590000  1.0 -0.1823373681
C  C167  1  0.36380000  0.87580000  0.88890000  1.0 -0.0932403953
C  C168  1  0.37290000  0.84330000  0.85510000  1.0 -0.0613842337
C  C169  1  0.42060000  0.83340000  0.84500000  1.0 -0.0932403953
C  C170  1  0.45620000  0.85820000  0.87130000  1.0 -0.1722685314
C  C171  1  0.33580000  0.81700000  0.82740000  1.0 0.6206776301
C  C172  1  0.48410000  0.97830000  0.87170000  1.0 -0.4517286394
C  C173  1  0.57430000  0.01270000  0.90980000  1.0 0.0896184013
C  C174  1  0.60220000  0.00060000  0.87170000  1.0 -0.1604500349
C  C175  1  0.62640000  0.03540000  0.84570000  1.0 -0.0932403953
C  C176  1  0.62330000  0.08190000  0.85860000  1.0 -0.0707847934
C  C177  1  0.59270000  0.09270000  0.89680000  1.0 -0.0932403953
C  C178  1  0.56900000  0.05740000  0.92180000  1.0 -0.1722685314
C  C179  1  0.64850000  0.11810000  0.83070000  1.0 0.6271157983
C  C180  1  0.61240000  0.96840000  0.99570000  1.0 -0.4517286394
C  C181  1  0.51620000  0.57580000  0.95200000  1.0 0.0777706352
C  C182  1  0.49760000  0.55740000  0.90860000  1.0 -0.0753611031
C  C183  1  0.49150000  0.61810000  0.97470000  1.0 -0.4517286394
C  C184  1  0.45700000  0.58140000  0.88510000  1.0 0.0777706352
C  C185  1  0.41070000  0.56870000  0.89630000  1.0 -0.1604500349
C  C186  1  0.37440000  0.59300000  0.87640000  1.0 -0.101477775
C  C187  1  0.38270000  0.63070000  0.84470000  1.0 -0.0423399851
C  C188  1  0.42920000  0.64220000  0.83420000  1.0 -0.1068216937
C  C189  1  0.46400000  0.61860000  0.85410000  1.0 -0.1423211063
C  C190  1  0.34250000  0.65790000  0.82370000  1.0 0.6271157983
C  C191  1  0.93710000  0.87690000  0.53920000  1.0 0.0473151792
C  C192  1  0.95570000  0.89670000  0.57970000  1.0 -0.0474994181
C  C193  1  0.95610000  0.83190000  0.51760000  1.0 -0.4265780415
C  C194  1  0.99660000  0.87220000  0.60330000  1.0 0.0610416029
C  C195  1  0.04280000  0.88180000  0.59040000  1.0 -0.1423211063
C  C196  1  0.08160000  0.86080000  0.61330000  1.0 -0.0707847934
C  C197  1  0.07070000  0.82530000  0.64740000  1.0 -0.0474994181
C  C198  1  0.02540000  0.81720000  0.66030000  1.0 -0.101477775
C  C199  1  0.98980000  0.84040000  0.63790000  1.0 -0.1604500349
C  C200  1  0.11090000  0.80090000  0.67050000  1.0 0.6271157983
C  C201  1  0.55480000  0.55480000  0.97230000  1.0 -0.0932403953
C  C202  1  0.51860000  0.51860000  0.88520000  1.0 -0.0177642812
C  C203  1  0.57780000  0.57780000  0.01430000  1.0 0.0896184013
C  C204  1  0.61150000  0.61150000  0.00940000  1.0 -0.1722685314
C  C205  1  0.63460000  0.63460000  0.04610000  1.0 -0.1068216937
C  C206  1  0.62160000  0.62160000  0.09260000  1.0 -0.0262250046
C  C207  1  0.58660000  0.58660000  0.09930000  1.0 -0.101477775
C  C208  1  0.56500000  0.56500000  0.06250000  1.0 -0.1509919095
C  C209  1  0.64590000  0.64590000  0.13380000  1.0 0.6138800231
C  C210  1  0.50170000  0.50170000  0.83730000  1.0 -0.2583326365
C  C211  1  0.89640000  0.89640000  0.51800000  1.0 -0.0423399851
C  C212  1  0.93650000  0.93650000  0.60000000  1.0 -0.0177642812
C  C213  1  0.87320000  0.87320000  0.47720000  1.0 0.0681488032
C  C214  1  0.83760000  0.83760000  0.48710000  1.0 -0.1423211063
C  C215  1  0.81230000  0.81230000  0.45090000  1.0 -0.1187555421
C  C216  1  0.82460000  0.82460000  0.40430000  1.0 -0.0474994181
C  C217  1  0.85960000  0.85960000  0.39380000  1.0 -0.101477775
C  C218  1  0.88210000  0.88210000  0.43060000  1.0 -0.1604500349
C  C219  1  0.79960000  0.79960000  0.36510000  1.0 0.6206776301
C  C220  1  0.95760000  0.95760000  0.64500000  1.0 -0.2328687164
C  C221  1  0.55480000  0.55480000  0.52770000  1.0 -0.0932403953
C  C222  1  0.51860000  0.51860000  0.61480000  1.0 -0.0148755003
C  C223  1  0.57780000  0.57780000  0.48570000  1.0 0.0896184013
C  C224  1  0.61150000  0.61150000  0.49060000  1.0 -0.1722685314
C  C225  1  0.63460000  0.63460000  0.45390000  1.0 -0.1068216937
C  C226  1  0.62160000  0.62160000  0.40740000  1.0 -0.0262250046
C  C227  1  0.58660000  0.58660000  0.40070000  1.0 -0.101477775
C  C228  1  0.56500000  0.56500000  0.43750000  1.0 -0.1509919095
C  C229  1  0.64590000  0.64590000  0.36620000  1.0 0.6138800231
C  C230  1  0.50170000  0.50170000  0.66270000  1.0 -0.2583326365
C  C231  1  0.89640000  0.89640000  0.98200000  1.0 -0.0423399851
C  C232  1  0.93650000  0.93650000  0.90000000  1.0 -0.0177642812
C  C233  1  0.87320000  0.87320000  0.02280000  1.0 0.0681488032
C  C234  1  0.83760000  0.83760000  0.01290000  1.0 -0.1423211063
C  C235  1  0.81230000  0.81230000  0.04910000  1.0 -0.1187555421
C  C236  1  0.82460000  0.82460000  0.09570000  1.0 -0.0474994181
C  C237  1  0.85960000  0.85960000  0.10620000  1.0 -0.101477775
C  C238  1  0.88210000  0.88210000  0.06940000  1.0 -0.1604500349
C  C239  1  0.79960000  0.79960000  0.13490000  1.0 0.6206776301
C  C240  1  0.95760000  0.95760000  0.85500000  1.0 -0.2328687164
C  C241  1  0.09180000  0.45220000  0.49150000  1.0 -0.0707847934
C  C242  1  0.11010000  0.49490000  0.47210000  1.0 0.0610416029
C  C243  1  0.08710000  0.51410000  0.43310000  1.0 -0.0707847934
C  C244  1  0.04610000  0.49390000  0.41340000  1.0 0.0681488032
C  C245  1  0.02800000  0.45200000  0.43340000  1.0 -0.0707847934
C  C246  1  0.05050000  0.43250000  0.47330000  1.0 0.0610416029
C  C247  1  0.11910000  0.42790000  0.53020000  1.0 0.0896184013
C  C248  1  0.11070000  0.43430000  0.57800000  1.0 -0.1722685314
C  C249  1  0.13650000  0.41250000  0.61230000  1.0 -0.101477775
C  C250  1  0.17140000  0.37980000  0.59870000  1.0 -0.0423399851
C  C251  1  0.17920000  0.37200000  0.55110000  1.0 -0.101477775
C  C252  1  0.15320000  0.39420000  0.51710000  1.0 -0.1604500349
C  C253  1  0.20020000  0.35560000  0.63640000  1.0 0.6206776301
C  C254  1  0.15560000  0.51600000  0.49050000  1.0 -0.4517286394
C  C255  1  0.10980000  0.55420000  0.40680000  1.0 0.0896184013
C  C256  1  0.10120000  0.60120000  0.41590000  1.0 -0.1823373681
C  C257  1  0.12420000  0.63620000  0.38890000  1.0 -0.0932403953
C  C258  1  0.15670000  0.62710000  0.35510000  1.0 -0.0613842337
C  C259  1  0.16660000  0.57940000  0.34500000  1.0 -0.0932403953
C  C260  1  0.14180000  0.54380000  0.37130000  1.0 -0.1722685314
C  C261  1  0.18300000  0.66420000  0.32740000  1.0 0.6206776301
C  C262  1  0.02170000  0.51590000  0.37170000  1.0 -0.4517286394
C  C263  1  0.98730000  0.42570000  0.40980000  1.0 0.0896184013
C  C264  1  0.99940000  0.39780000  0.37170000  1.0 -0.1604500349
C  C265  1  0.96460000  0.37360000  0.34570000  1.0 -0.0932403953
C  C266  1  0.91810000  0.37670000  0.35860000  1.0 -0.0707847934
C  C267  1  0.90730000  0.40730000  0.39680000  1.0 -0.0932403953
C  C268  1  0.94260000  0.43100000  0.42180000  1.0 -0.1722685314
C  C269  1  0.88190000  0.35150000  0.33070000  1.0 0.6271157983
C  C270  1  0.03160000  0.38760000  0.49570000  1.0 -0.4517286394
C  C271  1  0.42420000  0.48380000  0.45200000  1.0 0.0681488032
C  C272  1  0.44260000  0.50240000  0.40860000  1.0 -0.0753611031
C  C273  1  0.38190000  0.50850000  0.47470000  1.0 -0.4517286394
C  C274  1  0.41860000  0.54300000  0.38510000  1.0 0.0777706352
C  C275  1  0.43130000  0.58930000  0.39630000  1.0 -0.1604500349
C  C276  1  0.40700000  0.62560000  0.37640000  1.0 -0.101477775
C  C277  1  0.36930000  0.61730000  0.34470000  1.0 -0.0423399851
C  C278  1  0.35780000  0.57080000  0.33420000  1.0 -0.1068216937
C  C279  1  0.38140000  0.53600000  0.35410000  1.0 -0.1423211063
C  C280  1  0.34210000  0.65750000  0.32370000  1.0 0.6271157983
C  C281  1  0.12310000  0.06290000  0.03920000  1.0 0.0473151792
C  C282  1  0.10330000  0.04430000  0.07970000  1.0 -0.0474994181
C  C283  1  0.16810000  0.04390000  0.01760000  1.0 -0.4265780415
C  C284  1  0.12780000  0.00340000  0.10330000  1.0 0.0610416029
C  C285  1  0.11820000  0.95720000  0.09040000  1.0 -0.1423211063
C  C286  1  0.13920000  0.91840000  0.11330000  1.0 -0.0613842337
C  C287  1  0.17470000  0.92930000  0.14740000  1.0 -0.0474994181
C  C288  1  0.18280000  0.97460000  0.16030000  1.0 -0.101477775
C  C289  1  0.15960000  0.01020000  0.13790000  1.0 -0.1604500349
C  C290  1  0.19910000  0.88910000  0.17050000  1.0 0.6271157983
C  C291  1  0.45220000  0.09180000  0.00850000  1.0 -0.0707847934
C  C292  1  0.49490000  0.11010000  0.02790000  1.0 0.0610416029
C  C293  1  0.51410000  0.08710000  0.06690000  1.0 -0.0707847934
C  C294  1  0.49390000  0.04610000  0.08660000  1.0 0.0681488032
C  C295  1  0.45200000  0.02800000  0.06660000  1.0 -0.0707847934
C  C296  1  0.43250000  0.05050000  0.02670000  1.0 0.0610416029
C  C297  1  0.42790000  0.11910000  0.96980000  1.0 0.0896184013
C  C298  1  0.43430000  0.11070000  0.92200000  1.0 -0.1722685314
C  C299  1  0.41250000  0.13650000  0.88770000  1.0 -0.101477775
C  C300  1  0.37980000  0.17140000  0.90130000  1.0 -0.0423399851
C  C301  1  0.37200000  0.17920000  0.94890000  1.0 -0.101477775
C  C302  1  0.39420000  0.15320000  0.98290000  1.0 -0.1604500349
C  C303  1  0.35560000  0.20020000  0.86360000  1.0 0.6271157983
C  C304  1  0.51600000  0.15560000  0.00950000  1.0 -0.4517286394
C  C305  1  0.55420000  0.10980000  0.09320000  1.0 0.0896184013
C  C306  1  0.60120000  0.10120000  0.08410000  1.0 -0.1823373681
C  C307  1  0.63620000  0.12420000  0.11110000  1.0 -0.0932403953
C  C308  1  0.62710000  0.15670000  0.14490000  1.0 -0.0613842337
C  C309  1  0.57940000  0.16660000  0.15500000  1.0 -0.0932403953
C  C310  1  0.54380000  0.14180000  0.12870000  1.0 -0.1722685314
C  C311  1  0.66420000  0.18300000  0.17260000  1.0 0.6206776301
C  C312  1  0.51590000  0.02170000  0.12830000  1.0 -0.4517286394
C  C313  1  0.42570000  0.98730000  0.09020000  1.0 0.0896184013
C  C314  1  0.39780000  0.99940000  0.12830000  1.0 -0.1604500349
C  C315  1  0.37360000  0.96460000  0.15430000  1.0 -0.0932403953
C  C316  1  0.37670000  0.91810000  0.14140000  1.0 -0.0707847934
C  C317  1  0.40730000  0.90730000  0.10320000  1.0 -0.0932403953
C  C318  1  0.43100000  0.94260000  0.07820000  1.0 -0.1722685314
C  C319  1  0.35150000  0.88190000  0.16930000  1.0 0.6271157983
C  C320  1  0.38760000  0.03160000  0.00430000  1.0 -0.4517286394
C  C321  1  0.48380000  0.42420000  0.04800000  1.0 0.0777706352
C  C322  1  0.50240000  0.44260000  0.09140000  1.0 -0.0753611031
C  C323  1  0.50850000  0.38190000  0.02530000  1.0 -0.4517286394
C  C324  1  0.54300000  0.41860000  0.11490000  1.0 0.0777706352
C  C325  1  0.58930000  0.43130000  0.10370000  1.0 -0.1604500349
C  C326  1  0.62560000  0.40700000  0.12360000  1.0 -0.101477775
C  C327  1  0.61730000  0.36930000  0.15530000  1.0 -0.0423399851
C  C328  1  0.57080000  0.35780000  0.16580000  1.0 -0.1068216937
C  C329  1  0.53600000  0.38140000  0.14590000  1.0 -0.1423211063
C  C330  1  0.65750000  0.34210000  0.17630000  1.0 0.6271157983
C  C331  1  0.06290000  0.12310000  0.46080000  1.0 0.0473151792
C  C332  1  0.04430000  0.10330000  0.42030000  1.0 -0.0474994181
C  C333  1  0.04390000  0.16810000  0.48240000  1.0 -0.4265780415
C  C334  1  0.00340000  0.12780000  0.39670000  1.0 0.0610416029
C  C335  1  0.95720000  0.11820000  0.40960000  1.0 -0.1423211063
C  C336  1  0.91840000  0.13920000  0.38670000  1.0 -0.0707847934
C  C337  1  0.92930000  0.17470000  0.35260000  1.0 -0.0423399851
C  C338  1  0.97460000  0.18280000  0.33970000  1.0 -0.101477775
C  C339  1  0.01020000  0.15960000  0.36210000  1.0 -0.1604500349
C  C340  1  0.88910000  0.19910000  0.32950000  1.0 0.6271157983
C  C341  1  0.09180000  0.45220000  0.00850000  1.0 -0.0707847934
C  C342  1  0.11010000  0.49490000  0.02790000  1.0 0.0610416029
C  C343  1  0.08710000  0.51410000  0.06690000  1.0 -0.0707847934
C  C344  1  0.04610000  0.49390000  0.08660000  1.0 0.0681488032
C  C345  1  0.02800000  0.45200000  0.06660000  1.0 -0.0707847934
C  C346  1  0.05050000  0.43250000  0.02670000  1.0 0.0610416029
C  C347  1  0.11910000  0.42790000  0.96980000  1.0 0.0896184013
C  C348  1  0.11070000  0.43430000  0.92200000  1.0 -0.1722685314
C  C349  1  0.13650000  0.41250000  0.88770000  1.0 -0.101477775
C  C350  1  0.17140000  0.37980000  0.90130000  1.0 -0.0423399851
C  C351  1  0.17920000  0.37200000  0.94890000  1.0 -0.101477775
C  C352  1  0.15320000  0.39420000  0.98290000  1.0 -0.1604500349
C  C353  1  0.20020000  0.35560000  0.86360000  1.0 0.6271157983
C  C354  1  0.15560000  0.51600000  0.00950000  1.0 -0.4517286394
C  C355  1  0.10980000  0.55420000  0.09320000  1.0 0.0896184013
C  C356  1  0.10120000  0.60120000  0.08410000  1.0 -0.1823373681
C  C357  1  0.12420000  0.63620000  0.11110000  1.0 -0.0932403953
C  C358  1  0.15670000  0.62710000  0.14490000  1.0 -0.0613842337
C  C359  1  0.16660000  0.57940000  0.15500000  1.0 -0.0932403953
C  C360  1  0.14180000  0.54380000  0.12870000  1.0 -0.1722685314
C  C361  1  0.18300000  0.66420000  0.17260000  1.0 0.6206776301
C  C362  1  0.02170000  0.51590000  0.12830000  1.0 -0.4517286394
C  C363  1  0.98730000  0.42570000  0.09020000  1.0 0.0896184013
C  C364  1  0.99940000  0.39780000  0.12830000  1.0 -0.1604500349
C  C365  1  0.96460000  0.37360000  0.15430000  1.0 -0.0932403953
C  C366  1  0.91810000  0.37670000  0.14140000  1.0 -0.0707847934
C  C367  1  0.90730000  0.40730000  0.10320000  1.0 -0.0932403953
C  C368  1  0.94260000  0.43100000  0.07820000  1.0 -0.1722685314
C  C369  1  0.88190000  0.35150000  0.16930000  1.0 0.6271157983
C  C370  1  0.03160000  0.38760000  0.00430000  1.0 -0.4517286394
C  C371  1  0.42420000  0.48380000  0.04800000  1.0 0.0777706352
C  C372  1  0.44260000  0.50240000  0.09140000  1.0 -0.0707847934
C  C373  1  0.38190000  0.50850000  0.02530000  1.0 -0.4517286394
C  C374  1  0.41860000  0.54300000  0.11490000  1.0 0.0777706352
C  C375  1  0.43130000  0.58930000  0.10370000  1.0 -0.1604500349
C  C376  1  0.40700000  0.62560000  0.12360000  1.0 -0.101477775
C  C377  1  0.36930000  0.61730000  0.15530000  1.0 -0.0423399851
C  C378  1  0.35780000  0.57080000  0.16580000  1.0 -0.1068216937
C  C379  1  0.38140000  0.53600000  0.14590000  1.0 -0.1423211063
C  C380  1  0.34210000  0.65750000  0.17630000  1.0 0.6206776301
C  C381  1  0.12310000  0.06290000  0.46080000  1.0 0.0473151792
C  C382  1  0.10330000  0.04430000  0.42030000  1.0 -0.0474994181
C  C383  1  0.16810000  0.04390000  0.48240000  1.0 -0.4265780415
C  C384  1  0.12780000  0.00340000  0.39670000  1.0 0.0610416029
C  C385  1  0.11820000  0.95720000  0.40960000  1.0 -0.1423211063
C  C386  1  0.13920000  0.91840000  0.38670000  1.0 -0.0613842337
C  C387  1  0.17470000  0.92930000  0.35260000  1.0 -0.0474994181
C  C388  1  0.18280000  0.97460000  0.33970000  1.0 -0.101477775
C  C389  1  0.15960000  0.01020000  0.36210000  1.0 -0.1604500349
C  C390  1  0.19910000  0.88910000  0.32950000  1.0 0.6271157983
C  C391  1  0.45220000  0.09180000  0.49150000  1.0 -0.0707847934
C  C392  1  0.49490000  0.11010000  0.47210000  1.0 0.0610416029
C  C393  1  0.51410000  0.08710000  0.43310000  1.0 -0.0707847934
C  C394  1  0.49390000  0.04610000  0.41340000  1.0 0.0681488032
C  C395  1  0.45200000  0.02800000  0.43340000  1.0 -0.0707847934
C  C396  1  0.43250000  0.05050000  0.47330000  1.0 0.0610416029
C  C397  1  0.42790000  0.11910000  0.53020000  1.0 0.0896184013
C  C398  1  0.43430000  0.11070000  0.57800000  1.0 -0.1722685314
C  C399  1  0.41250000  0.13650000  0.61230000  1.0 -0.101477775
C  C400  1  0.37980000  0.17140000  0.59870000  1.0 -0.0423399851
C  C401  1  0.37200000  0.17920000  0.55110000  1.0 -0.101477775
C  C402  1  0.39420000  0.15320000  0.51710000  1.0 -0.1604500349
C  C403  1  0.35560000  0.20020000  0.63640000  1.0 0.6271157983
C  C404  1  0.51600000  0.15560000  0.49050000  1.0 -0.4517286394
C  C405  1  0.55420000  0.10980000  0.40680000  1.0 0.0896184013
C  C406  1  0.60120000  0.10120000  0.41590000  1.0 -0.1823373681
C  C407  1  0.63620000  0.12420000  0.38890000  1.0 -0.0932403953
C  C408  1  0.62710000  0.15670000  0.35510000  1.0 -0.0613842337
C  C409  1  0.57940000  0.16660000  0.34500000  1.0 -0.0932403953
C  C410  1  0.54380000  0.14180000  0.37130000  1.0 -0.1722685314
C  C411  1  0.66420000  0.18300000  0.32740000  1.0 0.6206776301
C  C412  1  0.51590000  0.02170000  0.37170000  1.0 -0.4517286394
C  C413  1  0.42570000  0.98730000  0.40980000  1.0 0.0896184013
C  C414  1  0.39780000  0.99940000  0.37170000  1.0 -0.1604500349
C  C415  1  0.37360000  0.96460000  0.34570000  1.0 -0.0932403953
C  C416  1  0.37670000  0.91810000  0.35860000  1.0 -0.0753611031
C  C417  1  0.40730000  0.90730000  0.39680000  1.0 -0.0932403953
C  C418  1  0.43100000  0.94260000  0.42180000  1.0 -0.1722685314
C  C419  1  0.35150000  0.88190000  0.33070000  1.0 0.6271157983
C  C420  1  0.38760000  0.03160000  0.49570000  1.0 -0.4517286394
C  C421  1  0.48380000  0.42420000  0.45200000  1.0 0.0777706352
C  C422  1  0.50240000  0.44260000  0.40860000  1.0 -0.0753611031
C  C423  1  0.50850000  0.38190000  0.47470000  1.0 -0.4517286394
C  C424  1  0.54300000  0.41860000  0.38510000  1.0 0.0777706352
C  C425  1  0.58930000  0.43130000  0.39630000  1.0 -0.1604500349
C  C426  1  0.62560000  0.40700000  0.37640000  1.0 -0.101477775
C  C427  1  0.61730000  0.36930000  0.34470000  1.0 -0.0423399851
C  C428  1  0.57080000  0.35780000  0.33420000  1.0 -0.1068216937
C  C429  1  0.53600000  0.38140000  0.35410000  1.0 -0.1423211063
C  C430  1  0.65750000  0.34210000  0.32370000  1.0 0.6271157983
C  C431  1  0.06290000  0.12310000  0.03920000  1.0 0.0473151792
C  C432  1  0.04430000  0.10330000  0.07970000  1.0 -0.0474994181
C  C433  1  0.04390000  0.16810000  0.01760000  1.0 -0.4265780415
C  C434  1  0.00340000  0.12780000  0.10330000  1.0 0.0610416029
C  C435  1  0.95720000  0.11820000  0.09040000  1.0 -0.1423211063
C  C436  1  0.91840000  0.13920000  0.11330000  1.0 -0.0707847934
C  C437  1  0.92930000  0.17470000  0.14740000  1.0 -0.0423399851
C  C438  1  0.97460000  0.18280000  0.16030000  1.0 -0.101477775
C  C439  1  0.01020000  0.15960000  0.13790000  1.0 -0.1604500349
C  C440  1  0.88910000  0.19910000  0.17050000  1.0 0.6271157983
C  C441  1  0.44520000  0.44520000  0.47230000  1.0 -0.0932403953
C  C442  1  0.48140000  0.48140000  0.38520000  1.0 -0.0177642812
C  C443  1  0.42220000  0.42220000  0.51430000  1.0 0.0896184013
C  C444  1  0.38850000  0.38850000  0.50940000  1.0 -0.1722685314
C  C445  1  0.36540000  0.36540000  0.54610000  1.0 -0.1068216937
C  C446  1  0.37840000  0.37840000  0.59260000  1.0 -0.0262250046
C  C447  1  0.41340000  0.41340000  0.59930000  1.0 -0.101477775
C  C448  1  0.43500000  0.43500000  0.56250000  1.0 -0.1509919095
C  C449  1  0.35410000  0.35410000  0.63380000  1.0 0.6138800231
C  C450  1  0.49830000  0.49830000  0.33730000  1.0 -0.2583326365
C  C451  1  0.10360000  0.10360000  0.01800000  1.0 -0.0423399851
C  C452  1  0.06350000  0.06350000  0.10000000  1.0 -0.0177642812
C  C453  1  0.12680000  0.12680000  0.97720000  1.0 0.0681488032
C  C454  1  0.16240000  0.16240000  0.98710000  1.0 -0.1423211063
C  C455  1  0.18770000  0.18770000  0.95090000  1.0 -0.1187555421
C  C456  1  0.17540000  0.17540000  0.90430000  1.0 -0.0474994181
C  C457  1  0.14040000  0.14040000  0.89380000  1.0 -0.101477775
C  C458  1  0.11790000  0.11790000  0.93060000  1.0 -0.1604500349
C  C459  1  0.20040000  0.20040000  0.86510000  1.0 0.6206776301
C  C460  1  0.04240000  0.04240000  0.14500000  1.0 -0.2240014228
C  C461  1  0.44520000  0.44520000  0.02770000  1.0 -0.0932403953
C  C462  1  0.48140000  0.48140000  0.11480000  1.0 -0.0177642812
C  C463  1  0.42220000  0.42220000  0.98570000  1.0 0.0896184013
C  C464  1  0.38850000  0.38850000  0.99060000  1.0 -0.1722685314
C  C465  1  0.36540000  0.36540000  0.95390000  1.0 -0.1068216937
C  C466  1  0.37840000  0.37840000  0.90740000  1.0 -0.0262250046
C  C467  1  0.41340000  0.41340000  0.90070000  1.0 -0.101477775
C  C468  1  0.43500000  0.43500000  0.93750000  1.0 -0.1509919095
C  C469  1  0.35410000  0.35410000  0.86620000  1.0 0.6138800231
C  C470  1  0.49830000  0.49830000  0.16270000  1.0 -0.2583326365
C  C471  1  0.10360000  0.10360000  0.48200000  1.0 -0.0423399851
C  C472  1  0.06350000  0.06350000  0.40000000  1.0 -0.0177642812
C  C473  1  0.12680000  0.12680000  0.52280000  1.0 0.0681488032
C  C474  1  0.16240000  0.16240000  0.51290000  1.0 -0.1423211063
C  C475  1  0.18770000  0.18770000  0.54910000  1.0 -0.1187555421
C  C476  1  0.17540000  0.17540000  0.59570000  1.0 -0.0474994181
C  C477  1  0.14040000  0.14040000  0.60620000  1.0 -0.101477775
C  C478  1  0.11790000  0.11790000  0.56940000  1.0 -0.1604500349
C  C479  1  0.20040000  0.20040000  0.63490000  1.0 0.6206776301
C  C480  1  0.04240000  0.04240000  0.35500000  1.0 -0.2240014228
O  O1  1  0.72150000  0.66050000  0.20790000  1.0 -1.1785006434
O  O2  1  0.78660000  0.72220000  0.29380000  1.0 -1.1938565823
O  O3  1  0.73479000  0.27169000  0.67860000  1.0 -1.1785006434
O  O4  1  0.72902000  0.18898000  0.69450000  1.0 -1.1490560862
O  O5  1  0.80891000  0.63489000  0.17930000  1.0 -0.6100843348
O  O6  1  0.77114000  0.67486000  0.12320000  1.0 -0.5676158744
O  O7  1  0.78733000  0.35063000  0.79800000  1.0 -0.5676158744
O  O8  1  0.82692000  0.29528000  0.83730000  1.0 -0.5886945206
O  O9  1  0.16180000  0.64136000  0.84120000  1.0 -0.6191788989
O  O10  1  0.10456000  0.67622000  0.79900000  1.0 -0.550209421
O  O11  1  0.69250000  0.35448000  0.79700000  1.0 -0.5886945206
O  O12  1  0.64470000  0.30122000  0.83480000  1.0 -0.6277923346
O  O13  1  0.77084000  0.09952000  0.70180000  1.0 -0.579615484
O  O14  1  0.81275000  0.15225000  0.65960000  1.0 -0.6100843348
O  O15  1  0.66050000  0.72150000  0.29210000  1.0 -1.1708401806
O  O16  1  0.72220000  0.78660000  0.20620000  1.0 -1.1986494514
O  O17  1  0.27169000  0.73479000  0.82140000  1.0 -1.1785006434
O  O18  1  0.18898000  0.72902000  0.80550000  1.0 -1.1574583759
O  O19  1  0.63489000  0.80891000  0.32070000  1.0 -0.6100843348
O  O20  1  0.67486000  0.77114000  0.37680000  1.0 -0.5676158744
O  O21  1  0.35063000  0.78733000  0.70200000  1.0 -0.5676158744
O  O22  1  0.29528000  0.82692000  0.66270000  1.0 -0.5886945206
O  O23  1  0.64136000  0.16180000  0.65880000  1.0 -0.6277923346
O  O24  1  0.67622000  0.10456000  0.70100000  1.0 -0.550209421
O  O25  1  0.35448000  0.69250000  0.70300000  1.0 -0.5886945206
O  O26  1  0.30122000  0.64470000  0.66520000  1.0 -0.6277923346
O  O27  1  0.09952000  0.77084000  0.79820000  1.0 -0.579615484
O  O28  1  0.15225000  0.81275000  0.84040000  1.0 -0.6100843348
O  O29  1  0.72150000  0.66050000  0.29210000  1.0 -1.1785006434
O  O30  1  0.78660000  0.72220000  0.20620000  1.0 -1.1938565823
O  O31  1  0.73479000  0.27169000  0.82140000  1.0 -1.1785006434
O  O32  1  0.72902000  0.18898000  0.80550000  1.0 -1.1490560862
O  O33  1  0.80891000  0.63489000  0.32070000  1.0 -0.6191788989
O  O34  1  0.77114000  0.67486000  0.37680000  1.0 -0.5676158744
O  O35  1  0.78733000  0.35063000  0.70200000  1.0 -0.5676158744
O  O36  1  0.82692000  0.29528000  0.66270000  1.0 -0.5886945206
O  O37  1  0.16180000  0.64136000  0.65880000  1.0 -0.6191788989
O  O38  1  0.10456000  0.67622000  0.70100000  1.0 -0.550209421
O  O39  1  0.69250000  0.35448000  0.70300000  1.0 -0.5886945206
O  O40  1  0.64470000  0.30122000  0.66520000  1.0 -0.6277923346
O  O41  1  0.77084000  0.09952000  0.79820000  1.0 -0.579615484
O  O42  1  0.81275000  0.15225000  0.84040000  1.0 -0.6100843348
O  O43  1  0.66050000  0.72150000  0.20790000  1.0 -1.1708401806
O  O44  1  0.72220000  0.78660000  0.29380000  1.0 -1.1986494514
O  O45  1  0.27169000  0.73479000  0.67860000  1.0 -1.1785006434
O  O46  1  0.18898000  0.72902000  0.69450000  1.0 -1.1574583759
O  O47  1  0.63489000  0.80891000  0.17930000  1.0 -0.6100843348
O  O48  1  0.67486000  0.77114000  0.12320000  1.0 -0.5676158744
O  O49  1  0.35063000  0.78733000  0.79800000  1.0 -0.5676158744
O  O50  1  0.29528000  0.82692000  0.83730000  1.0 -0.5886945206
O  O51  1  0.64136000  0.16180000  0.84120000  1.0 -0.6277923346
O  O52  1  0.67622000  0.10456000  0.79900000  1.0 -0.550209421
O  O53  1  0.35448000  0.69250000  0.79700000  1.0 -0.5886945206
O  O54  1  0.30122000  0.64470000  0.83480000  1.0 -0.6277923346
O  O55  1  0.09952000  0.77084000  0.70180000  1.0 -0.579615484
O  O56  1  0.15225000  0.81275000  0.65960000  1.0 -0.6100843348
O  O57  1  0.63540000  0.63540000  0.17440000  1.0 -0.5429030511
O  O58  1  0.67670000  0.67670000  0.12150000  1.0 -0.579615484
O  O59  1  0.76980000  0.76980000  0.37770000  1.0 -0.5614701959
O  O60  1  0.81030000  0.81030000  0.32370000  1.0 -0.5971910509
O  O61  1  0.63540000  0.63540000  0.32560000  1.0 -0.550209421
O  O62  1  0.67670000  0.67670000  0.37850000  1.0 -0.579615484
O  O63  1  0.76980000  0.76980000  0.12230000  1.0 -0.5614701959
O  O64  1  0.81030000  0.81030000  0.17630000  1.0 -0.5971910509
O  O65  1  0.67970000  0.26610000  0.75000000  1.0 -1.1708401806
O  O66  1  0.78900000  0.26280000  0.75000000  1.0 -1.1574583759
O  O67  1  0.66070000  0.18250000  0.75000000  1.0 -1.1785006434
O  O68  1  0.79890000  0.17790000  0.75000000  1.0 -1.1785006434
O  O69  1  0.26610000  0.67970000  0.75000000  1.0 -1.1708401806
O  O70  1  0.26280000  0.78900000  0.75000000  1.0 -1.1574583759
O  O71  1  0.18250000  0.66070000  0.75000000  1.0 -1.1708401806
O  O72  1  0.17790000  0.79890000  0.75000000  1.0 -1.1785006434
O  O73  1  0.27850000  0.33950000  0.70790000  1.0 -1.1785006434
O  O74  1  0.21340000  0.27780000  0.79380000  1.0 -1.1986494514
O  O75  1  0.26521000  0.72831000  0.17860000  1.0 -1.1785006434
O  O76  1  0.27098000  0.81102000  0.19450000  1.0 -1.1574583759
O  O77  1  0.19109000  0.36511000  0.67930000  1.0 -0.6191788989
O  O78  1  0.22886000  0.32514000  0.62320000  1.0 -0.5676158744
O  O79  1  0.21267000  0.64937000  0.29800000  1.0 -0.5676158744
O  O80  1  0.17308000  0.70472000  0.33730000  1.0 -0.5886945206
O  O81  1  0.83820000  0.35864000  0.34120000  1.0 -0.6277923346
O  O82  1  0.89544000  0.32378000  0.29900000  1.0 -0.550209421
O  O83  1  0.30750000  0.64552000  0.29700000  1.0 -0.5886945206
O  O84  1  0.35530000  0.69878000  0.33480000  1.0 -0.6277923346
O  O85  1  0.22916000  0.90048000  0.20180000  1.0 -0.579615484
O  O86  1  0.18725000  0.84775000  0.15960000  1.0 -0.6100843348
O  O87  1  0.33950000  0.27850000  0.79210000  1.0 -1.1785006434
O  O88  1  0.27780000  0.21340000  0.70620000  1.0 -1.1986494514
O  O89  1  0.72831000  0.26521000  0.32140000  1.0 -1.1785006434
O  O90  1  0.81102000  0.27098000  0.30550000  1.0 -1.1490560862
O  O91  1  0.36511000  0.19109000  0.82070000  1.0 -0.6191788989
O  O92  1  0.32514000  0.22886000  0.87680000  1.0 -0.5676158744
O  O93  1  0.64937000  0.21267000  0.20200000  1.0 -0.5676158744
O  O94  1  0.70472000  0.17308000  0.16270000  1.0 -0.5886945206
O  O95  1  0.35864000  0.83820000  0.15880000  1.0 -0.6191788989
O  O96  1  0.32378000  0.89544000  0.20100000  1.0 -0.550209421
O  O97  1  0.64552000  0.30750000  0.20300000  1.0 -0.5886945206
O  O98  1  0.69878000  0.35530000  0.16520000  1.0 -0.6277923346
O  O99  1  0.90048000  0.22916000  0.29820000  1.0 -0.579615484
O  O100  1  0.84775000  0.18725000  0.34040000  1.0 -0.6100843348
O  O101  1  0.27850000  0.33950000  0.79210000  1.0 -1.1785006434
O  O102  1  0.21340000  0.27780000  0.70620000  1.0 -1.1986494514
O  O103  1  0.26521000  0.72831000  0.32140000  1.0 -1.1785006434
O  O104  1  0.27098000  0.81102000  0.30550000  1.0 -1.1490560862
O  O105  1  0.19109000  0.36511000  0.82070000  1.0 -0.6191788989
O  O106  1  0.22886000  0.32514000  0.87680000  1.0 -0.5676158744
O  O107  1  0.21267000  0.64937000  0.20200000  1.0 -0.5676158744
O  O108  1  0.17308000  0.70472000  0.16270000  1.0 -0.5886945206
O  O109  1  0.83820000  0.35864000  0.15880000  1.0 -0.6277923346
O  O110  1  0.89544000  0.32378000  0.20100000  1.0 -0.550209421
O  O111  1  0.30750000  0.64552000  0.20300000  1.0 -0.5886945206
O  O112  1  0.35530000  0.69878000  0.16520000  1.0 -0.6277923346
O  O113  1  0.22916000  0.90048000  0.29820000  1.0 -0.579615484
O  O114  1  0.18725000  0.84775000  0.34040000  1.0 -0.6100843348
O  O115  1  0.33950000  0.27850000  0.70790000  1.0 -1.1785006434
O  O116  1  0.27780000  0.21340000  0.79380000  1.0 -1.1986494514
O  O117  1  0.72831000  0.26521000  0.17860000  1.0 -1.1785006434
O  O118  1  0.81102000  0.27098000  0.19450000  1.0 -1.1490560862
O  O119  1  0.36511000  0.19109000  0.67930000  1.0 -0.6191788989
O  O120  1  0.32514000  0.22886000  0.62320000  1.0 -0.5676158744
O  O121  1  0.64937000  0.21267000  0.29800000  1.0 -0.5676158744
O  O122  1  0.70472000  0.17308000  0.33730000  1.0 -0.5886945206
O  O123  1  0.35864000  0.83820000  0.34120000  1.0 -0.6277923346
O  O124  1  0.32378000  0.89544000  0.29900000  1.0 -0.550209421
O  O125  1  0.64552000  0.30750000  0.29700000  1.0 -0.5886945206
O  O126  1  0.69878000  0.35530000  0.33480000  1.0 -0.6277923346
O  O127  1  0.90048000  0.22916000  0.20180000  1.0 -0.579615484
O  O128  1  0.84775000  0.18725000  0.15960000  1.0 -0.6100843348
O  O129  1  0.36460000  0.36460000  0.67440000  1.0 -0.550209421
O  O130  1  0.32330000  0.32330000  0.62150000  1.0 -0.579615484
O  O131  1  0.23020000  0.23020000  0.87770000  1.0 -0.5614701959
O  O132  1  0.18970000  0.18970000  0.82370000  1.0 -0.5971910509
O  O133  1  0.36460000  0.36460000  0.82560000  1.0 -0.550209421
O  O134  1  0.32330000  0.32330000  0.87850000  1.0 -0.579615484
O  O135  1  0.23020000  0.23020000  0.62230000  1.0 -0.5614701959
O  O136  1  0.18970000  0.18970000  0.67630000  1.0 -0.5971910509
O  O137  1  0.32030000  0.73390000  0.25000000  1.0 -1.1708401806
O  O138  1  0.21100000  0.73720000  0.25000000  1.0 -1.1574583759
O  O139  1  0.33930000  0.81750000  0.25000000  1.0 -1.1785006434
O  O140  1  0.20110000  0.82210000  0.25000000  1.0 -1.1785006434
O  O141  1  0.73390000  0.32030000  0.25000000  1.0 -1.1708401806
O  O142  1  0.73720000  0.21100000  0.25000000  1.0 -1.1574583759
O  O143  1  0.81750000  0.33930000  0.25000000  1.0 -1.1785006434
O  O144  1  0.82210000  0.20110000  0.25000000  1.0 -1.1785006434
