# DDEC6 charges by PACMAN v1.1 (https://github.com/mtap-research/PACMAN-charge/)
data_FEWGUL_FSR_pacman
_symmetry_space_group_name_H-M   'P 1'
_cell_length_a   5.14740000
_cell_length_b   18.23200000
_cell_length_c   26.78300000
_cell_angle_alpha   90.00000000
_cell_angle_beta   90.08000000
_cell_angle_gamma   90.00000000
_symmetry_Int_Tables_number   1
_chemical_formula_structural   LaH12C24N6O7
_chemical_formula_sum   'La4 H48 C96 N24 O28'
_cell_volume   2513.51237838
_cell_formula_units_Z   4
loop_
 _symmetry_equiv_pos_site_id
 _symmetry_equiv_pos_as_xyz
  1  'x, y, z'
loop_
 _atom_site_type_symbol
 _atom_site_label
 _atom_site_symmetry_multiplicity
 _atom_site_fract_x
 _atom_site_fract_y
 _atom_site_fract_z
 _atom_site_occupancy
 _atom_site_charge
La  La1  1  0.85220000  0.89441000  0.52222000  1.0 1.8881840963
La  La2  1  0.14780000  0.39441000  0.97778000  1.0 1.8881840963
La  La3  1  0.14780000  0.10559000  0.47778000  1.0 1.8881840963
La  La4  1  0.85220000  0.60559000  0.02222000  1.0 1.8881840963
H  H1  1  0.69390000  0.67630000  0.50520000  1.0 0.126978253
H  H2  1  0.30610000  0.17630000  0.99480000  1.0 0.126978253
H  H3  1  0.30610000  0.32370000  0.49480000  1.0 0.126978253
H  H4  1  0.69390000  0.82370000  0.00520000  1.0 0.126978253
H  H5  1  0.47960000  0.51440000  0.41320000  1.0 0.1196241909
H  H6  1  0.52040000  0.01440000  0.08680000  1.0 0.1196241909
H  H7  1  0.52040000  0.48560000  0.58680000  1.0 0.1196241909
H  H8  1  0.47960000  0.98560000  0.91320000  1.0 0.1196241909
H  H9  1  0.11910000  0.58370000  0.38470000  1.0 0.1096945117
H  H10  1  0.88090000  0.08370000  0.11530000  1.0 0.1096945117
H  H11  1  0.88090000  0.41630000  0.61530000  1.0 0.1096945117
H  H12  1  0.11910000  0.91630000  0.88470000  1.0 0.1096945117
H  H13  1  0.07940000  0.70530000  0.41530000  1.0 0.1196241909
H  H14  1  0.92060000  0.20530000  0.08470000  1.0 0.1196241909
H  H15  1  0.92060000  0.29470000  0.58470000  1.0 0.1196241909
H  H16  1  0.07940000  0.79470000  0.91530000  1.0 0.1196241909
H  H17  1  0.03370000  0.84050000  0.66410000  1.0 0.1355337609
H  H18  1  0.96630000  0.34050000  0.83590000  1.0 0.1355337609
H  H19  1  0.96630000  0.15950000  0.33590000  1.0 0.1355337609
H  H20  1  0.03370000  0.65950000  0.16410000  1.0 0.1355337609
H  H21  1  0.28490000  0.88250000  0.80440000  1.0 0.1038791161
H  H22  1  0.71510000  0.38250000  0.69560000  1.0 0.1038791161
H  H23  1  0.71510000  0.11750000  0.19560000  1.0 0.1038791161
H  H24  1  0.28490000  0.61750000  0.30440000  1.0 0.1038791161
H  H25  1  0.61740000  0.95640000  0.77060000  1.0 0.1196241909
H  H26  1  0.38260000  0.45640000  0.72940000  1.0 0.1196241909
H  H27  1  0.38260000  0.04360000  0.22940000  1.0 0.1196241909
H  H28  1  0.61740000  0.54360000  0.27060000  1.0 0.1196241909
H  H29  1  0.64730000  0.96620000  0.68430000  1.0 0.1096945117
H  H30  1  0.35270000  0.46620000  0.81570000  1.0 0.1096945117
H  H31  1  0.35270000  0.03380000  0.31570000  1.0 0.1096945117
H  H32  1  0.64730000  0.53380000  0.18430000  1.0 0.1096945117
H  H33  1  0.57620000  0.66400000  0.88660000  1.0 0.126978253
H  H34  1  0.42380000  0.16400000  0.61340000  1.0 0.126978253
H  H35  1  0.42380000  0.33600000  0.11340000  1.0 0.126978253
H  H36  1  0.57620000  0.83600000  0.38660000  1.0 0.126978253
H  H37  1  0.17360000  0.65770000  0.75800000  1.0 0.1096945117
H  H38  1  0.82640000  0.15770000  0.74200000  1.0 0.1096945117
H  H39  1  0.82640000  0.34230000  0.24200000  1.0 0.1096945117
H  H40  1  0.17360000  0.84230000  0.25800000  1.0 0.1096945117
H  H41  1  0.87740000  0.57070000  0.79260000  1.0 0.1096945117
H  H42  1  0.12260000  0.07070000  0.70740000  1.0 0.1096945117
H  H43  1  0.12260000  0.42930000  0.20740000  1.0 0.1096945117
H  H44  1  0.87740000  0.92930000  0.29260000  1.0 0.1096945117
H  H45  1  0.94440000  0.53580000  0.87770000  1.0 0.126978253
H  H46  1  0.05560000  0.03580000  0.62230000  1.0 0.126978253
H  H47  1  0.05560000  0.46420000  0.12230000  1.0 0.126978253
H  H48  1  0.94440000  0.96420000  0.37770000  1.0 0.126978253
C  C1  1  0.32200000  0.77560000  0.48620000  1.0 0.5985263694
C  C2  1  0.67800000  0.27560000  0.01380000  1.0 0.5985263694
C  C3  1  0.67800000  0.22440000  0.51380000  1.0 0.5985263694
C  C4  1  0.32200000  0.72440000  0.98620000  1.0 0.5985263694
C  C5  1  0.37800000  0.70330000  0.46200000  1.0 -0.0294343935
C  C6  1  0.62200000  0.20330000  0.03800000  1.0 -0.0294343935
C  C7  1  0.62200000  0.29670000  0.53800000  1.0 -0.0294343935
C  C8  1  0.37800000  0.79670000  0.96200000  1.0 -0.0294343935
C  C9  1  0.57800000  0.65850000  0.48050000  1.0 -0.117264463
C  C10  1  0.42200000  0.15850000  0.01950000  1.0 -0.117264463
C  C11  1  0.42200000  0.34150000  0.51950000  1.0 -0.117264463
C  C12  1  0.57800000  0.84150000  0.98050000  1.0 -0.117264463
C  C13  1  0.60300000  0.58790000  0.46210000  1.0 0.0140486487
C  C14  1  0.39700000  0.08790000  0.03790000  1.0 0.0140486487
C  C15  1  0.39700000  0.41210000  0.53790000  1.0 0.0140486487
C  C16  1  0.60300000  0.91210000  0.96210000  1.0 0.0140486487
C  C17  1  0.44800000  0.56180000  0.42650000  1.0 -0.1023239851
C  C18  1  0.55200000  0.06180000  0.07350000  1.0 -0.1023239851
C  C19  1  0.55200000  0.43820000  0.57350000  1.0 -0.1023239851
C  C20  1  0.44800000  0.93820000  0.92650000  1.0 -0.1023239851
C  C21  1  0.23900000  0.60290000  0.40840000  1.0 -0.0924322466
C  C22  1  0.76100000  0.10290000  0.09160000  1.0 -0.0924322466
C  C23  1  0.76100000  0.39710000  0.59160000  1.0 -0.0924322466
C  C24  1  0.23900000  0.89710000  0.90840000  1.0 -0.0924322466
C  C25  1  0.21600000  0.67520000  0.42750000  1.0 -0.1023239851
C  C26  1  0.78400000  0.17520000  0.07250000  1.0 -0.1023239851
C  C27  1  0.78400000  0.32480000  0.57250000  1.0 -0.1023239851
C  C28  1  0.21600000  0.82480000  0.92750000  1.0 -0.1023239851
C  C29  1  0.82300000  0.54200000  0.48240000  1.0 0.2517417032
C  C30  1  0.17700000  0.04200000  0.01760000  1.0 0.2517417032
C  C31  1  0.17700000  0.45800000  0.51760000  1.0 0.2517417032
C  C32  1  0.82300000  0.95800000  0.98240000  1.0 0.2517417032
C  C33  1  0.39400000  0.90840000  0.61020000  1.0 0.5985263694
C  C34  1  0.60600000  0.40840000  0.88980000  1.0 0.5985263694
C  C35  1  0.60600000  0.09160000  0.38980000  1.0 0.5985263694
C  C36  1  0.39400000  0.59160000  0.11020000  1.0 0.5985263694
C  C37  1  0.33700000  0.90010000  0.66666667  1.0 -0.0294343935
C  C38  1  0.66300000  0.40010000  0.83333000  1.0 -0.0294343935
C  C39  1  0.66300000  0.09990000  0.33333333  1.0 -0.0294343935
C  C40  1  0.33700000  0.59990000  0.16667000  1.0 -0.0294343935
C  C41  1  0.15200000  0.86400000  0.68600000  1.0 -0.1023239851
C  C42  1  0.84800000  0.36400000  0.81400000  1.0 -0.1023239851
C  C43  1  0.84800000  0.13600000  0.31400000  1.0 -0.1023239851
C  C44  1  0.15200000  0.63600000  0.18600000  1.0 -0.1023239851
C  C45  1  0.11000000  0.85650000  0.73730000  1.0 -0.0017995074
C  C46  1  0.89000000  0.35650000  0.76270000  1.0 -0.0017995074
C  C47  1  0.89000000  0.14350000  0.26270000  1.0 -0.0017995074
C  C48  1  0.11000000  0.64350000  0.23730000  1.0 -0.0017995074
C  C49  1  0.29700000  0.88940000  0.76930000  1.0 -0.117264463
C  C50  1  0.70300000  0.38940000  0.73070000  1.0 -0.117264463
C  C51  1  0.70300000  0.11060000  0.23070000  1.0 -0.117264463
C  C52  1  0.29700000  0.61060000  0.26930000  1.0 -0.117264463
C  C53  1  0.49700000  0.93190000  0.74950000  1.0 -0.1023239851
C  C54  1  0.50300000  0.43190000  0.75050000  1.0 -0.1023239851
C  C55  1  0.50300000  0.06810000  0.25050000  1.0 -0.1023239851
C  C56  1  0.49700000  0.56810000  0.24950000  1.0 -0.1023239851
C  C57  1  0.51400000  0.93710000  0.69860000  1.0 -0.1123156681
C  C58  1  0.48600000  0.43710000  0.80140000  1.0 -0.1123156681
C  C59  1  0.48600000  0.06290000  0.30140000  1.0 -0.1123156681
C  C60  1  0.51400000  0.56290000  0.19860000  1.0 -0.1123156681
C  C61  1  0.91700000  0.80850000  0.75850000  1.0 0.2257305157
C  C62  1  0.08300000  0.30850000  0.74150000  1.0 0.2257305157
C  C63  1  0.08300000  0.19150000  0.24150000  1.0 0.2257305157
C  C64  1  0.91700000  0.69150000  0.25850000  1.0 0.2257305157
C  C65  1  0.58100000  0.72080000  0.79570000  1.0 0.2135715146
C  C66  1  0.41900000  0.22080000  0.70430000  1.0 0.2135715146
C  C67  1  0.41900000  0.27920000  0.20430000  1.0 0.2135715146
C  C68  1  0.58100000  0.77920000  0.29570000  1.0 0.2135715146
C  C69  1  0.33800000  0.56280000  0.94160000  1.0 0.6128645796
C  C70  1  0.66200000  0.06280000  0.55840000  1.0 0.6128645796
C  C71  1  0.66200000  0.43720000  0.05840000  1.0 0.6128645796
C  C72  1  0.33800000  0.93720000  0.44160000  1.0 0.6128645796
C  C73  1  0.27900000  0.59300000  0.88820000  1.0 -0.0017995074
C  C74  1  0.72100000  0.09300000  0.61180000  1.0 -0.0017995074
C  C75  1  0.72100000  0.40700000  0.11180000  1.0 -0.0017995074
C  C76  1  0.27900000  0.90700000  0.38820000  1.0 -0.0017995074
C  C77  1  0.43800000  0.64380000  0.86740000  1.0 -0.1123156681
C  C78  1  0.56200000  0.14380000  0.63260000  1.0 -0.1123156681
C  C79  1  0.56200000  0.35620000  0.13260000  1.0 -0.1123156681
C  C80  1  0.43800000  0.85620000  0.36740000  1.0 -0.1123156681
C  C81  1  0.40100000  0.66700000  0.81770000  1.0 0.0226687375
C  C82  1  0.59900000  0.16700000  0.68230000  1.0 0.0226687375
C  C83  1  0.59900000  0.33300000  0.18230000  1.0 0.0226687375
C  C84  1  0.40100000  0.83300000  0.31770000  1.0 0.0226687375
C  C85  1  0.19800000  0.64110000  0.79130000  1.0 -0.1023239851
C  C86  1  0.80200000  0.14110000  0.70870000  1.0 -0.1023239851
C  C87  1  0.80200000  0.35890000  0.20870000  1.0 -0.1023239851
C  C88  1  0.19800000  0.85890000  0.29130000  1.0 -0.1023239851
C  C89  1  0.01900000  0.58950000  0.81150000  1.0 -0.0924322466
C  C90  1  0.98100000  0.08950000  0.68850000  1.0 -0.0924322466
C  C91  1  0.98100000  0.41050000  0.18850000  1.0 -0.0924322466
C  C92  1  0.01900000  0.91050000  0.31150000  1.0 -0.0924322466
C  C93  1  0.06400000  0.56790000  0.86180000  1.0 -0.0924322466
C  C94  1  0.93600000  0.06790000  0.63820000  1.0 -0.0924322466
C  C95  1  0.93600000  0.43210000  0.13820000  1.0 -0.0924322466
C  C96  1  0.06400000  0.93210000  0.36180000  1.0 -0.0924322466
N  N1  1  0.85300000  0.47680000  0.46030000  1.0 -0.1787220728
N  N2  1  0.14700000  0.97680000  0.03970000  1.0 -0.1787220728
N  N3  1  0.14700000  0.52320000  0.53970000  1.0 -0.1787220728
N  N4  1  0.85300000  0.02320000  0.96030000  1.0 -0.1787220728
N  N5  1  0.95900000  0.56490000  0.52090000  1.0 -0.1440638813
N  N6  1  0.04100000  0.06490000  0.97910000  1.0 -0.1440638813
N  N7  1  0.04100000  0.43510000  0.47910000  1.0 -0.1505338471
N  N8  1  0.95900000  0.93510000  0.02090000  1.0 -0.1440638813
N  N9  1  0.76600000  0.76890000  0.72880000  1.0 -0.1505338471
N  N10  1  0.23400000  0.26890000  0.77120000  1.0 -0.1505338471
N  N11  1  0.23400000  0.23110000  0.27120000  1.0 -0.1505338471
N  N12  1  0.76600000  0.73110000  0.22880000  1.0 -0.1505338471
N  N13  1  0.58700000  0.72190000  0.74640000  1.0 -0.1700320583
N  N14  1  0.41300000  0.22190000  0.75360000  1.0 -0.1700320583
N  N15  1  0.41300000  0.27810000  0.25360000  1.0 -0.1700320583
N  N16  1  0.58700000  0.77810000  0.24640000  1.0 -0.1700320583
N  N17  1  0.72400000  0.76350000  0.82700000  1.0 -0.1325682144
N  N18  1  0.27600000  0.26350000  0.67300000  1.0 -0.1325682144
N  N19  1  0.27600000  0.23650000  0.17300000  1.0 -0.1325682144
N  N20  1  0.72400000  0.73650000  0.32700000  1.0 -0.1325682144
N  N21  1  0.88600000  0.80790000  0.80750000  1.0 -0.1440638813
N  N22  1  0.11400000  0.30790000  0.69250000  1.0 -0.1440638813
N  N23  1  0.11400000  0.19210000  0.19250000  1.0 -0.1440638813
N  N24  1  0.88600000  0.69210000  0.30750000  1.0 -0.1440638813
O  O1  1  0.51300000  0.80110000  0.51100000  1.0 -0.6117846282
O  O2  1  0.48700000  0.30110000  0.98900000  1.0 -0.6117846282
O  O3  1  0.48700000  0.19890000  0.48900000  1.0 -0.6117846282
O  O4  1  0.51300000  0.69890000  0.01100000  1.0 -0.6117846282
O  O5  1  0.12000000  0.80660000  0.47780000  1.0 -0.5636853318
O  O6  1  0.88000000  0.30660000  0.02220000  1.0 -0.5636853318
O  O7  1  0.88000000  0.19340000  0.52220000  1.0 -0.5636853318
O  O8  1  0.12000000  0.69340000  0.97780000  1.0 -0.5636853318
O  O9  1  0.61200000  0.91490000  0.59840000  1.0 -0.5304323177
O  O10  1  0.38800000  0.41490000  0.90160000  1.0 -0.5304323177
O  O11  1  0.38800000  0.08510000  0.40160000  1.0 -0.5304323177
O  O12  1  0.61200000  0.58510000  0.09840000  1.0 -0.5304323177
O  O13  1  0.18900000  0.90400000  0.58360000  1.0 -0.6117846282
O  O14  1  0.81100000  0.40400000  0.91640000  1.0 -0.6153511148
O  O15  1  0.81100000  0.09600000  0.41640000  1.0 -0.6117846282
O  O16  1  0.18900000  0.59600000  0.08360000  1.0 -0.6117846282
O  O17  1  0.55900000  0.56660000  0.95520000  1.0 -0.5503591638
O  O18  1  0.44100000  0.06660000  0.54480000  1.0 -0.5503591638
O  O19  1  0.44100000  0.43340000  0.04480000  1.0 -0.5503591638
O  O20  1  0.55900000  0.93340000  0.45520000  1.0 -0.5503591638
O  O21  1  0.14600000  0.53340000  0.96300000  1.0 -0.6705170612
O  O22  1  0.85400000  0.03340000  0.53700000  1.0 -0.6705170612
O  O23  1  0.85400000  0.46660000  0.03700000  1.0 -0.6705170612
O  O24  1  0.14600000  0.96660000  0.46300000  1.0 -0.6705170612
O  O25  1  0.92800000  0.76780000  0.58070000  1.0 -0.0722598623
O  O26  1  0.07200000  0.26780000  0.91930000  1.0 -0.0722598623
O  O27  1  0.07200000  0.23220000  0.41930000  1.0 -0.0722598623
O  O28  1  0.92800000  0.73220000  0.08070000  1.0 -0.0722598623
