# DDEC6 charges by PACMAN v1.1 (https://github.com/mtap-research/PACMAN-charge/)
data_FEWQOP_FSR_pacman
_symmetry_space_group_name_H-M   'P 1'
_cell_length_a   16.05970000
_cell_length_b   16.05970000
_cell_length_c   16.05970000
_cell_angle_alpha   117.92600000
_cell_angle_beta   117.92600000
_cell_angle_gamma   117.92600000
_symmetry_Int_Tables_number   1
_chemical_formula_structural   Gd2CuH4C10N4O9
_chemical_formula_sum   'Gd6 Cu3 H12 C30 N12 O27'
_cell_volume   1530.62815313
_cell_formula_units_Z   3
loop_
 _symmetry_equiv_pos_site_id
 _symmetry_equiv_pos_as_xyz
  1  'x, y, z'
loop_
 _atom_site_type_symbol
 _atom_site_label
 _atom_site_symmetry_multiplicity
 _atom_site_fract_x
 _atom_site_fract_y
 _atom_site_fract_z
 _atom_site_occupancy
 _atom_site_charge
Gd  Gd1  1  0.72214000  0.78840000  0.63517000  1.0 1.9633891076
Gd  Gd2  1  0.78840000  0.63517000  0.72214000  1.0 1.9633891076
Gd  Gd3  1  0.63517000  0.72214000  0.78840000  1.0 1.9633891076
Gd  Gd4  1  0.27786000  0.21160000  0.36483000  1.0 1.9633891076
Gd  Gd5  1  0.21160000  0.36483000  0.27786000  1.0 1.9633891076
Gd  Gd6  1  0.36483000  0.27786000  0.21160000  1.0 1.9633891076
Cu  Cu1  1  0.00000000  0.00000000  0.50000000  1.0 0.647633502
Cu  Cu2  1  0.00000000  0.50000000  0.00000000  1.0 0.647633502
Cu  Cu3  1  0.50000000  0.00000000  0.00000000  1.0 0.647633502
H  H1  1  0.43421000  0.34519000  0.92250000  1.0 0.1289034924
H  H2  1  0.34519000  0.92250000  0.43421000  1.0 0.1289034924
H  H3  1  0.92250000  0.43421000  0.34519000  1.0 0.1289034924
H  H4  1  0.56579000  0.65481000  0.07750000  1.0 0.1289034924
H  H5  1  0.65481000  0.07750000  0.56579000  1.0 0.1289034924
H  H6  1  0.07750000  0.56579000  0.65481000  1.0 0.1289034924
H  H7  1  0.58261000  0.46289000  0.17600000  1.0 0.1289034924
H  H8  1  0.46289000  0.17600000  0.58261000  1.0 0.1289034924
H  H9  1  0.17600000  0.58261000  0.46289000  1.0 0.1289034924
H  H10  1  0.41739000  0.53711000  0.82400000  1.0 0.1289034924
H  H11  1  0.53711000  0.82400000  0.41739000  1.0 0.1289034924
H  H12  1  0.82400000  0.41739000  0.53711000  1.0 0.1289034924
C  C1  1  0.05391000  0.04299000  0.71550000  1.0 -0.0630425199
C  C2  1  0.04299000  0.71550000  0.05391000  1.0 -0.0630425199
C  C3  1  0.71550000  0.05391000  0.04299000  1.0 -0.0630425199
C  C4  1  0.94609000  0.95701000  0.28450000  1.0 -0.0630425199
C  C5  1  0.95701000  0.28450000  0.94609000  1.0 -0.0630425199
C  C6  1  0.28450000  0.94609000  0.95701000  1.0 -0.0630425199
C  C7  1  0.35871000  0.28509000  0.90720000  1.0 -0.0301159791
C  C8  1  0.28509000  0.90720000  0.35871000  1.0 -0.0301159791
C  C9  1  0.90720000  0.35871000  0.28509000  1.0 -0.0301159791
C  C10  1  0.64129000  0.71491000  0.09280000  1.0 -0.0301159791
C  C11  1  0.71491000  0.09280000  0.64129000  1.0 -0.0301159791
C  C12  1  0.09280000  0.64129000  0.71491000  1.0 -0.0301159791
C  C13  1  0.83741000  0.87119000  0.51730000  1.0 0.5671832353
C  C14  1  0.87119000  0.51730000  0.83741000  1.0 0.5671832353
C  C15  1  0.51730000  0.83741000  0.87119000  1.0 0.5671832353
C  C16  1  0.16259000  0.12881000  0.48270000  1.0 0.5671832353
C  C17  1  0.12881000  0.48270000  0.16259000  1.0 0.5671832353
C  C18  1  0.48270000  0.16259000  0.12881000  1.0 0.5671832353
C  C19  1  0.44671000  0.35509000  0.05850000  1.0 0.113720508
C  C20  1  0.35509000  0.05850000  0.44671000  1.0 0.113720508
C  C21  1  0.05850000  0.44671000  0.35509000  1.0 0.113720508
C  C22  1  0.55329000  0.64491000  0.94150000  1.0 0.113720508
C  C23  1  0.64491000  0.94150000  0.55329000  1.0 0.113720508
C  C24  1  0.94150000  0.55329000  0.64491000  1.0 0.113720508
C  C25  1  0.14571000  0.11869000  0.87350000  1.0 0.474185893
C  C26  1  0.11869000  0.87350000  0.14571000  1.0 0.474185893
C  C27  1  0.87350000  0.14571000  0.11869000  1.0 0.474185893
C  C28  1  0.85429000  0.88131000  0.12650000  1.0 0.474185893
C  C29  1  0.88131000  0.12650000  0.85429000  1.0 0.474185893
C  C30  1  0.12650000  0.85429000  0.88131000  1.0 0.474185893
N  N1  1  0.16331000  0.12949000  0.73800000  1.0 -0.2076610286
N  N2  1  0.12949000  0.73800000  0.16331000  1.0 -0.2076610286
N  N3  1  0.73800000  0.16331000  0.12949000  1.0 -0.2076610286
N  N4  1  0.83669000  0.87051000  0.26200000  1.0 -0.2076610286
N  N5  1  0.87051000  0.26200000  0.83669000  1.0 -0.2076610286
N  N6  1  0.26200000  0.83669000  0.87051000  1.0 -0.2076610286
N  N7  1  0.34321000  0.27319000  0.04050000  1.0 -0.3748335549
N  N8  1  0.27319000  0.04050000  0.34321000  1.0 -0.3748335549
N  N9  1  0.04050000  0.34321000  0.27319000  1.0 -0.3752303431
N  N10  1  0.65679000  0.72681000  0.95950000  1.0 -0.3748335549
N  N11  1  0.72681000  0.95950000  0.65679000  1.0 -0.3752303431
N  N12  1  0.95950000  0.65679000  0.72681000  1.0 -0.3748335549
O  O1  1  0.50000000  0.50000000  0.50000000  1.0 -0.6890422413
O  O2  1  0.05711000  0.05089000  0.86970000  1.0 -0.6095743686
O  O3  1  0.05089000  0.86970000  0.05711000  1.0 -0.6095743686
O  O4  1  0.86970000  0.05711000  0.05089000  1.0 -0.6095743686
O  O5  1  0.94289000  0.94911000  0.13030000  1.0 -0.6095743686
O  O6  1  0.94911000  0.13030000  0.94289000  1.0 -0.6095743686
O  O7  1  0.13030000  0.94289000  0.94911000  1.0 -0.6095743686
O  O8  1  0.72081000  0.77629000  0.47740000  1.0 -0.5198634176
O  O9  1  0.77629000  0.47740000  0.72081000  1.0 -0.5198634176
O  O10  1  0.47740000  0.72081000  0.77629000  1.0 -0.5198634176
O  O11  1  0.27919000  0.22371000  0.52260000  1.0 -0.5198634176
O  O12  1  0.22371000  0.52260000  0.27919000  1.0 -0.5198634176
O  O13  1  0.52260000  0.27919000  0.22371000  1.0 -0.5198634176
O  O14  1  0.78471000  0.82989000  0.39800000  1.0 -0.5198634176
O  O15  1  0.82989000  0.39800000  0.78471000  1.0 -0.5198634176
O  O16  1  0.39800000  0.78471000  0.82989000  1.0 -0.5198634176
O  O17  1  0.21529000  0.17011000  0.60200000  1.0 -0.5198634176
O  O18  1  0.17011000  0.60200000  0.21529000  1.0 -0.5198634176
O  O19  1  0.60200000  0.21529000  0.17011000  1.0 -0.5198634176
O  O20  1  0.82467000  0.82467000  0.82467000  1.0 -0.9180574427
O  O21  1  0.17533000  0.17533000  0.17533000  1.0 -0.9180574427
O  O22  1  0.70811000  0.60969000  0.53010000  1.0 -0.9541564096
O  O23  1  0.60969000  0.53010000  0.70811000  1.0 -0.9541564096
O  O24  1  0.53010000  0.70811000  0.60969000  1.0 -0.9541564096
O  O25  1  0.29189000  0.39031000  0.46990000  1.0 -0.9541564096
O  O26  1  0.39031000  0.46990000  0.29189000  1.0 -0.9541564096
O  O27  1  0.46990000  0.29189000  0.39031000  1.0 -0.9541564096
