# DDEC6 charges by PACMAN v1.1 (https://github.com/mtap-research/PACMAN-charge/)
data_FEWQIJ_ASR_pacman
_symmetry_space_group_name_H-M   'P 1'
_cell_length_a   27.39340000
_cell_length_b   27.39340000
_cell_length_c   14.01080000
_cell_angle_alpha   90.00000000
_cell_angle_beta   90.00000000
_cell_angle_gamma   120.00000000
_symmetry_Int_Tables_number   1
_chemical_formula_structural   Dy2CuH6C10N4O9
_chemical_formula_sum   'Dy36 Cu18 H108 C180 N72 O162'
_cell_volume   9105.11517291
_cell_formula_units_Z   18
loop_
 _symmetry_equiv_pos_site_id
 _symmetry_equiv_pos_as_xyz
  1  'x, y, z'
loop_
 _atom_site_type_symbol
 _atom_site_label
 _atom_site_symmetry_multiplicity
 _atom_site_fract_x
 _atom_site_fract_y
 _atom_site_fract_z
 _atom_site_occupancy
 _atom_site_charge
Dy  Dy1  1  0.73911000  0.41371000  0.02451000  1.0 2.0469865429
Dy  Dy2  1  0.40578000  0.74704000  0.19118000  1.0 2.0469865429
Dy  Dy3  1  0.07244000  0.08038000  0.35784000  1.0 2.0469865429
Dy  Dy4  1  0.58629000  0.32540000  0.02451000  1.0 2.0469865429
Dy  Dy5  1  0.25296000  0.65873000  0.19118000  1.0 2.0469865429
Dy  Dy6  1  0.91962000  0.99207000  0.35784000  1.0 2.0469865429
Dy  Dy7  1  0.67460000  0.26089000  0.02451000  1.0 2.0469865429
Dy  Dy8  1  0.34127000  0.59422000  0.19118000  1.0 2.0469865429
Dy  Dy9  1  0.00793000  0.92756000  0.35784000  1.0 2.0469865429
Dy  Dy10  1  0.26089000  0.58629000  0.47549000  1.0 2.0469865429
Dy  Dy11  1  0.92756000  0.91962000  0.14216000  1.0 2.0469865429
Dy  Dy12  1  0.59422000  0.25296000  0.30882000  1.0 2.0469865429
Dy  Dy13  1  0.41371000  0.67460000  0.47549000  1.0 2.0469865429
Dy  Dy14  1  0.08038000  0.00793000  0.14216000  1.0 2.0469865429
Dy  Dy15  1  0.74704000  0.34127000  0.30882000  1.0 2.0469865429
Dy  Dy16  1  0.32540000  0.73911000  0.47549000  1.0 2.0469865429
Dy  Dy17  1  0.99207000  0.07244000  0.14216000  1.0 2.0469865429
Dy  Dy18  1  0.65873000  0.40578000  0.30882000  1.0 2.0469865429
Dy  Dy19  1  0.73911000  0.41371000  0.52451000  1.0 2.0469865429
Dy  Dy20  1  0.40578000  0.74704000  0.69118000  1.0 2.0469865429
Dy  Dy21  1  0.07244000  0.08038000  0.85784000  1.0 2.0469865429
Dy  Dy22  1  0.58629000  0.32540000  0.52451000  1.0 2.0469865429
Dy  Dy23  1  0.25296000  0.65873000  0.69118000  1.0 2.0469865429
Dy  Dy24  1  0.91962000  0.99207000  0.85784000  1.0 2.0469865429
Dy  Dy25  1  0.67460000  0.26089000  0.52451000  1.0 2.0469865429
Dy  Dy26  1  0.34127000  0.59422000  0.69118000  1.0 2.0469865429
Dy  Dy27  1  0.00793000  0.92756000  0.85784000  1.0 2.0469865429
Dy  Dy28  1  0.26089000  0.58629000  0.97549000  1.0 2.0469865429
Dy  Dy29  1  0.92756000  0.91962000  0.64216000  1.0 2.0469865429
Dy  Dy30  1  0.59422000  0.25296000  0.80882000  1.0 2.0469865429
Dy  Dy31  1  0.41371000  0.67460000  0.97549000  1.0 2.0469865429
Dy  Dy32  1  0.08038000  0.00793000  0.64216000  1.0 2.0469865429
Dy  Dy33  1  0.74704000  0.34127000  0.80882000  1.0 2.0469865429
Dy  Dy34  1  0.32540000  0.73911000  0.97549000  1.0 2.0469865429
Dy  Dy35  1  0.99207000  0.07244000  0.64216000  1.0 2.0469865429
Dy  Dy36  1  0.65873000  0.40578000  0.80882000  1.0 2.0469865429
Cu  Cu1  1  0.83333000  0.66666667  0.08333000  1.0 0.6370362998
Cu  Cu2  1  0.50000000  0.00000000  0.25000000  1.0 0.6370362998
Cu  Cu3  1  0.33333333  0.16667000  0.08333000  1.0 0.6370362998
Cu  Cu4  1  0.00000000  0.50000000  0.25000000  1.0 0.6370362998
Cu  Cu5  1  0.83333000  0.16667000  0.08333000  1.0 0.6370362998
Cu  Cu6  1  0.50000000  0.50000000  0.25000000  1.0 0.6370362998
Cu  Cu7  1  0.16667000  0.33333333  0.41667000  1.0 0.6370362998
Cu  Cu8  1  0.66666667  0.83333000  0.41667000  1.0 0.6370362998
Cu  Cu9  1  0.16667000  0.83333000  0.41667000  1.0 0.6370362998
Cu  Cu10  1  0.83333000  0.66666667  0.58333000  1.0 0.6370362998
Cu  Cu11  1  0.50000000  0.00000000  0.75000000  1.0 0.6370362998
Cu  Cu12  1  0.33333333  0.16667000  0.58333000  1.0 0.6370362998
Cu  Cu13  1  0.00000000  0.50000000  0.75000000  1.0 0.6370362998
Cu  Cu14  1  0.83333000  0.16667000  0.58333000  1.0 0.6370362998
Cu  Cu15  1  0.50000000  0.50000000  0.75000000  1.0 0.6370362998
Cu  Cu16  1  0.16667000  0.33333333  0.91667000  1.0 0.6370362998
Cu  Cu17  1  0.66666667  0.83333000  0.91667000  1.0 0.6370362998
Cu  Cu18  1  0.16667000  0.83333000  0.91667000  1.0 0.6370362998
H  H1  1  0.77810000  0.64490000  0.28385000  1.0 0.1278924026
H  H2  1  0.72050000  0.56420000  0.36855000  1.0 0.1217863389
H  H3  1  0.53952000  0.32289000  0.33657000  1.0 0.4059159585
H  H4  1  0.44477000  0.97823000  0.45052000  1.0 0.1278924026
H  H5  1  0.38717000  0.89753000  0.03522000  1.0 0.1217863389
H  H6  1  0.20619000  0.65623000  0.00324000  1.0 0.4059159585
H  H7  1  0.11143000  0.31157000  0.11718000  1.0 0.1278924026
H  H8  1  0.05383000  0.23087000  0.20188000  1.0 0.1217863389
H  H9  1  0.87286000  0.98956000  0.16990000  1.0 0.4059159585
H  H10  1  0.35510000  0.13320000  0.28385000  1.0 0.1278924026
H  H11  1  0.43580000  0.15630000  0.36855000  1.0 0.1217863389
H  H12  1  0.67711000  0.21663000  0.33657000  1.0 0.4059159585
H  H13  1  0.02177000  0.46653000  0.45052000  1.0 0.1278924026
H  H14  1  0.10247000  0.48963000  0.03522000  1.0 0.1217863389
H  H15  1  0.34377000  0.54996000  0.00324000  1.0 0.4059159585
H  H16  1  0.68843000  0.79987000  0.11718000  1.0 0.1278924026
H  H17  1  0.76913000  0.82297000  0.20188000  1.0 0.1217863389
H  H18  1  0.01044000  0.88330000  0.16990000  1.0 0.4059159585
H  H19  1  0.86680000  0.22190000  0.28385000  1.0 0.1278924026
H  H20  1  0.84370000  0.27950000  0.36855000  1.0 0.1217863389
H  H21  1  0.78337000  0.46048000  0.33657000  1.0 0.4059159585
H  H22  1  0.53347000  0.55523000  0.45052000  1.0 0.1278924026
H  H23  1  0.51037000  0.61283000  0.03522000  1.0 0.1217863389
H  H24  1  0.45004000  0.79381000  0.00324000  1.0 0.4059159585
H  H25  1  0.20013000  0.88857000  0.11718000  1.0 0.1278924026
H  H26  1  0.17703000  0.94617000  0.20188000  1.0 0.1217863389
H  H27  1  0.11670000  0.12714000  0.16990000  1.0 0.4059159585
H  H28  1  0.22190000  0.35510000  0.21615000  1.0 0.1278924026
H  H29  1  0.27950000  0.43580000  0.13145000  1.0 0.1217863389
H  H30  1  0.46048000  0.67711000  0.16343000  1.0 0.4059159585
H  H31  1  0.88857000  0.68843000  0.38282000  1.0 0.1278924026
H  H32  1  0.94617000  0.76913000  0.29812000  1.0 0.1217863389
H  H33  1  0.12714000  0.01044000  0.33010000  1.0 0.4059159585
H  H34  1  0.55523000  0.02177000  0.04948000  1.0 0.1278924026
H  H35  1  0.61283000  0.10247000  0.46478000  1.0 0.1217863389
H  H36  1  0.79381000  0.34377000  0.49676000  1.0 0.4059159585
H  H37  1  0.64490000  0.86680000  0.21615000  1.0 0.1278924026
H  H38  1  0.56420000  0.84370000  0.13145000  1.0 0.1217863389
H  H39  1  0.32289000  0.78337000  0.16343000  1.0 0.4059159585
H  H40  1  0.31157000  0.20013000  0.38282000  1.0 0.1278924026
H  H41  1  0.23087000  0.17703000  0.29812000  1.0 0.1217863389
H  H42  1  0.98956000  0.11670000  0.33010000  1.0 0.4059159585
H  H43  1  0.97823000  0.53347000  0.04948000  1.0 0.1278924026
H  H44  1  0.89753000  0.51037000  0.46478000  1.0 0.1217863389
H  H45  1  0.65623000  0.45004000  0.49676000  1.0 0.4059159585
H  H46  1  0.13320000  0.77810000  0.21615000  1.0 0.1278924026
H  H47  1  0.15630000  0.72050000  0.13145000  1.0 0.1217863389
H  H48  1  0.21663000  0.53952000  0.16343000  1.0 0.4059159585
H  H49  1  0.79987000  0.11143000  0.38282000  1.0 0.1278924026
H  H50  1  0.82297000  0.05383000  0.29812000  1.0 0.1217863389
H  H51  1  0.88330000  0.87286000  0.33010000  1.0 0.4059159585
H  H52  1  0.46653000  0.44477000  0.04948000  1.0 0.1278924026
H  H53  1  0.48963000  0.38717000  0.46478000  1.0 0.1217863389
H  H54  1  0.54996000  0.20619000  0.49676000  1.0 0.4059159585
H  H55  1  0.77810000  0.64490000  0.78385000  1.0 0.1278924026
H  H56  1  0.72050000  0.56420000  0.86855000  1.0 0.1217863389
H  H57  1  0.53952000  0.32289000  0.83657000  1.0 0.4059159585
H  H58  1  0.44477000  0.97823000  0.95052000  1.0 0.1278924026
H  H59  1  0.38717000  0.89753000  0.53522000  1.0 0.1217863389
H  H60  1  0.20619000  0.65623000  0.50324000  1.0 0.4059159585
H  H61  1  0.11143000  0.31157000  0.61718000  1.0 0.1278924026
H  H62  1  0.05383000  0.23087000  0.70188000  1.0 0.1217863389
H  H63  1  0.87286000  0.98956000  0.66990000  1.0 0.4059159585
H  H64  1  0.35510000  0.13320000  0.78385000  1.0 0.1278924026
H  H65  1  0.43580000  0.15630000  0.86855000  1.0 0.1217863389
H  H66  1  0.67711000  0.21663000  0.83657000  1.0 0.4059159585
H  H67  1  0.02177000  0.46653000  0.95052000  1.0 0.1278924026
H  H68  1  0.10247000  0.48963000  0.53522000  1.0 0.1217863389
H  H69  1  0.34377000  0.54996000  0.50324000  1.0 0.4059159585
H  H70  1  0.68843000  0.79987000  0.61718000  1.0 0.1278924026
H  H71  1  0.76913000  0.82297000  0.70188000  1.0 0.1217863389
H  H72  1  0.01044000  0.88330000  0.66990000  1.0 0.4059159585
H  H73  1  0.86680000  0.22190000  0.78385000  1.0 0.1278924026
H  H74  1  0.84370000  0.27950000  0.86855000  1.0 0.1217863389
H  H75  1  0.78337000  0.46048000  0.83657000  1.0 0.4059159585
H  H76  1  0.53347000  0.55523000  0.95052000  1.0 0.1278924026
H  H77  1  0.51037000  0.61283000  0.53522000  1.0 0.1217863389
H  H78  1  0.45004000  0.79381000  0.50324000  1.0 0.4059159585
H  H79  1  0.20013000  0.88857000  0.61718000  1.0 0.1278924026
H  H80  1  0.17703000  0.94617000  0.70188000  1.0 0.1217863389
H  H81  1  0.11670000  0.12714000  0.66990000  1.0 0.4059159585
H  H82  1  0.22190000  0.35510000  0.71615000  1.0 0.1278924026
H  H83  1  0.27950000  0.43580000  0.63145000  1.0 0.1217863389
H  H84  1  0.46048000  0.67711000  0.66343000  1.0 0.4059159585
H  H85  1  0.88857000  0.68843000  0.88282000  1.0 0.1278924026
H  H86  1  0.94617000  0.76913000  0.79812000  1.0 0.1217863389
H  H87  1  0.12714000  0.01044000  0.83010000  1.0 0.4059159585
H  H88  1  0.55523000  0.02177000  0.54948000  1.0 0.1278924026
H  H89  1  0.61283000  0.10247000  0.96478000  1.0 0.1217863389
H  H90  1  0.79381000  0.34377000  0.99676000  1.0 0.4059159585
H  H91  1  0.64490000  0.86680000  0.71615000  1.0 0.1278924026
H  H92  1  0.56420000  0.84370000  0.63145000  1.0 0.1217863389
H  H93  1  0.32289000  0.78337000  0.66343000  1.0 0.4059159585
H  H94  1  0.31157000  0.20013000  0.88282000  1.0 0.1278924026
H  H95  1  0.23087000  0.17703000  0.79812000  1.0 0.1217863389
H  H96  1  0.98956000  0.11670000  0.83010000  1.0 0.4059159585
H  H97  1  0.97823000  0.53347000  0.54948000  1.0 0.1278924026
H  H98  1  0.89753000  0.51037000  0.96478000  1.0 0.1217863389
H  H99  1  0.65623000  0.45004000  0.99676000  1.0 0.4059159585
H  H100  1  0.13320000  0.77810000  0.71615000  1.0 0.1278924026
H  H101  1  0.15630000  0.72050000  0.63145000  1.0 0.1217863389
H  H102  1  0.21663000  0.53952000  0.66343000  1.0 0.4059159585
H  H103  1  0.79987000  0.11143000  0.88282000  1.0 0.1278924026
H  H104  1  0.82297000  0.05383000  0.79812000  1.0 0.1217863389
H  H105  1  0.88330000  0.87286000  0.83010000  1.0 0.4059159585
H  H106  1  0.46653000  0.44477000  0.54948000  1.0 0.1278924026
H  H107  1  0.48963000  0.38717000  0.96478000  1.0 0.1217863389
H  H108  1  0.54996000  0.20619000  0.99676000  1.0 0.4059159585
C  C1  1  0.77160000  0.55520000  0.13520000  1.0 -0.0927366847
C  C2  1  0.76750000  0.60970000  0.25800000  1.0 -0.0455345782
C  C3  1  0.79460000  0.55720000  0.03795000  1.0 0.5651676003
C  C4  1  0.73340000  0.56110000  0.30850000  1.0 0.0952817081
C  C5  1  0.73860000  0.50590000  0.18795000  1.0 0.4452889987
C  C6  1  0.43827000  0.88853000  0.30187000  1.0 -0.0927366847
C  C7  1  0.43417000  0.94303000  0.42467000  1.0 -0.0455345782
C  C8  1  0.46127000  0.89053000  0.20462000  1.0 0.5651676003
C  C9  1  0.40007000  0.89443000  0.47517000  1.0 0.0952817081
C  C10  1  0.40527000  0.83923000  0.35462000  1.0 0.4452889987
C  C11  1  0.10493000  0.22187000  0.46853000  1.0 -0.0927366847
C  C12  1  0.10083000  0.27637000  0.09133000  1.0 -0.0455345782
C  C13  1  0.12793000  0.22387000  0.37128000  1.0 0.5651676003
C  C14  1  0.06673000  0.22777000  0.14183000  1.0 0.0952817081
C  C15  1  0.07193000  0.17257000  0.02128000  1.0 0.4449516662
C  C16  1  0.44480000  0.21640000  0.13520000  1.0 -0.0927366847
C  C17  1  0.39030000  0.15780000  0.25800000  1.0 -0.0455345782
C  C18  1  0.44280000  0.23740000  0.03795000  1.0 0.5651676003
C  C19  1  0.43890000  0.17230000  0.30850000  1.0 0.0952817081
C  C20  1  0.49410000  0.23270000  0.18795000  1.0 0.4449516662
C  C21  1  0.11147000  0.54973000  0.30187000  1.0 -0.0927366847
C  C22  1  0.05697000  0.49113000  0.42467000  1.0 -0.0455345782
C  C23  1  0.10947000  0.57073000  0.20462000  1.0 0.5651676003
C  C24  1  0.10557000  0.50563000  0.47517000  1.0 0.0952817081
C  C25  1  0.16077000  0.56603000  0.35462000  1.0 0.4449516662
C  C26  1  0.77813000  0.88307000  0.46853000  1.0 -0.0927366847
C  C27  1  0.72363000  0.82447000  0.09133000  1.0 -0.0455345782
C  C28  1  0.77613000  0.90407000  0.37128000  1.0 0.5651676003
C  C29  1  0.77223000  0.83897000  0.14183000  1.0 0.0952817081
C  C30  1  0.82743000  0.89937000  0.02128000  1.0 0.4452889987
C  C31  1  0.78360000  0.22840000  0.13520000  1.0 -0.0927366847
C  C32  1  0.84220000  0.23250000  0.25800000  1.0 -0.0455345782
C  C33  1  0.76260000  0.20540000  0.03795000  1.0 0.5651676003
C  C34  1  0.82770000  0.26660000  0.30850000  1.0 0.0952817081
C  C35  1  0.76730000  0.26140000  0.18795000  1.0 0.4449516662
C  C36  1  0.45027000  0.56173000  0.30187000  1.0 -0.0927366847
C  C37  1  0.50887000  0.56583000  0.42467000  1.0 -0.0455345782
C  C38  1  0.42927000  0.53873000  0.20462000  1.0 0.5651676003
C  C39  1  0.49437000  0.59993000  0.47517000  1.0 0.0952817081
C  C40  1  0.43397000  0.59473000  0.35462000  1.0 0.4449516662
C  C41  1  0.11693000  0.89507000  0.46853000  1.0 -0.0927366847
C  C42  1  0.17553000  0.89917000  0.09133000  1.0 -0.0455345782
C  C43  1  0.09593000  0.87207000  0.37128000  1.0 0.5651676003
C  C44  1  0.16103000  0.93327000  0.14183000  1.0 0.0952817081
C  C45  1  0.10063000  0.92807000  0.02128000  1.0 0.4452889987
C  C46  1  0.22840000  0.44480000  0.36480000  1.0 -0.0927366847
C  C47  1  0.23250000  0.39030000  0.24200000  1.0 -0.0455345782
C  C48  1  0.20540000  0.44280000  0.46205000  1.0 0.5651676003
C  C49  1  0.26660000  0.43890000  0.19150000  1.0 0.0952817081
C  C50  1  0.26140000  0.49410000  0.31205000  1.0 0.4449516662
C  C51  1  0.89507000  0.77813000  0.03147000  1.0 -0.0927366847
C  C52  1  0.89917000  0.72363000  0.40867000  1.0 -0.0455345782
C  C53  1  0.87207000  0.77613000  0.12872000  1.0 0.5651676003
C  C54  1  0.93327000  0.77223000  0.35817000  1.0 0.0952817081
C  C55  1  0.92807000  0.82743000  0.47872000  1.0 0.4449516662
C  C56  1  0.56173000  0.11147000  0.19813000  1.0 -0.0927366847
C  C57  1  0.56583000  0.05697000  0.07533000  1.0 -0.0455345782
C  C58  1  0.53873000  0.10947000  0.29538000  1.0 0.5651676003
C  C59  1  0.59993000  0.10557000  0.02483000  1.0 0.0952817081
C  C60  1  0.59473000  0.16077000  0.14538000  1.0 0.4449516662
C  C61  1  0.55520000  0.78360000  0.36480000  1.0 -0.0927366847
C  C62  1  0.60970000  0.84220000  0.24200000  1.0 -0.0455345782
C  C63  1  0.55720000  0.76260000  0.46205000  1.0 0.5651676003
C  C64  1  0.56110000  0.82770000  0.19150000  1.0 0.0952817081
C  C65  1  0.50590000  0.76730000  0.31205000  1.0 0.4452889987
C  C66  1  0.22187000  0.11693000  0.03147000  1.0 -0.0927366847
C  C67  1  0.27637000  0.17553000  0.40867000  1.0 -0.0455345782
C  C68  1  0.22387000  0.09593000  0.12872000  1.0 0.5651676003
C  C69  1  0.22777000  0.16103000  0.35817000  1.0 0.0952817081
C  C70  1  0.17257000  0.10063000  0.47872000  1.0 0.4449516662
C  C71  1  0.88853000  0.45027000  0.19813000  1.0 -0.0927366847
C  C72  1  0.94303000  0.50887000  0.07533000  1.0 -0.0455345782
C  C73  1  0.89053000  0.42927000  0.29538000  1.0 0.5651676003
C  C74  1  0.89443000  0.49437000  0.02483000  1.0 0.0952817081
C  C75  1  0.83923000  0.43397000  0.14538000  1.0 0.4452889987
C  C76  1  0.21640000  0.77160000  0.36480000  1.0 -0.0927366847
C  C77  1  0.15780000  0.76750000  0.24200000  1.0 -0.0455345782
C  C78  1  0.23740000  0.79460000  0.46205000  1.0 0.5651676003
C  C79  1  0.17230000  0.73340000  0.19150000  1.0 0.0952817081
C  C80  1  0.23270000  0.73860000  0.31205000  1.0 0.4452889987
C  C81  1  0.88307000  0.10493000  0.03147000  1.0 -0.0927366847
C  C82  1  0.82447000  0.10083000  0.40867000  1.0 -0.0455345782
C  C83  1  0.90407000  0.12793000  0.12872000  1.0 0.5651676003
C  C84  1  0.83897000  0.06673000  0.35817000  1.0 0.0952817081
C  C85  1  0.89937000  0.07193000  0.47872000  1.0 0.4449516662
C  C86  1  0.54973000  0.43827000  0.19813000  1.0 -0.0927366847
C  C87  1  0.49113000  0.43417000  0.07533000  1.0 -0.0455345782
C  C88  1  0.57073000  0.46127000  0.29538000  1.0 0.5651676003
C  C89  1  0.50563000  0.40007000  0.02483000  1.0 0.0952817081
C  C90  1  0.56603000  0.40527000  0.14538000  1.0 0.4449516662
C  C91  1  0.77160000  0.55520000  0.63520000  1.0 -0.0927366847
C  C92  1  0.76750000  0.60970000  0.75800000  1.0 -0.0455345782
C  C93  1  0.79460000  0.55720000  0.53795000  1.0 0.5651676003
C  C94  1  0.73340000  0.56110000  0.80850000  1.0 0.0952817081
C  C95  1  0.73860000  0.50590000  0.68795000  1.0 0.4449516662
C  C96  1  0.43827000  0.88853000  0.80187000  1.0 -0.0927366847
C  C97  1  0.43417000  0.94303000  0.92467000  1.0 -0.0455345782
C  C98  1  0.46127000  0.89053000  0.70462000  1.0 0.5651676003
C  C99  1  0.40007000  0.89443000  0.97517000  1.0 0.0952817081
C  C100  1  0.40527000  0.83923000  0.85462000  1.0 0.4449516662
C  C101  1  0.10493000  0.22187000  0.96853000  1.0 -0.0927366847
C  C102  1  0.10083000  0.27637000  0.59133000  1.0 -0.0455345782
C  C103  1  0.12793000  0.22387000  0.87128000  1.0 0.5651676003
C  C104  1  0.06673000  0.22777000  0.64183000  1.0 0.0952817081
C  C105  1  0.07193000  0.17257000  0.52128000  1.0 0.4449516662
C  C106  1  0.44480000  0.21640000  0.63520000  1.0 -0.0927366847
C  C107  1  0.39030000  0.15780000  0.75800000  1.0 -0.0455345782
C  C108  1  0.44280000  0.23740000  0.53795000  1.0 0.5651676003
C  C109  1  0.43890000  0.17230000  0.80850000  1.0 0.0952817081
C  C110  1  0.49410000  0.23270000  0.68795000  1.0 0.4449516662
C  C111  1  0.11147000  0.54973000  0.80187000  1.0 -0.0927366847
C  C112  1  0.05697000  0.49113000  0.92467000  1.0 -0.0455345782
C  C113  1  0.10947000  0.57073000  0.70462000  1.0 0.5651676003
C  C114  1  0.10557000  0.50563000  0.97517000  1.0 0.0952817081
C  C115  1  0.16077000  0.56603000  0.85462000  1.0 0.4449516662
C  C116  1  0.77813000  0.88307000  0.96853000  1.0 -0.0927366847
C  C117  1  0.72363000  0.82447000  0.59133000  1.0 -0.0455345782
C  C118  1  0.77613000  0.90407000  0.87128000  1.0 0.5651676003
C  C119  1  0.77223000  0.83897000  0.64183000  1.0 0.0952817081
C  C120  1  0.82743000  0.89937000  0.52128000  1.0 0.4449516662
C  C121  1  0.78360000  0.22840000  0.63520000  1.0 -0.0927366847
C  C122  1  0.84220000  0.23250000  0.75800000  1.0 -0.0455345782
C  C123  1  0.76260000  0.20540000  0.53795000  1.0 0.5651676003
C  C124  1  0.82770000  0.26660000  0.80850000  1.0 0.0952817081
C  C125  1  0.76730000  0.26140000  0.68795000  1.0 0.4449516662
C  C126  1  0.45027000  0.56173000  0.80187000  1.0 -0.0927366847
C  C127  1  0.50887000  0.56583000  0.92467000  1.0 -0.0455345782
C  C128  1  0.42927000  0.53873000  0.70462000  1.0 0.5651676003
C  C129  1  0.49437000  0.59993000  0.97517000  1.0 0.0952817081
C  C130  1  0.43397000  0.59473000  0.85462000  1.0 0.4449516662
C  C131  1  0.11693000  0.89507000  0.96853000  1.0 -0.0927366847
C  C132  1  0.17553000  0.89917000  0.59133000  1.0 -0.0455345782
C  C133  1  0.09593000  0.87207000  0.87128000  1.0 0.5651676003
C  C134  1  0.16103000  0.93327000  0.64183000  1.0 0.0952817081
C  C135  1  0.10063000  0.92807000  0.52128000  1.0 0.4449516662
C  C136  1  0.22840000  0.44480000  0.86480000  1.0 -0.0927366847
C  C137  1  0.23250000  0.39030000  0.74200000  1.0 -0.0455345782
C  C138  1  0.20540000  0.44280000  0.96205000  1.0 0.5651676003
C  C139  1  0.26660000  0.43890000  0.69150000  1.0 0.0952817081
C  C140  1  0.26140000  0.49410000  0.81205000  1.0 0.4449516662
C  C141  1  0.89507000  0.77813000  0.53147000  1.0 -0.0927366847
C  C142  1  0.89917000  0.72363000  0.90867000  1.0 -0.0455345782
C  C143  1  0.87207000  0.77613000  0.62872000  1.0 0.5651676003
C  C144  1  0.93327000  0.77223000  0.85817000  1.0 0.0952817081
C  C145  1  0.92807000  0.82743000  0.97872000  1.0 0.4449516662
C  C146  1  0.56173000  0.11147000  0.69813000  1.0 -0.0927366847
C  C147  1  0.56583000  0.05697000  0.57533000  1.0 -0.0455345782
C  C148  1  0.53873000  0.10947000  0.79538000  1.0 0.5651676003
C  C149  1  0.59993000  0.10557000  0.52483000  1.0 0.0952817081
C  C150  1  0.59473000  0.16077000  0.64538000  1.0 0.4449516662
C  C151  1  0.55520000  0.78360000  0.86480000  1.0 -0.0927366847
C  C152  1  0.60970000  0.84220000  0.74200000  1.0 -0.0455345782
C  C153  1  0.55720000  0.76260000  0.96205000  1.0 0.5651676003
C  C154  1  0.56110000  0.82770000  0.69150000  1.0 0.0952817081
C  C155  1  0.50590000  0.76730000  0.81205000  1.0 0.4449516662
C  C156  1  0.22187000  0.11693000  0.53147000  1.0 -0.0927366847
C  C157  1  0.27637000  0.17553000  0.90867000  1.0 -0.0455345782
C  C158  1  0.22387000  0.09593000  0.62872000  1.0 0.5651676003
C  C159  1  0.22777000  0.16103000  0.85817000  1.0 0.0952817081
C  C160  1  0.17257000  0.10063000  0.97872000  1.0 0.4449516662
C  C161  1  0.88853000  0.45027000  0.69813000  1.0 -0.0927366847
C  C162  1  0.94303000  0.50887000  0.57533000  1.0 -0.0455345782
C  C163  1  0.89053000  0.42927000  0.79538000  1.0 0.5651676003
C  C164  1  0.89443000  0.49437000  0.52483000  1.0 0.0952817081
C  C165  1  0.83923000  0.43397000  0.64538000  1.0 0.4449516662
C  C166  1  0.21640000  0.77160000  0.86480000  1.0 -0.0927366847
C  C167  1  0.15780000  0.76750000  0.74200000  1.0 -0.0455345782
C  C168  1  0.23740000  0.79460000  0.96205000  1.0 0.5651676003
C  C169  1  0.17230000  0.73340000  0.69150000  1.0 0.0952817081
C  C170  1  0.23270000  0.73860000  0.81205000  1.0 0.4449516662
C  C171  1  0.88307000  0.10493000  0.53147000  1.0 -0.0927366847
C  C172  1  0.82447000  0.10083000  0.90867000  1.0 -0.0455345782
C  C173  1  0.90407000  0.12793000  0.62872000  1.0 0.5651676003
C  C174  1  0.83897000  0.06673000  0.85817000  1.0 0.0952817081
C  C175  1  0.89937000  0.07193000  0.97872000  1.0 0.4449516662
C  C176  1  0.54973000  0.43827000  0.69813000  1.0 -0.0927366847
C  C177  1  0.49113000  0.43417000  0.57533000  1.0 -0.0455345782
C  C178  1  0.57073000  0.46127000  0.79538000  1.0 0.5651676003
C  C179  1  0.50563000  0.40007000  0.52483000  1.0 0.0952817081
C  C180  1  0.56603000  0.40527000  0.64538000  1.0 0.4449516662
N  N1  1  0.78460000  0.60550000  0.17175000  1.0 -0.2016570143
N  N2  1  0.71850000  0.51020000  0.27570000  1.0 -0.4354361843
N  N3  1  0.45127000  0.93883000  0.33842000  1.0 -0.2016570143
N  N4  1  0.38517000  0.84353000  0.44237000  1.0 -0.4354361843
N  N5  1  0.11793000  0.27217000  0.00508000  1.0 -0.2016570143
N  N6  1  0.05183000  0.17687000  0.10903000  1.0 -0.4354361843
N  N7  1  0.39450000  0.17910000  0.17175000  1.0 -0.2016570143
N  N8  1  0.48980000  0.20830000  0.27570000  1.0 -0.4354361843
N  N9  1  0.06117000  0.51243000  0.33842000  1.0 -0.2016570143
N  N10  1  0.15647000  0.54163000  0.44237000  1.0 -0.4354361843
N  N11  1  0.72783000  0.84577000  0.00508000  1.0 -0.2016570143
N  N12  1  0.82313000  0.87497000  0.10903000  1.0 -0.4354361843
N  N13  1  0.82090000  0.21540000  0.17175000  1.0 -0.2016570143
N  N14  1  0.79170000  0.28150000  0.27570000  1.0 -0.4354361843
N  N15  1  0.48757000  0.54873000  0.33842000  1.0 -0.2016570143
N  N16  1  0.45837000  0.61483000  0.44237000  1.0 -0.4354361843
N  N17  1  0.15423000  0.88207000  0.00508000  1.0 -0.2016570143
N  N18  1  0.12503000  0.94817000  0.10903000  1.0 -0.4354361843
N  N19  1  0.21540000  0.39450000  0.32825000  1.0 -0.2016570143
N  N20  1  0.28150000  0.48980000  0.22430000  1.0 -0.4354361843
N  N21  1  0.88207000  0.72783000  0.49492000  1.0 -0.2016570143
N  N22  1  0.94817000  0.82313000  0.39097000  1.0 -0.4354361843
N  N23  1  0.54873000  0.06117000  0.16158000  1.0 -0.2016570143
N  N24  1  0.61483000  0.15647000  0.05763000  1.0 -0.4354361843
N  N25  1  0.60550000  0.82090000  0.32825000  1.0 -0.2016570143
N  N26  1  0.51020000  0.79170000  0.22430000  1.0 -0.4354361843
N  N27  1  0.27217000  0.15423000  0.49492000  1.0 -0.2016570143
N  N28  1  0.17687000  0.12503000  0.39097000  1.0 -0.4354361843
N  N29  1  0.93883000  0.48757000  0.16158000  1.0 -0.2016570143
N  N30  1  0.84353000  0.45837000  0.05763000  1.0 -0.4354361843
N  N31  1  0.17910000  0.78460000  0.32825000  1.0 -0.2016570143
N  N32  1  0.20830000  0.71850000  0.22430000  1.0 -0.4354361843
N  N33  1  0.84577000  0.11793000  0.49492000  1.0 -0.2016570143
N  N34  1  0.87497000  0.05183000  0.39097000  1.0 -0.4346045427
N  N35  1  0.51243000  0.45127000  0.16158000  1.0 -0.2016570143
N  N36  1  0.54163000  0.38517000  0.05763000  1.0 -0.4354361843
N  N37  1  0.78460000  0.60550000  0.67175000  1.0 -0.2016570143
N  N38  1  0.71850000  0.51020000  0.77570000  1.0 -0.4354361843
N  N39  1  0.45127000  0.93883000  0.83842000  1.0 -0.2016570143
N  N40  1  0.38517000  0.84353000  0.94237000  1.0 -0.4354361843
N  N41  1  0.11793000  0.27217000  0.50508000  1.0 -0.2016570143
N  N42  1  0.05183000  0.17687000  0.60903000  1.0 -0.4354361843
N  N43  1  0.39450000  0.17910000  0.67175000  1.0 -0.2016570143
N  N44  1  0.48980000  0.20830000  0.77570000  1.0 -0.4354361843
N  N45  1  0.06117000  0.51243000  0.83842000  1.0 -0.2016570143
N  N46  1  0.15647000  0.54163000  0.94237000  1.0 -0.4354361843
N  N47  1  0.72783000  0.84577000  0.50508000  1.0 -0.2016570143
N  N48  1  0.82313000  0.87497000  0.60903000  1.0 -0.4354361843
N  N49  1  0.82090000  0.21540000  0.67175000  1.0 -0.2016570143
N  N50  1  0.79170000  0.28150000  0.77570000  1.0 -0.4354361843
N  N51  1  0.48757000  0.54873000  0.83842000  1.0 -0.2016570143
N  N52  1  0.45837000  0.61483000  0.94237000  1.0 -0.4354361843
N  N53  1  0.15423000  0.88207000  0.50508000  1.0 -0.2016570143
N  N54  1  0.12503000  0.94817000  0.60903000  1.0 -0.4354361843
N  N55  1  0.21540000  0.39450000  0.82825000  1.0 -0.2016570143
N  N56  1  0.28150000  0.48980000  0.72430000  1.0 -0.4354361843
N  N57  1  0.88207000  0.72783000  0.99492000  1.0 -0.2016570143
N  N58  1  0.94817000  0.82313000  0.89097000  1.0 -0.4354361843
N  N59  1  0.54873000  0.06117000  0.66158000  1.0 -0.2016570143
N  N60  1  0.61483000  0.15647000  0.55763000  1.0 -0.4354361843
N  N61  1  0.60550000  0.82090000  0.82825000  1.0 -0.2016570143
N  N62  1  0.51020000  0.79170000  0.72430000  1.0 -0.4354361843
N  N63  1  0.27217000  0.15423000  0.99492000  1.0 -0.2016570143
N  N64  1  0.17687000  0.12503000  0.89097000  1.0 -0.4354361843
N  N65  1  0.93883000  0.48757000  0.66158000  1.0 -0.2016570143
N  N66  1  0.84353000  0.45837000  0.55763000  1.0 -0.4354361843
N  N67  1  0.17910000  0.78460000  0.82825000  1.0 -0.2016570143
N  N68  1  0.20830000  0.71850000  0.72430000  1.0 -0.4354361843
N  N69  1  0.84577000  0.11793000  0.99492000  1.0 -0.2016570143
N  N70  1  0.87497000  0.05183000  0.89097000  1.0 -0.4346045427
N  N71  1  0.51243000  0.45127000  0.66158000  1.0 -0.2016570143
N  N72  1  0.54163000  0.38517000  0.55763000  1.0 -0.4354361843
O  O1  1  0.72360000  0.45520000  0.16295000  1.0 -0.6784368494
O  O2  1  0.78250000  0.51290000  0.49455000  1.0 -0.6028499178
O  O3  1  0.82380000  0.60550000  0.00100000  1.0 -0.5295134093
O  O4  1  0.65900000  0.41740000  0.47340000  1.0 -1.0783736943
O  O5  1  0.39027000  0.78853000  0.32962000  1.0 -0.6784368494
O  O6  1  0.44917000  0.84623000  0.16122000  1.0 -0.6028499178
O  O7  1  0.49047000  0.93883000  0.16767000  1.0 -0.5295134093
O  O8  1  0.32567000  0.75073000  0.14007000  1.0 -1.0783736943
O  O9  1  0.05693000  0.12187000  0.49628000  1.0 -0.6784368494
O  O10  1  0.11583000  0.17957000  0.32788000  1.0 -0.6028499178
O  O11  1  0.15713000  0.27217000  0.33433000  1.0 -0.5295134093
O  O12  1  0.99233000  0.08407000  0.30673000  1.0 -1.0783736943
O  O13  1  0.54480000  0.26840000  0.16295000  1.0 -0.6784368494
O  O14  1  0.48710000  0.26960000  0.49455000  1.0 -0.6028499178
O  O15  1  0.39450000  0.21830000  0.00100000  1.0 -0.5295134093
O  O16  1  0.58260000  0.24160000  0.47340000  1.0 -1.0783736943
O  O17  1  0.21147000  0.60173000  0.32962000  1.0 -0.6784368494
O  O18  1  0.15377000  0.60293000  0.16122000  1.0 -0.6028499178
O  O19  1  0.06117000  0.55163000  0.16767000  1.0 -0.5295134093
O  O20  1  0.24927000  0.57493000  0.14007000  1.0 -1.0783736943
O  O21  1  0.87813000  0.93507000  0.49628000  1.0 -0.6784368494
O  O22  1  0.82043000  0.93627000  0.32788000  1.0 -0.6028499178
O  O23  1  0.72783000  0.88497000  0.33433000  1.0 -0.5295134093
O  O24  1  0.91593000  0.90827000  0.30673000  1.0 -1.0783736943
O  O25  1  0.73160000  0.27640000  0.16295000  1.0 -0.6784368494
O  O26  1  0.73040000  0.21750000  0.49455000  1.0 -0.6028499178
O  O27  1  0.78170000  0.17620000  0.00100000  1.0 -0.5295134093
O  O28  1  0.75840000  0.34100000  0.47340000  1.0 -1.0783736943
O  O29  1  0.39827000  0.60973000  0.32962000  1.0 -0.6784368494
O  O30  1  0.39707000  0.55083000  0.16122000  1.0 -0.6028499178
O  O31  1  0.44837000  0.50953000  0.16767000  1.0 -0.5295134093
O  O32  1  0.42507000  0.67433000  0.14007000  1.0 -1.0783736943
O  O33  1  0.06493000  0.94307000  0.49628000  1.0 -0.6784368494
O  O34  1  0.06373000  0.88417000  0.32788000  1.0 -0.6028499178
O  O35  1  0.11503000  0.84287000  0.33433000  1.0 -0.5295134093
O  O36  1  0.09173000  0.00767000  0.30673000  1.0 -1.0783736943
O  O37  1  0.27640000  0.54480000  0.33705000  1.0 -0.6784368494
O  O38  1  0.21750000  0.48710000  0.00545000  1.0 -0.6028499178
O  O39  1  0.17620000  0.39450000  0.49900000  1.0 -0.5295134093
O  O40  1  0.34100000  0.58260000  0.02660000  1.0 -1.0783736943
O  O41  1  0.94307000  0.87813000  0.00372000  1.0 -0.6784368494
O  O42  1  0.88417000  0.82043000  0.17212000  1.0 -0.6028499178
O  O43  1  0.84287000  0.72783000  0.16567000  1.0 -0.5295134093
O  O44  1  0.00767000  0.91593000  0.19327000  1.0 -1.0783736943
O  O45  1  0.60973000  0.21147000  0.17038000  1.0 -0.6784368494
O  O46  1  0.55083000  0.15377000  0.33878000  1.0 -0.6028499178
O  O47  1  0.50953000  0.06117000  0.33233000  1.0 -0.5295134093
O  O48  1  0.67433000  0.24927000  0.35993000  1.0 -1.0783736943
O  O49  1  0.45520000  0.73160000  0.33705000  1.0 -0.6784368494
O  O50  1  0.51290000  0.73040000  0.00545000  1.0 -0.6028499178
O  O51  1  0.60550000  0.78170000  0.49900000  1.0 -0.5295134093
O  O52  1  0.41740000  0.75840000  0.02660000  1.0 -1.0783736943
O  O53  1  0.12187000  0.06493000  0.00372000  1.0 -0.6784368494
O  O54  1  0.17957000  0.06373000  0.17212000  1.0 -0.6028499178
O  O55  1  0.27217000  0.11503000  0.16567000  1.0 -0.5295134093
O  O56  1  0.08407000  0.09173000  0.19327000  1.0 -1.0783736943
O  O57  1  0.78853000  0.39827000  0.17038000  1.0 -0.6784368494
O  O58  1  0.84623000  0.39707000  0.33878000  1.0 -0.6028499178
O  O59  1  0.93883000  0.44837000  0.33233000  1.0 -0.5295134093
O  O60  1  0.75073000  0.42507000  0.35993000  1.0 -1.0783736943
O  O61  1  0.26840000  0.72360000  0.33705000  1.0 -0.6784368494
O  O62  1  0.26960000  0.78250000  0.00545000  1.0 -0.6028499178
O  O63  1  0.21830000  0.82380000  0.49900000  1.0 -0.5295134093
O  O64  1  0.24160000  0.65900000  0.02660000  1.0 -1.0783736943
O  O65  1  0.93507000  0.05693000  0.00372000  1.0 -0.6784368494
O  O66  1  0.93627000  0.11583000  0.17212000  1.0 -0.6028499178
O  O67  1  0.88497000  0.15713000  0.16567000  1.0 -0.5295134093
O  O68  1  0.90827000  0.99233000  0.19327000  1.0 -1.0783736943
O  O69  1  0.60173000  0.39027000  0.17038000  1.0 -0.6784368494
O  O70  1  0.60293000  0.44917000  0.33878000  1.0 -0.6028499178
O  O71  1  0.55163000  0.49047000  0.33233000  1.0 -0.5295134093
O  O72  1  0.57493000  0.32567000  0.35993000  1.0 -1.0783736943
O  O73  1  0.66666667  0.33333333  0.41667000  1.0 -0.7815152478
O  O74  1  0.00000000  0.00000000  0.25000000  1.0 -0.7815152478
O  O75  1  0.33333333  0.66666667  0.08333000  1.0 -0.7815152478
O  O76  1  0.66666667  0.33333333  0.07700000  1.0 -0.9954638653
O  O77  1  0.33333333  0.66666667  0.24367000  1.0 -0.9954638653
O  O78  1  0.00000000  0.00000000  0.41033000  1.0 -0.9954638653
O  O79  1  0.33333333  0.66666667  0.42300000  1.0 -0.9954638653
O  O80  1  0.00000000  0.00000000  0.08967000  1.0 -0.9954638653
O  O81  1  0.66666667  0.33333333  0.25633000  1.0 -0.9954638653
O  O82  1  0.72360000  0.45520000  0.66295000  1.0 -0.6784368494
O  O83  1  0.78250000  0.51290000  0.99455000  1.0 -0.6028499178
O  O84  1  0.82380000  0.60550000  0.50100000  1.0 -0.5295134093
O  O85  1  0.65900000  0.41740000  0.97340000  1.0 -1.0783736943
O  O86  1  0.39027000  0.78853000  0.82962000  1.0 -0.6784368494
O  O87  1  0.44917000  0.84623000  0.66122000  1.0 -0.6028499178
O  O88  1  0.49047000  0.93883000  0.66767000  1.0 -0.5295134093
O  O89  1  0.32567000  0.75073000  0.64007000  1.0 -1.0783736943
O  O90  1  0.05693000  0.12187000  0.99628000  1.0 -0.6784368494
O  O91  1  0.11583000  0.17957000  0.82788000  1.0 -0.6028499178
O  O92  1  0.15713000  0.27217000  0.83433000  1.0 -0.5295134093
O  O93  1  0.99233000  0.08407000  0.80673000  1.0 -1.0783736943
O  O94  1  0.54480000  0.26840000  0.66295000  1.0 -0.6784368494
O  O95  1  0.48710000  0.26960000  0.99455000  1.0 -0.6028499178
O  O96  1  0.39450000  0.21830000  0.50100000  1.0 -0.5295134093
O  O97  1  0.58260000  0.24160000  0.97340000  1.0 -1.0783736943
O  O98  1  0.21147000  0.60173000  0.82962000  1.0 -0.6784368494
O  O99  1  0.15377000  0.60293000  0.66122000  1.0 -0.6028499178
O  O100  1  0.06117000  0.55163000  0.66767000  1.0 -0.5295134093
O  O101  1  0.24927000  0.57493000  0.64007000  1.0 -1.0783736943
O  O102  1  0.87813000  0.93507000  0.99628000  1.0 -0.6784368494
O  O103  1  0.82043000  0.93627000  0.82788000  1.0 -0.6028499178
O  O104  1  0.72783000  0.88497000  0.83433000  1.0 -0.5295134093
O  O105  1  0.91593000  0.90827000  0.80673000  1.0 -1.0783736943
O  O106  1  0.73160000  0.27640000  0.66295000  1.0 -0.6784368494
O  O107  1  0.73040000  0.21750000  0.99455000  1.0 -0.6028499178
O  O108  1  0.78170000  0.17620000  0.50100000  1.0 -0.5295134093
O  O109  1  0.75840000  0.34100000  0.97340000  1.0 -1.0783736943
O  O110  1  0.39827000  0.60973000  0.82962000  1.0 -0.6784368494
O  O111  1  0.39707000  0.55083000  0.66122000  1.0 -0.6028499178
O  O112  1  0.44837000  0.50953000  0.66767000  1.0 -0.5295134093
O  O113  1  0.42507000  0.67433000  0.64007000  1.0 -1.0783736943
O  O114  1  0.06493000  0.94307000  0.99628000  1.0 -0.6784368494
O  O115  1  0.06373000  0.88417000  0.82788000  1.0 -0.6028499178
O  O116  1  0.11503000  0.84287000  0.83433000  1.0 -0.5295134093
O  O117  1  0.09173000  0.00767000  0.80673000  1.0 -1.0783736943
O  O118  1  0.27640000  0.54480000  0.83705000  1.0 -0.6784368494
O  O119  1  0.21750000  0.48710000  0.50545000  1.0 -0.6028499178
O  O120  1  0.17620000  0.39450000  0.99900000  1.0 -0.5295134093
O  O121  1  0.34100000  0.58260000  0.52660000  1.0 -1.0783736943
O  O122  1  0.94307000  0.87813000  0.50372000  1.0 -0.6784368494
O  O123  1  0.88417000  0.82043000  0.67212000  1.0 -0.6028499178
O  O124  1  0.84287000  0.72783000  0.66567000  1.0 -0.5295134093
O  O125  1  0.00767000  0.91593000  0.69327000  1.0 -1.0783736943
O  O126  1  0.60973000  0.21147000  0.67038000  1.0 -0.6784368494
O  O127  1  0.55083000  0.15377000  0.83878000  1.0 -0.6028499178
O  O128  1  0.50953000  0.06117000  0.83233000  1.0 -0.5295134093
O  O129  1  0.67433000  0.24927000  0.85993000  1.0 -1.0783736943
O  O130  1  0.45520000  0.73160000  0.83705000  1.0 -0.6784368494
O  O131  1  0.51290000  0.73040000  0.50545000  1.0 -0.6028499178
O  O132  1  0.60550000  0.78170000  0.99900000  1.0 -0.5295134093
O  O133  1  0.41740000  0.75840000  0.52660000  1.0 -1.0783736943
O  O134  1  0.12187000  0.06493000  0.50372000  1.0 -0.6784368494
O  O135  1  0.17957000  0.06373000  0.67212000  1.0 -0.6028499178
O  O136  1  0.27217000  0.11503000  0.66567000  1.0 -0.5295134093
O  O137  1  0.08407000  0.09173000  0.69327000  1.0 -1.0783736943
O  O138  1  0.78853000  0.39827000  0.67038000  1.0 -0.6784368494
O  O139  1  0.84623000  0.39707000  0.83878000  1.0 -0.6028499178
O  O140  1  0.93883000  0.44837000  0.83233000  1.0 -0.5295134093
O  O141  1  0.75073000  0.42507000  0.85993000  1.0 -1.0783736943
O  O142  1  0.26840000  0.72360000  0.83705000  1.0 -0.6784368494
O  O143  1  0.26960000  0.78250000  0.50545000  1.0 -0.6028499178
O  O144  1  0.21830000  0.82380000  0.99900000  1.0 -0.5295134093
O  O145  1  0.24160000  0.65900000  0.52660000  1.0 -1.0783736943
O  O146  1  0.93507000  0.05693000  0.50372000  1.0 -0.6784368494
O  O147  1  0.93627000  0.11583000  0.67212000  1.0 -0.6028499178
O  O148  1  0.88497000  0.15713000  0.66567000  1.0 -0.5295134093
O  O149  1  0.90827000  0.99233000  0.69327000  1.0 -1.0783736943
O  O150  1  0.60173000  0.39027000  0.67038000  1.0 -0.6784368494
O  O151  1  0.60293000  0.44917000  0.83878000  1.0 -0.6028499178
O  O152  1  0.55163000  0.49047000  0.83233000  1.0 -0.5295134093
O  O153  1  0.57493000  0.32567000  0.85993000  1.0 -1.0783736943
O  O154  1  0.66666667  0.33333333  0.91667000  1.0 -0.7815152478
O  O155  1  0.00000000  0.00000000  0.75000000  1.0 -0.7815152478
O  O156  1  0.33333333  0.66666667  0.58333000  1.0 -0.7815152478
O  O157  1  0.66666667  0.33333333  0.57700000  1.0 -0.9954638653
O  O158  1  0.33333333  0.66666667  0.74367000  1.0 -0.9954638653
O  O159  1  0.00000000  0.00000000  0.91033000  1.0 -0.9954638653
O  O160  1  0.33333333  0.66666667  0.92300000  1.0 -0.9954638653
O  O161  1  0.00000000  0.00000000  0.58967000  1.0 -0.9954638653
O  O162  1  0.66666667  0.33333333  0.75633000  1.0 -0.9954638653
